REMARK SMILES C[C@@H]([C@H]1CC=CS1)n1nccc1NC(=O)CC1(CC(=O)NCCCNC(=O)c2ccc(-c3c4nc(c(-c5ccccc5)c5ccc([nH]5)c(-c5ccccc5)c5nc(c(-c6ccccc6)c6ccc3[nH]6)C=C5)C=C4)cc2)CCCCC1
REMARK SMILES IDX 19 1 20 2 21 3 18 5 17 6 76 7 80 8 77 9 79 10 78 11 16 12
REMARK SMILES IDX 14 13 13 14 15 16 12 17 8 18 9 19 10 20 11 21 2 22 1 23 3 24
REMARK SMILES IDX 4 25 7 26 5 27 6 28 22 29 23 30 24 31 25 32 26 33 27 35
REMARK SMILES IDX 28 36 29 37 75 38 30 39 74 40 31 41 32 42 33 43 68 44 34 45
REMARK SMILES IDX 73 46 67 47 69 48 35 49 72 50 66 51 65 52 36 54 58 55 43 56
REMARK SMILES IDX 57 57 44 58 47 59 56 60 70 61 45 62 46 63 55 65 71 66 48 67
REMARK SMILES IDX 37 68 38 69 42 70 39 71 41 72 40 73 59 74 60 75 64 76 61 77
REMARK SMILES IDX 63 78 62 79 49 80 50 81 54 82 51 83 53 84 52 85
REMARK H PARENT 21 4 13 15 25 34 69 53 47 64
REMARK Flexibility Score: inf
ROOT
ATOM      1  C   UNL     1       1.522   6.948  -2.888  1.00  0.00     0.220 C 
ATOM      2  O   UNL     1       0.526   6.926  -3.611  1.00  0.00    -0.275 OA
ATOM      3  N   UNL     1       2.161   8.133  -2.718  1.00  0.00    -0.356 N 
ATOM      4  H   UNL     1       1.775   8.889  -3.216  1.00  0.00     0.163 HD
ENDROOT
BRANCH   1   5
ATOM      5  C   UNL     1       2.016   5.671  -2.223  1.00  0.00     0.107 C 
BRANCH   5   6
ATOM      6  C   UNL     1       3.027   4.779  -3.009  1.00  0.00    -0.012 C 
ATOM      7  C   UNL     1       3.087   3.400  -2.295  1.00  0.00     0.008 C 
ATOM      8  C   UNL     1       4.499   5.262  -2.992  1.00  0.00     0.008 C 
ATOM      9  C   UNL     1       3.752   3.397  -0.910  1.00  0.00     0.001 C 
ATOM     10  C   UNL     1       5.130   5.364  -1.608  1.00  0.00     0.001 C 
ATOM     11  C   UNL     1       5.154   3.998  -0.949  1.00  0.00     0.000 C 
BRANCH   6  12
ATOM     12  C   UNL     1       2.639   4.719  -4.529  1.00  0.00     0.108 C 
BRANCH  12  13
ATOM     13  C   UNL     1       1.399   3.959  -4.952  1.00  0.00     0.226 C 
ATOM     14  N   UNL     1       1.361   2.530  -4.975  1.00  0.00    -0.311 N 
ATOM     15  H   UNL     1       0.483   2.113  -5.137  1.00  0.00     0.171 HD
ATOM     16  O   UNL     1       0.355   4.481  -5.282  1.00  0.00    -0.275 OA
BRANCH  14  17
ATOM     17  C   UNL     1       2.428   1.676  -4.794  1.00  0.00     0.131 A 
ATOM     18  N   UNL     1       2.410   0.464  -4.132  1.00  0.00    -0.246 N 
ATOM     19  N   UNL     1       3.648  -0.036  -3.963  1.00  0.00    -0.179 NA
ATOM     20  C   UNL     1       4.443   0.793  -4.631  1.00  0.00     0.137 A 
ATOM     21  C   UNL     1       3.723   1.831  -5.242  1.00  0.00     0.068 A 
BRANCH  18  22
ATOM     22  C   UNL     1       1.239  -0.379  -3.881  1.00  0.00     0.120 C 
ATOM     23  C   UNL     1       1.156  -1.375  -5.039  1.00  0.00     0.034 C 
BRANCH  22  24
ATOM     24  C   UNL     1       1.095  -0.977  -2.452  1.00  0.00     0.079 C 
ATOM     25  C   UNL     1      -0.045  -2.018  -2.323  1.00  0.00     0.045 C 
ATOM     26  S   UNL     1       2.533  -1.826  -1.676  1.00  0.00    -0.128 SA
ATOM     27  C   UNL     1       0.267  -2.923  -1.171  1.00  0.00    -0.019 C 
ATOM     28  C   UNL     1       1.539  -2.904  -0.766  1.00  0.00     0.037 C 
ENDBRANCH  22  24
ENDBRANCH  18  22
ENDBRANCH  14  17
ENDBRANCH  12  13
ENDBRANCH   6  12
ENDBRANCH   5   6
ENDBRANCH   1   5
BRANCH   3  29
ATOM     29  C   UNL     1       3.329   8.457  -1.917  1.00  0.00     0.117 C 
BRANCH  29  30
ATOM     30  C   UNL     1       4.602   8.478  -2.763  1.00  0.00     0.042 C 
BRANCH  30  31
ATOM     31  C   UNL     1       5.026   9.855  -3.177  1.00  0.00     0.118 C 
BRANCH  31  32
ATOM     32  N   UNL     1       5.612  10.666  -2.110  1.00  0.00    -0.352 N 
ATOM     33  C   UNL     1       6.167  11.941  -2.243  1.00  0.00     0.251 C 
ATOM     34  H   UNL     1       5.615  10.274  -1.207  1.00  0.00     0.163 HD
ATOM     35  O   UNL     1       6.917  12.406  -1.405  1.00  0.00    -0.269 OA
BRANCH  33  36
ATOM     36  C   UNL     1       5.788  12.709  -3.447  1.00  0.00     0.039 A 
ATOM     37  C   UNL     1       6.667  13.434  -4.254  1.00  0.00     0.014 A 
ATOM     38  C   UNL     1       4.491  12.499  -3.856  1.00  0.00     0.014 A 
ATOM     39  C   UNL     1       6.190  13.888  -5.488  1.00  0.00     0.010 A 
ATOM     40  C   UNL     1       4.302  12.438  -5.193  1.00  0.00     0.010 A 
ATOM     41  C   UNL     1       4.968  13.380  -5.937  1.00  0.00    -0.014 A 
BRANCH  41  42
ATOM     42  C   UNL     1       4.287  13.708  -7.178  1.00  0.00     0.031 A 
ATOM     43  C   UNL     1       5.032  13.337  -8.398  1.00  0.00     0.074 A 
ATOM     44  C   UNL     1       2.956  13.983  -7.182  1.00  0.00     0.049 A 
ATOM     45  N   UNL     1       5.550  14.129  -9.272  1.00  0.00    -0.248 NA
ATOM     46  C   UNL     1       5.376  11.917  -8.594  1.00  0.00     0.031 C 
ATOM     47  C   UNL     1       2.006  14.012  -6.050  1.00  0.00     0.029 A 
ATOM     48  N   UNL     1       2.126  14.162  -8.239  1.00  0.00    -0.354 N 
ATOM     49  C   UNL     1       6.099  13.305 -10.246  1.00  0.00     0.074 A 
ATOM     50  C   UNL     1       6.161  11.986  -9.671  1.00  0.00     0.031 C 
ATOM     51  C   UNL     1       0.736  13.949  -6.508  1.00  0.00     0.029 A 
ATOM     52  C   UNL     1       0.768  14.063  -7.952  1.00  0.00     0.049 A 
ATOM     53  H   UNL     1       2.461  14.349  -9.146  1.00  0.00     0.167 HD
ATOM     54  C   UNL     1       6.192  13.708 -11.543  1.00  0.00     0.031 A 
ATOM     55  C   UNL     1      -0.252  14.054  -8.847  1.00  0.00     0.031 A 
ATOM     56  C   UNL     1       5.939  15.122 -11.675  1.00  0.00     0.049 A 
ATOM     57  C   UNL     1       0.286  14.615 -10.110  1.00  0.00     0.074 A 
ATOM     58  C   UNL     1       6.530  16.265 -11.175  1.00  0.00     0.029 A 
ATOM     59  N   UNL     1       4.669  15.492 -12.056  1.00  0.00    -0.354 N 
ATOM     60  N   UNL     1       0.697  15.847 -10.220  1.00  0.00    -0.248 NA
ATOM     61  C   UNL     1       0.845  13.682 -11.077  1.00  0.00     0.031 C 
ATOM     62  C   UNL     1       5.438  17.113 -10.821  1.00  0.00     0.029 A 
ATOM     63  C   UNL     1       4.252  16.484 -11.205  1.00  0.00     0.049 A 
ATOM     64  H   UNL     1       4.153  15.113 -12.804  1.00  0.00     0.167 HD
ATOM     65  C   UNL     1       1.870  15.767 -10.959  1.00  0.00     0.074 A 
ATOM     66  C   UNL     1       1.864  14.419 -11.531  1.00  0.00     0.031 C 
ATOM     67  C   UNL     1       2.878  16.676 -10.789  1.00  0.00     0.031 A 
BRANCH  54  68
ATOM     68  C   UNL     1       6.085  12.772 -12.719  1.00  0.00    -0.014 A 
ATOM     69  C   UNL     1       6.291  13.289 -14.010  1.00  0.00     0.009 A 
ATOM     70  C   UNL     1       5.529  11.481 -12.636  1.00  0.00     0.009 A 
ATOM     71  C   UNL     1       5.897  12.577 -15.149  1.00  0.00     0.001 A 
ATOM     72  C   UNL     1       5.173  10.751 -13.772  1.00  0.00     0.001 A 
ATOM     73  C   UNL     1       5.331  11.312 -15.029  1.00  0.00     0.000 A 
ENDBRANCH  54  68
BRANCH  55  74
ATOM     74  C   UNL     1      -1.530  13.305  -8.781  1.00  0.00    -0.014 A 
ATOM     75  C   UNL     1      -2.621  13.643  -9.598  1.00  0.00     0.009 A 
ATOM     76  C   UNL     1      -1.587  12.073  -8.101  1.00  0.00     0.009 A 
ATOM     77  C   UNL     1      -3.708  12.767  -9.753  1.00  0.00     0.001 A 
ATOM     78  C   UNL     1      -2.670  11.198  -8.257  1.00  0.00     0.001 A 
ATOM     79  C   UNL     1      -3.724  11.539  -9.095  1.00  0.00     0.000 A 
ENDBRANCH  55  74
BRANCH  67  80
ATOM     80  C   UNL     1       2.613  17.864  -9.888  1.00  0.00    -0.014 A 
ATOM     81  C   UNL     1       2.386  17.747  -8.503  1.00  0.00     0.009 A 
ATOM     82  C   UNL     1       2.772  19.149 -10.421  1.00  0.00     0.009 A 
ATOM     83  C   UNL     1       2.301  18.880  -7.685  1.00  0.00     0.001 A 
ATOM     84  C   UNL     1       2.704  20.281  -9.603  1.00  0.00     0.001 A 
ATOM     85  C   UNL     1       2.466  20.148  -8.236  1.00  0.00     0.000 A 
ENDBRANCH  67  80
ENDBRANCH  41  42
ENDBRANCH  33  36
ENDBRANCH  31  32
ENDBRANCH  30  31
ENDBRANCH  29  30
ENDBRANCH   3  29
TORSDOF 16
