REMARK SMILES O=C(COc1ccccc1/C=C1\C(=O)Nc2ccccc21)NCCCNC(=O)c1ccc(-c2c3nc(c(-c4ccccc4)c4ccc([nH]4)c(-c4ccccc4)c4nc(c(-c5ccccc5)c5ccc2[nH]5)C=C4)C=C3)cc1
REMARK SMILES IDX 23 1 22 2 1 3 2 4 3 6 4 7 5 8 6 9 10 10 7 11 9 12 8 13 11 14
REMARK SMILES IDX 12 15 13 16 21 17 14 18 15 19 16 20 20 21 17 23 19 24 18 25
REMARK SMILES IDX 24 26 25 27 26 28 27 29 28 31 29 32 30 33 76 34 31 35 75 36
REMARK SMILES IDX 32 37 33 38 34 39 69 40 35 41 74 42 68 43 70 44 36 45 73 46
REMARK SMILES IDX 67 47 66 48 37 50 59 51 44 52 58 53 45 54 48 55 57 56 71 57
REMARK SMILES IDX 46 58 47 59 56 61 72 62 49 63 38 64 39 65 43 66 40 67 42 68
REMARK SMILES IDX 41 69 60 70 61 71 65 72 62 73 64 74 63 75 50 76 51 77 55 78
REMARK SMILES IDX 52 79 54 80 53 81
REMARK H PARENT 22 5 15 22 26 30 70 49 48 60
REMARK Flexibility Score: inf
ROOT
ATOM      1  C   UNL     1       2.074   1.067  -2.250  1.00  0.00     0.117 C 
ENDROOT
BRANCH   1   2
ATOM      2  N   UNL     1       2.740   0.828  -0.998  1.00  0.00    -0.353 N 
ATOM      3  O   UNL     1       1.001   1.409   0.403  1.00  0.00    -0.271 OA
ATOM      4  C   UNL     1       2.017   0.760   0.186  1.00  0.00     0.257 C 
ATOM      5  H   UNL     1       3.717   0.710  -0.980  1.00  0.00     0.163 HD
BRANCH   4   6
ATOM      6  C   UNL     1       2.593  -0.255   1.167  1.00  0.00     0.329 C 
BRANCH   6   7
ATOM      7  O   UNL     1       3.179  -1.260   0.327  1.00  0.00    -0.483 OA
BRANCH   7   8
ATOM      8  C   UNL     1       2.792  -2.542   0.614  1.00  0.00     0.127 A 
ATOM      9  C   UNL     1       3.482  -3.179   1.654  1.00  0.00     0.047 A 
ATOM     10  C   UNL     1       1.938  -3.254  -0.261  1.00  0.00     0.017 A 
ATOM     11  C   UNL     1       3.382  -4.556   1.809  1.00  0.00     0.004 A 
ATOM     12  C   UNL     1       1.961  -4.648  -0.149  1.00  0.00     0.012 A 
ATOM     13  C   UNL     1       2.652  -5.293   0.884  1.00  0.00     0.001 A 
BRANCH  10  14
ATOM     14  C   UNL     1       1.106  -2.575  -1.295  1.00  0.00     0.026 C 
ATOM     15  C   UNL     1      -0.109  -2.894  -1.796  1.00  0.00     0.050 C 
ATOM     16  C   UNL     1      -0.994  -4.082  -1.463  1.00  0.00     0.256 C 
ATOM     17  C   UNL     1      -0.880  -2.103  -2.790  1.00  0.00     0.011 A 
ATOM     18  O   UNL     1      -0.822  -4.979  -0.657  1.00  0.00    -0.269 OA
ATOM     19  N   UNL     1      -2.109  -3.957  -2.270  1.00  0.00    -0.321 N 
ATOM     20  C   UNL     1      -2.069  -2.797  -3.024  1.00  0.00     0.049 A 
ATOM     21  C   UNL     1      -0.683  -0.900  -3.443  1.00  0.00     0.011 A 
ATOM     22  H   UNL     1      -2.842  -4.613  -2.304  1.00  0.00     0.170 HD
ATOM     23  C   UNL     1      -3.064  -2.344  -3.873  1.00  0.00     0.027 A 
ATOM     24  C   UNL     1      -1.683  -0.399  -4.290  1.00  0.00     0.001 A 
ATOM     25  C   UNL     1      -2.866  -1.117  -4.504  1.00  0.00     0.002 A 
ENDBRANCH  10  14
ENDBRANCH   7   8
ENDBRANCH   6   7
ENDBRANCH   4   6
ENDBRANCH   1   2
BRANCH   1  26
ATOM     26  C   UNL     1       2.659   2.154  -3.112  1.00  0.00     0.042 C 
BRANCH  26  27
ATOM     27  C   UNL     1       4.120   1.939  -3.464  1.00  0.00     0.118 C 
BRANCH  27  28
ATOM     28  N   UNL     1       4.378   0.802  -4.348  1.00  0.00    -0.352 N 
ATOM     29  C   UNL     1       5.013   0.773  -5.573  1.00  0.00     0.251 C 
ATOM     30  H   UNL     1       4.053  -0.067  -4.021  1.00  0.00     0.163 HD
ATOM     31  O   UNL     1       5.096  -0.271  -6.210  1.00  0.00    -0.269 OA
BRANCH  29  32
ATOM     32  C   UNL     1       5.544   2.031  -6.139  1.00  0.00     0.039 A 
ATOM     33  C   UNL     1       5.209   2.386  -7.448  1.00  0.00     0.014 A 
ATOM     34  C   UNL     1       6.278   2.904  -5.338  1.00  0.00     0.014 A 
ATOM     35  C   UNL     1       5.502   3.673  -7.907  1.00  0.00     0.010 A 
ATOM     36  C   UNL     1       6.454   4.217  -5.749  1.00  0.00     0.010 A 
ATOM     37  C   UNL     1       6.064   4.620  -7.036  1.00  0.00    -0.014 A 
BRANCH  37  38
ATOM     38  C   UNL     1       6.272   6.038  -7.427  1.00  0.00     0.031 A 
ATOM     39  C   UNL     1       7.655   6.627  -7.361  1.00  0.00     0.074 A 
ATOM     40  C   UNL     1       5.218   6.825  -7.723  1.00  0.00     0.049 A 
ATOM     41  N   UNL     1       8.031   7.875  -7.479  1.00  0.00    -0.248 NA
ATOM     42  C   UNL     1       8.757   5.692  -7.078  1.00  0.00     0.031 C 
ATOM     43  C   UNL     1       3.818   6.396  -7.780  1.00  0.00     0.029 A 
ATOM     44  N   UNL     1       5.163   8.166  -8.015  1.00  0.00    -0.354 N 
ATOM     45  C   UNL     1       9.399   7.876  -7.241  1.00  0.00     0.074 A 
ATOM     46  C   UNL     1       9.778   6.518  -6.921  1.00  0.00     0.031 C 
ATOM     47  C   UNL     1       3.048   7.446  -8.114  1.00  0.00     0.029 A 
ATOM     48  C   UNL     1       3.890   8.630  -8.245  1.00  0.00     0.049 A 
ATOM     49  H   UNL     1       5.961   8.741  -8.056  1.00  0.00     0.167 HD
ATOM     50  C   UNL     1      10.270   8.910  -7.304  1.00  0.00     0.031 A 
ATOM     51  C   UNL     1       3.448   9.873  -8.517  1.00  0.00     0.031 A 
ATOM     52  C   UNL     1       9.903  10.252  -7.662  1.00  0.00     0.049 A 
ATOM     53  C   UNL     1       4.436  11.003  -8.598  1.00  0.00     0.074 A 
ATOM     54  C   UNL     1      10.721  11.357  -7.820  1.00  0.00     0.029 A 
ATOM     55  N   UNL     1       8.608  10.668  -7.928  1.00  0.00    -0.354 N 
ATOM     56  N   UNL     1       5.735  10.979  -8.420  1.00  0.00    -0.248 NA
ATOM     57  C   UNL     1       3.897  12.332  -8.925  1.00  0.00     0.031 C 
ATOM     58  C   UNL     1       9.915  12.452  -8.146  1.00  0.00     0.029 A 
ATOM     59  C   UNL     1       8.603  12.016  -8.239  1.00  0.00     0.049 A 
ATOM     60  H   UNL     1       7.811  10.091  -7.900  1.00  0.00     0.167 HD
ATOM     61  C   UNL     1       6.172  12.278  -8.647  1.00  0.00     0.074 A 
ATOM     62  C   UNL     1       5.002  13.063  -8.983  1.00  0.00     0.031 C 
ATOM     63  C   UNL     1       7.430  12.776  -8.585  1.00  0.00     0.031 A 
BRANCH  50  64
ATOM     64  C   UNL     1      11.708   8.620  -6.978  1.00  0.00    -0.014 A 
ATOM     65  C   UNL     1      12.506   7.843  -7.834  1.00  0.00     0.009 A 
ATOM     66  C   UNL     1      12.277   9.141  -5.806  1.00  0.00     0.009 A 
ATOM     67  C   UNL     1      13.832   7.559  -7.500  1.00  0.00     0.001 A 
ATOM     68  C   UNL     1      13.612   8.882  -5.491  1.00  0.00     0.001 A 
ATOM     69  C   UNL     1      14.384   8.082  -6.332  1.00  0.00     0.000 A 
ENDBRANCH  50  64
BRANCH  51  70
ATOM     70  C   UNL     1       2.001  10.118  -8.753  1.00  0.00    -0.014 A 
ATOM     71  C   UNL     1       1.535  10.414 -10.044  1.00  0.00     0.009 A 
ATOM     72  C   UNL     1       1.081  10.071  -7.694  1.00  0.00     0.009 A 
ATOM     73  C   UNL     1       0.182  10.685 -10.265  1.00  0.00     0.001 A 
ATOM     74  C   UNL     1      -0.276  10.316  -7.923  1.00  0.00     0.001 A 
ATOM     75  C   UNL     1      -0.722  10.632  -9.206  1.00  0.00     0.000 A 
ENDBRANCH  51  70
BRANCH  63  76
ATOM     76  C   UNL     1       7.618  14.224  -8.938  1.00  0.00    -0.014 A 
ATOM     77  C   UNL     1       7.221  15.246  -8.063  1.00  0.00     0.009 A 
ATOM     78  C   UNL     1       8.253  14.563 -10.143  1.00  0.00     0.009 A 
ATOM     79  C   UNL     1       7.434  16.584  -8.404  1.00  0.00     0.001 A 
ATOM     80  C   UNL     1       8.488  15.899 -10.468  1.00  0.00     0.001 A 
ATOM     81  C   UNL     1       8.071  16.908  -9.601  1.00  0.00     0.000 A 
ENDBRANCH  63  76
ENDBRANCH  37  38
ENDBRANCH  29  32
ENDBRANCH  27  28
ENDBRANCH  26  27
ENDBRANCH   1  26
TORSDOF 13
