REMARK SMILES COc1ccc([C@H]2CC(c3ccc(S(C)(=O)=O)cc3)=NN2c2ccc(C(=O)NCCCNC(=O)c3ccc(-c4c5nc(c(-c6ccccc6)c6ccc([nH]6)c(-c6ccccc6)c6nc(c(-c7ccccc7)c7ccc4[nH]7)C=C6)C=C5)cc3)cc2)cc1
REMARK SMILES IDX 29 1 28 2 26 3 27 4 25 6 22 7 23 8 84 9 24 10 83 11 21 12
REMARK SMILES IDX 7 13 8 14 9 15 20 16 6 17 3 18 4 19 86 20 5 21 85 22 2 23
REMARK SMILES IDX 1 24 10 25 11 26 19 27 12 28 18 29 13 30 14 31 15 32 16 33
REMARK SMILES IDX 17 34 30 35 31 36 32 37 33 38 34 40 35 41 36 42 82 43 37 44
REMARK SMILES IDX 81 45 38 46 39 47 40 48 75 49 41 50 80 51 74 52 76 53 42 54
REMARK SMILES IDX 79 55 73 56 72 57 43 59 65 60 50 61 64 62 51 63 54 64 63 65
REMARK SMILES IDX 77 66 52 67 53 68 62 70 78 71 55 72 44 73 45 74 49 75 46 76
REMARK SMILES IDX 48 77 47 78 66 79 67 80 71 81 68 82 70 83 69 84 56 85 57 86
REMARK SMILES IDX 61 87 58 88 60 89 59 90
REMARK H PARENT 28 5 32 39 76 58 54 69
REMARK Flexibility Score: inf
ROOT
ATOM      1  C   UNL     1       0.379   0.075  -9.940  1.00  0.00     0.118 C 
ENDROOT
BRANCH   1   2
ATOM      2  N   UNL     1       1.634  -0.652  -9.894  1.00  0.00    -0.352 N 
ATOM      3  C   UNL     1       2.811  -0.418  -9.230  1.00  0.00     0.251 C 
ATOM      4  O   UNL     1       3.712  -1.246  -9.368  1.00  0.00    -0.269 OA
ATOM      5  H   UNL     1       1.642  -1.469 -10.444  1.00  0.00     0.163 HD
BRANCH   3   6
ATOM      6  C   UNL     1       3.018   0.740  -8.318  1.00  0.00     0.039 A 
ATOM      7  C   UNL     1       3.448   2.792  -6.423  1.00  0.00     0.060 A 
ATOM      8  C   UNL     1       4.140   1.581  -6.334  1.00  0.00     0.029 A 
ATOM      9  C   UNL     1       2.594   2.990  -7.509  1.00  0.00     0.029 A 
ATOM     10  C   UNL     1       3.916   0.558  -7.258  1.00  0.00     0.016 A 
ATOM     11  C   UNL     1       2.408   1.987  -8.467  1.00  0.00     0.016 A 
BRANCH   7  12
ATOM     12  N   UNL     1       3.603   3.753  -5.441  1.00  0.00    -0.257 N 
ATOM     13  C   UNL     1       2.521   4.227  -4.583  1.00  0.00     0.144 C 
ATOM     14  C   UNL     1       3.189   5.362  -3.797  1.00  0.00     0.091 C 
ATOM     15  C   UNL     1       4.540   5.375  -4.458  1.00  0.00     0.071 C 
ATOM     16  N   UNL     1       4.744   4.479  -5.371  1.00  0.00    -0.176 NA
BRANCH  13  17
ATOM     17  C   UNL     1       1.992   3.117  -3.689  1.00  0.00    -0.023 A 
ATOM     18  C   UNL     1       1.001   1.041  -2.062  1.00  0.00     0.118 A 
ATOM     19  C   UNL     1       0.151   1.720  -2.934  1.00  0.00     0.047 A 
ATOM     20  C   UNL     1       2.354   1.368  -2.025  1.00  0.00     0.047 A 
ATOM     21  C   UNL     1       0.638   2.757  -3.736  1.00  0.00     0.010 A 
ATOM     22  C   UNL     1       2.845   2.399  -2.833  1.00  0.00     0.010 A 
BRANCH  18  23
ATOM     23  O   UNL     1       0.425   0.037  -1.333  1.00  0.00    -0.497 OA
ATOM     24  C   UNL     1       0.949  -0.116  -0.017  1.00  0.00     0.278 C 
ENDBRANCH  18  23
ENDBRANCH  13  17
BRANCH  15  25
ATOM     25  C   UNL     1       5.545   6.378  -4.101  1.00  0.00    -0.002 A 
ATOM     26  C   UNL     1       6.077   7.182  -5.114  1.00  0.00     0.011 A 
ATOM     27  C   UNL     1       5.981   6.500  -2.780  1.00  0.00     0.011 A 
ATOM     28  C   UNL     1       7.049   8.132  -4.802  1.00  0.00     0.021 A 
ATOM     29  C   UNL     1       6.973   7.432  -2.470  1.00  0.00     0.021 A 
ATOM     30  C   UNL     1       7.503   8.239  -3.483  1.00  0.00     0.067 A 
BRANCH  30  31
ATOM     31  S   UNL     1       8.764   9.431  -3.100  1.00  0.00     0.175 S 
ATOM     32  C   UNL     1      10.162   8.906  -4.059  1.00  0.00     0.163 C 
ATOM     33  O   UNL     1       8.303  10.705  -3.614  1.00  0.00    -0.224 OA
ATOM     34  O   UNL     1       9.109   9.269  -1.699  1.00  0.00    -0.224 OA
ENDBRANCH  30  31
ENDBRANCH  15  25
ENDBRANCH   7  12
ENDBRANCH   3   6
ENDBRANCH   1   2
BRANCH   1  35
ATOM     35  C   UNL     1       0.304   0.945 -11.194  1.00  0.00     0.042 C 
BRANCH  35  36
ATOM     36  C   UNL     1       0.055   0.138 -12.463  1.00  0.00     0.118 C 
BRANCH  36  37
ATOM     37  N   UNL     1      -1.316  -0.349 -12.537  1.00  0.00    -0.352 N 
ATOM     38  C   UNL     1      -2.264  -0.136 -13.506  1.00  0.00     0.251 C 
ATOM     39  H   UNL     1      -1.604  -0.912 -11.782  1.00  0.00     0.163 HD
ATOM     40  O   UNL     1      -3.435  -0.439 -13.299  1.00  0.00    -0.269 OA
BRANCH  38  41
ATOM     41  C   UNL     1      -1.878   0.473 -14.797  1.00  0.00     0.039 A 
ATOM     42  C   UNL     1      -2.683   1.477 -15.343  1.00  0.00     0.014 A 
ATOM     43  C   UNL     1      -0.738   0.039 -15.476  1.00  0.00     0.014 A 
ATOM     44  C   UNL     1      -2.311   2.090 -16.542  1.00  0.00     0.010 A 
ATOM     45  C   UNL     1      -0.335   0.692 -16.637  1.00  0.00     0.010 A 
ATOM     46  C   UNL     1      -1.117   1.722 -17.181  1.00  0.00    -0.014 A 
BRANCH  46  47
ATOM     47  C   UNL     1      -0.653   2.388 -18.424  1.00  0.00     0.031 A 
ATOM     48  C   UNL     1      -0.536   1.593 -19.695  1.00  0.00     0.074 A 
ATOM     49  C   UNL     1      -0.239   3.669 -18.384  1.00  0.00     0.049 A 
ATOM     50  N   UNL     1       0.003   1.937 -20.837  1.00  0.00    -0.248 NA
ATOM     51  C   UNL     1      -1.070   0.221 -19.670  1.00  0.00     0.031 C 
ATOM     52  C   UNL     1      -0.284   4.542 -17.209  1.00  0.00     0.029 A 
ATOM     53  N   UNL     1       0.329   4.453 -19.358  1.00  0.00    -0.354 N 
ATOM     54  C   UNL     1      -0.091   0.814 -21.650  1.00  0.00     0.074 A 
ATOM     55  C   UNL     1      -0.718  -0.228 -20.866  1.00  0.00     0.031 C 
ATOM     56  C   UNL     1       0.226   5.742 -17.533  1.00  0.00     0.029 A 
ATOM     57  C   UNL     1       0.680   5.707 -18.919  1.00  0.00     0.049 A 
ATOM     58  H   UNL     1       0.471   4.146 -20.282  1.00  0.00     0.167 HD
ATOM     59  C   UNL     1       0.305   0.667 -22.936  1.00  0.00     0.031 A 
ATOM     60  C   UNL     1       1.320   6.707 -19.555  1.00  0.00     0.031 A 
ATOM     61  C   UNL     1       0.897   1.713 -23.724  1.00  0.00     0.049 A 
ATOM     62  C   UNL     1       1.763   6.509 -20.979  1.00  0.00     0.074 A 
ATOM     63  C   UNL     1       1.260   1.685 -25.059  1.00  0.00     0.029 A 
ATOM     64  N   UNL     1       1.214   2.975 -23.247  1.00  0.00    -0.354 N 
ATOM     65  N   UNL     1       1.609   5.463 -21.754  1.00  0.00    -0.248 NA
ATOM     66  C   UNL     1       2.468   7.631 -21.616  1.00  0.00     0.031 C 
ATOM     67  C   UNL     1       1.842   2.914 -25.379  1.00  0.00     0.029 A 
ATOM     68  C   UNL     1       1.793   3.725 -24.256  1.00  0.00     0.049 A 
ATOM     69  H   UNL     1       1.052   3.291 -22.329  1.00  0.00     0.167 HD
ATOM     70  C   UNL     1       2.161   5.815 -22.978  1.00  0.00     0.074 A 
ATOM     71  C   UNL     1       2.651   7.171 -22.846  1.00  0.00     0.031 C 
ATOM     72  C   UNL     1       2.253   5.080 -24.113  1.00  0.00     0.031 A 
BRANCH  59  73
ATOM     73  C   UNL     1       0.125  -0.681 -23.575  1.00  0.00    -0.014 A 
ATOM     74  C   UNL     1      -1.145  -1.156 -23.936  1.00  0.00     0.009 A 
ATOM     75  C   UNL     1       1.254  -1.460 -23.877  1.00  0.00     0.009 A 
ATOM     76  C   UNL     1      -1.283  -2.397 -24.561  1.00  0.00     0.001 A 
ATOM     77  C   UNL     1       1.115  -2.688 -24.526  1.00  0.00     0.001 A 
ATOM     78  C   UNL     1      -0.154  -3.158 -24.861  1.00  0.00     0.000 A 
ENDBRANCH  59  73
BRANCH  60  79
ATOM     79  C   UNL     1       1.590   7.991 -18.857  1.00  0.00    -0.014 A 
ATOM     80  C   UNL     1       0.914   9.161 -19.238  1.00  0.00     0.009 A 
ATOM     81  C   UNL     1       2.544   8.064 -17.831  1.00  0.00     0.009 A 
ATOM     82  C   UNL     1       1.211  10.382 -18.629  1.00  0.00     0.001 A 
ATOM     83  C   UNL     1       2.818   9.281 -17.203  1.00  0.00     0.001 A 
ATOM     84  C   UNL     1       2.161  10.441 -17.610  1.00  0.00     0.000 A 
ENDBRANCH  60  79
BRANCH  72  85
ATOM     85  C   UNL     1       2.850   5.742 -25.320  1.00  0.00    -0.014 A 
ATOM     86  C   UNL     1       4.232   5.957 -25.427  1.00  0.00     0.009 A 
ATOM     87  C   UNL     1       2.019   6.093 -26.396  1.00  0.00     0.009 A 
ATOM     88  C   UNL     1       4.767   6.531 -26.582  1.00  0.00     0.001 A 
ATOM     89  C   UNL     1       2.559   6.642 -27.559  1.00  0.00     0.001 A 
ATOM     90  C   UNL     1       3.932   6.866 -27.648  1.00  0.00     0.000 A 
ENDBRANCH  72  85
ENDBRANCH  46  47
ENDBRANCH  38  41
ENDBRANCH  36  37
ENDBRANCH  35  36
ENDBRANCH   1  35
TORSDOF 15
