REMARK SMILES O=C(CCSc1nc2ccc(Cl)cc2c(=O)n1Cc1ccncc1)NCCCNC(=O)c1ccc(-c2c3nc(c(-c4ccccc4)c4ccc([nH]4)c(-c4ccccc4)c4nc(c(-c5ccccc5)c5ccc2[nH]5)C=C4)C=C3)cc1
REMARK SMILES IDX 1 1 2 2 25 3 3 5 4 6 5 7 6 8 7 9 17 10 8 11 15 12 9 13 14 14
REMARK SMILES IDX 16 15 10 16 13 17 11 18 12 19 18 20 19 21 20 22 24 23 21 24
REMARK SMILES IDX 23 25 22 26 26 27 27 28 28 29 29 30 30 31 31 33 32 34 33 35
REMARK SMILES IDX 79 36 34 37 78 38 35 39 36 40 37 41 72 42 38 43 77 44 71 45
REMARK SMILES IDX 73 46 39 47 76 48 70 49 69 50 40 52 62 53 47 54 61 55 48 56
REMARK SMILES IDX 51 57 60 58 74 59 49 60 50 61 59 63 75 64 52 65 41 66 42 67
REMARK SMILES IDX 46 68 43 69 45 70 44 71 63 72 64 73 68 74 65 75 67 76 66 77
REMARK SMILES IDX 53 78 54 79 58 80 55 81 57 82 56 83
REMARK H PARENT 25 4 29 32 73 51 51 62
REMARK Flexibility Score: inf
ROOT
ATOM      1  O   UNL     1       3.489  -1.377   0.720  1.00  0.00    -0.275 OA
ATOM      2  C   UNL     1       4.378  -0.667   0.263  1.00  0.00     0.220 C 
ATOM      3  N   UNL     1       4.864   0.460   0.875  1.00  0.00    -0.356 N 
ATOM      4  H   UNL     1       5.813   0.700   0.771  1.00  0.00     0.163 HD
ENDROOT
BRANCH   2   5
ATOM      5  C   UNL     1       4.920  -0.884  -1.121  1.00  0.00     0.111 C 
BRANCH   5   6
ATOM      6  C   UNL     1       4.172  -0.070  -2.187  1.00  0.00     0.088 C 
BRANCH   6   7
ATOM      7  S   UNL     1       2.371   0.169  -1.969  1.00  0.00    -0.087 SA
BRANCH   7   8
ATOM      8  C   UNL     1       2.244   1.682  -1.073  1.00  0.00     0.171 A 
ATOM      9  N   UNL     1       3.092   2.625  -1.355  1.00  0.00    -0.224 NA
ATOM     10  N   UNL     1       1.200   1.825  -0.158  1.00  0.00    -0.283 N 
ATOM     11  C   UNL     1       2.978   3.861  -0.695  1.00  0.00     0.079 A 
ATOM     12  C   UNL     1       0.891   3.099   0.312  1.00  0.00     0.262 A 
ATOM     13  C   UNL     1       3.969   4.838  -0.844  1.00  0.00     0.031 A 
ATOM     14  C   UNL     1       1.905   4.143   0.142  1.00  0.00     0.067 A 
ATOM     15  O   UNL     1      -0.171   3.411   0.846  1.00  0.00    -0.269 OA
ATOM     16  C   UNL     1       3.880   6.060  -0.158  1.00  0.00     0.023 A 
ATOM     17  C   UNL     1       1.801   5.357   0.835  1.00  0.00     0.036 A 
ATOM     18  C   UNL     1       2.795   6.313   0.680  1.00  0.00     0.042 A 
ATOM     19  Cl  UNL     1       2.681   7.806   1.526  1.00  0.00    -0.084 Cl
BRANCH  10  20
ATOM     20  C   UNL     1       0.276   0.751   0.280  1.00  0.00     0.163 C 
BRANCH  20  21
ATOM     21  C   UNL     1       0.498   0.270   1.713  1.00  0.00    -0.025 A 
ATOM     22  C   UNL     1       0.305   1.093   2.830  1.00  0.00     0.025 A 
ATOM     23  C   UNL     1       0.925  -1.039   1.962  1.00  0.00     0.025 A 
ATOM     24  C   UNL     1       0.618   0.616   4.097  1.00  0.00     0.111 A 
ATOM     25  C   UNL     1       1.234  -1.423   3.262  1.00  0.00     0.111 A 
ATOM     26  N   UNL     1       1.099  -0.619   4.337  1.00  0.00    -0.265 NA
ENDBRANCH  20  21
ENDBRANCH  10  20
ENDBRANCH   7   8
ENDBRANCH   6   7
ENDBRANCH   5   6
ENDBRANCH   2   5
BRANCH   3  27
ATOM     27  C   UNL     1       4.000   1.299   1.671  1.00  0.00     0.117 C 
BRANCH  27  28
ATOM     28  C   UNL     1       4.481   1.645   3.051  1.00  0.00     0.042 C 
BRANCH  28  29
ATOM     29  C   UNL     1       5.861   2.266   3.020  1.00  0.00     0.118 C 
BRANCH  29  30
ATOM     30  N   UNL     1       5.896   3.640   2.501  1.00  0.00    -0.352 N 
ATOM     31  C   UNL     1       6.018   4.862   3.134  1.00  0.00     0.251 C 
ATOM     32  H   UNL     1       5.818   3.701   1.522  1.00  0.00     0.163 HD
ATOM     33  O   UNL     1       5.960   5.898   2.479  1.00  0.00    -0.269 OA
BRANCH  31  34
ATOM     34  C   UNL     1       6.164   4.922   4.603  1.00  0.00     0.039 A 
ATOM     35  C   UNL     1       6.905   3.951   5.250  1.00  0.00     0.014 A 
ATOM     36  C   UNL     1       5.500   5.893   5.358  1.00  0.00     0.014 A 
ATOM     37  C   UNL     1       6.667   3.706   6.587  1.00  0.00     0.010 A 
ATOM     38  C   UNL     1       5.483   5.790   6.758  1.00  0.00     0.010 A 
ATOM     39  C   UNL     1       6.006   4.650   7.386  1.00  0.00    -0.014 A 
BRANCH  39  40
ATOM     40  C   UNL     1       5.936   4.392   8.854  1.00  0.00     0.031 A 
ATOM     41  C   UNL     1       4.627   4.403   9.600  1.00  0.00     0.074 A 
ATOM     42  C   UNL     1       7.069   4.028   9.497  1.00  0.00     0.049 A 
ATOM     43  N   UNL     1       4.415   4.185  10.874  1.00  0.00    -0.248 NA
ATOM     44  C   UNL     1       3.405   4.712   8.841  1.00  0.00     0.031 C 
ATOM     45  C   UNL     1       8.402   3.965   8.886  1.00  0.00     0.029 A 
ATOM     46  N   UNL     1       7.280   3.558  10.769  1.00  0.00    -0.354 N 
ATOM     47  C   UNL     1       3.056   4.393  11.078  1.00  0.00     0.074 A 
ATOM     48  C   UNL     1       2.488   4.755   9.799  1.00  0.00     0.031 C 
ATOM     49  C   UNL     1       9.240   3.329   9.710  1.00  0.00     0.029 A 
ATOM     50  C   UNL     1       8.559   3.092  10.974  1.00  0.00     0.049 A 
ATOM     51  H   UNL     1       6.585   3.554  11.466  1.00  0.00     0.167 HD
ATOM     52  C   UNL     1       2.352   4.294  12.231  1.00  0.00     0.031 A 
ATOM     53  C   UNL     1       9.145   2.558  12.062  1.00  0.00     0.031 A 
ATOM     54  C   UNL     1       2.920   3.885  13.489  1.00  0.00     0.049 A 
ATOM     55  C   UNL     1       8.346   2.463  13.322  1.00  0.00     0.074 A 
ATOM     56  C   UNL     1       2.291   3.762  14.716  1.00  0.00     0.029 A 
ATOM     57  N   UNL     1       4.241   3.509  13.676  1.00  0.00    -0.354 N 
ATOM     58  N   UNL     1       7.079   2.739  13.510  1.00  0.00    -0.248 NA
ATOM     59  C   UNL     1       9.058   2.024  14.528  1.00  0.00     0.031 C 
ATOM     60  C   UNL     1       3.242   3.357  15.655  1.00  0.00     0.029 A 
ATOM     61  C   UNL     1       4.450   3.167  15.002  1.00  0.00     0.049 A 
ATOM     62  H   UNL     1       4.929   3.487  12.972  1.00  0.00     0.167 HD
ATOM     63  C   UNL     1       6.842   2.521  14.858  1.00  0.00     0.074 A 
ATOM     64  C   UNL     1       8.088   2.054  15.432  1.00  0.00     0.031 C 
ATOM     65  C   UNL     1       5.698   2.710  15.556  1.00  0.00     0.031 A 
BRANCH  52  66
ATOM     66  C   UNL     1       0.894   4.666  12.209  1.00  0.00    -0.014 A 
ATOM     67  C   UNL     1       0.470   5.832  12.869  1.00  0.00     0.009 A 
ATOM     68  C   UNL     1      -0.070   3.834  11.620  1.00  0.00     0.009 A 
ATOM     69  C   UNL     1      -0.887   6.151  12.952  1.00  0.00     0.001 A 
ATOM     70  C   UNL     1      -1.425   4.170  11.680  1.00  0.00     0.001 A 
ATOM     71  C   UNL     1      -1.833   5.322  12.354  1.00  0.00     0.000 A 
ENDBRANCH  52  66
BRANCH  53  72
ATOM     72  C   UNL     1      10.567   2.127  11.993  1.00  0.00    -0.014 A 
ATOM     73  C   UNL     1      11.589   3.066  11.768  1.00  0.00     0.009 A 
ATOM     74  C   UNL     1      10.906   0.768  12.069  1.00  0.00     0.009 A 
ATOM     75  C   UNL     1      12.907   2.653  11.567  1.00  0.00     0.001 A 
ATOM     76  C   UNL     1      12.233   0.361  11.907  1.00  0.00     0.001 A 
ATOM     77  C   UNL     1      13.229   1.300  11.640  1.00  0.00     0.000 A 
ENDBRANCH  53  72
BRANCH  65  78
ATOM     78  C   UNL     1       5.731   2.407  17.024  1.00  0.00    -0.014 A 
ATOM     79  C   UNL     1       5.052   1.283  17.518  1.00  0.00     0.009 A 
ATOM     80  C   UNL     1       6.356   3.282  17.925  1.00  0.00     0.009 A 
ATOM     81  C   UNL     1       4.988   1.045  18.891  1.00  0.00     0.001 A 
ATOM     82  C   UNL     1       6.311   3.027  19.297  1.00  0.00     0.001 A 
ATOM     83  C   UNL     1       5.620   1.915  19.778  1.00  0.00     0.000 A 
ENDBRANCH  65  78
ENDBRANCH  39  40
ENDBRANCH  31  34
ENDBRANCH  29  30
ENDBRANCH  28  29
ENDBRANCH  27  28
ENDBRANCH   3  27
TORSDOF 15
