REMARK SMILES COc1ccccc1-n1cc(CN2C[C@H](C(=O)NCCCNC(=O)c3ccc(-c4c5nc(c(-c6ccccc6)c6ccc([nH]6)c(-c6ccccc6)c6nc(c(-c7ccccc7)c7ccc4[nH]7)C=C6)C=C5)cc3)CC2=O)cn1
REMARK SMILES IDX 19 1 18 2 16 3 17 4 15 6 13 7 14 8 74 9 73 10 75 11 12 12
REMARK SMILES IDX 11 13 9 14 10 15 77 16 76 17 8 18 3 19 4 20 5 21 7 22 6 23
REMARK SMILES IDX 2 24 1 25 20 26 21 27 22 28 23 29 24 31 25 32 26 33 72 34
REMARK SMILES IDX 27 35 71 36 28 37 29 38 30 39 65 40 31 41 70 42 64 43 66 44
REMARK SMILES IDX 32 45 69 46 63 47 62 48 33 50 55 51 40 52 54 53 41 54 44 55
REMARK SMILES IDX 53 56 67 57 42 58 43 59 52 61 68 62 45 63 34 64 35 65 39 66
REMARK SMILES IDX 36 67 38 68 37 69 56 70 57 71 61 72 58 73 60 74 59 75 46 76
REMARK SMILES IDX 47 77 51 78 48 79 50 80 49 81
REMARK H PARENT 18 5 22 30 66 49 44 60
REMARK Flexibility Score: inf
ROOT
ATOM      1  C   UNL     1      10.854  -1.921   0.298  1.00  0.00     0.117 C 
ENDROOT
BRANCH   1   2
ATOM      2  N   UNL     1      10.115  -2.670  -0.708  1.00  0.00    -0.356 N 
ATOM      3  C   UNL     1       9.053  -2.320  -1.489  1.00  0.00     0.225 C 
ATOM      4  O   UNL     1       8.660  -3.166  -2.297  1.00  0.00    -0.275 OA
ATOM      5  H   UNL     1      10.438  -3.589  -0.850  1.00  0.00     0.163 HD
BRANCH   3   6
ATOM      6  C   UNL     1       8.434  -0.916  -1.441  1.00  0.00     0.107 C 
ATOM      7  N   UNL     1       6.204  -1.298  -0.862  1.00  0.00    -0.337 N 
ATOM      8  C   UNL     1       7.004  -0.930  -2.016  1.00  0.00     0.133 C 
ATOM      9  C   UNL     1       6.945  -1.215   0.303  1.00  0.00     0.223 C 
ATOM     10  C   UNL     1       8.141  -0.391  -0.047  1.00  0.00     0.115 C 
ATOM     11  O   UNL     1       6.659  -1.633   1.419  1.00  0.00    -0.275 OA
BRANCH   7  12
ATOM     12  C   UNL     1       4.766  -1.448  -0.873  1.00  0.00     0.158 C 
BRANCH  12  13
ATOM     13  C   UNL     1       4.176  -0.239  -0.225  1.00  0.00     0.010 A 
ATOM     14  N   UNL     1       3.090   1.633   0.251  1.00  0.00    -0.237 N 
ATOM     15  C   UNL     1       3.414   0.770  -0.774  1.00  0.00     0.120 A 
ATOM     16  N   UNL     1       3.751   1.334   1.389  1.00  0.00    -0.176 NA
ATOM     17  C   UNL     1       4.280   0.140   1.138  1.00  0.00     0.141 A 
BRANCH  14  18
ATOM     18  C   UNL     1       2.112   2.639   0.270  1.00  0.00     0.106 A 
ATOM     19  C   UNL     1       0.844   2.430  -0.282  1.00  0.00     0.144 A 
ATOM     20  C   UNL     1      -0.089   3.467  -0.239  1.00  0.00     0.049 A 
ATOM     21  C   UNL     1       0.236   4.691   0.357  1.00  0.00     0.004 A 
ATOM     22  C   UNL     1       2.427   3.850   0.906  1.00  0.00     0.032 A 
ATOM     23  C   UNL     1       1.494   4.884   0.926  1.00  0.00     0.003 A 
BRANCH  19  24
ATOM     24  O   UNL     1       0.435   1.262  -0.871  1.00  0.00    -0.494 OA
ATOM     25  C   UNL     1       0.292   0.185   0.064  1.00  0.00     0.278 C 
ENDBRANCH  19  24
ENDBRANCH  14  18
ENDBRANCH  12  13
ENDBRANCH   7  12
ENDBRANCH   3   6
ENDBRANCH   1   2
BRANCH   1  26
ATOM     26  C   UNL     1      10.291  -2.121   1.718  1.00  0.00     0.042 C 
BRANCH  26  27
ATOM     27  C   UNL     1      10.876  -3.318   2.431  1.00  0.00     0.118 C 
BRANCH  27  28
ATOM     28  N   UNL     1      12.296  -3.137   2.767  1.00  0.00    -0.352 N 
ATOM     29  C   UNL     1      13.198  -4.042   3.306  1.00  0.00     0.251 C 
ATOM     30  H   UNL     1      12.660  -2.241   2.582  1.00  0.00     0.163 HD
ATOM     31  O   UNL     1      14.219  -3.656   3.861  1.00  0.00    -0.269 OA
BRANCH  29  32
ATOM     32  C   UNL     1      12.918  -5.482   3.186  1.00  0.00     0.039 A 
ATOM     33  C   UNL     1      13.284  -6.439   4.138  1.00  0.00     0.014 A 
ATOM     34  C   UNL     1      12.185  -5.862   2.083  1.00  0.00     0.014 A 
ATOM     35  C   UNL     1      12.897  -7.762   3.917  1.00  0.00     0.010 A 
ATOM     36  C   UNL     1      11.412  -6.963   2.215  1.00  0.00     0.010 A 
ATOM     37  C   UNL     1      11.971  -8.010   2.901  1.00  0.00    -0.014 A 
BRANCH  37  38
ATOM     38  C   UNL     1      11.434  -9.309   2.550  1.00  0.00     0.031 A 
ATOM     39  C   UNL     1      10.622  -9.897   3.629  1.00  0.00     0.074 A 
ATOM     40  C   UNL     1      11.425  -9.780   1.280  1.00  0.00     0.049 A 
ATOM     41  N   UNL     1      10.992 -10.806   4.462  1.00  0.00    -0.248 NA
ATOM     42  C   UNL     1       9.344  -9.248   3.968  1.00  0.00     0.031 C 
ATOM     43  C   UNL     1      11.855  -9.121   0.036  1.00  0.00     0.029 A 
ATOM     44  N   UNL     1      10.917 -10.951   0.818  1.00  0.00    -0.354 N 
ATOM     45  C   UNL     1       9.891 -11.024   5.276  1.00  0.00     0.074 A 
ATOM     46  C   UNL     1       9.038  -9.877   5.104  1.00  0.00     0.031 C 
ATOM     47  C   UNL     1      11.384  -9.808  -1.034  1.00  0.00     0.029 A 
ATOM     48  C   UNL     1      10.764 -11.032  -0.562  1.00  0.00     0.049 A 
ATOM     49  H   UNL     1      10.674 -11.693   1.419  1.00  0.00     0.167 HD
ATOM     50  C   UNL     1       9.622 -12.267   5.762  1.00  0.00     0.031 A 
ATOM     51  C   UNL     1      10.138 -12.026  -1.246  1.00  0.00     0.031 A 
ATOM     52  C   UNL     1      10.730 -13.165   5.527  1.00  0.00     0.049 A 
ATOM     53  C   UNL     1      10.062 -13.196  -0.335  1.00  0.00     0.074 A 
ATOM     54  C   UNL     1      12.063 -13.181   5.886  1.00  0.00     0.029 A 
ATOM     55  N   UNL     1      10.617 -14.001   4.438  1.00  0.00    -0.354 N 
ATOM     56  N   UNL     1      11.113 -13.847   0.077  1.00  0.00    -0.248 NA
ATOM     57  C   UNL     1       8.883 -13.320   0.510  1.00  0.00     0.031 C 
ATOM     58  C   UNL     1      12.749 -13.639   4.722  1.00  0.00     0.029 A 
ATOM     59  C   UNL     1      11.802 -13.968   3.749  1.00  0.00     0.049 A 
ATOM     60  H   UNL     1       9.823 -14.530   4.196  1.00  0.00     0.167 HD
ATOM     61  C   UNL     1      10.881 -14.075   1.427  1.00  0.00     0.074 A 
ATOM     62  C   UNL     1       9.453 -13.812   1.615  1.00  0.00     0.031 C 
ATOM     63  C   UNL     1      11.915 -14.154   2.318  1.00  0.00     0.031 A 
BRANCH  50  64
ATOM     64  C   UNL     1       8.229 -12.790   6.007  1.00  0.00    -0.014 A 
ATOM     65  C   UNL     1       8.095 -14.097   6.507  1.00  0.00     0.009 A 
ATOM     66  C   UNL     1       7.058 -12.179   5.519  1.00  0.00     0.009 A 
ATOM     67  C   UNL     1       6.880 -14.786   6.431  1.00  0.00     0.001 A 
ATOM     68  C   UNL     1       5.834 -12.849   5.478  1.00  0.00     0.001 A 
ATOM     69  C   UNL     1       5.753 -14.165   5.904  1.00  0.00     0.000 A 
ENDBRANCH  50  64
BRANCH  51  70
ATOM     70  C   UNL     1       9.335 -11.940  -2.489  1.00  0.00    -0.014 A 
ATOM     71  C   UNL     1       9.030 -13.086  -3.243  1.00  0.00     0.009 A 
ATOM     72  C   UNL     1       8.626 -10.761  -2.787  1.00  0.00     0.009 A 
ATOM     73  C   UNL     1       8.030 -13.060  -4.229  1.00  0.00     0.001 A 
ATOM     74  C   UNL     1       7.628 -10.735  -3.769  1.00  0.00     0.001 A 
ATOM     75  C   UNL     1       7.320 -11.889  -4.481  1.00  0.00     0.000 A 
ENDBRANCH  51  70
BRANCH  63  76
ATOM     76  C   UNL     1      13.322 -14.212   1.768  1.00  0.00    -0.014 A 
ATOM     77  C   UNL     1      13.916 -13.165   1.039  1.00  0.00     0.009 A 
ATOM     78  C   UNL     1      14.131 -15.289   2.158  1.00  0.00     0.009 A 
ATOM     79  C   UNL     1      15.274 -13.209   0.698  1.00  0.00     0.001 A 
ATOM     80  C   UNL     1      15.489 -15.323   1.836  1.00  0.00     0.001 A 
ATOM     81  C   UNL     1      16.060 -14.285   1.103  1.00  0.00     0.000 A 
ENDBRANCH  63  76
ENDBRANCH  37  38
ENDBRANCH  29  32
ENDBRANCH  27  28
ENDBRANCH  26  27
ENDBRANCH   1  26
TORSDOF 14
