REMARK SMILES C[C@@H](Oc1ccccc1Cl)C(=O)N1CC[C@H](C(=O)NCCCNC(=O)c2ccc(-c3c4nc(c(-c5ccccc5)c5ccc([nH]5)c(-c5ccccc5)c5nc(c(-c6ccccc6)c6ccc3[nH]6)C=C5)C=C4)cc2)[C@@H]1C
REMARK SMILES IDX 20 1 19 2 17 3 18 4 16 6 13 7 14 8 74 9 15 10 75 11 11 12
REMARK SMILES IDX 12 13 2 14 1 15 3 16 4 17 5 18 9 19 6 20 8 21 10 22 7 23
REMARK SMILES IDX 21 24 22 25 23 26 24 27 25 29 26 30 27 31 73 32 28 33 72 34
REMARK SMILES IDX 29 35 30 36 31 37 66 38 32 39 71 40 65 41 67 42 33 43 70 44
REMARK SMILES IDX 64 45 63 46 34 48 56 49 41 50 55 51 42 52 45 53 54 54 68 55
REMARK SMILES IDX 43 56 44 57 53 59 69 60 46 61 35 62 36 63 40 64 37 65 39 66
REMARK SMILES IDX 38 67 57 68 58 69 62 70 59 71 61 72 60 73 47 74 48 75 52 76
REMARK SMILES IDX 49 77 51 78 50 79
REMARK H PARENT 19 5 23 28 67 47 45 58
REMARK Flexibility Score: inf
ROOT
ATOM      1  C   UNL     1      -2.155   3.437   4.080  1.00  0.00     0.117 C 
ENDROOT
BRANCH   1   2
ATOM      2  N   UNL     1      -3.295   2.762   3.488  1.00  0.00    -0.356 N 
ATOM      3  C   UNL     1      -3.442   1.477   3.064  1.00  0.00     0.225 C 
ATOM      4  O   UNL     1      -4.551   1.147   2.640  1.00  0.00    -0.275 OA
ATOM      5  H   UNL     1      -4.094   3.326   3.375  1.00  0.00     0.163 HD
BRANCH   3   6
ATOM      6  C   UNL     1      -2.264   0.512   3.104  1.00  0.00     0.102 C 
ATOM      7  N   UNL     1      -1.643  -0.881   1.255  1.00  0.00    -0.336 N 
ATOM      8  C   UNL     1      -2.843  -1.446   1.837  1.00  0.00     0.121 C 
ATOM      9  C   UNL     1      -1.400   0.459   1.813  1.00  0.00     0.094 C 
ATOM     10  C   UNL     1      -2.782  -0.929   3.263  1.00  0.00     0.037 C 
ATOM     11  C   UNL     1      -1.744   1.540   0.784  1.00  0.00     0.032 C 
BRANCH   7  12
ATOM     12  C   UNL     1      -0.860  -1.663   0.429  1.00  0.00     0.263 C 
ATOM     13  O   UNL     1      -1.338  -2.653  -0.138  1.00  0.00    -0.271 OA
BRANCH  12  14
ATOM     14  C   UNL     1       0.644  -1.370   0.268  1.00  0.00     0.259 C 
ATOM     15  C   UNL     1       0.939  -0.135  -0.568  1.00  0.00     0.064 C 
BRANCH  14  16
ATOM     16  O   UNL     1       1.238  -1.270   1.573  1.00  0.00    -0.479 OA
BRANCH  16  17
ATOM     17  C   UNL     1       2.527  -1.735   1.605  1.00  0.00     0.139 A 
ATOM     18  C   UNL     1       2.763  -3.112   1.637  1.00  0.00     0.048 A 
ATOM     19  C   UNL     1       3.597  -0.840   1.703  1.00  0.00     0.083 A 
ATOM     20  C   UNL     1       4.073  -3.591   1.710  1.00  0.00     0.004 A 
ATOM     21  C   UNL     1       4.906  -1.322   1.755  1.00  0.00     0.024 A 
ATOM     22  Cl  UNL     1       3.347   0.867   1.779  1.00  0.00    -0.080 Cl
ATOM     23  C   UNL     1       5.144  -2.697   1.756  1.00  0.00     0.002 A 
ENDBRANCH  16  17
ENDBRANCH  14  16
ENDBRANCH  12  14
ENDBRANCH   7  12
ENDBRANCH   3   6
ENDBRANCH   1   2
BRANCH   1  24
ATOM     24  C   UNL     1      -1.823   4.749   3.375  1.00  0.00     0.042 C 
BRANCH  24  25
ATOM     25  C   UNL     1      -2.955   5.770   3.325  1.00  0.00     0.118 C 
BRANCH  25  26
ATOM     26  N   UNL     1      -3.340   6.274   4.633  1.00  0.00    -0.352 N 
ATOM     27  C   UNL     1      -3.448   7.570   5.082  1.00  0.00     0.251 C 
ATOM     28  H   UNL     1      -3.557   5.583   5.300  1.00  0.00     0.163 HD
ATOM     29  O   UNL     1      -3.666   7.786   6.269  1.00  0.00    -0.269 OA
BRANCH  27  30
ATOM     30  C   UNL     1      -3.268   8.709   4.151  1.00  0.00     0.039 A 
ATOM     31  C   UNL     1      -2.510   9.805   4.573  1.00  0.00     0.014 A 
ATOM     32  C   UNL     1      -3.845   8.713   2.878  1.00  0.00     0.014 A 
ATOM     33  C   UNL     1      -2.267  10.865   3.695  1.00  0.00     0.010 A 
ATOM     34  C   UNL     1      -3.536   9.732   1.978  1.00  0.00     0.010 A 
ATOM     35  C   UNL     1      -2.742  10.818   2.375  1.00  0.00    -0.014 A 
BRANCH  35  36
ATOM     36  C   UNL     1      -2.402  11.883   1.394  1.00  0.00     0.031 A 
ATOM     37  C   UNL     1      -3.482  12.729   0.778  1.00  0.00     0.074 A 
ATOM     38  C   UNL     1      -1.123  12.043   1.001  1.00  0.00     0.049 A 
ATOM     39  N   UNL     1      -3.381  13.660  -0.138  1.00  0.00    -0.248 NA
ATOM     40  C   UNL     1      -4.859  12.479   1.231  1.00  0.00     0.031 C 
ATOM     41  C   UNL     1       0.017  11.266   1.488  1.00  0.00     0.029 A 
ATOM     42  N   UNL     1      -0.569  12.909   0.090  1.00  0.00    -0.354 N 
ATOM     43  C   UNL     1      -4.678  14.092  -0.383  1.00  0.00     0.074 A 
ATOM     44  C   UNL     1      -5.552  13.286   0.442  1.00  0.00     0.031 C 
ATOM     45  C   UNL     1       1.136  11.705   0.891  1.00  0.00     0.029 A 
ATOM     46  C   UNL     1       0.789  12.760  -0.055  1.00  0.00     0.049 A 
ATOM     47  H   UNL     1      -1.095  13.573  -0.411  1.00  0.00     0.167 HD
ATOM     48  C   UNL     1      -5.105  15.078  -1.209  1.00  0.00     0.031 A 
ATOM     49  C   UNL     1       1.659  13.390  -0.867  1.00  0.00     0.031 A 
ATOM     50  C   UNL     1      -4.237  15.877  -2.033  1.00  0.00     0.049 A 
ATOM     51  C   UNL     1       1.162  14.463  -1.794  1.00  0.00     0.074 A 
ATOM     52  C   UNL     1      -4.569  16.940  -2.856  1.00  0.00     0.029 A 
ATOM     53  N   UNL     1      -2.868  15.694  -2.151  1.00  0.00    -0.354 N 
ATOM     54  N   UNL     1      -0.059  14.911  -1.958  1.00  0.00    -0.248 NA
ATOM     55  C   UNL     1       2.166  15.124  -2.640  1.00  0.00     0.031 C 
ATOM     56  C   UNL     1      -3.411  17.355  -3.523  1.00  0.00     0.029 A 
ATOM     57  C   UNL     1      -2.346  16.600  -3.060  1.00  0.00     0.049 A 
ATOM     58  H   UNL     1      -2.344  15.020  -1.660  1.00  0.00     0.167 HD
ATOM     59  C   UNL     1       0.033  15.924  -2.905  1.00  0.00     0.074 A 
ATOM     60  C   UNL     1       1.431  16.033  -3.267  1.00  0.00     0.031 C 
ATOM     61  C   UNL     1      -0.954  16.696  -3.423  1.00  0.00     0.031 A 
BRANCH  48  62
ATOM     62  C   UNL     1      -6.589  15.326  -1.277  1.00  0.00    -0.014 A 
ATOM     63  C   UNL     1      -7.297  15.847  -0.182  1.00  0.00     0.009 A 
ATOM     64  C   UNL     1      -7.286  15.052  -2.464  1.00  0.00     0.009 A 
ATOM     65  C   UNL     1      -8.679  16.037  -0.257  1.00  0.00     0.001 A 
ATOM     66  C   UNL     1      -8.662  15.276  -2.548  1.00  0.00     0.001 A 
ATOM     67  C   UNL     1      -9.359  15.755  -1.441  1.00  0.00     0.000 A 
ENDBRANCH  48  62
BRANCH  49  68
ATOM     68  C   UNL     1       3.100  13.022  -0.829  1.00  0.00    -0.014 A 
ATOM     69  C   UNL     1       4.048  13.904  -0.287  1.00  0.00     0.009 A 
ATOM     70  C   UNL     1       3.531  11.778  -1.317  1.00  0.00     0.009 A 
ATOM     71  C   UNL     1       5.400  13.555  -0.252  1.00  0.00     0.001 A 
ATOM     72  C   UNL     1       4.879  11.420  -1.252  1.00  0.00     0.001 A 
ATOM     73  C   UNL     1       5.813  12.311  -0.727  1.00  0.00     0.000 A 
ENDBRANCH  49  68
BRANCH  61  74
ATOM     74  C   UNL     1      -0.556  17.753  -4.416  1.00  0.00    -0.014 A 
ATOM     75  C   UNL     1      -0.130  17.421  -5.712  1.00  0.00     0.009 A 
ATOM     76  C   UNL     1      -0.654  19.109  -4.062  1.00  0.00     0.009 A 
ATOM     77  C   UNL     1       0.221  18.423  -6.619  1.00  0.00     0.001 A 
ATOM     78  C   UNL     1      -0.335  20.109  -4.981  1.00  0.00     0.001 A 
ATOM     79  C   UNL     1       0.112  19.765  -6.256  1.00  0.00     0.000 A 
ENDBRANCH  61  74
ENDBRANCH  35  36
ENDBRANCH  27  30
ENDBRANCH  25  26
ENDBRANCH  24  25
ENDBRANCH   1  24
TORSDOF 14
