REMARK SMILES Cc1nc(-c2ccc(S(=O)(=O)N3CC[NH2+][C@H](C(=O)NCCCNC(=O)c4ccc(-c5c6nc(c(-c7ccccc7)c7ccc([nH]7)c(-c7ccccc7)c7nc(c(-c8ccccc8)c8ccc5[nH]8)C=C7)C=C6)cc4)C3)s2)cs1
REMARK SMILES IDX 20 1 19 2 17 3 18 4 16 6 12 7 13 8 74 9 14 10 15 11 9 14
REMARK SMILES IDX 10 15 11 16 8 17 5 18 6 19 75 20 7 21 4 22 1 23 2 24 3 25
REMARK SMILES IDX 77 26 76 27 21 28 22 29 23 30 24 31 25 33 26 34 27 35 73 36
REMARK SMILES IDX 28 37 72 38 29 39 30 40 31 41 66 42 32 43 71 44 65 45 67 46
REMARK SMILES IDX 33 47 70 48 64 49 63 50 34 52 56 53 41 54 55 55 42 56 45 57
REMARK SMILES IDX 54 58 68 59 43 60 44 61 53 63 69 64 46 65 35 66 36 67 40 68
REMARK SMILES IDX 37 69 39 70 38 71 57 72 58 73 62 74 59 75 61 76 60 77 47 78
REMARK SMILES IDX 48 79 52 80 49 81 51 82 50 83
REMARK H PARENT 19 5 15 12 15 13 23 32 67 51 45 62
REMARK Flexibility Score: inf
ROOT
ATOM      1  C   UNL     1       7.344  -4.564  -3.197  1.00  0.00     0.118 C 
ENDROOT
BRANCH   1   2
ATOM      2  N   UNL     1       6.193  -4.887  -4.020  1.00  0.00    -0.351 N 
ATOM      3  C   UNL     1       5.155  -5.735  -3.778  1.00  0.00     0.279 C 
ATOM      4  O   UNL     1       4.629  -6.245  -4.774  1.00  0.00    -0.268 OA
ATOM      5  H   UNL     1       6.157  -4.421  -4.886  1.00  0.00     0.163 HD
BRANCH   3   6
ATOM      6  C   UNL     1       4.570  -5.945  -2.357  1.00  0.00     0.287 C 
ATOM      7  N   UNL     1       4.796  -6.529   0.016  1.00  0.00    -0.185 NA
ATOM      8  C   UNL     1       3.744  -7.559  -0.003  1.00  0.00     0.164 C 
ATOM      9  C   UNL     1       5.514  -6.465  -1.280  1.00  0.00     0.178 C 
ATOM     10  C   UNL     1       2.847  -7.453  -1.252  1.00  0.00     0.278 C 
ATOM     11  N   UNL     1       3.358  -6.818  -2.479  1.00  0.00    -0.334 N 
ATOM     12  H   UNL     1       2.606  -6.244  -2.861  1.00  0.00     0.347 HD
ATOM     13  H   UNL     1       3.658  -7.596  -3.067  1.00  0.00     0.347 HD
BRANCH   7  14
ATOM     14  S   UNL     1       4.612  -5.123   0.947  1.00  0.00     0.253 S 
ATOM     15  O   UNL     1       5.836  -4.359   0.783  1.00  0.00    -0.206 OA
ATOM     16  O   UNL     1       4.145  -5.536   2.251  1.00  0.00    -0.206 OA
BRANCH  14  17
ATOM     17  C   UNL     1       3.320  -4.028   0.355  1.00  0.00     0.135 A 
ATOM     18  C   UNL     1       1.844  -2.034   0.266  1.00  0.00     0.055 A 
ATOM     19  C   UNL     1       1.449  -3.012  -0.613  1.00  0.00     0.023 A 
ATOM     20  S   UNL     1       3.271  -2.461   1.093  1.00  0.00    -0.121 S 
ATOM     21  C   UNL     1       2.304  -4.137  -0.573  1.00  0.00     0.034 A 
BRANCH  18  22
ATOM     22  C   UNL     1       1.022  -0.797   0.429  1.00  0.00     0.091 A 
ATOM     23  C   UNL     1      -2.330   0.573   0.030  1.00  0.00     0.079 C 
ATOM     24  C   UNL     1      -0.885   0.321   0.278  1.00  0.00     0.090 A 
ATOM     25  N   UNL     1      -0.284  -0.802  -0.037  1.00  0.00    -0.241 NA
ATOM     26  S   UNL     1       0.119   1.502   1.017  1.00  0.00    -0.127 S 
ATOM     27  C   UNL     1       1.425   0.380   1.019  1.00  0.00     0.096 A 
ENDBRANCH  18  22
ENDBRANCH  14  17
ENDBRANCH   7  14
ENDBRANCH   3   6
ENDBRANCH   1   2
BRANCH   1  28
ATOM     28  C   UNL     1       8.354  -5.715  -3.250  1.00  0.00     0.042 C 
BRANCH  28  29
ATOM     29  C   UNL     1       9.012  -5.861  -4.623  1.00  0.00     0.118 C 
BRANCH  29  30
ATOM     30  N   UNL     1       9.976  -4.802  -4.873  1.00  0.00    -0.352 N 
ATOM     31  C   UNL     1      11.263  -4.896  -5.336  1.00  0.00     0.251 C 
ATOM     32  H   UNL     1       9.660  -3.889  -4.683  1.00  0.00     0.163 HD
ATOM     33  O   UNL     1      12.002  -3.917  -5.287  1.00  0.00    -0.269 OA
BRANCH  31  34
ATOM     34  C   UNL     1      11.770  -6.172  -5.882  1.00  0.00     0.039 A 
ATOM     35  C   UNL     1      13.054  -6.592  -5.524  1.00  0.00     0.014 A 
ATOM     36  C   UNL     1      11.008  -6.928  -6.779  1.00  0.00     0.014 A 
ATOM     37  C   UNL     1      13.562  -7.787  -6.036  1.00  0.00     0.010 A 
ATOM     38  C   UNL     1      11.493  -8.148  -7.245  1.00  0.00     0.010 A 
ATOM     39  C   UNL     1      12.779  -8.583  -6.887  1.00  0.00    -0.014 A 
BRANCH  39  40
ATOM     40  C   UNL     1      13.296  -9.867  -7.421  1.00  0.00     0.031 A 
ATOM     41  C   UNL     1      13.563 -10.022  -8.893  1.00  0.00     0.074 A 
ATOM     42  C   UNL     1      13.475 -10.909  -6.588  1.00  0.00     0.049 A 
ATOM     43  N   UNL     1      13.979 -11.076  -9.549  1.00  0.00    -0.248 NA
ATOM     44  C   UNL     1      13.308  -8.847  -9.741  1.00  0.00     0.031 C 
ATOM     45  C   UNL     1      13.223 -10.895  -5.146  1.00  0.00     0.029 A 
ATOM     46  N   UNL     1      13.911 -12.185  -6.838  1.00  0.00    -0.354 N 
ATOM     47  C   UNL     1      14.010 -10.699 -10.886  1.00  0.00     0.074 A 
ATOM     48  C   UNL     1      13.536  -9.334 -10.952  1.00  0.00     0.031 C 
ATOM     49  C   UNL     1      13.538 -12.096  -4.634  1.00  0.00     0.029 A 
ATOM     50  C   UNL     1      13.979 -12.972  -5.714  1.00  0.00     0.049 A 
ATOM     51  H   UNL     1      14.152 -12.507  -7.737  1.00  0.00     0.167 HD
ATOM     52  C   UNL     1      14.410 -11.420 -11.961  1.00  0.00     0.031 A 
ATOM     53  C   UNL     1      14.356 -14.256  -5.570  1.00  0.00     0.031 A 
ATOM     54  C   UNL     1      14.901 -12.770 -11.893  1.00  0.00     0.049 A 
ATOM     55  C   UNL     1      14.792 -15.034  -6.779  1.00  0.00     0.074 A 
ATOM     56  C   UNL     1      15.400 -13.560 -12.915  1.00  0.00     0.029 A 
ATOM     57  N   UNL     1      14.953 -13.532 -10.737  1.00  0.00    -0.354 N 
ATOM     58  N   UNL     1      14.883 -14.642  -8.026  1.00  0.00    -0.248 NA
ATOM     59  C   UNL     1      15.187 -16.432  -6.555  1.00  0.00     0.031 C 
ATOM     60  C   UNL     1      15.710 -14.816 -12.384  1.00  0.00     0.029 A 
ATOM     61  C   UNL     1      15.450 -14.792 -11.023  1.00  0.00     0.049 A 
ATOM     62  H   UNL     1      14.677 -13.223  -9.844  1.00  0.00     0.167 HD
ATOM     63  C   UNL     1      15.370 -15.734  -8.731  1.00  0.00     0.074 A 
ATOM     64  C   UNL     1      15.567 -16.800  -7.771  1.00  0.00     0.031 C 
ATOM     65  C   UNL     1      15.635 -15.842 -10.056  1.00  0.00     0.031 A 
BRANCH  52  66
ATOM     66  C   UNL     1      14.315 -10.760 -13.309  1.00  0.00    -0.014 A 
ATOM     67  C   UNL     1      15.180  -9.715 -13.673  1.00  0.00     0.009 A 
ATOM     68  C   UNL     1      13.360 -11.205 -14.236  1.00  0.00     0.009 A 
ATOM     69  C   UNL     1      15.062  -9.102 -14.923  1.00  0.00     0.001 A 
ATOM     70  C   UNL     1      13.262 -10.609 -15.495  1.00  0.00     0.001 A 
ATOM     71  C   UNL     1      14.105  -9.552 -15.833  1.00  0.00     0.000 A 
ENDBRANCH  52  66
BRANCH  53  72
ATOM     72  C   UNL     1      14.368 -14.879  -4.223  1.00  0.00    -0.014 A 
ATOM     73  C   UNL     1      15.587 -15.146  -3.580  1.00  0.00     0.009 A 
ATOM     74  C   UNL     1      13.170 -15.207  -3.571  1.00  0.00     0.009 A 
ATOM     75  C   UNL     1      15.605 -15.748  -2.320  1.00  0.00     0.001 A 
ATOM     76  C   UNL     1      13.191 -15.787  -2.301  1.00  0.00     0.001 A 
ATOM     77  C   UNL     1      14.408 -16.065  -1.681  1.00  0.00     0.000 A 
ENDBRANCH  53  72
BRANCH  65  78
ATOM     78  C   UNL     1      16.196 -17.150 -10.535  1.00  0.00    -0.014 A 
ATOM     79  C   UNL     1      15.389 -18.293 -10.639  1.00  0.00     0.009 A 
ATOM     80  C   UNL     1      17.544 -17.229 -10.917  1.00  0.00     0.009 A 
ATOM     81  C   UNL     1      15.931 -19.499 -11.087  1.00  0.00     0.001 A 
ATOM     82  C   UNL     1      18.076 -18.429 -11.389  1.00  0.00     0.001 A 
ATOM     83  C   UNL     1      17.272 -19.565 -11.465  1.00  0.00     0.000 A 
ENDBRANCH  65  78
ENDBRANCH  39  40
ENDBRANCH  31  34
ENDBRANCH  29  30
ENDBRANCH  28  29
ENDBRANCH   1  28
TORSDOF 13
