REMARK SMILES Cc1cnn(C2(C(=O)NCCCNC(=O)c3ccc(-c4c5nc(c(-c6ccccc6)c6ccc([nH]6)c(-c6ccccc6)c6nc(c(-c7ccccc7)c7ccc4[nH]7)C=C6)C=C5)cc3)CCN(C(=O)c3cc4ccccc4[nH]3)CC2)c1
REMARK SMILES IDX 11 1 10 2 9 3 7 4 8 5 6 7 64 8 79 9 65 10 78 11 66 12 67 13
REMARK SMILES IDX 68 14 5 15 1 16 2 17 3 18 80 19 4 20 69 21 70 22 77 23 71 24
REMARK SMILES IDX 76 25 72 27 75 28 73 29 74 30 12 31 13 32 14 33 15 35 16 36
REMARK SMILES IDX 17 37 63 38 18 39 62 40 19 41 20 42 21 43 56 44 22 45 61 46
REMARK SMILES IDX 55 47 57 48 23 49 60 50 54 51 53 52 24 54 46 55 31 56 45 57
REMARK SMILES IDX 32 58 35 59 44 60 58 61 33 62 34 63 43 65 59 66 36 67 25 68
REMARK SMILES IDX 26 69 30 70 27 71 29 72 28 73 47 74 48 75 52 76 49 77 51 78
REMARK SMILES IDX 50 79 37 80 38 81 42 82 39 83 41 84 40 85
REMARK H PARENT 9 6 77 26 13 34 57 53 35 64
REMARK Flexibility Score: inf
ROOT
ATOM      1  C   UNL     1      -0.875   3.793  -7.706  1.00  0.00     0.042 C 
ENDROOT
BRANCH   1   2
ATOM      2  C   UNL     1      -1.789   3.061  -6.719  1.00  0.00     0.117 C 
BRANCH   2   3
ATOM      3  N   UNL     1      -1.508   1.629  -6.589  1.00  0.00    -0.354 N 
ATOM      4  C   UNL     1      -0.989   0.853  -5.569  1.00  0.00     0.248 C 
ATOM      5  O   UNL     1      -0.837  -0.330  -5.879  1.00  0.00    -0.272 OA
ATOM      6  H   UNL     1      -1.736   1.112  -7.395  1.00  0.00     0.163 HD
BRANCH   4   7
ATOM      7  C   UNL     1      -0.581   1.488  -4.199  1.00  0.00     0.144 C 
ATOM      8  C   UNL     1       0.615   2.418  -4.537  1.00  0.00     0.062 C 
ATOM      9  C   UNL     1      -1.842   2.155  -3.601  1.00  0.00     0.062 C 
ATOM     10  C   UNL     1       0.706   3.704  -3.738  1.00  0.00     0.123 C 
ATOM     11  C   UNL     1      -1.576   3.432  -2.822  1.00  0.00     0.123 C 
ATOM     12  N   UNL     1      -0.591   4.295  -3.467  1.00  0.00    -0.337 N 
ATOM     13  C   UNL     1      -0.775   5.653  -3.746  1.00  0.00     0.270 C 
ATOM     14  O   UNL     1      -0.076   6.235  -4.573  1.00  0.00    -0.267 OA
BRANCH   7  15
ATOM     15  N   UNL     1      -0.115   0.521  -3.150  1.00  0.00    -0.257 N 
ATOM     16  C   UNL     1       1.037  -0.415   0.203  1.00  0.00     0.048 C 
ATOM     17  C   UNL     1       0.541  -0.289  -1.184  1.00  0.00    -0.013 A 
ATOM     18  C   UNL     1       0.086  -1.292  -2.060  1.00  0.00     0.138 A 
ATOM     19  C   UNL     1       0.402   0.866  -1.919  1.00  0.00     0.113 A 
ATOM     20  N   UNL     1      -0.356  -0.801  -3.219  1.00  0.00    -0.180 NA
ENDBRANCH   7  15
BRANCH  13  21
ATOM     21  C   UNL     1      -1.845   6.342  -3.061  1.00  0.00     0.105 A 
ATOM     22  C   UNL     1      -2.339   6.205  -1.775  1.00  0.00     0.042 A 
ATOM     23  N   UNL     1      -2.553   7.373  -3.636  1.00  0.00    -0.351 N 
ATOM     24  C   UNL     1      -3.525   6.972  -1.675  1.00  0.00     0.000 A 
ATOM     25  C   UNL     1      -3.634   7.707  -2.853  1.00  0.00     0.046 A 
ATOM     26  H   UNL     1      -2.320   7.809  -4.487  1.00  0.00     0.167 HD
ATOM     27  C   UNL     1      -4.525   7.094  -0.694  1.00  0.00     0.010 A 
ATOM     28  C   UNL     1      -4.691   8.590  -3.092  1.00  0.00     0.026 A 
ATOM     29  C   UNL     1      -5.607   7.946  -0.932  1.00  0.00     0.001 A 
ATOM     30  C   UNL     1      -5.682   8.688  -2.110  1.00  0.00     0.002 A 
ENDBRANCH  13  21
ENDBRANCH   4   7
ENDBRANCH   2   3
ENDBRANCH   1   2
BRANCH   1  31
ATOM     31  C   UNL     1      -1.129   3.417  -9.152  1.00  0.00     0.118 C 
BRANCH  31  32
ATOM     32  N   UNL     1      -2.411   3.899  -9.662  1.00  0.00    -0.352 N 
ATOM     33  C   UNL     1      -2.928   3.732 -10.938  1.00  0.00     0.251 C 
ATOM     34  H   UNL     1      -2.972   4.401  -9.027  1.00  0.00     0.163 HD
ATOM     35  O   UNL     1      -3.831   4.431 -11.353  1.00  0.00    -0.269 OA
BRANCH  33  36
ATOM     36  C   UNL     1      -2.329   2.686 -11.790  1.00  0.00     0.039 A 
ATOM     37  C   UNL     1      -1.982   2.944 -13.117  1.00  0.00     0.014 A 
ATOM     38  C   UNL     1      -2.036   1.461 -11.200  1.00  0.00     0.014 A 
ATOM     39  C   UNL     1      -1.245   1.988 -13.813  1.00  0.00     0.010 A 
ATOM     40  C   UNL     1      -1.168   0.602 -11.825  1.00  0.00     0.010 A 
ATOM     41  C   UNL     1      -0.811   0.828 -13.150  1.00  0.00    -0.014 A 
BRANCH  41  42
ATOM     42  C   UNL     1       0.096  -0.113 -13.805  1.00  0.00     0.031 A 
ATOM     43  C   UNL     1       1.335   0.486 -14.363  1.00  0.00     0.074 A 
ATOM     44  C   UNL     1      -0.040  -1.455 -13.736  1.00  0.00     0.049 A 
ATOM     45  N   UNL     1       1.645   0.634 -15.608  1.00  0.00    -0.248 NA
ATOM     46  C   UNL     1       2.304   1.085 -13.431  1.00  0.00     0.031 C 
ATOM     47  C   UNL     1      -1.000  -2.220 -12.927  1.00  0.00     0.029 A 
ATOM     48  N   UNL     1       0.735  -2.434 -14.287  1.00  0.00    -0.354 N 
ATOM     49  C   UNL     1       2.943   1.140 -15.619  1.00  0.00     0.074 A 
ATOM     50  C   UNL     1       3.220   1.570 -14.272  1.00  0.00     0.031 C 
ATOM     51  C   UNL     1      -0.597  -3.505 -12.837  1.00  0.00     0.029 A 
ATOM     52  C   UNL     1       0.509  -3.696 -13.755  1.00  0.00     0.049 A 
ATOM     53  H   UNL     1       1.393  -2.262 -14.998  1.00  0.00     0.167 HD
ATOM     54  C   UNL     1       3.781   0.886 -16.662  1.00  0.00     0.031 A 
ATOM     55  C   UNL     1       1.158  -4.843 -14.053  1.00  0.00     0.031 A 
ATOM     56  C   UNL     1       3.074   0.296 -17.770  1.00  0.00     0.049 A 
ATOM     57  C   UNL     1       1.767  -4.686 -15.387  1.00  0.00     0.074 A 
ATOM     58  C   UNL     1       2.248   0.713 -18.788  1.00  0.00     0.029 A 
ATOM     59  N   UNL     1       2.942  -1.063 -17.664  1.00  0.00    -0.354 N 
ATOM     60  N   UNL     1       1.067  -4.548 -16.477  1.00  0.00    -0.248 NA
ATOM     61  C   UNL     1       3.183  -4.364 -15.506  1.00  0.00     0.031 C 
ATOM     62  C   UNL     1       1.478  -0.430 -19.167  1.00  0.00     0.029 A 
ATOM     63  C   UNL     1       1.878  -1.518 -18.395  1.00  0.00     0.049 A 
ATOM     64  H   UNL     1       3.536  -1.639 -17.131  1.00  0.00     0.167 HD
ATOM     65  C   UNL     1       1.836  -3.720 -17.268  1.00  0.00     0.074 A 
ATOM     66  C   UNL     1       3.183  -3.801 -16.718  1.00  0.00     0.031 C 
ATOM     67  C   UNL     1       1.260  -2.789 -18.080  1.00  0.00     0.031 A 
BRANCH  54  68
ATOM     68  C   UNL     1       5.276   0.673 -16.530  1.00  0.00    -0.014 A 
ATOM     69  C   UNL     1       6.019   0.409 -17.698  1.00  0.00     0.009 A 
ATOM     70  C   UNL     1       5.924   0.422 -15.306  1.00  0.00     0.009 A 
ATOM     71  C   UNL     1       7.309  -0.136 -17.642  1.00  0.00     0.001 A 
ATOM     72  C   UNL     1       7.226  -0.089 -15.246  1.00  0.00     0.001 A 
ATOM     73  C   UNL     1       7.909  -0.392 -16.415  1.00  0.00     0.000 A 
ENDBRANCH  54  68
BRANCH  55  74
ATOM     74  C   UNL     1       1.407  -6.022 -13.207  1.00  0.00    -0.014 A 
ATOM     75  C   UNL     1       1.648  -7.278 -13.781  1.00  0.00     0.009 A 
ATOM     76  C   UNL     1       1.688  -5.851 -11.839  1.00  0.00     0.009 A 
ATOM     77  C   UNL     1       2.207  -8.314 -13.024  1.00  0.00     0.001 A 
ATOM     78  C   UNL     1       2.247  -6.886 -11.085  1.00  0.00     0.001 A 
ATOM     79  C   UNL     1       2.525  -8.112 -11.683  1.00  0.00     0.000 A 
ENDBRANCH  55  74
BRANCH  67  80
ATOM     80  C   UNL     1      -0.165  -3.010 -18.495  1.00  0.00    -0.014 A 
ATOM     81  C   UNL     1      -1.248  -2.999 -17.600  1.00  0.00     0.009 A 
ATOM     82  C   UNL     1      -0.428  -3.176 -19.862  1.00  0.00     0.009 A 
ATOM     83  C   UNL     1      -2.556  -3.176 -18.064  1.00  0.00     0.001 A 
ATOM     84  C   UNL     1      -1.734  -3.333 -20.327  1.00  0.00     0.001 A 
ATOM     85  C   UNL     1      -2.797  -3.339 -19.428  1.00  0.00     0.000 A 
ENDBRANCH  67  80
ENDBRANCH  41  42
ENDBRANCH  33  36
ENDBRANCH  31  32
ENDBRANCH   1  31
TORSDOF 12
