REMARK SMILES Cn1ncc(C(=O)NCCCNC(=O)c2ccc(-c3c4nc(c(-c5ccccc5)c5ccc([nH]5)c(-c5ccccc5)c5nc(c(-c6ccccc6)c6ccc3[nH]6)C=C5)C=C4)cc2)c1C(=O)Nc1ccccn1
REMARK SMILES IDX 10 1 9 2 8 3 6 4 7 5 5 7 1 8 2 9 3 10 63 11 4 12 64 13 65 14
REMARK SMILES IDX 66 15 67 17 68 18 72 19 69 20 71 21 70 22 11 23 12 24 13 25
REMARK SMILES IDX 14 27 15 28 16 29 62 30 17 31 61 32 18 33 19 34 20 35 55 36
REMARK SMILES IDX 21 37 60 38 54 39 56 40 22 41 59 42 53 43 52 44 23 46 45 47
REMARK SMILES IDX 30 48 44 49 31 50 34 51 43 52 57 53 32 54 33 55 42 57 58 58
REMARK SMILES IDX 35 59 24 60 25 61 29 62 26 63 28 64 27 65 46 66 47 67 51 68
REMARK SMILES IDX 48 69 50 70 49 71 36 72 37 73 41 74 38 75 40 76 39 77
REMARK H PARENT 8 6 66 16 12 26 56 45 34 56
REMARK Flexibility Score: inf
ROOT
ATOM      1  C   UNL     1       1.496  -4.703  -1.345  1.00  0.00     0.042 C 
ENDROOT
BRANCH   1   2
ATOM      2  C   UNL     1       1.420  -3.799  -0.131  1.00  0.00     0.118 C 
BRANCH   2   3
ATOM      3  N   UNL     1       2.470  -2.814  -0.072  1.00  0.00    -0.352 N 
ATOM      4  C   UNL     1       2.470  -1.448  -0.013  1.00  0.00     0.255 C 
ATOM      5  O   UNL     1       3.593  -0.934  -0.051  1.00  0.00    -0.269 OA
ATOM      6  H   UNL     1       3.374  -3.205  -0.074  1.00  0.00     0.163 HD
BRANCH   4   7
ATOM      7  C   UNL     1       1.289  -0.589   0.045  1.00  0.00     0.090 A 
ATOM      8  C   UNL     1      -1.742   1.045   1.124  1.00  0.00     0.174 C 
ATOM      9  N   UNL     1      -0.553   0.550   0.467  1.00  0.00    -0.262 N 
ATOM     10  N   UNL     1       0.250   1.459  -0.106  1.00  0.00    -0.180 NA
ATOM     11  C   UNL     1      -0.046  -0.732   0.451  1.00  0.00     0.139 A 
ATOM     12  C   UNL     1       1.384   0.792  -0.285  1.00  0.00     0.149 A 
BRANCH  11  13
ATOM     13  C   UNL     1      -0.730  -1.877   0.994  1.00  0.00     0.275 C 
ATOM     14  O   UNL     1      -0.294  -2.491   1.968  1.00  0.00    -0.267 OA
ATOM     15  N   UNL     1      -1.804  -2.433   0.318  1.00  0.00    -0.305 N 
ATOM     16  H   UNL     1      -1.748  -3.381   0.060  1.00  0.00     0.171 HD
BRANCH  15  17
ATOM     17  C   UNL     1      -2.956  -1.728  -0.018  1.00  0.00     0.132 A 
ATOM     18  C   UNL     1      -3.066  -0.945  -1.155  1.00  0.00     0.047 A 
ATOM     19  N   UNL     1      -3.945  -1.871   0.884  1.00  0.00    -0.239 NA
ATOM     20  C   UNL     1      -4.240  -0.206  -1.322  1.00  0.00     0.005 A 
ATOM     21  C   UNL     1      -5.057  -1.131   0.713  1.00  0.00     0.113 A 
ATOM     22  C   UNL     1      -5.244  -0.279  -0.358  1.00  0.00     0.020 A 
ENDBRANCH  15  17
ENDBRANCH  11  13
ENDBRANCH   4   7
ENDBRANCH   2   3
ENDBRANCH   1   2
BRANCH   1  23
ATOM     23  C   UNL     1       2.646  -5.690  -1.317  1.00  0.00     0.118 C 
BRANCH  23  24
ATOM     24  N   UNL     1       2.520  -6.686  -0.257  1.00  0.00    -0.352 N 
ATOM     25  C   UNL     1       2.189  -8.019  -0.315  1.00  0.00     0.251 C 
ATOM     26  H   UNL     1       2.703  -6.346   0.649  1.00  0.00     0.163 HD
ATOM     27  O   UNL     1       1.965  -8.642   0.721  1.00  0.00    -0.269 OA
BRANCH  25  28
ATOM     28  C   UNL     1       2.067  -8.701  -1.620  1.00  0.00     0.039 A 
ATOM     29  C   UNL     1       1.011  -9.591  -1.836  1.00  0.00     0.014 A 
ATOM     30  C   UNL     1       2.987  -8.453  -2.637  1.00  0.00     0.014 A 
ATOM     31  C   UNL     1       0.822 -10.146  -3.104  1.00  0.00     0.010 A 
ATOM     32  C   UNL     1       2.729  -8.905  -3.923  1.00  0.00     0.010 A 
ATOM     33  C   UNL     1       1.647  -9.762  -4.172  1.00  0.00    -0.014 A 
BRANCH  33  34
ATOM     34  C   UNL     1       1.429 -10.244  -5.559  1.00  0.00     0.031 A 
ATOM     35  C   UNL     1       2.525 -10.997  -6.264  1.00  0.00     0.074 A 
ATOM     36  C   UNL     1       0.302  -9.911  -6.219  1.00  0.00     0.049 A 
ATOM     37  N   UNL     1       2.605 -11.361  -7.518  1.00  0.00    -0.248 NA
ATOM     38  C   UNL     1       3.708 -11.352  -5.460  1.00  0.00     0.031 C 
ATOM     39  C   UNL     1      -0.819  -9.150  -5.663  1.00  0.00     0.029 A 
ATOM     40  N   UNL     1      -0.077 -10.157  -7.515  1.00  0.00    -0.354 N 
ATOM     41  C   UNL     1       3.856 -11.950  -7.658  1.00  0.00     0.074 A 
ATOM     42  C   UNL     1       4.521 -11.847  -6.379  1.00  0.00     0.031 C 
ATOM     43  C   UNL     1      -1.768  -9.014  -6.603  1.00  0.00     0.029 A 
ATOM     44  C   UNL     1      -1.303  -9.630  -7.840  1.00  0.00     0.049 A 
ATOM     45  H   UNL     1       0.478 -10.664  -8.151  1.00  0.00     0.167 HD
ATOM     46  C   UNL     1       4.395 -12.545  -8.747  1.00  0.00     0.031 A 
ATOM     47  C   UNL     1      -1.971  -9.628  -9.010  1.00  0.00     0.031 A 
ATOM     48  C   UNL     1       3.720 -12.671 -10.010  1.00  0.00     0.049 A 
ATOM     49  C   UNL     1      -1.349 -10.290 -10.208  1.00  0.00     0.074 A 
ATOM     50  C   UNL     1       4.151 -13.314 -11.157  1.00  0.00     0.029 A 
ATOM     51  N   UNL     1       2.467 -12.147 -10.287  1.00  0.00    -0.354 N 
ATOM     52  N   UNL     1      -0.191 -10.896 -10.309  1.00  0.00    -0.248 NA
ATOM     53  C   UNL     1      -2.130 -10.272 -11.453  1.00  0.00     0.031 C 
ATOM     54  C   UNL     1       3.179 -13.134 -12.146  1.00  0.00     0.029 A 
ATOM     55  C   UNL     1       2.118 -12.432 -11.595  1.00  0.00     0.049 A 
ATOM     56  H   UNL     1       1.909 -11.646  -9.649  1.00  0.00     0.167 HD
ATOM     57  C   UNL     1      -0.118 -11.360 -11.616  1.00  0.00     0.074 A 
ATOM     58  C   UNL     1      -1.353 -10.975 -12.267  1.00  0.00     0.031 C 
ATOM     59  C   UNL     1       0.880 -12.047 -12.222  1.00  0.00     0.031 A 
BRANCH  46  60
ATOM     60  C   UNL     1       5.787 -13.100  -8.617  1.00  0.00    -0.014 A 
ATOM     61  C   UNL     1       6.054 -14.220  -7.813  1.00  0.00     0.009 A 
ATOM     62  C   UNL     1       6.842 -12.510  -9.329  1.00  0.00     0.009 A 
ATOM     63  C   UNL     1       7.355 -14.711  -7.692  1.00  0.00     0.001 A 
ATOM     64  C   UNL     1       8.137 -13.023  -9.232  1.00  0.00     0.001 A 
ATOM     65  C   UNL     1       8.395 -14.115  -8.405  1.00  0.00     0.000 A 
ENDBRANCH  46  60
BRANCH  47  66
ATOM     66  C   UNL     1      -3.311  -8.990  -9.104  1.00  0.00    -0.014 A 
ATOM     67  C   UNL     1      -4.462  -9.776  -9.267  1.00  0.00     0.009 A 
ATOM     68  C   UNL     1      -3.448  -7.595  -9.037  1.00  0.00     0.009 A 
ATOM     69  C   UNL     1      -5.718  -9.178  -9.389  1.00  0.00     0.001 A 
ATOM     70  C   UNL     1      -4.709  -7.001  -9.129  1.00  0.00     0.001 A 
ATOM     71  C   UNL     1      -5.842  -7.792  -9.315  1.00  0.00     0.000 A 
ENDBRANCH  47  66
BRANCH  59  72
ATOM     72  C   UNL     1       0.662 -12.470 -13.646  1.00  0.00    -0.014 A 
ATOM     73  C   UNL     1       0.707 -11.544 -14.699  1.00  0.00     0.009 A 
ATOM     74  C   UNL     1       0.472 -13.830 -13.941  1.00  0.00     0.009 A 
ATOM     75  C   UNL     1       0.541 -11.971 -16.018  1.00  0.00     0.001 A 
ATOM     76  C   UNL     1       0.337 -14.256 -15.262  1.00  0.00     0.001 A 
ATOM     77  C   UNL     1       0.363 -13.326 -16.299  1.00  0.00     0.000 A 
ENDBRANCH  59  72
ENDBRANCH  33  34
ENDBRANCH  25  28
ENDBRANCH  23  24
ENDBRANCH   1  23
TORSDOF 12
