REMARK SMILES O=C(NCCCNC(=O)[C@H](NC(=O)[C@H]1CC[C@@H](CNC(=O)[C@@H]2Cc3ccccc3C[NH2+]2)CC1)c1ccccc1)c1ccc(-c2c3nc(c(-c4ccccc4)c4ccc([nH]4)c(-c4ccccc4)c4nc(c(-c5ccccc5)c5ccc2[nH]5)C=C4)C=C3)cc1
REMARK SMILES IDX 7 1 8 2 9 3 6 5 5 6 4 7 3 8 1 9 2 10 40 12 41 13 87 14 42 15
REMARK SMILES IDX 86 16 43 17 44 18 45 19 80 20 46 21 85 22 79 23 81 24 47 25
REMARK SMILES IDX 84 26 78 27 77 28 48 30 70 31 55 32 69 33 56 34 59 35 68 36
REMARK SMILES IDX 82 37 57 38 58 39 67 41 83 42 60 43 49 44 50 45 54 46 51 47
REMARK SMILES IDX 53 48 52 49 71 50 72 51 76 52 73 53 75 54 74 55 61 56 62 57
REMARK SMILES IDX 66 58 63 59 65 60 64 61 10 62 34 63 35 64 39 65 36 66 38 67
REMARK SMILES IDX 37 68 11 69 12 70 13 72 14 73 33 74 15 75 32 76 16 77 17 78
REMARK SMILES IDX 18 79 19 80 20 81 21 83 22 84 23 85 31 86 24 87 30 88 25 91
REMARK SMILES IDX 29 92 26 93 28 94 27 95
REMARK H PARENT 7 4 3 11 81 29 59 40 11 71 19 82 31 89 31 90
REMARK Flexibility Score: inf
ROOT
ATOM      1  N   UNL     1       7.459   3.826   2.581  1.00  0.00    -0.354 N 
ATOM      2  C   UNL     1       6.650   3.957   3.668  1.00  0.00     0.247 C 
ATOM      3  O   UNL     1       7.167   3.708   4.764  1.00  0.00    -0.272 OA
ATOM      4  H   UNL     1       8.265   3.282   2.736  1.00  0.00     0.163 HD
ENDROOT
BRANCH   1   5
ATOM      5  C   UNL     1       7.340   4.351   1.234  1.00  0.00     0.117 C 
BRANCH   5   6
ATOM      6  C   UNL     1       7.978   5.726   1.152  1.00  0.00     0.042 C 
BRANCH   6   7
ATOM      7  C   UNL     1       9.491   5.642   1.230  1.00  0.00     0.118 C 
BRANCH   7   8
ATOM      8  N   UNL     1      10.055   5.109  -0.001  1.00  0.00    -0.352 N 
ATOM      9  O   UNL     1      10.790   5.216  -2.129  1.00  0.00    -0.269 OA
ATOM     10  C   UNL     1      10.633   5.778  -1.052  1.00  0.00     0.251 C 
ATOM     11  H   UNL     1      10.018   4.130  -0.094  1.00  0.00     0.163 HD
BRANCH  10  12
ATOM     12  C   UNL     1      11.067   7.179  -0.872  1.00  0.00     0.039 A 
ATOM     13  C   UNL     1      11.669   7.572   0.324  1.00  0.00     0.014 A 
ATOM     14  C   UNL     1      10.920   8.093  -1.918  1.00  0.00     0.014 A 
ATOM     15  C   UNL     1      11.986   8.902   0.537  1.00  0.00     0.010 A 
ATOM     16  C   UNL     1      11.371   9.406  -1.753  1.00  0.00     0.010 A 
ATOM     17  C   UNL     1      11.907   9.816  -0.523  1.00  0.00    -0.014 A 
BRANCH  17  18
ATOM     18  C   UNL     1      12.563  11.133  -0.357  1.00  0.00     0.031 A 
ATOM     19  C   UNL     1      11.789  12.414  -0.419  1.00  0.00     0.074 A 
ATOM     20  C   UNL     1      13.893  11.137  -0.130  1.00  0.00     0.049 A 
ATOM     21  N   UNL     1      12.232  13.638  -0.295  1.00  0.00    -0.248 NA
ATOM     22  C   UNL     1      10.340  12.319  -0.656  1.00  0.00     0.031 C 
ATOM     23  C   UNL     1      14.743   9.940  -0.062  1.00  0.00     0.029 A 
ATOM     24  N   UNL     1      14.764  12.167   0.106  1.00  0.00    -0.354 N 
ATOM     25  C   UNL     1      11.127  14.461  -0.465  1.00  0.00     0.074 A 
ATOM     26  C   UNL     1       9.991  13.599  -0.710  1.00  0.00     0.031 C 
ATOM     27  C   UNL     1      15.993  10.300   0.252  1.00  0.00     0.029 A 
ATOM     28  C   UNL     1      16.058  11.752   0.312  1.00  0.00     0.049 A 
ATOM     29  H   UNL     1      14.490  13.113   0.126  1.00  0.00     0.167 HD
ATOM     30  C   UNL     1      11.078  15.813  -0.424  1.00  0.00     0.031 A 
ATOM     31  C   UNL     1      17.186  12.461   0.489  1.00  0.00     0.031 A 
ATOM     32  C   UNL     1      12.220  16.655  -0.176  1.00  0.00     0.049 A 
ATOM     33  C   UNL     1      17.096  13.956   0.481  1.00  0.00     0.074 A 
ATOM     34  C   UNL     1      12.262  18.035  -0.066  1.00  0.00     0.029 A 
ATOM     35  N   UNL     1      13.520  16.201  -0.014  1.00  0.00    -0.354 N 
ATOM     36  N   UNL     1      16.033  14.716   0.377  1.00  0.00    -0.248 NA
ATOM     37  C   UNL     1      18.359  14.691   0.606  1.00  0.00     0.031 C 
ATOM     38  C   UNL     1      13.597  18.419   0.094  1.00  0.00     0.029 A 
ATOM     39  C   UNL     1      14.378  17.276   0.151  1.00  0.00     0.049 A 
ATOM     40  H   UNL     1      13.793  15.255  -0.015  1.00  0.00     0.167 HD
ATOM     41  C   UNL     1      16.498  16.020   0.432  1.00  0.00     0.074 A 
ATOM     42  C   UNL     1      17.933  15.946   0.619  1.00  0.00     0.031 C 
ATOM     43  C   UNL     1      15.803  17.178   0.327  1.00  0.00     0.031 A 
BRANCH  30  44
ATOM     44  C   UNL     1       9.759  16.485  -0.687  1.00  0.00    -0.014 A 
ATOM     45  C   UNL     1       8.729  16.478   0.265  1.00  0.00     0.009 A 
ATOM     46  C   UNL     1       9.586  17.223  -1.870  1.00  0.00     0.009 A 
ATOM     47  C   UNL     1       7.548  17.187   0.032  1.00  0.00     0.001 A 
ATOM     48  C   UNL     1       8.415  17.950  -2.090  1.00  0.00     0.001 A 
ATOM     49  C   UNL     1       7.395  17.929  -1.140  1.00  0.00     0.000 A 
ENDBRANCH  30  44
BRANCH  31  50
ATOM     50  C   UNL     1      18.495  11.768   0.614  1.00  0.00    -0.014 A 
ATOM     51  C   UNL     1      19.241  11.844   1.799  1.00  0.00     0.009 A 
ATOM     52  C   UNL     1      19.016  11.039  -0.469  1.00  0.00     0.009 A 
ATOM     53  C   UNL     1      20.496  11.236   1.883  1.00  0.00     0.001 A 
ATOM     54  C   UNL     1      20.252  10.400  -0.369  1.00  0.00     0.001 A 
ATOM     55  C   UNL     1      20.998  10.513   0.802  1.00  0.00     0.000 A 
ENDBRANCH  31  50
BRANCH  43  56
ATOM     56  C   UNL     1      16.593  18.450   0.430  1.00  0.00    -0.014 A 
ATOM     57  C   UNL     1      17.455  18.854  -0.602  1.00  0.00     0.009 A 
ATOM     58  C   UNL     1      16.457  19.264   1.565  1.00  0.00     0.009 A 
ATOM     59  C   UNL     1      18.194  20.031  -0.482  1.00  0.00     0.001 A 
ATOM     60  C   UNL     1      17.172  20.458   1.667  1.00  0.00     0.001 A 
ATOM     61  C   UNL     1      18.047  20.834   0.649  1.00  0.00     0.000 A 
ENDBRANCH  43  56
ENDBRANCH  17  18
ENDBRANCH  10  12
ENDBRANCH   7   8
ENDBRANCH   6   7
ENDBRANCH   5   6
ENDBRANCH   1   5
BRANCH   2  62
ATOM     62  C   UNL     1       5.167   4.422   3.581  1.00  0.00     0.202 C 
BRANCH  62  63
ATOM     63  C   UNL     1       5.022   5.838   4.118  1.00  0.00    -0.016 A 
ATOM     64  C   UNL     1       4.724   6.019   5.481  1.00  0.00     0.006 A 
ATOM     65  C   UNL     1       5.256   6.976   3.333  1.00  0.00     0.006 A 
ATOM     66  C   UNL     1       4.670   7.296   6.042  1.00  0.00     0.000 A 
ATOM     67  C   UNL     1       5.218   8.253   3.899  1.00  0.00     0.000 A 
ATOM     68  C   UNL     1       4.926   8.412   5.252  1.00  0.00     0.000 A 
ENDBRANCH  62  63
BRANCH  62  69
ATOM     69  N   UNL     1       4.503   4.217   2.301  1.00  0.00    -0.340 N 
ATOM     70  C   UNL     1       4.033   3.081   1.720  1.00  0.00     0.224 C 
ATOM     71  H   UNL     1       4.374   5.035   1.769  1.00  0.00     0.164 HD
ATOM     72  O   UNL     1       3.763   3.146   0.517  1.00  0.00    -0.275 OA
BRANCH  70  73
ATOM     73  C   UNL     1       3.770   1.786   2.492  1.00  0.00     0.078 C 
ATOM     74  C   UNL     1       5.010   1.108   3.085  1.00  0.00     0.014 C 
ATOM     75  C   UNL     1       2.612   2.001   3.476  1.00  0.00     0.014 C 
ATOM     76  C   UNL     1       4.681  -0.058   4.019  1.00  0.00     0.006 C 
ATOM     77  C   UNL     1       2.368   0.798   4.377  1.00  0.00     0.006 C 
ATOM     78  C   UNL     1       3.640   0.316   5.087  1.00  0.00     0.008 C 
BRANCH  78  79
ATOM     79  C   UNL     1       4.217   1.327   6.097  1.00  0.00     0.119 C 
BRANCH  79  80
ATOM     80  N   UNL     1       3.279   1.667   7.152  1.00  0.00    -0.351 N 
ATOM     81  C   UNL     1       3.521   1.813   8.490  1.00  0.00     0.278 C 
ATOM     82  H   UNL     1       2.348   1.811   6.867  1.00  0.00     0.163 HD
ATOM     83  O   UNL     1       2.614   2.247   9.203  1.00  0.00    -0.268 OA
BRANCH  81  84
ATOM     84  C   UNL     1       4.923   1.500   9.036  1.00  0.00     0.277 C 
ATOM     85  C   UNL     1       4.847   1.081  10.513  1.00  0.00     0.111 C 
ATOM     86  N   UNL     1       5.823   2.651   8.743  1.00  0.00    -0.332 N 
ATOM     87  C   UNL     1       6.252   0.781  10.965  1.00  0.00    -0.033 A 
ATOM     88  C   UNL     1       6.820   2.911   9.792  1.00  0.00     0.298 C 
ATOM     89  H   UNL     1       5.249   3.486   8.632  1.00  0.00     0.347 HD
ATOM     90  H   UNL     1       6.340   2.413   7.897  1.00  0.00     0.347 HD
ATOM     91  C   UNL     1       6.583  -0.347  11.717  1.00  0.00     0.004 A 
ATOM     92  C   UNL     1       7.250   1.684  10.556  1.00  0.00     0.010 A 
ATOM     93  C   UNL     1       7.916  -0.579  12.056  1.00  0.00     0.000 A 
ATOM     94  C   UNL     1       8.579   1.453  10.917  1.00  0.00     0.010 A 
ATOM     95  C   UNL     1       8.910   0.318  11.658  1.00  0.00     0.001 A 
ENDBRANCH  81  84
ENDBRANCH  79  80
ENDBRANCH  78  79
ENDBRANCH  70  73
ENDBRANCH  62  69
ENDBRANCH   2  62
TORSDOF 16
