REMARK SMILES CSCc1ccc(C(=O)N[C@H]2C=C[C@@H](C(=O)NCCCNC(=O)c3ccc(-c4c5nc(c(-c6ccccc6)c6ccc([nH]6)c(-c6ccccc6)c6nc(c(-c7ccccc7)c7ccc4[nH]7)C=C6)C=C5)cc3)C2)o1
REMARK SMILES IDX 18 1 17 2 15 3 16 4 14 6 11 7 12 8 72 9 13 10 10 11 8 12
REMARK SMILES IDX 9 13 7 15 4 16 5 17 73 18 6 19 3 20 2 21 1 22 19 23 20 24
REMARK SMILES IDX 21 25 22 26 23 28 24 29 25 30 71 31 26 32 70 33 27 34 28 35
REMARK SMILES IDX 29 36 64 37 30 38 69 39 63 40 65 41 31 42 68 43 62 44 61 45
REMARK SMILES IDX 32 47 54 48 39 49 53 50 40 51 43 52 52 53 66 54 41 55 42 56
REMARK SMILES IDX 51 58 67 59 44 60 33 61 34 62 38 63 35 64 37 65 36 66 55 67
REMARK SMILES IDX 56 68 60 69 57 70 59 71 58 72 45 73 46 74 50 75 47 76 49 77
REMARK SMILES IDX 48 78
REMARK H PARENT 17 5 10 14 21 27 65 46 43 57
REMARK Flexibility Score: inf
ROOT
ATOM      1  C   UNL     1       1.570   5.558   1.378  1.00  0.00     0.117 C 
ENDROOT
BRANCH   1   2
ATOM      2  N   UNL     1       0.836   5.822   2.594  1.00  0.00    -0.356 N 
ATOM      3  C   UNL     1      -0.444   6.207   2.815  1.00  0.00     0.227 C 
ATOM      4  O   UNL     1      -0.816   6.170   3.996  1.00  0.00    -0.274 OA
ATOM      5  H   UNL     1       1.365   5.699   3.415  1.00  0.00     0.163 HD
BRANCH   3   6
ATOM      6  C   UNL     1      -1.445   6.636   1.732  1.00  0.00     0.103 C 
ATOM      7  C   UNL     1      -1.352   6.800  -0.739  1.00  0.00     0.106 C 
ATOM      8  C   UNL     1      -2.195   5.685  -0.276  1.00  0.00    -0.006 C 
ATOM      9  C   UNL     1      -1.010   7.538   0.574  1.00  0.00     0.047 C 
ATOM     10  C   UNL     1      -2.186   5.530   1.053  1.00  0.00    -0.016 C 
BRANCH   7  11
ATOM     11  N   UNL     1      -0.154   6.443  -1.490  1.00  0.00    -0.343 N 
ATOM     12  C   UNL     1       0.528   5.378  -2.022  1.00  0.00     0.287 C 
ATOM     13  O   UNL     1       1.569   5.740  -2.590  1.00  0.00    -0.266 OA
ATOM     14  H   UNL     1       0.349   7.266  -1.687  1.00  0.00     0.164 HD
BRANCH  12  15
ATOM     15  C   UNL     1       0.171   3.968  -1.949  1.00  0.00     0.191 A 
ATOM     16  C   UNL     1       0.641   1.821  -2.384  1.00  0.00     0.114 A 
ATOM     17  C   UNL     1      -0.595   1.837  -1.787  1.00  0.00     0.047 A 
ATOM     18  O   UNL     1       1.093   3.100  -2.518  1.00  0.00    -0.455 OA
ATOM     19  C   UNL     1      -0.846   3.183  -1.440  1.00  0.00     0.056 A 
BRANCH  16  20
ATOM     20  C   UNL     1       1.539   0.737  -2.858  1.00  0.00     0.144 C 
BRANCH  20  21
ATOM     21  S   UNL     1       1.256  -0.854  -1.996  1.00  0.00    -0.157 SA
ATOM     22  C   UNL     1       1.606  -0.354  -0.287  1.00  0.00     0.085 C 
ENDBRANCH  20  21
ENDBRANCH  16  20
ENDBRANCH  12  15
ENDBRANCH   7  11
ENDBRANCH   3   6
ENDBRANCH   1   2
BRANCH   1  23
ATOM     23  C   UNL     1       2.532   6.679   0.994  1.00  0.00     0.042 C 
BRANCH  23  24
ATOM     24  C   UNL     1       3.633   6.943   2.014  1.00  0.00     0.118 C 
BRANCH  24  25
ATOM     25  N   UNL     1       4.615   5.873   2.079  1.00  0.00    -0.352 N 
ATOM     26  C   UNL     1       5.966   5.905   1.843  1.00  0.00     0.251 C 
ATOM     27  H   UNL     1       4.256   4.991   2.329  1.00  0.00     0.163 HD
ATOM     28  O   UNL     1       6.598   4.849   1.788  1.00  0.00    -0.269 OA
BRANCH  26  29
ATOM     29  C   UNL     1       6.672   7.189   1.638  1.00  0.00     0.039 A 
ATOM     30  C   UNL     1       7.641   7.273   0.633  1.00  0.00     0.014 A 
ATOM     31  C   UNL     1       6.412   8.299   2.446  1.00  0.00     0.014 A 
ATOM     32  C   UNL     1       8.302   8.482   0.400  1.00  0.00     0.010 A 
ATOM     33  C   UNL     1       7.013   9.524   2.161  1.00  0.00     0.010 A 
ATOM     34  C   UNL     1       7.970   9.628   1.140  1.00  0.00    -0.014 A 
BRANCH  34  35
ATOM     35  C   UNL     1       8.617  10.939   0.872  1.00  0.00     0.031 A 
ATOM     36  C   UNL     1       9.456  11.600   1.933  1.00  0.00     0.074 A 
ATOM     37  C   UNL     1       8.400  11.568  -0.300  1.00  0.00     0.049 A 
ATOM     38  N   UNL     1      10.034  12.775   1.917  1.00  0.00    -0.248 NA
ATOM     39  C   UNL     1       9.648  10.854   3.187  1.00  0.00     0.031 C 
ATOM     40  C   UNL     1       7.585  11.053  -1.402  1.00  0.00     0.029 A 
ATOM     41  N   UNL     1       8.842  12.785  -0.755  1.00  0.00    -0.354 N 
ATOM     42  C   UNL     1      10.639  12.916   3.160  1.00  0.00     0.074 A 
ATOM     43  C   UNL     1      10.316  11.730   3.923  1.00  0.00     0.031 C 
ATOM     44  C   UNL     1       7.606  11.935  -2.414  1.00  0.00     0.029 A 
ATOM     45  C   UNL     1       8.396  13.096  -2.018  1.00  0.00     0.049 A 
ATOM     46  H   UNL     1       9.424  13.379  -0.228  1.00  0.00     0.167 HD
ATOM     47  C   UNL     1      11.408  13.931   3.621  1.00  0.00     0.031 A 
ATOM     48  C   UNL     1       8.593  14.196  -2.769  1.00  0.00     0.031 A 
ATOM     49  C   UNL     1      11.741  15.105   2.860  1.00  0.00     0.049 A 
ATOM     50  C   UNL     1       9.433  15.319  -2.226  1.00  0.00     0.074 A 
ATOM     51  C   UNL     1      12.558  16.163   3.221  1.00  0.00     0.029 A 
ATOM     52  N   UNL     1      11.272  15.378   1.585  1.00  0.00    -0.354 N 
ATOM     53  N   UNL     1      10.047  15.409  -1.071  1.00  0.00    -0.248 NA
ATOM     54  C   UNL     1       9.616  16.488  -3.098  1.00  0.00     0.031 C 
ATOM     55  C   UNL     1      12.540  17.102   2.184  1.00  0.00     0.029 A 
ATOM     56  C   UNL     1      11.762  16.600   1.153  1.00  0.00     0.049 A 
ATOM     57  H   UNL     1      10.679  14.791   1.063  1.00  0.00     0.167 HD
ATOM     58  C   UNL     1      10.713  16.628  -1.091  1.00  0.00     0.074 A 
ATOM     59  C   UNL     1      10.440  17.235  -2.377  1.00  0.00     0.031 C 
ATOM     60  C   UNL     1      11.484  17.192  -0.129  1.00  0.00     0.031 A 
BRANCH  47  61
ATOM     61  C   UNL     1      11.937  13.816   5.025  1.00  0.00    -0.014 A 
ATOM     62  C   UNL     1      12.920  12.871   5.360  1.00  0.00     0.009 A 
ATOM     63  C   UNL     1      11.470  14.689   6.020  1.00  0.00     0.009 A 
ATOM     64  C   UNL     1      13.394  12.775   6.670  1.00  0.00     0.001 A 
ATOM     65  C   UNL     1      11.968  14.612   7.322  1.00  0.00     0.001 A 
ATOM     66  C   UNL     1      12.921  13.649   7.649  1.00  0.00     0.000 A 
ENDBRANCH  47  61
BRANCH  48  67
ATOM     67  C   UNL     1       7.990  14.290  -4.125  1.00  0.00    -0.014 A 
ATOM     68  C   UNL     1       8.802  14.244  -5.269  1.00  0.00     0.009 A 
ATOM     69  C   UNL     1       6.603  14.438  -4.284  1.00  0.00     0.009 A 
ATOM     70  C   UNL     1       8.240  14.371  -6.542  1.00  0.00     0.001 A 
ATOM     71  C   UNL     1       6.042  14.535  -5.558  1.00  0.00     0.001 A 
ATOM     72  C   UNL     1       6.861  14.512  -6.686  1.00  0.00     0.000 A 
ENDBRANCH  48  67
BRANCH  60  73
ATOM     73  C   UNL     1      12.123  18.515  -0.446  1.00  0.00    -0.014 A 
ATOM     74  C   UNL     1      11.366  19.695  -0.518  1.00  0.00     0.009 A 
ATOM     75  C   UNL     1      13.512  18.586  -0.634  1.00  0.00     0.009 A 
ATOM     76  C   UNL     1      11.985  20.914  -0.804  1.00  0.00     0.001 A 
ATOM     77  C   UNL     1      14.132  19.809  -0.890  1.00  0.00     0.001 A 
ATOM     78  C   UNL     1      13.367  20.971  -0.985  1.00  0.00     0.000 A 
ENDBRANCH  60  73
ENDBRANCH  34  35
ENDBRANCH  26  29
ENDBRANCH  24  25
ENDBRANCH  23  24
ENDBRANCH   1  23
TORSDOF 14
