REMARK SMILES O=C(NCCCNC(=O)c1ccc(-c2c3nc(c(-c4ccccc4)c4ccc([nH]4)c(-c4ccccc4)c4nc(c(-c5ccccc5)c5ccc2[nH]5)C=C4)C=C3)cc1)C1=Cc2cc(C(F)(F)F)ccc2O[C@@H]1C(F)(F)F
REMARK SMILES IDX 5 1 4 2 3 3 1 4 2 5 58 7 59 8 71 9 60 10 70 11 61 12 69 13
REMARK SMILES IDX 62 14 68 15 67 16 72 17 73 18 74 19 75 20 63 21 64 22 65 23
REMARK SMILES IDX 66 24 6 25 7 26 8 27 9 29 10 30 11 31 57 32 12 33 56 34
REMARK SMILES IDX 13 35 14 36 15 37 50 38 16 39 55 40 49 41 51 42 17 43 54 44
REMARK SMILES IDX 48 45 47 46 18 48 40 49 25 50 39 51 26 52 29 53 38 54 52 55
REMARK SMILES IDX 27 56 28 57 37 59 53 60 30 61 19 62 20 63 24 64 21 65 23 66
REMARK SMILES IDX 22 67 41 68 42 69 46 70 43 71 45 72 44 73 31 74 32 75 36 76
REMARK SMILES IDX 33 77 35 78 34 79
REMARK H PARENT 3 6 7 28 51 47 29 58
REMARK Flexibility Score: inf
ROOT
ATOM      1  C   UNL     1       3.958   0.644  -2.970  1.00  0.00     0.042 C 
ENDROOT
BRANCH   1   2
ATOM      2  C   UNL     1       3.316   0.876  -1.604  1.00  0.00     0.118 C 
BRANCH   2   3
ATOM      3  N   UNL     1       2.360  -0.170  -1.232  1.00  0.00    -0.352 N 
ATOM      4  O   UNL     1       1.206  -1.551   0.128  1.00  0.00    -0.270 OA
ATOM      5  C   UNL     1       2.234  -0.922  -0.088  1.00  0.00     0.251 C 
ATOM      6  H   UNL     1       1.688  -0.369  -1.924  1.00  0.00     0.163 HD
BRANCH   5   7
ATOM      7  C   UNL     1       3.319  -0.848   0.914  1.00  0.00     0.067 C 
ATOM      8  C   UNL     1       4.521  -1.396   0.691  1.00  0.00     0.025 C 
ATOM      9  C   UNL     1       3.156   0.155   2.014  1.00  0.00     0.314 C 
ATOM     10  C   UNL     1       5.586  -0.386   0.702  1.00  0.00     0.018 A 
ATOM     11  O   UNL     1       4.224   1.136   2.050  1.00  0.00    -0.475 OA
ATOM     12  C   UNL     1       6.665  -0.516  -0.187  1.00  0.00     0.025 A 
ATOM     13  C   UNL     1       5.362   0.848   1.336  1.00  0.00     0.128 A 
ATOM     14  C   UNL     1       7.483   0.590  -0.487  1.00  0.00     0.056 A 
ATOM     15  C   UNL     1       6.220   1.922   1.111  1.00  0.00     0.048 A 
ATOM     16  C   UNL     1       7.263   1.801   0.189  1.00  0.00     0.017 A 
BRANCH   9  17
ATOM     17  C   UNL     1       3.054  -0.574   3.370  1.00  0.00     0.429 C 
ATOM     18  F   UNL     1       2.780   0.296   4.372  1.00  0.00    -0.167 F 
ATOM     19  F   UNL     1       2.067  -1.501   3.378  1.00  0.00    -0.167 F 
ATOM     20  F   UNL     1       4.203  -1.214   3.700  1.00  0.00    -0.167 F 
ENDBRANCH   9  17
BRANCH  14  21
ATOM     21  C   UNL     1       8.534   0.482  -1.568  1.00  0.00     0.416 C 
ATOM     22  F   UNL     1       9.705  -0.037  -1.112  1.00  0.00    -0.166 F 
ATOM     23  F   UNL     1       8.142  -0.323  -2.597  1.00  0.00    -0.166 F 
ATOM     24  F   UNL     1       8.845   1.677  -2.143  1.00  0.00    -0.166 F 
ENDBRANCH  14  21
ENDBRANCH   5   7
ENDBRANCH   2   3
ENDBRANCH   1   2
BRANCH   1  25
ATOM     25  C   UNL     1       3.766   1.826  -3.917  1.00  0.00     0.118 C 
BRANCH  25  26
ATOM     26  N   UNL     1       4.493   3.026  -3.517  1.00  0.00    -0.352 N 
ATOM     27  C   UNL     1       5.524   3.730  -4.122  1.00  0.00     0.251 C 
ATOM     28  H   UNL     1       4.198   3.406  -2.659  1.00  0.00     0.163 HD
ATOM     29  O   UNL     1       6.042   4.648  -3.541  1.00  0.00    -0.269 OA
BRANCH  27  30
ATOM     30  C   UNL     1       6.022   3.317  -5.462  1.00  0.00     0.039 A 
ATOM     31  C   UNL     1       7.400   3.329  -5.700  1.00  0.00     0.014 A 
ATOM     32  C   UNL     1       5.154   2.904  -6.468  1.00  0.00     0.014 A 
ATOM     33  C   UNL     1       7.905   2.796  -6.892  1.00  0.00     0.010 A 
ATOM     34  C   UNL     1       5.659   2.265  -7.594  1.00  0.00     0.010 A 
ATOM     35  C   UNL     1       7.043   2.183  -7.813  1.00  0.00    -0.014 A 
BRANCH  35  36
ATOM     36  C   UNL     1       7.538   1.417  -8.990  1.00  0.00     0.031 A 
ATOM     37  C   UNL     1       7.048   1.762 -10.372  1.00  0.00     0.074 A 
ATOM     38  C   UNL     1       8.322   0.334  -8.810  1.00  0.00     0.049 A 
ATOM     39  N   UNL     1       7.166   1.084 -11.486  1.00  0.00    -0.248 NA
ATOM     40  C   UNL     1       6.284   3.013 -10.511  1.00  0.00     0.031 C 
ATOM     41  C   UNL     1       8.845  -0.141  -7.526  1.00  0.00     0.029 A 
ATOM     42  N   UNL     1       8.802  -0.581  -9.716  1.00  0.00    -0.354 N 
ATOM     43  C   UNL     1       6.457   1.802 -12.441  1.00  0.00     0.074 A 
ATOM     44  C   UNL     1       5.875   2.943 -11.769  1.00  0.00     0.031 C 
ATOM     45  C   UNL     1       9.596  -1.235  -7.731  1.00  0.00     0.029 A 
ATOM     46  C   UNL     1       9.556  -1.580  -9.147  1.00  0.00     0.049 A 
ATOM     47  H   UNL     1       8.622  -0.527 -10.682  1.00  0.00     0.167 HD
ATOM     48  C   UNL     1       6.317   1.548 -13.764  1.00  0.00     0.031 A 
ATOM     49  C   UNL     1      10.131  -2.666  -9.695  1.00  0.00     0.031 A 
ATOM     50  C   UNL     1       6.933   0.443 -14.445  1.00  0.00     0.049 A 
ATOM     51  C   UNL     1       9.954  -2.930 -11.164  1.00  0.00     0.074 A 
ATOM     52  C   UNL     1       6.904   0.138 -15.795  1.00  0.00     0.029 A 
ATOM     53  N   UNL     1       7.704  -0.530 -13.830  1.00  0.00    -0.354 N 
ATOM     54  N   UNL     1       9.303  -2.224 -12.057  1.00  0.00    -0.248 NA
ATOM     55  C   UNL     1      10.584  -4.146 -11.699  1.00  0.00     0.031 C 
ATOM     56  C   UNL     1       7.632  -1.040 -15.992  1.00  0.00     0.029 A 
ATOM     57  C   UNL     1       8.145  -1.444 -14.771  1.00  0.00     0.049 A 
ATOM     58  H   UNL     1       7.908  -0.565 -12.868  1.00  0.00     0.167 HD
ATOM     59  C   UNL     1       9.463  -2.898 -13.260  1.00  0.00     0.074 A 
ATOM     60  C   UNL     1      10.285  -4.059 -12.987  1.00  0.00     0.031 C 
ATOM     61  C   UNL     1       8.969  -2.587 -14.481  1.00  0.00     0.031 A 
BRANCH  48  62
ATOM     62  C   UNL     1       5.472   2.497 -14.566  1.00  0.00    -0.014 A 
ATOM     63  C   UNL     1       5.918   3.796 -14.856  1.00  0.00     0.009 A 
ATOM     64  C   UNL     1       4.232   2.075 -15.072  1.00  0.00     0.009 A 
ATOM     65  C   UNL     1       5.124   4.665 -15.606  1.00  0.00     0.001 A 
ATOM     66  C   UNL     1       3.453   2.938 -15.845  1.00  0.00     0.001 A 
ATOM     67  C   UNL     1       3.895   4.234 -16.103  1.00  0.00     0.000 A 
ENDBRANCH  48  62
BRANCH  49  68
ATOM     68  C   UNL     1      10.927  -3.601  -8.857  1.00  0.00    -0.014 A 
ATOM     69  C   UNL     1      12.322  -3.665  -9.003  1.00  0.00     0.009 A 
ATOM     70  C   UNL     1      10.303  -4.449  -7.930  1.00  0.00     0.009 A 
ATOM     71  C   UNL     1      13.071  -4.579  -8.259  1.00  0.00     0.001 A 
ATOM     72  C   UNL     1      11.058  -5.343  -7.168  1.00  0.00     0.001 A 
ATOM     73  C   UNL     1      12.440  -5.415  -7.341  1.00  0.00     0.000 A 
ENDBRANCH  49  68
BRANCH  61  74
ATOM     74  C   UNL     1       9.330  -3.495 -15.619  1.00  0.00    -0.014 A 
ATOM     75  C   UNL     1       8.711  -4.745 -15.769  1.00  0.00     0.009 A 
ATOM     76  C   UNL     1      10.260  -3.071 -16.581  1.00  0.00     0.009 A 
ATOM     77  C   UNL     1       9.035  -5.564 -16.852  1.00  0.00     0.001 A 
ATOM     78  C   UNL     1      10.563  -3.881 -17.674  1.00  0.00     0.001 A 
ATOM     79  C   UNL     1       9.955  -5.129 -17.806  1.00  0.00     0.000 A 
ENDBRANCH  61  74
ENDBRANCH  35  36
ENDBRANCH  27  30
ENDBRANCH  25  26
ENDBRANCH   1  25
TORSDOF 12
