REMARK SMILES CC(C)([NH2+]C[C@@H]1CCCO1)C(=O)NCCCNC(=O)c1ccc(-c2c3nc(c(-c4ccccc4)c4ccc([nH]4)c(-c4ccccc4)c4nc(c(-c5ccccc5)c5ccc2[nH]5)C=C4)C=C3)cc1
REMARK SMILES IDX 14 1 13 2 11 3 12 4 2 6 1 7 3 8 4 9 5 12 6 13 7 14 10 15
REMARK SMILES IDX 8 16 9 17 15 18 16 19 17 20 18 21 19 23 20 24 21 25 67 26
REMARK SMILES IDX 22 27 66 28 23 29 24 30 25 31 60 32 26 33 65 34 59 35 61 36
REMARK SMILES IDX 27 37 64 38 58 39 57 40 28 42 50 43 35 44 49 45 36 46 39 47
REMARK SMILES IDX 48 48 62 49 37 50 38 51 47 53 63 54 40 55 29 56 30 57 34 58
REMARK SMILES IDX 31 59 33 60 32 61 51 62 52 63 56 64 53 65 55 66 54 67 41 68
REMARK SMILES IDX 42 69 46 70 43 71 45 72 44 73
REMARK H PARENT 13 5 4 10 4 11 17 22 61 41 39 52
REMARK Flexibility Score: inf
ROOT
ATOM      1  C   UNL     1       0.489   1.087  -4.476  1.00  0.00     0.118 C 
ENDROOT
BRANCH   1   2
ATOM      2  N   UNL     1       0.923   1.784  -3.287  1.00  0.00    -0.351 N 
ATOM      3  C   UNL     1       0.970   1.447  -1.969  1.00  0.00     0.280 C 
ATOM      4  O   UNL     1       1.315   2.384  -1.234  1.00  0.00    -0.268 OA
ATOM      5  H   UNL     1       1.256   2.692  -3.468  1.00  0.00     0.163 HD
BRANCH   3   6
ATOM      6  C   UNL     1       0.693   0.013  -1.393  1.00  0.00     0.169 C 
ATOM      7  C   UNL     1       1.148   0.073   0.100  1.00  0.00     0.090 C 
ATOM      8  C   UNL     1       1.577  -1.068  -2.029  1.00  0.00     0.090 C 
BRANCH   6   9
ATOM      9  N   UNL     1      -0.749  -0.322  -1.251  1.00  0.00    -0.332 N 
ATOM     10  H   UNL     1      -1.171   0.460  -0.749  1.00  0.00     0.347 HD
ATOM     11  H   UNL     1      -0.702  -1.243  -0.816  1.00  0.00     0.347 HD
BRANCH   9  12
ATOM     12  C   UNL     1      -1.622  -0.584  -2.390  1.00  0.00     0.293 C 
BRANCH  12  13
ATOM     13  C   UNL     1      -1.327  -1.834  -3.225  1.00  0.00     0.173 C 
ATOM     14  C   UNL     1      -2.339  -2.105  -4.323  1.00  0.00     0.040 C 
ATOM     15  O   UNL     1      -1.336  -3.027  -2.425  1.00  0.00    -0.372 OA
ATOM     16  C   UNL     1      -1.993  -3.535  -4.663  1.00  0.00     0.031 C 
ATOM     17  C   UNL     1      -1.623  -4.125  -3.310  1.00  0.00     0.161 C 
ENDBRANCH  12  13
ENDBRANCH   9  12
ENDBRANCH   6   9
ENDBRANCH   3   6
ENDBRANCH   1   2
BRANCH   1  18
ATOM     18  C   UNL     1      -0.831   1.647  -4.994  1.00  0.00     0.042 C 
BRANCH  18  19
ATOM     19  C   UNL     1      -0.668   2.851  -5.900  1.00  0.00     0.118 C 
BRANCH  19  20
ATOM     20  N   UNL     1      -0.137   2.489  -7.206  1.00  0.00    -0.352 N 
ATOM     21  C   UNL     1      -0.710   2.571  -8.452  1.00  0.00     0.251 C 
ATOM     22  H   UNL     1       0.778   2.126  -7.194  1.00  0.00     0.163 HD
ATOM     23  O   UNL     1      -0.167   2.014  -9.401  1.00  0.00    -0.269 OA
BRANCH  21  24
ATOM     24  C   UNL     1      -1.981   3.303  -8.658  1.00  0.00     0.039 A 
ATOM     25  C   UNL     1      -2.900   2.811  -9.590  1.00  0.00     0.014 A 
ATOM     26  C   UNL     1      -2.267   4.481  -7.964  1.00  0.00     0.014 A 
ATOM     27  C   UNL     1      -4.120   3.465  -9.777  1.00  0.00     0.010 A 
ATOM     28  C   UNL     1      -3.525   5.063  -8.065  1.00  0.00     0.010 A 
ATOM     29  C   UNL     1      -4.459   4.576  -8.989  1.00  0.00    -0.014 A 
BRANCH  29  30
ATOM     30  C   UNL     1      -5.769   5.260  -9.134  1.00  0.00     0.031 A 
ATOM     31  C   UNL     1      -5.823   6.710  -9.537  1.00  0.00     0.074 A 
ATOM     32  C   UNL     1      -6.906   4.596  -8.844  1.00  0.00     0.049 A 
ATOM     33  N   UNL     1      -6.863   7.495  -9.661  1.00  0.00    -0.248 NA
ATOM     34  C   UNL     1      -4.537   7.377  -9.806  1.00  0.00     0.031 C 
ATOM     35  C   UNL     1      -6.986   3.204  -8.396  1.00  0.00     0.029 A 
ATOM     36  N   UNL     1      -8.214   5.008  -8.878  1.00  0.00    -0.354 N 
ATOM     37  C   UNL     1      -6.356   8.745  -9.995  1.00  0.00     0.074 A 
ATOM     38  C   UNL     1      -4.915   8.631 -10.000  1.00  0.00     0.031 C 
ATOM     39  C   UNL     1      -8.275   2.869  -8.229  1.00  0.00     0.029 A 
ATOM     40  C   UNL     1      -9.109   4.032  -8.511  1.00  0.00     0.049 A 
ATOM     41  H   UNL     1      -8.486   5.917  -9.141  1.00  0.00     0.167 HD
ATOM     42  C   UNL     1      -7.028   9.882 -10.291  1.00  0.00     0.031 A 
ATOM     43  C   UNL     1     -10.451   4.071  -8.404  1.00  0.00     0.031 A 
ATOM     44  C   UNL     1      -8.462   9.988 -10.306  1.00  0.00     0.049 A 
ATOM     45  C   UNL     1     -11.173   5.347  -8.737  1.00  0.00     0.074 A 
ATOM     46  C   UNL     1      -9.241  11.074 -10.664  1.00  0.00     0.029 A 
ATOM     47  N   UNL     1      -9.331   8.972  -9.942  1.00  0.00    -0.354 N 
ATOM     48  N   UNL     1     -10.681   6.496  -9.133  1.00  0.00    -0.248 NA
ATOM     49  C   UNL     1     -12.638   5.327  -8.621  1.00  0.00     0.031 C 
ATOM     50  C   UNL     1     -10.581  10.735 -10.456  1.00  0.00     0.029 A 
ATOM     51  C   UNL     1     -10.639   9.416 -10.036  1.00  0.00     0.049 A 
ATOM     52  H   UNL     1      -9.059   8.069  -9.659  1.00  0.00     0.167 HD
ATOM     53  C   UNL     1     -11.776   7.325  -9.341  1.00  0.00     0.074 A 
ATOM     54  C   UNL     1     -12.957   6.541  -9.047  1.00  0.00     0.031 C 
ATOM     55  C   UNL     1     -11.802   8.621  -9.739  1.00  0.00     0.031 A 
BRANCH  42  56
ATOM     56  C   UNL     1      -6.218  11.108 -10.615  1.00  0.00    -0.014 A 
ATOM     57  C   UNL     1      -5.465  11.198 -11.796  1.00  0.00     0.009 A 
ATOM     58  C   UNL     1      -6.243  12.208  -9.743  1.00  0.00     0.009 A 
ATOM     59  C   UNL     1      -4.725  12.349 -12.079  1.00  0.00     0.001 A 
ATOM     60  C   UNL     1      -5.530  13.370 -10.044  1.00  0.00     0.001 A 
ATOM     61  C   UNL     1      -4.764  13.436 -11.207  1.00  0.00     0.000 A 
ENDBRANCH  42  56
BRANCH  43  62
ATOM     62  C   UNL     1     -11.202   2.864  -7.966  1.00  0.00    -0.014 A 
ATOM     63  C   UNL     1     -12.041   2.179  -8.860  1.00  0.00     0.009 A 
ATOM     64  C   UNL     1     -11.094   2.397  -6.647  1.00  0.00     0.009 A 
ATOM     65  C   UNL     1     -12.780   1.074  -8.432  1.00  0.00     0.001 A 
ATOM     66  C   UNL     1     -11.809   1.271  -6.231  1.00  0.00     0.001 A 
ATOM     67  C   UNL     1     -12.660   0.618  -7.120  1.00  0.00     0.000 A 
ENDBRANCH  43  62
BRANCH  55  68
ATOM     68  C   UNL     1     -13.151   9.259  -9.918  1.00  0.00    -0.014 A 
ATOM     69  C   UNL     1     -13.964   9.573  -8.818  1.00  0.00     0.009 A 
ATOM     70  C   UNL     1     -13.594   9.592 -11.208  1.00  0.00     0.009 A 
ATOM     71  C   UNL     1     -15.210  10.174  -9.011  1.00  0.00     0.001 A 
ATOM     72  C   UNL     1     -14.824  10.223 -11.395  1.00  0.00     0.001 A 
ATOM     73  C   UNL     1     -15.635  10.504 -10.297  1.00  0.00     0.000 A 
ENDBRANCH  55  68
ENDBRANCH  29  30
ENDBRANCH  21  24
ENDBRANCH  19  20
ENDBRANCH  18  19
ENDBRANCH   1  18
TORSDOF 13
