REMARK SMILES O=C(NCCCNC(=O)c1ccccc1NC(=O)c1ccncc1)c1ccc(-c2c3nc(c(-c4ccccc4)c4ccc([nH]4)c(-c4ccccc4)c4nc(c(-c5ccccc5)c5ccc2[nH]5)C=C4)C=C3)cc1
REMARK SMILES IDX 5 1 4 2 3 3 1 4 2 5 25 7 26 8 72 9 27 10 71 11 28 12 29 13
REMARK SMILES IDX 30 14 65 15 31 16 70 17 64 18 66 19 32 20 69 21 63 22 62 23
REMARK SMILES IDX 33 25 55 26 40 27 54 28 41 29 44 30 53 31 67 32 42 33 43 34
REMARK SMILES IDX 52 36 68 37 45 38 34 39 35 40 39 41 36 42 38 43 37 44 56 45
REMARK SMILES IDX 57 46 61 47 58 48 60 49 59 50 46 51 47 52 51 53 48 54 50 55
REMARK SMILES IDX 49 56 6 57 7 58 8 59 9 61 10 62 11 63 15 64 12 65 14 66
REMARK SMILES IDX 13 67 16 68 17 69 18 71 19 72 20 73 24 74 21 75 23 76 22 77
REMARK H PARENT 3 6 66 24 44 35 7 60 16 70
REMARK Flexibility Score: inf
ROOT
ATOM      1  C   UNL     1       4.930  -0.586  -2.297  1.00  0.00     0.042 C 
ENDROOT
BRANCH   1   2
ATOM      2  C   UNL     1       4.516   0.449  -1.262  1.00  0.00     0.118 C 
BRANCH   2   3
ATOM      3  N   UNL     1       3.081   0.465  -1.003  1.00  0.00    -0.352 N 
ATOM      4  O   UNL     1       1.142   0.048   0.065  1.00  0.00    -0.269 OA
ATOM      5  C   UNL     1       2.369   0.084   0.109  1.00  0.00     0.251 C 
ATOM      6  H   UNL     1       2.533   0.805  -1.746  1.00  0.00     0.163 HD
BRANCH   5   7
ATOM      7  C   UNL     1       3.067  -0.316   1.349  1.00  0.00     0.039 A 
ATOM      8  C   UNL     1       4.178   0.391   1.804  1.00  0.00     0.014 A 
ATOM      9  C   UNL     1       2.593  -1.411   2.080  1.00  0.00     0.014 A 
ATOM     10  C   UNL     1       4.926  -0.105   2.863  1.00  0.00     0.010 A 
ATOM     11  C   UNL     1       3.280  -1.838   3.222  1.00  0.00     0.010 A 
ATOM     12  C   UNL     1       4.477  -1.213   3.599  1.00  0.00    -0.014 A 
BRANCH  12  13
ATOM     13  C   UNL     1       5.255  -1.642   4.790  1.00  0.00     0.031 A 
ATOM     14  C   UNL     1       5.906  -2.996   4.857  1.00  0.00     0.074 A 
ATOM     15  C   UNL     1       5.427  -0.759   5.794  1.00  0.00     0.049 A 
ATOM     16  N   UNL     1       6.676  -3.489   5.796  1.00  0.00    -0.248 NA
ATOM     17  C   UNL     1       5.663  -3.919   3.738  1.00  0.00     0.031 C 
ATOM     18  C   UNL     1       4.837   0.582   5.848  1.00  0.00     0.029 A 
ATOM     19  N   UNL     1       6.173  -0.838   6.941  1.00  0.00    -0.354 N 
ATOM     20  C   UNL     1       6.997  -4.778   5.389  1.00  0.00     0.074 A 
ATOM     21  C   UNL     1       6.316  -5.004   4.132  1.00  0.00     0.031 C 
ATOM     22  C   UNL     1       5.298   1.223   6.930  1.00  0.00     0.029 A 
ATOM     23  C   UNL     1       6.156   0.318   7.683  1.00  0.00     0.049 A 
ATOM     24  H   UNL     1       6.672  -1.644   7.207  1.00  0.00     0.167 HD
ATOM     25  C   UNL     1       7.793  -5.687   6.003  1.00  0.00     0.031 A 
ATOM     26  C   UNL     1       6.755   0.619   8.850  1.00  0.00     0.031 A 
ATOM     27  C   UNL     1       8.466  -5.465   7.256  1.00  0.00     0.049 A 
ATOM     28  C   UNL     1       7.610  -0.416   9.516  1.00  0.00     0.074 A 
ATOM     29  C   UNL     1       9.295  -6.325   7.956  1.00  0.00     0.029 A 
ATOM     30  N   UNL     1       8.389  -4.295   7.997  1.00  0.00    -0.354 N 
ATOM     31  N   UNL     1       7.913  -1.623   9.105  1.00  0.00    -0.248 NA
ATOM     32  C   UNL     1       8.205  -0.046  10.806  1.00  0.00     0.031 C 
ATOM     33  C   UNL     1       9.686  -5.691   9.140  1.00  0.00     0.029 A 
ATOM     34  C   UNL     1       9.143  -4.417   9.153  1.00  0.00     0.049 A 
ATOM     35  H   UNL     1       7.875  -3.496   7.740  1.00  0.00     0.167 HD
ATOM     36  C   UNL     1       8.742  -2.155  10.082  1.00  0.00     0.074 A 
ATOM     37  C   UNL     1       8.918  -1.127  11.088  1.00  0.00     0.031 C 
ATOM     38  C   UNL     1       9.300  -3.388  10.146  1.00  0.00     0.031 A 
BRANCH  25  39
ATOM     39  C   UNL     1       7.969  -7.022   5.333  1.00  0.00    -0.014 A 
ATOM     40  C   UNL     1       8.756  -7.157   4.178  1.00  0.00     0.009 A 
ATOM     41  C   UNL     1       7.385  -8.169   5.893  1.00  0.00     0.009 A 
ATOM     42  C   UNL     1       8.933  -8.409   3.585  1.00  0.00     0.001 A 
ATOM     43  C   UNL     1       7.584  -9.423   5.312  1.00  0.00     0.001 A 
ATOM     44  C   UNL     1       8.352  -9.542   4.155  1.00  0.00     0.000 A 
ENDBRANCH  25  39
BRANCH  26  45
ATOM     45  C   UNL     1       6.542   1.953   9.468  1.00  0.00    -0.014 A 
ATOM     46  C   UNL     1       7.589   2.882   9.552  1.00  0.00     0.009 A 
ATOM     47  C   UNL     1       5.280   2.303   9.976  1.00  0.00     0.009 A 
ATOM     48  C   UNL     1       7.381   4.126  10.153  1.00  0.00     0.001 A 
ATOM     49  C   UNL     1       5.067   3.558  10.546  1.00  0.00     0.001 A 
ATOM     50  C   UNL     1       6.121   4.464  10.644  1.00  0.00     0.000 A 
ENDBRANCH  26  45
BRANCH  38  51
ATOM     51  C   UNL     1      10.169  -3.674  11.336  1.00  0.00    -0.014 A 
ATOM     52  C   UNL     1       9.613  -3.868  12.611  1.00  0.00     0.009 A 
ATOM     53  C   UNL     1      11.560  -3.756  11.178  1.00  0.00     0.009 A 
ATOM     54  C   UNL     1      10.439  -4.100  13.712  1.00  0.00     0.001 A 
ATOM     55  C   UNL     1      12.382  -4.016  12.276  1.00  0.00     0.001 A 
ATOM     56  C   UNL     1      11.821  -4.176  13.543  1.00  0.00     0.000 A 
ENDBRANCH  38  51
ENDBRANCH  12  13
ENDBRANCH   5   7
ENDBRANCH   2   3
ENDBRANCH   1   2
BRANCH   1  57
ATOM     57  C   UNL     1       4.383  -0.327  -3.691  1.00  0.00     0.118 C 
BRANCH  57  58
ATOM     58  N   UNL     1       4.756   0.986  -4.195  1.00  0.00    -0.352 N 
ATOM     59  C   UNL     1       5.643   1.341  -5.177  1.00  0.00     0.253 C 
ATOM     60  H   UNL     1       4.298   1.741  -3.760  1.00  0.00     0.163 HD
ATOM     61  O   UNL     1       6.000   2.513  -5.267  1.00  0.00    -0.269 OA
BRANCH  59  62
ATOM     62  C   UNL     1       6.166   0.349  -6.142  1.00  0.00     0.063 A 
ATOM     63  C   UNL     1       7.558   0.347  -6.330  1.00  0.00     0.016 A 
ATOM     64  C   UNL     1       5.336  -0.499  -6.906  1.00  0.00     0.054 A 
ATOM     65  C   UNL     1       8.137  -0.498  -7.271  1.00  0.00     0.001 A 
ATOM     66  C   UNL     1       5.937  -1.293  -7.889  1.00  0.00     0.027 A 
ATOM     67  C   UNL     1       7.325  -1.308  -8.058  1.00  0.00     0.002 A 
BRANCH  64  68
ATOM     68  N   UNL     1       3.941  -0.496  -6.681  1.00  0.00    -0.321 N 
ATOM     69  C   UNL     1       2.950  -1.418  -6.924  1.00  0.00     0.255 C 
ATOM     70  H   UNL     1       3.612   0.334  -6.268  1.00  0.00     0.170 HD
ATOM     71  O   UNL     1       1.780  -1.128  -6.681  1.00  0.00    -0.269 OA
BRANCH  69  72
ATOM     72  C   UNL     1       3.240  -2.781  -7.402  1.00  0.00     0.043 A 
ATOM     73  C   UNL     1       4.169  -3.606  -6.769  1.00  0.00     0.034 A 
ATOM     74  C   UNL     1       2.531  -3.240  -8.509  1.00  0.00     0.034 A 
ATOM     75  C   UNL     1       4.417  -4.840  -7.340  1.00  0.00     0.112 A 
ATOM     76  C   UNL     1       2.844  -4.494  -8.993  1.00  0.00     0.112 A 
ATOM     77  N   UNL     1       3.785  -5.294  -8.444  1.00  0.00    -0.265 NA
ENDBRANCH  69  72
ENDBRANCH  64  68
ENDBRANCH  59  62
ENDBRANCH  57  58
ENDBRANCH   1  57
TORSDOF 12
