REMARK SMILES Cc1ccc(OCC(=O)NNC(=O)[C@H]2CCCC[C@@H]2C(=O)NCCCNC(=O)c2ccc(-c3c4nc(c(-c5ccccc5)c5ccc([nH]5)c(-c5ccccc5)c5nc(c(-c6ccccc6)c6ccc3[nH]6)C=C5)C=C4)cc2)cc1
REMARK SMILES IDX 20 1 21 2 22 3 19 5 14 6 15 7 16 8 18 9 17 10 12 11 11 12
REMARK SMILES IDX 13 14 10 15 8 16 9 17 7 19 6 20 5 21 1 22 2 23 3 24 78 25
REMARK SMILES IDX 4 26 77 27 23 28 24 29 25 30 26 31 27 32 28 34 29 35 30 36
REMARK SMILES IDX 76 37 31 38 75 39 32 40 33 41 34 42 69 43 35 44 74 45 68 46
REMARK SMILES IDX 70 47 36 48 73 49 67 50 66 51 37 53 59 54 44 55 58 56 45 57
REMARK SMILES IDX 48 58 57 59 71 60 46 61 47 62 56 64 72 65 49 66 38 67 39 68
REMARK SMILES IDX 43 69 40 70 42 71 41 72 60 73 61 74 65 75 62 76 64 77 63 78
REMARK SMILES IDX 50 79 51 80 55 81 52 82 54 83 53 84
REMARK H PARENT 22 4 11 13 10 18 26 33 70 52 48 63
REMARK Flexibility Score: inf
ROOT
ATOM      1  C   UNL     1      -5.300   2.272   4.474  1.00  0.00     0.223 C 
ATOM      2  O   UNL     1      -5.268   1.869   3.300  1.00  0.00    -0.275 OA
ATOM      3  N   UNL     1      -6.312   3.117   4.758  1.00  0.00    -0.356 N 
ATOM      4  H   UNL     1      -6.870   3.316   3.972  1.00  0.00     0.163 HD
ENDROOT
BRANCH   1   5
ATOM      5  C   UNL     1      -4.199   1.789   5.428  1.00  0.00     0.091 C 
ATOM      6  C   UNL     1      -4.145   0.244   5.362  1.00  0.00     0.092 C 
ATOM      7  C   UNL     1      -5.174  -0.355   6.334  1.00  0.00     0.014 C 
ATOM      8  C   UNL     1      -4.965   0.079   7.781  1.00  0.00     0.001 C 
ATOM      9  C   UNL     1      -4.040   2.298   6.859  1.00  0.00     0.014 C 
ATOM     10  C   UNL     1      -4.840   1.583   7.949  1.00  0.00     0.001 C 
BRANCH   6  11
ATOM     11  C   UNL     1      -2.736  -0.307   5.603  1.00  0.00     0.242 C 
ATOM     12  N   UNL     1      -1.734  -0.050   4.707  1.00  0.00    -0.267 N 
ATOM     13  H   UNL     1      -0.832  -0.365   4.943  1.00  0.00     0.191 HD
ATOM     14  O   UNL     1      -2.454  -1.010   6.575  1.00  0.00    -0.273 OA
BRANCH  12  15
ATOM     15  N   UNL     1      -1.874   0.614   3.497  1.00  0.00    -0.265 N 
ATOM     16  C   UNL     1      -0.820   1.218   2.847  1.00  0.00     0.276 C 
ATOM     17  O   UNL     1      -0.988   1.720   1.734  1.00  0.00    -0.269 OA
ATOM     18  H   UNL     1      -2.767   0.656   3.084  1.00  0.00     0.191 HD
BRANCH  16  19
ATOM     19  C   UNL     1       0.561   1.204   3.516  1.00  0.00     0.331 C 
BRANCH  19  20
ATOM     20  O   UNL     1       0.623   1.808   4.799  1.00  0.00    -0.484 OA
BRANCH  20  21
ATOM     21  C   UNL     1       0.635   3.175   4.859  1.00  0.00     0.120 A 
ATOM     22  C   UNL     1       0.677   7.447   5.492  1.00  0.00     0.044 C 
ATOM     23  C   UNL     1       0.660   5.964   5.270  1.00  0.00    -0.051 A 
ATOM     24  C   UNL     1       0.790   5.087   6.351  1.00  0.00     0.007 A 
ATOM     25  C   UNL     1       0.532   5.433   3.983  1.00  0.00     0.007 A 
ATOM     26  C   UNL     1       0.774   3.704   6.145  1.00  0.00     0.047 A 
ATOM     27  C   UNL     1       0.520   4.049   3.779  1.00  0.00     0.047 A 
ENDBRANCH  20  21
ENDBRANCH  19  20
ENDBRANCH  16  19
ENDBRANCH  12  15
ENDBRANCH   6  11
ENDBRANCH   1   5
BRANCH   3  28
ATOM     28  C   UNL     1      -6.769   3.801   5.953  1.00  0.00     0.117 C 
BRANCH  28  29
ATOM     29  C   UNL     1      -6.064   5.135   6.173  1.00  0.00     0.042 C 
BRANCH  29  30
ATOM     30  C   UNL     1      -7.044   6.295   6.218  1.00  0.00     0.118 C 
BRANCH  30  31
ATOM     31  N   UNL     1      -7.706   6.504   7.504  1.00  0.00    -0.352 N 
ATOM     32  C   UNL     1      -8.806   7.305   7.800  1.00  0.00     0.251 C 
ATOM     33  H   UNL     1      -7.322   6.011   8.265  1.00  0.00     0.163 HD
ATOM     34  O   UNL     1      -9.226   7.392   8.937  1.00  0.00    -0.269 OA
BRANCH  32  35
ATOM     35  C   UNL     1      -9.542   7.937   6.675  1.00  0.00     0.039 A 
ATOM     36  C   UNL     1     -10.915   7.686   6.581  1.00  0.00     0.014 A 
ATOM     37  C   UNL     1      -8.840   8.447   5.591  1.00  0.00     0.014 A 
ATOM     38  C   UNL     1     -11.505   7.647   5.322  1.00  0.00     0.010 A 
ATOM     39  C   UNL     1      -9.379   8.262   4.338  1.00  0.00     0.010 A 
ATOM     40  C   UNL     1     -10.691   7.794   4.202  1.00  0.00    -0.014 A 
BRANCH  40  41
ATOM     41  C   UNL     1     -11.085   7.382   2.861  1.00  0.00     0.031 A 
ATOM     42  C   UNL     1     -11.289   8.399   1.814  1.00  0.00     0.074 A 
ATOM     43  C   UNL     1     -11.180   6.070   2.547  1.00  0.00     0.049 A 
ATOM     44  N   UNL     1     -11.999   8.207   0.756  1.00  0.00    -0.248 NA
ATOM     45  C   UNL     1     -10.731   9.745   1.900  1.00  0.00     0.031 C 
ATOM     46  C   UNL     1     -11.289   5.473   1.217  1.00  0.00     0.029 A 
ATOM     47  N   UNL     1     -11.415   5.007   3.418  1.00  0.00    -0.354 N 
ATOM     48  C   UNL     1     -11.761   9.259  -0.090  1.00  0.00     0.074 A 
ATOM     49  C   UNL     1     -11.011  10.219   0.684  1.00  0.00     0.031 C 
ATOM     50  C   UNL     1     -11.818   4.245   1.334  1.00  0.00     0.029 A 
ATOM     51  C   UNL     1     -12.202   4.065   2.723  1.00  0.00     0.049 A 
ATOM     52  H   UNL     1     -11.093   4.928   4.346  1.00  0.00     0.167 HD
ATOM     53  C   UNL     1     -12.117   9.166  -1.399  1.00  0.00     0.031 A 
ATOM     54  C   UNL     1     -13.465   3.779   3.156  1.00  0.00     0.031 A 
ATOM     55  C   UNL     1     -12.811   7.918  -1.701  1.00  0.00     0.049 A 
ATOM     56  C   UNL     1     -14.566   4.229   2.210  1.00  0.00     0.074 A 
ATOM     57  C   UNL     1     -12.458   6.726  -2.313  1.00  0.00     0.029 A 
ATOM     58  N   UNL     1     -14.009   7.670  -1.053  1.00  0.00    -0.354 N 
ATOM     59  N   UNL     1     -14.370   4.810   1.058  1.00  0.00    -0.248 NA
ATOM     60  C   UNL     1     -15.989   4.143   2.547  1.00  0.00     0.031 C 
ATOM     61  C   UNL     1     -13.463   5.757  -2.012  1.00  0.00     0.029 A 
ATOM     62  C   UNL     1     -14.431   6.369  -1.238  1.00  0.00     0.049 A 
ATOM     63  H   UNL     1     -14.501   8.339  -0.524  1.00  0.00     0.167 HD
ATOM     64  C   UNL     1     -15.570   5.225   0.542  1.00  0.00     0.074 A 
ATOM     65  C   UNL     1     -16.557   4.775   1.506  1.00  0.00     0.031 C 
ATOM     66  C   UNL     1     -15.673   5.952  -0.609  1.00  0.00     0.031 A 
BRANCH  53  67
ATOM     67  C   UNL     1     -11.603  10.136  -2.424  1.00  0.00    -0.014 A 
ATOM     68  C   UNL     1     -11.277   9.685  -3.712  1.00  0.00     0.009 A 
ATOM     69  C   UNL     1     -11.372  11.498  -2.157  1.00  0.00     0.009 A 
ATOM     70  C   UNL     1     -10.657  10.522  -4.648  1.00  0.00     0.001 A 
ATOM     71  C   UNL     1     -10.707  12.326  -3.069  1.00  0.00     0.001 A 
ATOM     72  C   UNL     1     -10.340  11.833  -4.314  1.00  0.00     0.000 A 
ENDBRANCH  53  67
BRANCH  54  73
ATOM     73  C   UNL     1     -13.559   3.752   4.645  1.00  0.00    -0.014 A 
ATOM     74  C   UNL     1     -12.849   2.743   5.330  1.00  0.00     0.009 A 
ATOM     75  C   UNL     1     -13.975   4.881   5.362  1.00  0.00     0.009 A 
ATOM     76  C   UNL     1     -12.442   2.927   6.654  1.00  0.00     0.001 A 
ATOM     77  C   UNL     1     -13.578   5.053   6.695  1.00  0.00     0.001 A 
ATOM     78  C   UNL     1     -12.778   4.099   7.324  1.00  0.00     0.000 A 
ENDBRANCH  54  73
BRANCH  66  79
ATOM     79  C   UNL     1     -16.980   6.388  -1.220  1.00  0.00    -0.014 A 
ATOM     80  C   UNL     1     -18.122   5.576  -1.225  1.00  0.00     0.009 A 
ATOM     81  C   UNL     1     -17.061   7.602  -1.935  1.00  0.00     0.009 A 
ATOM     82  C   UNL     1     -19.307   5.992  -1.849  1.00  0.00     0.001 A 
ATOM     83  C   UNL     1     -18.231   8.011  -2.579  1.00  0.00     0.001 A 
ATOM     84  C   UNL     1     -19.361   7.210  -2.523  1.00  0.00     0.000 A 
ENDBRANCH  66  79
ENDBRANCH  40  41
ENDBRANCH  32  35
ENDBRANCH  30  31
ENDBRANCH  29  30
ENDBRANCH  28  29
ENDBRANCH   3  28
TORSDOF 15
