REMARK SMILES Cc1c(CC(=O)NCCCNC(=O)c2ccc(-c3c4nc(c(-c5ccccc5)c5ccc([nH]5)c(-c5ccccc5)c5nc(c(-c6ccccc6)c6ccc3[nH]6)C=C5)C=C4)cc2)cc(-c2ccc(S(C)(=O)=O)cc2)n1-c1ccccc1
REMARK SMILES IDX 8 1 7 2 5 3 6 4 4 6 3 7 1 8 2 9 74 10 62 11 63 12 75 13
REMARK SMILES IDX 76 14 80 15 77 16 79 17 78 18 64 19 65 20 73 21 66 22 72 23
REMARK SMILES IDX 67 24 68 25 69 26 70 27 71 28 9 29 10 30 11 31 12 32 13 34
REMARK SMILES IDX 14 35 15 36 61 37 16 38 60 39 17 40 18 41 19 42 54 43 20 44
REMARK SMILES IDX 59 45 53 46 55 47 21 48 58 49 52 50 51 51 22 53 44 54 29 55
REMARK SMILES IDX 43 56 30 57 33 58 42 59 56 60 31 61 32 62 41 64 57 65 34 66
REMARK SMILES IDX 23 67 24 68 28 69 25 70 27 71 26 72 45 73 46 74 50 75 47 76
REMARK SMILES IDX 49 77 48 78 35 79 36 80 40 81 37 82 39 83 38 84
REMARK H PARENT 7 5 11 33 55 52 33 63
REMARK Flexibility Score: inf
ROOT
ATOM      1  C   UNL     1       2.342  -0.879  -4.371  1.00  0.00     0.117 C 
ENDROOT
BRANCH   1   2
ATOM      2  N   UNL     1       1.988  -1.881  -3.382  1.00  0.00    -0.356 N 
ATOM      3  C   UNL     1       0.892  -2.004  -2.580  1.00  0.00     0.224 C 
ATOM      4  O   UNL     1       0.883  -2.939  -1.774  1.00  0.00    -0.275 OA
ATOM      5  H   UNL     1       2.655  -2.596  -3.271  1.00  0.00     0.163 HD
BRANCH   3   6
ATOM      6  C   UNL     1      -0.302  -1.073  -2.711  1.00  0.00     0.137 C 
BRANCH   6   7
ATOM      7  C   UNL     1      -0.021   0.350  -2.341  1.00  0.00    -0.017 A 
ATOM      8  C   UNL     1       0.908   0.081   0.067  1.00  0.00     0.065 C 
ATOM      9  C   UNL     1       0.540   0.841  -1.168  1.00  0.00     0.024 A 
ATOM     10  N   UNL     1       0.658   2.225  -1.282  1.00  0.00    -0.314 N 
ATOM     11  C   UNL     1      -0.337   1.475  -3.144  1.00  0.00     0.033 A 
ATOM     12  C   UNL     1       0.119   2.617  -2.511  1.00  0.00     0.053 A 
BRANCH  10  13
ATOM     13  C   UNL     1       1.265   3.100  -0.336  1.00  0.00     0.046 A 
ATOM     14  C   UNL     1       0.633   4.302   0.008  1.00  0.00     0.026 A 
ATOM     15  C   UNL     1       2.534   2.803   0.174  1.00  0.00     0.026 A 
ATOM     16  C   UNL     1       1.280   5.215   0.840  1.00  0.00     0.002 A 
ATOM     17  C   UNL     1       3.179   3.726   1.000  1.00  0.00     0.002 A 
ATOM     18  C   UNL     1       2.555   4.931   1.327  1.00  0.00     0.000 A 
ENDBRANCH  10  13
BRANCH  12  19
ATOM     19  C   UNL     1       0.160   3.975  -3.069  1.00  0.00    -0.001 A 
ATOM     20  C   UNL     1       1.379   4.662  -3.195  1.00  0.00     0.011 A 
ATOM     21  C   UNL     1      -1.020   4.596  -3.496  1.00  0.00     0.011 A 
ATOM     22  C   UNL     1       1.414   5.966  -3.692  1.00  0.00     0.021 A 
ATOM     23  C   UNL     1      -0.993   5.900  -3.998  1.00  0.00     0.021 A 
ATOM     24  C   UNL     1       0.222   6.583  -4.077  1.00  0.00     0.067 A 
BRANCH  24  25
ATOM     25  S   UNL     1       0.283   8.236  -4.726  1.00  0.00     0.175 S 
ATOM     26  C   UNL     1       0.788   9.228  -3.345  1.00  0.00     0.163 C 
ATOM     27  O   UNL     1       1.323   8.267  -5.719  1.00  0.00    -0.224 OA
ATOM     28  O   UNL     1      -1.087   8.626  -5.057  1.00  0.00    -0.224 OA
ENDBRANCH  24  25
ENDBRANCH  12  19
ENDBRANCH   6   7
ENDBRANCH   3   6
ENDBRANCH   1   2
BRANCH   1  29
ATOM     29  C   UNL     1       3.270   0.225  -3.835  1.00  0.00     0.042 C 
BRANCH  29  30
ATOM     30  C   UNL     1       4.447  -0.209  -2.938  1.00  0.00     0.118 C 
BRANCH  30  31
ATOM     31  N   UNL     1       5.717  -0.364  -3.617  1.00  0.00    -0.352 N 
ATOM     32  C   UNL     1       6.991  -0.312  -3.074  1.00  0.00     0.251 C 
ATOM     33  H   UNL     1       5.669  -0.527  -4.587  1.00  0.00     0.163 HD
ATOM     34  O   UNL     1       7.946  -0.416  -3.843  1.00  0.00    -0.269 OA
BRANCH  32  35
ATOM     35  C   UNL     1       7.242  -0.008  -1.613  1.00  0.00     0.039 A 
ATOM     36  C   UNL     1       7.704   1.257  -1.306  1.00  0.00     0.014 A 
ATOM     37  C   UNL     1       7.246  -0.932  -0.549  1.00  0.00     0.014 A 
ATOM     38  C   UNL     1       8.079   1.594   0.029  1.00  0.00     0.010 A 
ATOM     39  C   UNL     1       7.731  -0.599   0.804  1.00  0.00     0.010 A 
ATOM     40  C   UNL     1       8.180   0.690   1.156  1.00  0.00    -0.014 A 
BRANCH  40  41
ATOM     41  C   UNL     1       9.162   1.174   2.398  1.00  0.00     0.031 A 
ATOM     42  C   UNL     1      10.258   1.861   1.659  1.00  0.00     0.074 A 
ATOM     43  C   UNL     1       9.454   1.073   3.768  1.00  0.00     0.049 A 
ATOM     44  N   UNL     1      10.924   1.154   0.796  1.00  0.00    -0.248 NA
ATOM     45  C   UNL     1      10.366   3.310   1.483  1.00  0.00     0.031 C 
ATOM     46  C   UNL     1       8.781   0.262   4.798  1.00  0.00     0.029 A 
ATOM     47  N   UNL     1      10.463   1.692   4.598  1.00  0.00    -0.354 N 
ATOM     48  C   UNL     1      11.707   2.021   0.079  1.00  0.00     0.074 A 
ATOM     49  C   UNL     1      11.189   3.342   0.425  1.00  0.00     0.031 C 
ATOM     50  C   UNL     1       9.247   0.535   6.057  1.00  0.00     0.029 A 
ATOM     51  C   UNL     1      10.339   1.511   6.030  1.00  0.00     0.049 A 
ATOM     52  H   UNL     1      11.202   2.213   4.207  1.00  0.00     0.167 HD
ATOM     53  C   UNL     1      13.002   1.623  -0.075  1.00  0.00     0.031 A 
ATOM     54  C   UNL     1      11.088   2.010   7.104  1.00  0.00     0.031 A 
ATOM     55  C   UNL     1      13.821   2.178   0.972  1.00  0.00     0.049 A 
ATOM     56  C   UNL     1      12.445   2.224   6.588  1.00  0.00     0.074 A 
ATOM     57  C   UNL     1      13.901   3.447   1.512  1.00  0.00     0.029 A 
ATOM     58  N   UNL     1      14.286   1.302   1.932  1.00  0.00    -0.354 N 
ATOM     59  N   UNL     1      13.258   1.226   6.414  1.00  0.00    -0.248 NA
ATOM     60  C   UNL     1      13.026   3.546   6.388  1.00  0.00     0.031 C 
ATOM     61  C   UNL     1      13.878   3.231   2.905  1.00  0.00     0.029 A 
ATOM     62  C   UNL     1      14.215   1.908   3.166  1.00  0.00     0.049 A 
ATOM     63  H   UNL     1      14.616   0.390   1.761  1.00  0.00     0.167 HD
ATOM     64  C   UNL     1      14.162   1.745   5.541  1.00  0.00     0.074 A 
ATOM     65  C   UNL     1      14.167   3.173   5.803  1.00  0.00     0.031 C 
ATOM     66  C   UNL     1      14.282   1.096   4.355  1.00  0.00     0.031 A 
BRANCH  53  67
ATOM     67  C   UNL     1      13.149   0.203  -0.573  1.00  0.00    -0.014 A 
ATOM     68  C   UNL     1      13.733  -0.027  -1.821  1.00  0.00     0.009 A 
ATOM     69  C   UNL     1      12.620  -0.907   0.124  1.00  0.00     0.009 A 
ATOM     70  C   UNL     1      13.726  -1.313  -2.377  1.00  0.00     0.001 A 
ATOM     71  C   UNL     1      12.571  -2.175  -0.448  1.00  0.00     0.001 A 
ATOM     72  C   UNL     1      13.122  -2.377  -1.705  1.00  0.00     0.000 A 
ENDBRANCH  53  67
BRANCH  54  73
ATOM     73  C   UNL     1      11.167   2.202   8.654  1.00  0.00    -0.014 A 
ATOM     74  C   UNL     1      12.430   2.055   9.332  1.00  0.00     0.009 A 
ATOM     75  C   UNL     1      10.222   2.946   9.374  1.00  0.00     0.009 A 
ATOM     76  C   UNL     1      12.759   2.689  10.551  1.00  0.00     0.001 A 
ATOM     77  C   UNL     1      10.541   3.557  10.625  1.00  0.00     0.001 A 
ATOM     78  C   UNL     1      11.812   3.461  11.194  1.00  0.00     0.000 A 
ENDBRANCH  54  73
BRANCH  66  79
ATOM     79  C   UNL     1      14.233  -0.423   4.389  1.00  0.00    -0.014 A 
ATOM     80  C   UNL     1      13.246  -1.192   5.048  1.00  0.00     0.009 A 
ATOM     81  C   UNL     1      15.289  -1.126   3.794  1.00  0.00     0.009 A 
ATOM     82  C   UNL     1      13.350  -2.584   5.170  1.00  0.00     0.001 A 
ATOM     83  C   UNL     1      15.371  -2.521   3.874  1.00  0.00     0.001 A 
ATOM     84  C   UNL     1      14.416  -3.248   4.579  1.00  0.00     0.000 A 
ENDBRANCH  66  79
ENDBRANCH  40  41
ENDBRANCH  32  35
ENDBRANCH  30  31
ENDBRANCH  29  30
ENDBRANCH   1  29
TORSDOF 14
