REMARK SMILES O=C(NCCCNC(=O)c1cccnc1SCC(=O)c1ccccc1Cl)c1ccc(-c2c3nc(c(-c4ccccc4)c4ccc([nH]4)c(-c4ccccc4)c4nc(c(-c5ccccc5)c5ccc2[nH]5)C=C4)C=C3)cc1
REMARK SMILES IDX 6 1 5 2 4 3 3 4 1 5 2 6 27 8 28 9 74 10 29 11 73 12 30 13
REMARK SMILES IDX 31 14 32 15 67 16 33 17 72 18 66 19 68 20 34 21 71 22 65 23
REMARK SMILES IDX 64 24 35 26 57 27 42 28 56 29 43 30 46 31 55 32 69 33 44 34
REMARK SMILES IDX 45 35 54 37 70 38 47 39 36 40 37 41 41 42 38 43 40 44 39 45
REMARK SMILES IDX 58 46 59 47 63 48 60 49 62 50 61 51 48 52 49 53 53 54 50 55
REMARK SMILES IDX 52 56 51 57 7 58 8 59 9 61 10 62 11 63 15 64 12 65 14 66
REMARK SMILES IDX 13 67 16 68 17 69 18 70 19 71 20 72 21 73 25 74 22 75 24 76
REMARK SMILES IDX 26 77 23 78
REMARK H PARENT 3 7 68 25 46 36 7 60
REMARK Flexibility Score: inf
ROOT
ATOM      1  C   UNL     1       4.399   1.677   3.391  1.00  0.00     0.118 C 
ENDROOT
BRANCH   1   2
ATOM      2  C   UNL     1       5.098   1.331   2.085  1.00  0.00     0.042 C 
BRANCH   2   3
ATOM      3  C   UNL     1       4.700  -0.015   1.488  1.00  0.00     0.118 C 
BRANCH   3   4
ATOM      4  N   UNL     1       3.279  -0.109   1.182  1.00  0.00    -0.352 N 
ATOM      5  O   UNL     1       1.364  -0.009   0.021  1.00  0.00    -0.269 OA
ATOM      6  C   UNL     1       2.591  -0.085  -0.005  1.00  0.00     0.251 C 
ATOM      7  H   UNL     1       2.704  -0.210   1.975  1.00  0.00     0.163 HD
BRANCH   6   8
ATOM      8  C   UNL     1       3.283  -0.126  -1.314  1.00  0.00     0.039 A 
ATOM      9  C   UNL     1       4.394  -0.940  -1.537  1.00  0.00     0.014 A 
ATOM     10  C   UNL     1       2.749   0.612  -2.378  1.00  0.00     0.014 A 
ATOM     11  C   UNL     1       5.050  -0.906  -2.766  1.00  0.00     0.010 A 
ATOM     12  C   UNL     1       3.358   0.582  -3.638  1.00  0.00     0.010 A 
ATOM     13  C   UNL     1       4.535  -0.153  -3.834  1.00  0.00    -0.014 A 
BRANCH  13  14
ATOM     14  C   UNL     1       5.216  -0.195  -5.153  1.00  0.00     0.031 A 
ATOM     15  C   UNL     1       5.887   1.025  -5.720  1.00  0.00     0.074 A 
ATOM     16  C   UNL     1       5.267  -1.361  -5.825  1.00  0.00     0.049 A 
ATOM     17  N   UNL     1       6.577   1.142  -6.828  1.00  0.00    -0.248 NA
ATOM     18  C   UNL     1       5.766   2.274  -4.954  1.00  0.00     0.031 C 
ATOM     19  C   UNL     1       4.648  -2.616  -5.390  1.00  0.00     0.029 A 
ATOM     20  N   UNL     1       5.894  -1.690  -7.000  1.00  0.00    -0.354 N 
ATOM     21  C   UNL     1       6.955   2.476  -6.901  1.00  0.00     0.074 A 
ATOM     22  C   UNL     1       6.404   3.135  -5.736  1.00  0.00     0.031 C 
ATOM     23  C   UNL     1       4.980  -3.590  -6.250  1.00  0.00     0.029 A 
ATOM     24  C   UNL     1       5.792  -3.022  -7.320  1.00  0.00     0.049 A 
ATOM     25  H   UNL     1       6.371  -1.035  -7.560  1.00  0.00     0.167 HD
ATOM     26  C   UNL     1       7.700   3.097  -7.847  1.00  0.00     0.031 A 
ATOM     27  C   UNL     1       6.297  -3.714  -8.357  1.00  0.00     0.031 A 
ATOM     28  C   UNL     1       8.263   2.448  -9.001  1.00  0.00     0.049 A 
ATOM     29  C   UNL     1       7.114  -3.002  -9.392  1.00  0.00     0.074 A 
ATOM     30  C   UNL     1       9.051   2.994 -10.000  1.00  0.00     0.029 A 
ATOM     31  N   UNL     1       8.100   1.107  -9.309  1.00  0.00    -0.354 N 
ATOM     32  N   UNL     1       7.474  -1.743  -9.433  1.00  0.00    -0.248 NA
ATOM     33  C   UNL     1       7.590  -3.807 -10.526  1.00  0.00     0.031 C 
ATOM     34  C   UNL     1       9.341   1.989 -10.929  1.00  0.00     0.029 A 
ATOM     35  C   UNL     1       8.760   0.811 -10.490  1.00  0.00     0.049 A 
ATOM     36  H   UNL     1       7.591   0.461  -8.768  1.00  0.00     0.167 HD
ATOM     37  C   UNL     1       8.220  -1.604 -10.595  1.00  0.00     0.074 A 
ATOM     38  C   UNL     1       8.280  -2.911 -11.217  1.00  0.00     0.031 C 
ATOM     39  C   UNL     1       8.799  -0.490 -11.102  1.00  0.00     0.031 A 
BRANCH  26  40
ATOM     40  C   UNL     1       7.936   4.570  -7.681  1.00  0.00    -0.014 A 
ATOM     41  C   UNL     1       8.879   5.052  -6.760  1.00  0.00     0.009 A 
ATOM     42  C   UNL     1       7.240   5.483  -8.487  1.00  0.00     0.009 A 
ATOM     43  C   UNL     1       9.101   6.425  -6.633  1.00  0.00     0.001 A 
ATOM     44  C   UNL     1       7.477   6.854  -8.370  1.00  0.00     0.001 A 
ATOM     45  C   UNL     1       8.403   7.324  -7.439  1.00  0.00     0.000 A 
ENDBRANCH  26  40
BRANCH  27  46
ATOM     46  C   UNL     1       6.046  -5.173  -8.457  1.00  0.00    -0.014 A 
ATOM     47  C   UNL     1       7.068  -6.089  -8.167  1.00  0.00     0.009 A 
ATOM     48  C   UNL     1       4.779  -5.654  -8.820  1.00  0.00     0.009 A 
ATOM     49  C   UNL     1       6.827  -7.462  -8.249  1.00  0.00     0.001 A 
ATOM     50  C   UNL     1       4.536  -7.027  -8.880  1.00  0.00     0.001 A 
ATOM     51  C   UNL     1       5.561  -7.929  -8.600  1.00  0.00     0.000 A 
ENDBRANCH  27  46
BRANCH  39  52
ATOM     52  C   UNL     1       9.550  -0.644 -12.390  1.00  0.00    -0.014 A 
ATOM     53  C   UNL     1       8.866  -0.732 -13.613  1.00  0.00     0.009 A 
ATOM     54  C   UNL     1      10.952  -0.681 -12.384  1.00  0.00     0.009 A 
ATOM     55  C   UNL     1       9.575  -0.881 -14.806  1.00  0.00     0.001 A 
ATOM     56  C   UNL     1      11.658  -0.813 -13.581  1.00  0.00     0.001 A 
ATOM     57  C   UNL     1      10.969  -0.920 -14.789  1.00  0.00     0.000 A 
ENDBRANCH  39  52
ENDBRANCH  13  14
ENDBRANCH   6   8
ENDBRANCH   3   4
ENDBRANCH   2   3
ENDBRANCH   1   2
BRANCH   1  58
ATOM     58  N   UNL     1       4.579   0.673   4.427  1.00  0.00    -0.352 N 
ATOM     59  C   UNL     1       5.090   0.833   5.684  1.00  0.00     0.254 C 
ATOM     60  H   UNL     1       4.296  -0.240   4.192  1.00  0.00     0.163 HD
ATOM     61  O   UNL     1       4.877   0.018   6.577  1.00  0.00    -0.269 OA
BRANCH  59  62
ATOM     62  C   UNL     1       5.785   2.056   6.043  1.00  0.00     0.072 A 
ATOM     63  C   UNL     1       4.960   3.079   6.547  1.00  0.00     0.018 A 
ATOM     64  C   UNL     1       7.155   2.252   5.944  1.00  0.00     0.109 A 
ATOM     65  C   UNL     1       5.510   4.298   6.910  1.00  0.00     0.021 A 
ATOM     66  N   UNL     1       7.682   3.452   6.331  1.00  0.00    -0.249 NA
ATOM     67  C   UNL     1       6.874   4.433   6.792  1.00  0.00     0.112 A 
BRANCH  64  68
ATOM     68  S   UNL     1       8.415   1.325   5.124  1.00  0.00    -0.097 SA
BRANCH  68  69
ATOM     69  C   UNL     1       8.342  -0.467   5.284  1.00  0.00     0.157 C 
BRANCH  69  70
ATOM     70  C   UNL     1       7.412  -1.242   6.162  1.00  0.00     0.174 C 
ATOM     71  O   UNL     1       6.562  -1.942   5.586  1.00  0.00    -0.293 OA
BRANCH  70  72
ATOM     72  C   UNL     1       7.569  -1.427   7.651  1.00  0.00     0.037 A 
ATOM     73  C   UNL     1       6.641  -2.329   8.231  1.00  0.00     0.013 A 
ATOM     74  C   UNL     1       8.532  -0.870   8.502  1.00  0.00     0.051 A 
ATOM     75  C   UNL     1       6.658  -2.651   9.591  1.00  0.00     0.001 A 
ATOM     76  C   UNL     1       8.527  -1.178   9.879  1.00  0.00     0.021 A 
ATOM     77  Cl  UNL     1       9.819   0.160   8.007  1.00  0.00    -0.084 Cl
ATOM     78  C   UNL     1       7.598  -2.064  10.421  1.00  0.00     0.002 A 
ENDBRANCH  70  72
ENDBRANCH  69  70
ENDBRANCH  68  69
ENDBRANCH  64  68
ENDBRANCH  59  62
ENDBRANCH   1  58
TORSDOF 14
