REMARK SMILES C=CC[C@]1(C(=O)NCCCNC(=O)c2ccc(-c3c4nc(c(-c5ccccc5)c5ccc([nH]5)c(-c5ccccc5)c5nc(c(-c6ccccc6)c6ccc3[nH]6)C=C5)C=C4)cc2)c2ccccc2C(=O)N1Cc1ccc([N+](=O)[O-])cc1
REMARK SMILES IDX 8 1 7 2 5 3 6 4 4 6 62 7 70 8 63 9 67 10 68 11 64 12 66 13
REMARK SMILES IDX 69 14 65 15 3 16 2 17 1 18 71 19 72 20 73 21 80 22 74 23
REMARK SMILES IDX 79 24 75 25 76 26 77 27 78 28 9 29 10 30 11 31 12 32 13 34
REMARK SMILES IDX 14 35 15 36 61 37 16 38 60 39 17 40 18 41 19 42 54 43 20 44
REMARK SMILES IDX 59 45 53 46 55 47 21 48 58 49 52 50 51 51 22 53 44 54 29 55
REMARK SMILES IDX 43 56 30 57 33 58 42 59 56 60 31 61 32 62 41 64 57 65 34 66
REMARK SMILES IDX 23 67 24 68 28 69 25 70 27 71 26 72 45 73 46 74 50 75 47 76
REMARK SMILES IDX 49 77 48 78 35 79 36 80 40 81 37 82 39 83 38 84
REMARK H PARENT 7 5 11 33 55 52 33 63
REMARK Flexibility Score: inf
ROOT
ATOM      1  C   UNL     1      -0.591  -1.310  -1.008  1.00  0.00     0.117 C 
ENDROOT
BRANCH   1   2
ATOM      2  N   UNL     1      -0.718  -0.277   0.004  1.00  0.00    -0.354 N 
ATOM      3  C   UNL     1      -1.226  -0.340   1.274  1.00  0.00     0.251 C 
ATOM      4  O   UNL     1      -1.243   0.723   1.907  1.00  0.00    -0.272 OA
ATOM      5  H   UNL     1      -0.386   0.610  -0.265  1.00  0.00     0.163 HD
BRANCH   3   6
ATOM      6  C   UNL     1      -1.905  -1.635   1.842  1.00  0.00     0.151 C 
ATOM      7  C   UNL     1      -3.184  -1.867   1.054  1.00  0.00     0.000 A 
ATOM      8  N   UNL     1      -1.153  -2.888   1.583  1.00  0.00    -0.315 N 
ATOM      9  C   UNL     1      -4.216  -0.980   0.772  1.00  0.00     0.007 A 
ATOM     10  C   UNL     1      -3.176  -3.144   0.497  1.00  0.00     0.046 A 
ATOM     11  C   UNL     1      -1.916  -3.809   0.872  1.00  0.00     0.255 C 
ATOM     12  C   UNL     1      -5.223  -1.395  -0.103  1.00  0.00     0.000 A 
ATOM     13  C   UNL     1      -4.164  -3.575  -0.370  1.00  0.00     0.014 A 
ATOM     14  O   UNL     1      -1.616  -4.943   0.549  1.00  0.00    -0.269 OA
ATOM     15  C   UNL     1      -5.195  -2.680  -0.673  1.00  0.00     0.001 A 
BRANCH   6  16
ATOM     16  C   UNL     1      -2.236  -1.457   3.356  1.00  0.00     0.070 C 
BRANCH  16  17
ATOM     17  C   UNL     1      -2.934  -2.629   4.016  1.00  0.00    -0.031 C 
ATOM     18  C   UNL     1      -2.385  -3.413   4.953  1.00  0.00     0.004 C 
ENDBRANCH  16  17
ENDBRANCH   6  16
BRANCH   8  19
ATOM     19  C   UNL     1       0.128  -3.234   2.200  1.00  0.00     0.157 C 
BRANCH  19  20
ATOM     20  C   UNL     1       1.296  -2.331   1.856  1.00  0.00    -0.028 A 
ATOM     21  C   UNL     1       2.233  -2.713   0.880  1.00  0.00     0.012 A 
ATOM     22  C   UNL     1       1.480  -1.102   2.512  1.00  0.00     0.012 A 
ATOM     23  C   UNL     1       3.301  -1.873   0.538  1.00  0.00     0.086 A 
ATOM     24  C   UNL     1       2.519  -0.238   2.154  1.00  0.00     0.086 A 
ATOM     25  C   UNL     1       3.425  -0.628   1.165  1.00  0.00     0.269 A 
BRANCH  25  26
ATOM     26  N   UNL     1       4.508   0.281   0.782  1.00  0.00     0.062 N 
ATOM     27  O   UNL     1       5.489  -0.204   0.204  1.00  0.00    -0.258 OA
ATOM     28  O   UNL     1       4.368   1.483   1.051  1.00  0.00    -0.258 OA
ENDBRANCH  25  26
ENDBRANCH  19  20
ENDBRANCH   8  19
ENDBRANCH   3   6
ENDBRANCH   1   2
BRANCH   1  29
ATOM     29  C   UNL     1      -0.984  -0.827  -2.391  1.00  0.00     0.042 C 
BRANCH  29  30
ATOM     30  C   UNL     1       0.053   0.095  -3.006  1.00  0.00     0.118 C 
BRANCH  30  31
ATOM     31  N   UNL     1       1.318  -0.584  -3.262  1.00  0.00    -0.352 N 
ATOM     32  C   UNL     1       1.952  -0.853  -4.449  1.00  0.00     0.251 C 
ATOM     33  H   UNL     1       1.791  -0.898  -2.458  1.00  0.00     0.163 HD
ATOM     34  O   UNL     1       2.906  -1.624  -4.473  1.00  0.00    -0.269 OA
BRANCH  32  35
ATOM     35  C   UNL     1       1.468  -0.232  -5.699  1.00  0.00     0.039 A 
ATOM     36  C   UNL     1       1.411  -0.999  -6.865  1.00  0.00     0.014 A 
ATOM     37  C   UNL     1       1.065   1.105  -5.717  1.00  0.00     0.014 A 
ATOM     38  C   UNL     1       0.878  -0.443  -8.029  1.00  0.00     0.010 A 
ATOM     39  C   UNL     1       0.440   1.622  -6.843  1.00  0.00     0.010 A 
ATOM     40  C   UNL     1       0.350   0.858  -8.015  1.00  0.00    -0.014 A 
BRANCH  40  41
ATOM     41  C   UNL     1      -0.286   1.452  -9.215  1.00  0.00     0.031 A 
ATOM     42  C   UNL     1       0.296   2.691  -9.838  1.00  0.00     0.074 A 
ATOM     43  C   UNL     1      -1.429   0.925  -9.694  1.00  0.00     0.049 A 
ATOM     44  N   UNL     1      -0.159   3.404 -10.837  1.00  0.00    -0.248 NA
ATOM     45  C   UNL     1       1.533   3.218  -9.238  1.00  0.00     0.031 C 
ATOM     46  C   UNL     1      -2.124  -0.241  -9.146  1.00  0.00     0.029 A 
ATOM     47  N   UNL     1      -2.213   1.312 -10.751  1.00  0.00    -0.354 N 
ATOM     48  C   UNL     1       0.720   4.472 -10.966  1.00  0.00     0.074 A 
ATOM     49  C   UNL     1       1.700   4.347  -9.910  1.00  0.00     0.031 C 
ATOM     50  C   UNL     1      -3.213  -0.493  -9.889  1.00  0.00     0.029 A 
ATOM     51  C   UNL     1      -3.315   0.514 -10.939  1.00  0.00     0.049 A 
ATOM     52  H   UNL     1      -2.006   2.088 -11.321  1.00  0.00     0.167 HD
ATOM     53  C   UNL     1       0.728   5.458 -11.894  1.00  0.00     0.031 A 
ATOM     54  C   UNL     1      -4.299   0.587 -11.854  1.00  0.00     0.031 A 
ATOM     55  C   UNL     1      -0.233   5.571 -12.957  1.00  0.00     0.049 A 
ATOM     56  C   UNL     1      -4.263   1.681 -12.883  1.00  0.00     0.074 A 
ATOM     57  C   UNL     1      -0.277   6.494 -13.986  1.00  0.00     0.029 A 
ATOM     58  N   UNL     1      -1.319   4.726 -13.127  1.00  0.00    -0.354 N 
ATOM     59  N   UNL     1      -3.388   2.645 -13.032  1.00  0.00    -0.248 NA
ATOM     60  C   UNL     1      -5.345   1.688 -13.877  1.00  0.00     0.031 C 
ATOM     61  C   UNL     1      -1.416   6.234 -14.755  1.00  0.00     0.029 A 
ATOM     62  C   UNL     1      -2.052   5.119 -14.234  1.00  0.00     0.049 A 
ATOM     63  H   UNL     1      -1.537   3.962 -12.547  1.00  0.00     0.167 HD
ATOM     64  C   UNL     1      -3.800   3.361 -14.148  1.00  0.00     0.074 A 
ATOM     65  C   UNL     1      -4.994   2.708 -14.647  1.00  0.00     0.031 C 
ATOM     66  C   UNL     1      -3.240   4.460 -14.710  1.00  0.00     0.031 A 
BRANCH  53  67
ATOM     67  C   UNL     1       1.817   6.489 -11.792  1.00  0.00    -0.014 A 
ATOM     68  C   UNL     1       3.156   6.163 -12.066  1.00  0.00     0.009 A 
ATOM     69  C   UNL     1       1.501   7.807 -11.429  1.00  0.00     0.009 A 
ATOM     70  C   UNL     1       4.160   7.124 -11.935  1.00  0.00     0.001 A 
ATOM     71  C   UNL     1       2.503   8.774 -11.328  1.00  0.00     0.001 A 
ATOM     72  C   UNL     1       3.832   8.429 -11.570  1.00  0.00     0.000 A 
ENDBRANCH  53  67
BRANCH  54  73
ATOM     73  C   UNL     1      -5.387  -0.424 -11.853  1.00  0.00    -0.014 A 
ATOM     74  C   UNL     1      -5.440  -1.411 -12.849  1.00  0.00     0.009 A 
ATOM     75  C   UNL     1      -6.370  -0.416 -10.851  1.00  0.00     0.009 A 
ATOM     76  C   UNL     1      -6.468  -2.357 -12.853  1.00  0.00     0.001 A 
ATOM     77  C   UNL     1      -7.381  -1.380 -10.843  1.00  0.00     0.001 A 
ATOM     78  C   UNL     1      -7.434  -2.344 -11.848  1.00  0.00     0.000 A 
ENDBRANCH  54  73
BRANCH  66  79
ATOM     79  C   UNL     1      -3.900   5.009 -15.942  1.00  0.00    -0.014 A 
ATOM     80  C   UNL     1      -5.117   5.703 -15.867  1.00  0.00     0.009 A 
ATOM     81  C   UNL     1      -3.273   4.862 -17.189  1.00  0.00     0.009 A 
ATOM     82  C   UNL     1      -5.709   6.213 -17.024  1.00  0.00     0.001 A 
ATOM     83  C   UNL     1      -3.854   5.397 -18.340  1.00  0.00     0.001 A 
ATOM     84  C   UNL     1      -5.075   6.064 -18.257  1.00  0.00     0.000 A 
ENDBRANCH  66  79
ENDBRANCH  40  41
ENDBRANCH  32  35
ENDBRANCH  30  31
ENDBRANCH  29  30
ENDBRANCH   1  29
TORSDOF 15
