REMARK SMILES CCc1cc(OCC(=O)NCCCNC(=O)c2ccc(-c3c4nc(c(-c5ccccc5)c5ccc([nH]5)c(-c5ccccc5)c5nc(c(-c6ccccc6)c6ccc3[nH]6)C=C5)C=C4)cc2)nc(Nc2ccc(C)c(F)c2)n1
REMARK SMILES IDX 11 1 10 2 8 3 9 4 7 6 6 7 5 8 3 9 4 10 76 11 66 12 65 13
REMARK SMILES IDX 2 14 1 15 67 16 68 18 69 19 75 20 70 21 73 22 71 23 74 24
REMARK SMILES IDX 72 25 12 26 13 27 14 28 15 29 16 31 17 32 18 33 64 34 19 35
REMARK SMILES IDX 63 36 20 37 21 38 22 39 57 40 23 41 62 42 56 43 58 44 24 45
REMARK SMILES IDX 61 46 55 47 54 48 25 50 47 51 32 52 46 53 33 54 36 55 45 56
REMARK SMILES IDX 59 57 34 58 35 59 44 61 60 62 37 63 26 64 27 65 31 66 28 67
REMARK SMILES IDX 30 68 29 69 48 70 49 71 53 72 50 73 52 74 51 75 38 76 39 77
REMARK SMILES IDX 43 78 40 79 42 80 41 81
REMARK H PARENT 10 5 67 17 14 30 58 49 36 60
REMARK Flexibility Score: inf
ROOT
ATOM      1  C   UNL     1      -0.990   5.315  -5.643  1.00  0.00     0.117 C 
ENDROOT
BRANCH   1   2
ATOM      2  N   UNL     1      -1.231   5.379  -4.214  1.00  0.00    -0.353 N 
ATOM      3  C   UNL     1      -0.321   5.365  -3.200  1.00  0.00     0.258 C 
ATOM      4  O   UNL     1      -0.726   5.450  -2.039  1.00  0.00    -0.271 OA
ATOM      5  H   UNL     1      -2.175   5.441  -3.942  1.00  0.00     0.163 HD
BRANCH   3   6
ATOM      6  C   UNL     1       1.175   5.256  -3.518  1.00  0.00     0.331 C 
BRANCH   6   7
ATOM      7  O   UNL     1       1.592   4.088  -4.203  1.00  0.00    -0.467 OA
BRANCH   7   8
ATOM      8  C   UNL     1       1.483   2.888  -3.558  1.00  0.00     0.218 A 
ATOM      9  C   UNL     1       0.945   1.428  -1.811  1.00  0.00     0.050 A 
ATOM     10  C   UNL     1       1.074   2.723  -2.254  1.00  0.00     0.092 A 
ATOM     11  N   UNL     1       1.209   0.385  -2.611  1.00  0.00    -0.218 NA
ATOM     12  C   UNL     1       1.672   0.622  -3.845  1.00  0.00     0.230 A 
ATOM     13  N   UNL     1       1.814   1.852  -4.352  1.00  0.00    -0.177 NA
BRANCH   9  14
ATOM     14  C   UNL     1       0.434   1.141  -0.422  1.00  0.00     0.053 C 
ATOM     15  C   UNL     1       0.925  -0.185   0.145  1.00  0.00     0.011 C 
ENDBRANCH   9  14
BRANCH  12  16
ATOM     16  N   UNL     1       2.115  -0.449  -4.620  1.00  0.00    -0.324 N 
ATOM     17  H   UNL     1       2.540  -0.218  -5.477  1.00  0.00     0.170 HD
BRANCH  16  18
ATOM     18  C   UNL     1       2.028  -1.814  -4.324  1.00  0.00     0.044 A 
ATOM     19  C   UNL     1       3.164  -2.627  -4.423  1.00  0.00     0.026 A 
ATOM     20  C   UNL     1       0.859  -2.373  -3.795  1.00  0.00     0.065 A 
ATOM     21  C   UNL     1       3.135  -3.960  -3.990  1.00  0.00     0.008 A 
ATOM     22  C   UNL     1       0.827  -3.702  -3.385  1.00  0.00     0.128 A 
ATOM     23  C   UNL     1       1.960  -4.510  -3.463  1.00  0.00    -0.015 A 
ATOM     24  F   UNL     1      -0.317  -4.194  -2.889  1.00  0.00    -0.207 F 
ATOM     25  C   UNL     1       1.938  -5.921  -2.962  1.00  0.00     0.047 C 
ENDBRANCH  16  18
ENDBRANCH  12  16
ENDBRANCH   7   8
ENDBRANCH   6   7
ENDBRANCH   3   6
ENDBRANCH   1   2
BRANCH   1  26
ATOM     26  C   UNL     1      -1.380   3.970  -6.242  1.00  0.00     0.042 C 
BRANCH  26  27
ATOM     27  C   UNL     1      -2.858   3.619  -6.096  1.00  0.00     0.118 C 
BRANCH  27  28
ATOM     28  N   UNL     1      -3.742   4.566  -6.766  1.00  0.00    -0.352 N 
ATOM     29  C   UNL     1      -4.676   4.359  -7.751  1.00  0.00     0.251 C 
ATOM     30  H   UNL     1      -3.655   5.499  -6.466  1.00  0.00     0.163 HD
ATOM     31  O   UNL     1      -5.212   5.321  -8.297  1.00  0.00    -0.269 OA
BRANCH  29  32
ATOM     32  C   UNL     1      -5.026   2.987  -8.174  1.00  0.00     0.039 A 
ATOM     33  C   UNL     1      -5.144   2.706  -9.538  1.00  0.00     0.014 A 
ATOM     34  C   UNL     1      -5.244   1.980  -7.231  1.00  0.00     0.014 A 
ATOM     35  C   UNL     1      -5.402   1.399  -9.959  1.00  0.00     0.010 A 
ATOM     36  C   UNL     1      -5.420   0.666  -7.652  1.00  0.00     0.010 A 
ATOM     37  C   UNL     1      -5.499   0.360  -9.020  1.00  0.00    -0.014 A 
BRANCH  37  38
ATOM     38  C   UNL     1      -5.682  -1.055  -9.433  1.00  0.00     0.031 A 
ATOM     39  C   UNL     1      -6.915  -1.807  -9.013  1.00  0.00     0.074 A 
ATOM     40  C   UNL     1      -4.702  -1.690 -10.104  1.00  0.00     0.049 A 
ATOM     41  N   UNL     1      -7.200  -3.076  -9.161  1.00  0.00    -0.248 NA
ATOM     42  C   UNL     1      -7.953  -1.035  -8.312  1.00  0.00     0.031 C 
ATOM     43  C   UNL     1      -3.445  -1.085 -10.550  1.00  0.00     0.029 A 
ATOM     44  N   UNL     1      -4.602  -2.998 -10.513  1.00  0.00    -0.354 N 
ATOM     45  C   UNL     1      -8.434  -3.258  -8.549  1.00  0.00     0.074 A 
ATOM     46  C   UNL     1      -8.822  -1.982  -7.990  1.00  0.00     0.031 C 
ATOM     47  C   UNL     1      -2.710  -2.013 -11.184  1.00  0.00     0.029 A 
ATOM     48  C   UNL     1      -3.417  -3.289 -11.143  1.00  0.00     0.049 A 
ATOM     49  H   UNL     1      -5.313  -3.663 -10.368  1.00  0.00     0.167 HD
ATOM     50  C   UNL     1      -9.185  -4.383  -8.472  1.00  0.00     0.031 A 
ATOM     51  C   UNL     1      -2.941  -4.456 -11.618  1.00  0.00     0.031 A 
ATOM     52  C   UNL     1      -8.801  -5.652  -9.031  1.00  0.00     0.049 A 
ATOM     53  C   UNL     1      -3.778  -5.699 -11.488  1.00  0.00     0.074 A 
ATOM     54  C   UNL     1      -9.514  -6.837  -9.047  1.00  0.00     0.029 A 
ATOM     55  N   UNL     1      -7.595  -5.901  -9.669  1.00  0.00    -0.354 N 
ATOM     56  N   UNL     1      -4.969  -5.843 -10.958  1.00  0.00    -0.248 NA
ATOM     57  C   UNL     1      -3.208  -6.940 -12.031  1.00  0.00     0.031 C 
ATOM     58  C   UNL     1      -8.717  -7.819  -9.642  1.00  0.00     0.029 A 
ATOM     59  C   UNL     1      -7.535  -7.227 -10.061  1.00  0.00     0.049 A 
ATOM     60  H   UNL     1      -6.887  -5.233  -9.820  1.00  0.00     0.167 HD
ATOM     61  C   UNL     1      -5.305  -7.179 -11.138  1.00  0.00     0.074 A 
ATOM     62  C   UNL     1      -4.198  -7.800 -11.835  1.00  0.00     0.031 C 
ATOM     63  C   UNL     1      -6.432  -7.831 -10.763  1.00  0.00     0.031 A 
BRANCH  50  64
ATOM     64  C   UNL     1     -10.496  -4.292  -7.739  1.00  0.00    -0.014 A 
ATOM     65  C   UNL     1     -11.572  -3.553  -8.256  1.00  0.00     0.009 A 
ATOM     66  C   UNL     1     -10.669  -4.985  -6.531  1.00  0.00     0.009 A 
ATOM     67  C   UNL     1     -12.779  -3.476  -7.557  1.00  0.00     0.001 A 
ATOM     68  C   UNL     1     -11.888  -4.934  -5.851  1.00  0.00     0.001 A 
ATOM     69  C   UNL     1     -12.938  -4.171  -6.359  1.00  0.00     0.000 A 
ENDBRANCH  50  64
BRANCH  51  70
ATOM     70  C   UNL     1      -1.603  -4.510 -12.266  1.00  0.00    -0.014 A 
ATOM     71  C   UNL     1      -1.489  -4.751 -13.643  1.00  0.00     0.009 A 
ATOM     72  C   UNL     1      -0.433  -4.335 -11.510  1.00  0.00     0.009 A 
ATOM     73  C   UNL     1      -0.232  -4.847 -14.245  1.00  0.00     0.001 A 
ATOM     74  C   UNL     1       0.822  -4.398 -12.120  1.00  0.00     0.001 A 
ATOM     75  C   UNL     1       0.922  -4.666 -13.484  1.00  0.00     0.000 A 
ENDBRANCH  51  70
BRANCH  63  76
ATOM     76  C   UNL     1      -6.557  -9.279 -11.150  1.00  0.00    -0.014 A 
ATOM     77  C   UNL     1      -5.785 -10.275 -10.533  1.00  0.00     0.009 A 
ATOM     78  C   UNL     1      -7.505  -9.654 -12.116  1.00  0.00     0.009 A 
ATOM     79  C   UNL     1      -5.939 -11.614 -10.900  1.00  0.00     0.001 A 
ATOM     80  C   UNL     1      -7.679 -10.995 -12.457  1.00  0.00     0.001 A 
ATOM     81  C   UNL     1      -6.889 -11.973 -11.856  1.00  0.00     0.000 A 
ENDBRANCH  63  76
ENDBRANCH  37  38
ENDBRANCH  29  32
ENDBRANCH  27  28
ENDBRANCH  26  27
ENDBRANCH   1  26
TORSDOF 15
