REMARK SMILES O=C(C[C@H](C(=O)NCCCNC(=O)c1ccc(-c2c3nc(c(-c4ccccc4)c4ccc([nH]4)c(-c4ccccc4)c4nc(c(-c5ccccc5)c5ccc2[nH]5)C=C4)C=C3)cc1)c1ccccc1)Nc1ccc(Cl)cc1Cl
REMARK SMILES IDX 8 1 7 2 5 3 6 4 4 6 3 7 2 8 1 9 68 10 69 12 70 13 75 14
REMARK SMILES IDX 71 15 74 16 76 17 72 18 73 19 62 20 63 21 67 22 64 23 66 24
REMARK SMILES IDX 65 25 9 26 10 27 11 28 12 29 13 31 14 32 15 33 61 34 16 35
REMARK SMILES IDX 60 36 17 37 18 38 19 39 54 40 20 41 59 42 53 43 55 44 21 45
REMARK SMILES IDX 58 46 52 47 51 48 22 50 44 51 29 52 43 53 30 54 33 55 42 56
REMARK SMILES IDX 56 57 31 58 32 59 41 61 57 62 34 63 23 64 24 65 28 66 25 67
REMARK SMILES IDX 27 68 26 69 45 70 46 71 50 72 47 73 49 74 48 75 35 76 36 77
REMARK SMILES IDX 40 78 37 79 39 80 38 81
REMARK H PARENT 7 5 68 11 11 30 55 49 33 60
REMARK Flexibility Score: inf
ROOT
ATOM      1  C   UNL     1       1.676   3.262  -0.605  1.00  0.00     0.117 C 
ENDROOT
BRANCH   1   2
ATOM      2  N   UNL     1       2.174   1.944  -0.946  1.00  0.00    -0.355 N 
ATOM      3  C   UNL     1       3.229   1.235  -0.449  1.00  0.00     0.228 C 
ATOM      4  O   UNL     1       3.491   0.177  -1.025  1.00  0.00    -0.274 OA
ATOM      5  H   UNL     1       1.666   1.484  -1.653  1.00  0.00     0.163 HD
BRANCH   3   6
ATOM      6  C   UNL     1       3.998   1.715   0.799  1.00  0.00     0.118 C 
BRANCH   6   7
ATOM      7  C   UNL     1       4.990   0.632   1.276  1.00  0.00     0.118 C 
BRANCH   7   8
ATOM      8  C   UNL     1       4.491  -0.175   2.450  1.00  0.00     0.225 C 
ATOM      9  O   UNL     1       4.140  -1.345   2.339  1.00  0.00    -0.275 OA
ATOM     10  N   UNL     1       4.500   0.527   3.643  1.00  0.00    -0.325 N 
ATOM     11  H   UNL     1       4.464   1.510   3.606  1.00  0.00     0.169 HD
BRANCH  10  12
ATOM     12  C   UNL     1       4.559  -0.093   4.909  1.00  0.00     0.060 A 
ATOM     13  C   UNL     1       3.759   0.455   5.919  1.00  0.00     0.029 A 
ATOM     14  C   UNL     1       5.419  -1.166   5.221  1.00  0.00     0.066 A 
ATOM     15  C   UNL     1       3.759  -0.104   7.200  1.00  0.00     0.023 A 
ATOM     16  C   UNL     1       5.428  -1.710   6.509  1.00  0.00     0.043 A 
ATOM     17  Cl  UNL     1       6.648  -1.734   4.139  1.00  0.00    -0.082 Cl
ATOM     18  C   UNL     1       4.589  -1.185   7.487  1.00  0.00     0.042 A 
ATOM     19  Cl  UNL     1       4.604  -1.853   9.072  1.00  0.00    -0.084 Cl
ENDBRANCH  10  12
ENDBRANCH   7   8
ENDBRANCH   6   7
BRANCH   6  20
ATOM     20  C   UNL     1       4.771   3.011   0.552  1.00  0.00    -0.035 A 
ATOM     21  C   UNL     1       5.897   3.033  -0.288  1.00  0.00     0.004 A 
ATOM     22  C   UNL     1       4.380   4.208   1.175  1.00  0.00     0.004 A 
ATOM     23  C   UNL     1       6.603   4.217  -0.504  1.00  0.00     0.000 A 
ATOM     24  C   UNL     1       5.060   5.401   0.921  1.00  0.00     0.000 A 
ATOM     25  C   UNL     1       6.174   5.404   0.086  1.00  0.00     0.000 A 
ENDBRANCH   6  20
ENDBRANCH   3   6
ENDBRANCH   1   2
BRANCH   1  26
ATOM     26  C   UNL     1       2.251   4.337  -1.526  1.00  0.00     0.042 C 
BRANCH  26  27
ATOM     27  C   UNL     1       1.608   4.357  -2.909  1.00  0.00     0.118 C 
BRANCH  27  28
ATOM     28  N   UNL     1       0.236   4.847  -2.872  1.00  0.00    -0.352 N 
ATOM     29  C   UNL     1      -0.344   5.888  -3.560  1.00  0.00     0.251 C 
ATOM     30  H   UNL     1      -0.366   4.361  -2.264  1.00  0.00     0.163 HD
ATOM     31  O   UNL     1      -1.461   6.280  -3.249  1.00  0.00    -0.269 OA
BRANCH  29  32
ATOM     32  C   UNL     1       0.391   6.545  -4.662  1.00  0.00     0.039 A 
ATOM     33  C   UNL     1       0.380   7.941  -4.750  1.00  0.00     0.014 A 
ATOM     34  C   UNL     1       1.083   5.787  -5.608  1.00  0.00     0.014 A 
ATOM     35  C   UNL     1       1.127   8.578  -5.743  1.00  0.00     0.010 A 
ATOM     36  C   UNL     1       1.885   6.424  -6.549  1.00  0.00     0.010 A 
ATOM     37  C   UNL     1       1.918   7.825  -6.624  1.00  0.00    -0.014 A 
BRANCH  37  38
ATOM     38  C   UNL     1       2.800   8.465  -7.632  1.00  0.00     0.031 A 
ATOM     39  C   UNL     1       2.567   8.219  -9.096  1.00  0.00     0.074 A 
ATOM     40  C   UNL     1       3.869   9.180  -7.228  1.00  0.00     0.049 A 
ATOM     41  N   UNL     1       3.308   8.556 -10.120  1.00  0.00    -0.248 NA
ATOM     42  C   UNL     1       1.351   7.469  -9.453  1.00  0.00     0.031 C 
ATOM     43  C   UNL     1       4.217   9.476  -5.837  1.00  0.00     0.029 A 
ATOM     44  N   UNL     1       4.873   9.771  -7.954  1.00  0.00    -0.354 N 
ATOM     45  C   UNL     1       2.664   8.039 -11.237  1.00  0.00     0.074 A 
ATOM     46  C   UNL     1       1.497   7.327 -10.762  1.00  0.00     0.031 C 
ATOM     47  C   UNL     1       5.344  10.205  -5.812  1.00  0.00     0.029 A 
ATOM     48  C   UNL     1       5.828  10.381  -7.177  1.00  0.00     0.049 A 
ATOM     49  H   UNL     1       4.905   9.759  -8.938  1.00  0.00     0.167 HD
ATOM     50  C   UNL     1       3.004   8.158 -12.543  1.00  0.00     0.031 A 
ATOM     51  C   UNL     1       6.976  10.993  -7.523  1.00  0.00     0.031 A 
ATOM     52  C   UNL     1       4.164   8.868 -13.012  1.00  0.00     0.049 A 
ATOM     53  C   UNL     1       7.356  11.073  -8.976  1.00  0.00     0.074 A 
ATOM     54  C   UNL     1       4.574   9.082 -14.316  1.00  0.00     0.029 A 
ATOM     55  N   UNL     1       5.102   9.475 -12.191  1.00  0.00    -0.354 N 
ATOM     56  N   UNL     1       6.712  10.622 -10.025  1.00  0.00    -0.248 NA
ATOM     57  C   UNL     1       8.620  11.753  -9.293  1.00  0.00     0.031 C 
ATOM     58  C   UNL     1       5.791   9.770 -14.283  1.00  0.00     0.029 A 
ATOM     59  C   UNL     1       6.103  10.044 -12.961  1.00  0.00     0.049 A 
ATOM     60  H   UNL     1       5.063   9.498 -11.208  1.00  0.00     0.167 HD
ATOM     61  C   UNL     1       7.471  10.996 -11.126  1.00  0.00     0.074 A 
ATOM     62  C   UNL     1       8.620  11.717 -10.618  1.00  0.00     0.031 C 
ATOM     63  C   UNL     1       7.234  10.768 -12.441  1.00  0.00     0.031 A 
BRANCH  50  64
ATOM     64  C   UNL     1       2.114   7.489 -13.554  1.00  0.00    -0.014 A 
ATOM     65  C   UNL     1       0.810   7.952 -13.799  1.00  0.00     0.009 A 
ATOM     66  C   UNL     1       2.594   6.398 -14.294  1.00  0.00     0.009 A 
ATOM     67  C   UNL     1      -0.007   7.309 -14.731  1.00  0.00     0.001 A 
ATOM     68  C   UNL     1       1.787   5.778 -15.250  1.00  0.00     0.001 A 
ATOM     69  C   UNL     1       0.484   6.226 -15.459  1.00  0.00     0.000 A 
ENDBRANCH  50  64
BRANCH  51  70
ATOM     70  C   UNL     1       7.851  11.587  -6.477  1.00  0.00    -0.014 A 
ATOM     71  C   UNL     1       7.991  12.980  -6.376  1.00  0.00     0.009 A 
ATOM     72  C   UNL     1       8.556  10.769  -5.580  1.00  0.00     0.009 A 
ATOM     73  C   UNL     1       8.841  13.539  -5.419  1.00  0.00     0.001 A 
ATOM     74  C   UNL     1       9.380  11.332  -4.604  1.00  0.00     0.001 A 
ATOM     75  C   UNL     1       9.530  12.716  -4.531  1.00  0.00     0.000 A 
ENDBRANCH  51  70
BRANCH  63  76
ATOM     76  C   UNL     1       8.203  11.351 -13.431  1.00  0.00    -0.014 A 
ATOM     77  C   UNL     1       9.493  10.824 -13.597  1.00  0.00     0.009 A 
ATOM     78  C   UNL     1       7.790  12.411 -14.255  1.00  0.00     0.009 A 
ATOM     79  C   UNL     1      10.358  11.366 -14.550  1.00  0.00     0.001 A 
ATOM     80  C   UNL     1       8.645  12.929 -15.228  1.00  0.00     0.001 A 
ATOM     81  C   UNL     1       9.931  12.411 -15.369  1.00  0.00     0.000 A 
ENDBRANCH  63  76
ENDBRANCH  37  38
ENDBRANCH  29  32
ENDBRANCH  27  28
ENDBRANCH  26  27
ENDBRANCH   1  26
TORSDOF 14
