REMARK SMILES O=C(NCCCNC(=O)c1cccc(Nc2ccc([N+](=O)[O-])cc2)c1)c1ccc(-c2c3nc(c(-c4ccccc4)c4ccc([nH]4)c(-c4ccccc4)c4nc(c(-c5ccccc5)c5ccc2[nH]5)C=C4)C=C3)cc1
REMARK SMILES IDX 5 1 4 2 3 3 1 4 2 5 26 7 27 8 73 9 28 10 72 11 29 12 30 13
REMARK SMILES IDX 31 14 66 15 32 16 71 17 65 18 67 19 33 20 70 21 64 22 63 23
REMARK SMILES IDX 34 25 56 26 41 27 55 28 42 29 45 30 54 31 68 32 43 33 44 34
REMARK SMILES IDX 53 36 69 37 46 38 35 39 36 40 40 41 37 42 39 43 38 44 57 45
REMARK SMILES IDX 58 46 62 47 59 48 61 49 60 50 47 51 48 52 52 53 49 54 51 55
REMARK SMILES IDX 50 56 6 57 7 58 8 59 9 61 10 62 11 63 25 64 12 65 14 66
REMARK SMILES IDX 13 67 15 68 16 70 17 71 24 72 18 73 23 74 19 75 20 76 21 77
REMARK SMILES IDX 22 78
REMARK H PARENT 3 6 67 24 45 35 7 60 15 69
REMARK Flexibility Score: inf
ROOT
ATOM      1  C   UNL     1       4.829  -1.600  -1.805  1.00  0.00     0.042 C 
ENDROOT
BRANCH   1   2
ATOM      2  C   UNL     1       4.470  -0.211  -1.302  1.00  0.00     0.118 C 
BRANCH   2   3
ATOM      3  N   UNL     1       3.037  -0.036  -1.095  1.00  0.00    -0.352 N 
ATOM      4  O   UNL     1       1.092   0.080   0.033  1.00  0.00    -0.269 OA
ATOM      5  C   UNL     1       2.319   0.131   0.064  1.00  0.00     0.251 C 
ATOM      6  H   UNL     1       2.498  -0.037  -1.919  1.00  0.00     0.163 HD
BRANCH   5   7
ATOM      7  C   UNL     1       3.015   0.346   1.350  1.00  0.00     0.039 A 
ATOM      8  C   UNL     1       4.130   1.180   1.428  1.00  0.00     0.014 A 
ATOM      9  C   UNL     1       2.531  -0.279   2.504  1.00  0.00     0.014 A 
ATOM     10  C   UNL     1       4.863   1.247   2.605  1.00  0.00     0.010 A 
ATOM     11  C   UNL     1       3.206  -0.119   3.718  1.00  0.00     0.010 A 
ATOM     12  C   UNL     1       4.399   0.617   3.770  1.00  0.00    -0.014 A 
BRANCH  12  13
ATOM     13  C   UNL     1       5.148   0.808   5.037  1.00  0.00     0.031 A 
ATOM     14  C   UNL     1       5.792  -0.348   5.749  1.00  0.00     0.074 A 
ATOM     15  C   UNL     1       5.277   2.058   5.524  1.00  0.00     0.049 A 
ATOM     16  N   UNL     1       6.513  -0.339   6.843  1.00  0.00    -0.248 NA
ATOM     17  C   UNL     1       5.600  -1.687   5.170  1.00  0.00     0.031 C 
ATOM     18  C   UNL     1       4.691   3.261   4.924  1.00  0.00     0.029 A 
ATOM     19  N   UNL     1       5.961   2.531   6.613  1.00  0.00    -0.354 N 
ATOM     20  C   UNL     1       6.842  -1.665   7.094  1.00  0.00     0.074 A 
ATOM     21  C   UNL     1       6.223  -2.457   6.053  1.00  0.00     0.031 C 
ATOM     22  C   UNL     1       5.090   4.337   5.617  1.00  0.00     0.029 A 
ATOM     23  C   UNL     1       5.896   3.897   6.748  1.00  0.00     0.049 A 
ATOM     24  H   UNL     1       6.451   1.949   7.238  1.00  0.00     0.167 HD
ATOM     25  C   UNL     1       7.594  -2.175   8.100  1.00  0.00     0.031 A 
ATOM     26  C   UNL     1       6.413   4.710   7.686  1.00  0.00     0.031 A 
ATOM     27  C   UNL     1       8.210  -1.384   9.134  1.00  0.00     0.049 A 
ATOM     28  C   UNL     1       7.216   4.114   8.802  1.00  0.00     0.074 A 
ATOM     29  C   UNL     1       9.016  -1.807  10.178  1.00  0.00     0.029 A 
ATOM     30  N   UNL     1       8.085  -0.009   9.259  1.00  0.00    -0.354 N 
ATOM     31  N   UNL     1       7.543   2.861   9.005  1.00  0.00    -0.248 NA
ATOM     32  C   UNL     1       7.721   5.045   9.819  1.00  0.00     0.031 C 
ATOM     33  C   UNL     1       9.334  -0.695  10.964  1.00  0.00     0.029 A 
ATOM     34  C   UNL     1       8.776   0.429  10.377  1.00  0.00     0.049 A 
ATOM     35  H   UNL     1       7.580   0.571   8.644  1.00  0.00     0.167 HD
ATOM     36  C   UNL     1       8.305   2.854  10.164  1.00  0.00     0.074 A 
ATOM     37  C   UNL     1       8.411   4.231  10.605  1.00  0.00     0.031 C 
ATOM     38  C   UNL     1       8.864   1.801  10.808  1.00  0.00     0.031 A 
BRANCH  25  39
ATOM     39  C   UNL     1       7.772  -3.668   8.150  1.00  0.00    -0.014 A 
ATOM     40  C   UNL     1       8.586  -4.340   7.226  1.00  0.00     0.009 A 
ATOM     41  C   UNL     1       7.155  -4.407   9.173  1.00  0.00     0.009 A 
ATOM     42  C   UNL     1       8.756  -5.724   7.307  1.00  0.00     0.001 A 
ATOM     43  C   UNL     1       7.347  -5.786   9.267  1.00  0.00     0.001 A 
ATOM     44  C   UNL     1       8.140  -6.445   8.330  1.00  0.00     0.000 A 
ENDBRANCH  25  39
BRANCH  26  45
ATOM     45  C   UNL     1       6.165   6.172   7.612  1.00  0.00    -0.014 A 
ATOM     46  C   UNL     1       7.207   7.062   7.314  1.00  0.00     0.009 A 
ATOM     47  C   UNL     1       4.874   6.684   7.823  1.00  0.00     0.009 A 
ATOM     48  C   UNL     1       6.966   8.436   7.250  1.00  0.00     0.001 A 
ATOM     49  C   UNL     1       4.630   8.054   7.727  1.00  0.00     0.001 A 
ATOM     50  C   UNL     1       5.677   8.930   7.449  1.00  0.00     0.000 A 
ENDBRANCH  26  45
BRANCH  38  51
ATOM     51  C   UNL     1       9.662   2.106  12.043  1.00  0.00    -0.014 A 
ATOM     52  C   UNL     1       9.036   2.497  13.237  1.00  0.00     0.009 A 
ATOM     53  C   UNL     1      11.060   1.982  12.014  1.00  0.00     0.009 A 
ATOM     54  C   UNL     1       9.798   2.793  14.368  1.00  0.00     0.001 A 
ATOM     55  C   UNL     1      11.817   2.251  13.155  1.00  0.00     0.001 A 
ATOM     56  C   UNL     1      11.187   2.666  14.328  1.00  0.00     0.000 A 
ENDBRANCH  38  51
ENDBRANCH  12  13
ENDBRANCH   5   7
ENDBRANCH   2   3
ENDBRANCH   1   2
BRANCH   1  57
ATOM     57  C   UNL     1       4.269  -1.916  -3.183  1.00  0.00     0.118 C 
BRANCH  57  58
ATOM     58  N   UNL     1       4.768  -1.002  -4.201  1.00  0.00    -0.352 N 
ATOM     59  C   UNL     1       5.684  -1.207  -5.200  1.00  0.00     0.251 C 
ATOM     60  H   UNL     1       4.387  -0.095  -4.167  1.00  0.00     0.163 HD
ATOM     61  O   UNL     1       6.154  -0.246  -5.802  1.00  0.00    -0.269 OA
BRANCH  59  62
ATOM     62  C   UNL     1       6.109  -2.575  -5.556  1.00  0.00     0.041 A 
ATOM     63  C   UNL     1       7.459  -2.822  -5.806  1.00  0.00     0.014 A 
ATOM     64  C   UNL     1       5.167  -3.600  -5.701  1.00  0.00     0.039 A 
ATOM     65  C   UNL     1       7.867  -4.110  -6.140  1.00  0.00     0.003 A 
ATOM     66  C   UNL     1       5.563  -4.904  -6.009  1.00  0.00     0.039 A 
ATOM     67  C   UNL     1       6.926  -5.143  -6.222  1.00  0.00     0.026 A 
BRANCH  66  68
ATOM     68  N   UNL     1       4.579  -5.907  -6.062  1.00  0.00    -0.356 N 
ATOM     69  H   UNL     1       3.654  -5.583  -5.971  1.00  0.00     0.167 HD
BRANCH  68  70
ATOM     70  C   UNL     1       4.705  -7.295  -6.223  1.00  0.00     0.039 A 
ATOM     71  C   UNL     1       3.929  -7.926  -7.204  1.00  0.00     0.033 A 
ATOM     72  C   UNL     1       5.651  -8.050  -5.518  1.00  0.00     0.033 A 
ATOM     73  C   UNL     1       4.121  -9.274  -7.512  1.00  0.00     0.088 A 
ATOM     74  C   UNL     1       5.847  -9.403  -5.806  1.00  0.00     0.088 A 
ATOM     75  C   UNL     1       5.093 -10.005  -6.820  1.00  0.00     0.269 A 
BRANCH  75  76
ATOM     76  N   UNL     1       5.343 -11.404  -7.182  1.00  0.00     0.062 N 
ATOM     77  O   UNL     1       4.672 -11.889  -8.105  1.00  0.00    -0.258 OA
ATOM     78  O   UNL     1       6.216 -12.016  -6.551  1.00  0.00    -0.258 OA
ENDBRANCH  75  76
ENDBRANCH  68  70
ENDBRANCH  66  68
ENDBRANCH  59  62
ENDBRANCH  57  58
ENDBRANCH   1  57
TORSDOF 13
