REMARK SMILES C[C@H](O)[C@@H](NS(=O)(=O)c1ccc(F)cc1)C(=O)NCCCNC(=O)c1ccc(-c2c3nc(c(-c4ccccc4)c4ccc([nH]4)c(-c4ccccc4)c4nc(c(-c5ccccc5)c5ccc2[nH]5)C=C4)C=C3)cc1
REMARK SMILES IDX 19 1 18 2 16 3 17 4 4 6 2 7 1 8 3 9 5 11 6 13 7 14 8 15 9 16
REMARK SMILES IDX 10 17 15 18 11 19 14 20 12 21 13 22 20 23 21 24 22 25 23 26
REMARK SMILES IDX 24 28 25 29 26 30 72 31 27 32 71 33 28 34 29 35 30 36 65 37
REMARK SMILES IDX 31 38 70 39 64 40 66 41 32 42 69 43 63 44 62 45 33 47 55 48
REMARK SMILES IDX 40 49 54 50 41 51 44 52 53 53 67 54 42 55 43 56 52 58 68 59
REMARK SMILES IDX 45 60 34 61 35 62 39 63 36 64 38 65 37 66 56 67 57 68 61 69
REMARK SMILES IDX 58 70 60 71 59 72 46 73 47 74 51 75 48 76 50 77 49 78
REMARK H PARENT 18 5 3 10 5 12 22 27 66 46 44 57
REMARK Flexibility Score: inf
ROOT
ATOM      1  C   UNL     1      -0.451  -3.510   1.855  1.00  0.00     0.117 C 
ENDROOT
BRANCH   1   2
ATOM      2  N   UNL     1      -1.019  -2.576   2.818  1.00  0.00    -0.355 N 
ATOM      3  C   UNL     1      -1.274  -1.239   2.709  1.00  0.00     0.240 C 
ATOM      4  O   UNL     1      -1.709  -0.653   3.703  1.00  0.00    -0.273 OA
ATOM      5  H   UNL     1      -1.256  -2.973   3.687  1.00  0.00     0.163 HD
BRANCH   3   6
ATOM      6  C   UNL     1      -1.005  -0.491   1.408  1.00  0.00     0.187 C 
BRANCH   6   7
ATOM      7  C   UNL     1       0.524  -0.365   1.200  1.00  0.00     0.139 C 
ATOM      8  C   UNL     1       1.205   0.480   2.275  1.00  0.00     0.040 C 
BRANCH   7   9
ATOM      9  O   UNL     1       0.783   0.209  -0.090  1.00  0.00    -0.391 OA
ATOM     10  H   UNL     1       0.403   1.101  -0.128  1.00  0.00     0.211 HD
ENDBRANCH   7   9
ENDBRANCH   6   7
BRANCH   6  11
ATOM     11  N   UNL     1      -1.625  -1.194   0.240  1.00  0.00    -0.196 NA
ATOM     12  H   UNL     1      -1.366  -2.178   0.310  1.00  0.00     0.142 HD
BRANCH  11  13
ATOM     13  S   UNL     1      -3.303  -1.134   0.054  1.00  0.00     0.241 S 
ATOM     14  O   UNL     1      -3.709   0.241   0.224  1.00  0.00    -0.207 OA
ATOM     15  O   UNL     1      -3.595  -1.861  -1.162  1.00  0.00    -0.207 OA
BRANCH  13  16
ATOM     16  C   UNL     1      -3.948  -2.094   1.405  1.00  0.00     0.082 A 
ATOM     17  C   UNL     1      -3.849  -3.490   1.383  1.00  0.00     0.025 A 
ATOM     18  C   UNL     1      -4.516  -1.437   2.505  1.00  0.00     0.025 A 
ATOM     19  C   UNL     1      -4.231  -4.222   2.512  1.00  0.00     0.040 A 
ATOM     20  C   UNL     1      -4.897  -2.175   3.626  1.00  0.00     0.040 A 
ATOM     21  C   UNL     1      -4.734  -3.556   3.627  1.00  0.00     0.123 A 
ATOM     22  F   UNL     1      -5.049  -4.256   4.725  1.00  0.00    -0.207 F 
ENDBRANCH  13  16
ENDBRANCH  11  13
ENDBRANCH   6  11
ENDBRANCH   3   6
ENDBRANCH   1   2
BRANCH   1  23
ATOM     23  C   UNL     1       0.882  -4.056   2.341  1.00  0.00     0.042 C 
BRANCH  23  24
ATOM     24  C   UNL     1       0.743  -4.937   3.572  1.00  0.00     0.118 C 
BRANCH  24  25
ATOM     25  N   UNL     1       0.002  -6.161   3.299  1.00  0.00    -0.352 N 
ATOM     26  C   UNL     1       0.375  -7.466   3.500  1.00  0.00     0.251 C 
ATOM     27  H   UNL     1      -0.895  -6.033   2.915  1.00  0.00     0.163 HD
ATOM     28  O   UNL     1      -0.300  -8.377   3.032  1.00  0.00    -0.269 OA
BRANCH  26  29
ATOM     29  C   UNL     1       1.604  -7.766   4.261  1.00  0.00     0.039 A 
ATOM     30  C   UNL     1       2.471  -8.751   3.785  1.00  0.00     0.014 A 
ATOM     31  C   UNL     1       1.904  -7.068   5.434  1.00  0.00     0.014 A 
ATOM     32  C   UNL     1       3.671  -8.992   4.454  1.00  0.00     0.010 A 
ATOM     33  C   UNL     1       3.140  -7.243   6.045  1.00  0.00     0.010 A 
ATOM     34  C   UNL     1       4.031  -8.214   5.567  1.00  0.00    -0.014 A 
BRANCH  34  35
ATOM     35  C   UNL     1       5.334  -8.405   6.249  1.00  0.00     0.031 A 
ATOM     36  C   UNL     1       5.377  -8.847   7.685  1.00  0.00     0.074 A 
ATOM     37  C   UNL     1       6.475  -8.114   5.596  1.00  0.00     0.049 A 
ATOM     38  N   UNL     1       6.414  -9.021   8.464  1.00  0.00    -0.248 NA
ATOM     39  C   UNL     1       4.084  -9.100   8.341  1.00  0.00     0.031 C 
ATOM     40  C   UNL     1       6.565  -7.632   4.216  1.00  0.00     0.029 A 
ATOM     41  N   UNL     1       7.781  -8.178   6.011  1.00  0.00    -0.354 N 
ATOM     42  C   UNL     1       5.898  -9.382   9.702  1.00  0.00     0.074 A 
ATOM     43  C   UNL     1       4.457  -9.349   9.587  1.00  0.00     0.031 C 
ATOM     44  C   UNL     1       7.857  -7.475   3.889  1.00  0.00     0.029 A 
ATOM     45  C   UNL     1       8.684  -7.801   5.047  1.00  0.00     0.049 A 
ATOM     46  H   UNL     1       8.046  -8.466   6.915  1.00  0.00     0.167 HD
ATOM     47  C   UNL     1       6.563  -9.731  10.829  1.00  0.00     0.031 A 
ATOM     48  C   UNL     1      10.027  -7.722   5.090  1.00  0.00     0.031 A 
ATOM     49  C   UNL     1       7.997  -9.770  10.940  1.00  0.00     0.049 A 
ATOM     50  C   UNL     1      10.743  -8.103   6.355  1.00  0.00     0.074 A 
ATOM     51  C   UNL     1       8.768 -10.171  12.017  1.00  0.00     0.029 A 
ATOM     52  N   UNL     1       8.876  -9.386   9.939  1.00  0.00    -0.354 N 
ATOM     53  N   UNL     1      10.244  -8.518   7.494  1.00  0.00    -0.248 NA
ATOM     54  C   UNL     1      12.209  -8.015   6.335  1.00  0.00     0.031 C 
ATOM     55  C   UNL     1      10.113  -9.972  11.688  1.00  0.00     0.029 A 
ATOM     56  C   UNL     1      10.181  -9.510  10.383  1.00  0.00     0.049 A 
ATOM     57  H   UNL     1       8.611  -9.072   9.044  1.00  0.00     0.167 HD
ATOM     58  C   UNL     1      11.334  -8.766   8.318  1.00  0.00     0.074 A 
ATOM     59  C   UNL     1      12.521  -8.471   7.540  1.00  0.00     0.031 C 
ATOM     60  C   UNL     1      11.351  -9.203   9.601  1.00  0.00     0.031 A 
BRANCH  47  61
ATOM     61  C   UNL     1       5.737 -10.082  12.037  1.00  0.00    -0.014 A 
ATOM     62  C   UNL     1       4.949 -11.245  12.072  1.00  0.00     0.009 A 
ATOM     63  C   UNL     1       5.760  -9.246  13.164  1.00  0.00     0.009 A 
ATOM     64  C   UNL     1       4.166 -11.537  13.191  1.00  0.00     0.001 A 
ATOM     65  C   UNL     1       5.002  -9.558  14.294  1.00  0.00     0.001 A 
ATOM     66  C   UNL     1       4.196 -10.695  14.302  1.00  0.00     0.000 A 
ENDBRANCH  47  61
BRANCH  48  67
ATOM     67  C   UNL     1      10.780  -7.280   3.889  1.00  0.00    -0.014 A 
ATOM     68  C   UNL     1      11.556  -8.193   3.158  1.00  0.00     0.009 A 
ATOM     69  C   UNL     1      10.718  -5.945   3.458  1.00  0.00     0.009 A 
ATOM     70  C   UNL     1      12.271  -7.773   2.034  1.00  0.00     0.001 A 
ATOM     71  C   UNL     1      11.411  -5.535   2.317  1.00  0.00     0.001 A 
ATOM     72  C   UNL     1      12.194  -6.447   1.611  1.00  0.00     0.000 A 
ENDBRANCH  48  67
BRANCH  60  73
ATOM     73  C   UNL     1      12.697  -9.415  10.236  1.00  0.00    -0.014 A 
ATOM     74  C   UNL     1      13.518  -8.333  10.590  1.00  0.00     0.009 A 
ATOM     75  C   UNL     1      13.131 -10.720  10.521  1.00  0.00     0.009 A 
ATOM     76  C   UNL     1      14.762  -8.557  11.184  1.00  0.00     0.001 A 
ATOM     77  C   UNL     1      14.361 -10.938  11.143  1.00  0.00     0.001 A 
ATOM     78  C   UNL     1      15.179  -9.857  11.465  1.00  0.00     0.000 A 
ENDBRANCH  60  73
ENDBRANCH  34  35
ENDBRANCH  26  29
ENDBRANCH  24  25
ENDBRANCH  23  24
ENDBRANCH   1  23
TORSDOF 15
