REMARK SMILES C[C@](C(=O)NCCCNC(=O)c1ccc(-c2c3nc(c(-c4ccccc4)c4ccc([nH]4)c(-c4ccccc4)c4nc(c(-c5ccccc5)c5ccc2[nH]5)C=C4)C=C3)cc1)(c1cc(F)cc(F)c1)[NH+]1CCCC1
REMARK SMILES IDX 7 1 6 2 5 3 3 4 4 5 2 7 1 8 60 9 61 10 67 11 62 12 65 13
REMARK SMILES IDX 63 14 64 15 66 16 68 17 69 18 72 19 70 21 71 22 8 23 9 24
REMARK SMILES IDX 10 25 11 27 12 28 13 29 59 30 14 31 58 32 15 33 16 34 17 35
REMARK SMILES IDX 52 36 18 37 57 38 51 39 53 40 19 41 56 42 50 43 49 44 20 46
REMARK SMILES IDX 42 47 27 48 41 49 28 50 31 51 40 52 54 53 29 54 30 55 39 57
REMARK SMILES IDX 55 58 32 59 21 60 22 61 26 62 23 63 25 64 24 65 43 66 44 67
REMARK SMILES IDX 48 68 45 69 47 70 46 71 33 72 34 73 38 74 35 75 37 76 36 77
REMARK H PARENT 5 6 68 20 9 26 53 45 31 56
REMARK Flexibility Score: inf
ROOT
ATOM      1  C   UNL     1      -1.730   2.031  -0.032  1.00  0.00     0.042 C 
ENDROOT
BRANCH   1   2
ATOM      2  C   UNL     1      -0.325   1.849  -0.578  1.00  0.00     0.118 C 
BRANCH   2   3
ATOM      3  N   UNL     1       0.494   1.040   0.302  1.00  0.00    -0.350 N 
ATOM      4  C   UNL     1       0.951  -0.240   0.250  1.00  0.00     0.286 C 
ATOM      5  O   UNL     1       1.769  -0.486   1.153  1.00  0.00    -0.267 OA
ATOM      6  H   UNL     1       0.780   1.520   1.113  1.00  0.00     0.163 HD
BRANCH   4   7
ATOM      7  C   UNL     1       0.569  -1.352  -0.833  1.00  0.00     0.200 C 
ATOM      8  C   UNL     1       1.206  -2.653  -0.222  1.00  0.00     0.096 C 
BRANCH   7   9
ATOM      9  C   UNL     1      -0.983  -1.585  -0.916  1.00  0.00     0.028 A 
ATOM     10  C   UNL     1      -1.805  -0.799  -1.746  1.00  0.00     0.050 A 
ATOM     11  C   UNL     1      -1.649  -2.601  -0.193  1.00  0.00     0.050 A 
ATOM     12  C   UNL     1      -3.198  -0.930  -1.744  1.00  0.00     0.126 A 
ATOM     13  C   UNL     1      -3.037  -2.765  -0.259  1.00  0.00     0.126 A 
ATOM     14  F   UNL     1      -3.937  -0.077  -2.466  1.00  0.00    -0.207 F 
ATOM     15  C   UNL     1      -3.828  -1.911  -1.002  1.00  0.00     0.078 A 
ATOM     16  F   UNL     1      -3.609  -3.770   0.417  1.00  0.00    -0.207 F 
ENDBRANCH   7   9
BRANCH   7  17
ATOM     17  N   UNL     1       1.101  -1.054  -2.215  1.00  0.00    -0.319 N 
ATOM     18  C   UNL     1       1.889  -2.099  -2.887  1.00  0.00     0.263 C 
ATOM     19  C   UNL     1       1.882   0.160  -2.464  1.00  0.00     0.263 C 
ATOM     20  H   UNL     1       0.159  -0.952  -2.594  1.00  0.00     0.349 HD
ATOM     21  C   UNL     1       3.345  -1.747  -2.609  1.00  0.00     0.067 C 
ATOM     22  C   UNL     1       3.349  -0.234  -2.516  1.00  0.00     0.067 C 
ENDBRANCH   7  17
ENDBRANCH   4   7
ENDBRANCH   2   3
ENDBRANCH   1   2
BRANCH   1  23
ATOM     23  C   UNL     1      -1.808   3.142   1.004  1.00  0.00     0.118 C 
BRANCH  23  24
ATOM     24  N   UNL     1      -1.760   4.463   0.388  1.00  0.00    -0.352 N 
ATOM     25  C   UNL     1      -2.697   5.463   0.386  1.00  0.00     0.251 C 
ATOM     26  H   UNL     1      -0.930   4.666  -0.101  1.00  0.00     0.163 HD
ATOM     27  O   UNL     1      -2.569   6.412  -0.390  1.00  0.00    -0.269 OA
BRANCH  25  28
ATOM     28  C   UNL     1      -3.858   5.418   1.301  1.00  0.00     0.039 A 
ATOM     29  C   UNL     1      -5.092   5.904   0.857  1.00  0.00     0.014 A 
ATOM     30  C   UNL     1      -3.727   4.953   2.612  1.00  0.00     0.014 A 
ATOM     31  C   UNL     1      -6.194   5.896   1.715  1.00  0.00     0.010 A 
ATOM     32  C   UNL     1      -4.845   4.855   3.434  1.00  0.00     0.010 A 
ATOM     33  C   UNL     1      -6.082   5.357   3.006  1.00  0.00    -0.014 A 
BRANCH  33  34
ATOM     34  C   UNL     1      -7.226   5.369   3.951  1.00  0.00     0.031 A 
ATOM     35  C   UNL     1      -7.134   6.166   5.226  1.00  0.00     0.074 A 
ATOM     36  C   UNL     1      -8.320   4.628   3.695  1.00  0.00     0.049 A 
ATOM     37  N   UNL     1      -7.995   6.260   6.207  1.00  0.00    -0.248 NA
ATOM     38  C   UNL     1      -5.896   6.934   5.441  1.00  0.00     0.031 C 
ATOM     39  C   UNL     1      -8.517   3.780   2.517  1.00  0.00     0.029 A 
ATOM     40  N   UNL     1      -9.476   4.469   4.416  1.00  0.00    -0.354 N 
ATOM     41  C   UNL     1      -7.389   7.064   7.165  1.00  0.00     0.074 A 
ATOM     42  C   UNL     1      -6.071   7.394   6.670  1.00  0.00     0.031 C 
ATOM     43  C   UNL     1      -9.736   3.219   2.579  1.00  0.00     0.029 A 
ATOM     44  C   UNL     1     -10.389   3.637   3.815  1.00  0.00     0.049 A 
ATOM     45  H   UNL     1      -9.636   4.909   5.282  1.00  0.00     0.167 HD
ATOM     46  C   UNL     1      -7.890   7.510   8.341  1.00  0.00     0.031 A 
ATOM     47  C   UNL     1     -11.617   3.258   4.215  1.00  0.00     0.031 A 
ATOM     48  C   UNL     1      -9.214   7.215   8.815  1.00  0.00     0.049 A 
ATOM     49  C   UNL     1     -12.162   3.786   5.513  1.00  0.00     0.074 A 
ATOM     50  C   UNL     1      -9.845   7.676   9.958  1.00  0.00     0.029 A 
ATOM     51  N   UNL     1     -10.115   6.387   8.164  1.00  0.00    -0.354 N 
ATOM     52  N   UNL     1     -11.601   4.597   6.376  1.00  0.00    -0.248 NA
ATOM     53  C   UNL     1     -13.518   3.354   5.882  1.00  0.00     0.031 C 
ATOM     54  C   UNL     1     -11.116   7.095  10.018  1.00  0.00     0.029 A 
ATOM     55  C   UNL     1     -11.292   6.310   8.889  1.00  0.00     0.049 A 
ATOM     56  H   UNL     1      -9.944   5.923   7.313  1.00  0.00     0.167 HD
ATOM     57  C   UNL     1     -12.543   4.796   7.376  1.00  0.00     0.074 A 
ATOM     58  C   UNL     1     -13.716   4.031   7.005  1.00  0.00     0.031 C 
ATOM     59  C   UNL     1     -12.448   5.546   8.501  1.00  0.00     0.031 A 
BRANCH  46  60
ATOM     60  C   UNL     1      -6.994   8.362   9.196  1.00  0.00    -0.014 A 
ATOM     61  C   UNL     1      -6.658   9.673   8.820  1.00  0.00     0.009 A 
ATOM     62  C   UNL     1      -6.493   7.854  10.404  1.00  0.00     0.009 A 
ATOM     63  C   UNL     1      -5.806  10.441   9.616  1.00  0.00     0.001 A 
ATOM     64  C   UNL     1      -5.665   8.635  11.213  1.00  0.00     0.001 A 
ATOM     65  C   UNL     1      -5.314   9.923  10.813  1.00  0.00     0.000 A 
ENDBRANCH  46  60
BRANCH  47  66
ATOM     66  C   UNL     1     -12.432   2.358   3.361  1.00  0.00    -0.014 A 
ATOM     67  C   UNL     1     -13.544   2.858   2.665  1.00  0.00     0.009 A 
ATOM     68  C   UNL     1     -12.107   0.999   3.234  1.00  0.00     0.009 A 
ATOM     69  C   UNL     1     -14.328   2.010   1.879  1.00  0.00     0.001 A 
ATOM     70  C   UNL     1     -12.878   0.159   2.427  1.00  0.00     0.001 A 
ATOM     71  C   UNL     1     -13.992   0.663   1.758  1.00  0.00     0.000 A 
ENDBRANCH  47  66
BRANCH  59  72
ATOM     72  C   UNL     1     -13.656   5.602   9.389  1.00  0.00    -0.014 A 
ATOM     73  C   UNL     1     -14.021   4.511  10.191  1.00  0.00     0.009 A 
ATOM     74  C   UNL     1     -14.419   6.779   9.448  1.00  0.00     0.009 A 
ATOM     75  C   UNL     1     -15.148   4.586  11.011  1.00  0.00     0.001 A 
ATOM     76  C   UNL     1     -15.529   6.861  10.289  1.00  0.00     0.001 A 
ATOM     77  C   UNL     1     -15.898   5.761  11.062  1.00  0.00     0.000 A 
ENDBRANCH  59  72
ENDBRANCH  33  34
ENDBRANCH  25  28
ENDBRANCH  23  24
ENDBRANCH   1  23
TORSDOF 12
