REMARK SMILES COc1ccc([C@@H]2C3=C(C[C@@H](c4ccccc4)CC3=O)Nc3ccccc3N2C(=O)CCC(=O)NCCCNC(=O)c2ccc(-c3c4nc(c(-c5ccccc5)c5ccc([nH]5)c(-c5ccccc5)c5nc(c(-c6ccccc6)c6ccc3[nH]6)C=C5)C=C4)cc2)cc1
REMARK SMILES IDX 33 1 34 2 35 3 32 5 31 6 29 7 30 8 28 9 7 10 6 12 3 13 4 14
REMARK SMILES IDX 91 15 5 16 90 17 2 18 1 19 27 20 22 21 26 22 23 23 25 24
REMARK SMILES IDX 24 25 21 26 9 28 8 29 10 30 19 31 11 33 18 34 20 35 12 36
REMARK SMILES IDX 13 37 17 38 14 39 16 40 15 41 36 42 37 43 38 44 39 45 40 46
REMARK SMILES IDX 41 48 42 49 43 50 89 51 44 52 88 53 45 54 46 55 47 56 82 57
REMARK SMILES IDX 48 58 87 59 81 60 83 61 49 62 86 63 80 64 79 65 50 67 72 68
REMARK SMILES IDX 57 69 71 70 58 71 61 72 70 73 84 74 59 75 60 76 69 78 85 79
REMARK SMILES IDX 62 80 51 81 52 82 56 83 53 84 55 85 54 86 73 87 74 88 78 89
REMARK SMILES IDX 75 90 77 91 76 92 63 93 64 94 68 95 65 96 67 97 66 98
REMARK H PARENT 35 4 21 27 39 47 83 66 61 77
REMARK Flexibility Score: 90.00
ROOT
ATOM      1  C   UNL     1      -0.355  -3.567  -4.919  1.00  0.00     0.220 C 
ATOM      2  O   UNL     1      -0.119  -3.099  -6.030  1.00  0.00    -0.275 OA
ATOM      3  N   UNL     1       0.355  -3.114  -3.848  1.00  0.00    -0.356 N 
ATOM      4  H   UNL     1       1.227  -2.711  -4.063  1.00  0.00     0.163 HD
ENDROOT
BRANCH   1   5
ATOM      5  C   UNL     1      -1.338  -4.698  -4.747  1.00  0.00     0.110 C 
BRANCH   5   6
ATOM      6  C   UNL     1      -0.750  -5.985  -5.317  1.00  0.00     0.110 C 
BRANCH   6   7
ATOM      7  C   UNL     1       0.635  -6.279  -4.739  1.00  0.00     0.228 C 
ATOM      8  O   UNL     1       0.705  -6.695  -3.578  1.00  0.00    -0.274 OA
BRANCH   7   9
ATOM      9  N   UNL     1       1.769  -6.040  -5.533  1.00  0.00    -0.298 N 
BRANCH   9  10
ATOM     10  C   UNL     1       3.092  -6.513  -5.021  1.00  0.00     0.156 CG0
ATOM     11  G   UNL     1       3.375  -8.008  -5.315  1.00  0.00     0.000 G0
BRANCH  10  12
ATOM     12  C   UNL     1       4.272  -5.547  -5.172  1.00  0.00    -0.020 A 
ATOM     13  C   UNL     1       6.948  -4.792  -5.231  1.00  0.00     0.118 A 
ATOM     14  C   UNL     1       6.246  -4.920  -6.427  1.00  0.00     0.047 A 
ATOM     15  C   UNL     1       6.284  -4.788  -4.015  1.00  0.00     0.047 A 
ATOM     16  C   UNL     1       4.904  -5.312  -6.399  1.00  0.00     0.010 A 
ATOM     17  C   UNL     1       4.942  -5.143  -3.995  1.00  0.00     0.010 A 
BRANCH  13  18
ATOM     18  O   UNL     1       8.318  -4.825  -5.269  1.00  0.00    -0.497 OA
ATOM     19  C   UNL     1       8.753  -6.113  -4.795  1.00  0.00     0.278 C 
ENDBRANCH  13  18
ENDBRANCH  10  12
ENDBRANCH   9  10
BRANCH   9  20
ATOM     20  C   UNL     1       1.646  -6.145  -6.939  1.00  0.00     0.068 A 
ATOM     21  C   UNL     1       1.504  -7.443  -7.466  1.00  0.00     0.062 A 
ATOM     22  C   UNL     1       1.818  -5.032  -7.757  1.00  0.00     0.028 A 
ATOM     23  C   UNL     1       1.713  -7.625  -8.831  1.00  0.00     0.028 A 
ATOM     24  C   UNL     1       1.980  -5.226  -9.125  1.00  0.00     0.002 A 
ATOM     25  C   UNL     1       1.971  -6.521  -9.653  1.00  0.00     0.002 A 
BRANCH  21  26
ATOM     26  N   UNL     1       1.385  -8.542  -6.580  1.00  0.00    -0.357 N 
ATOM     27  H   UNL     1       0.553  -9.068  -6.560  1.00  0.00     0.166 HD
BRANCH  26  28
ATOM     28  C   UNL     1       2.437  -8.879  -5.742  1.00  0.00     0.025 C 
ATOM     29  C   UNL     1       3.375  -8.008  -5.315  1.00  0.00     0.042 CG0
ATOM     30  C   UNL     1       2.498 -10.300  -5.229  1.00  0.00     0.063 C 
ATOM     31  C   UNL     1       4.745  -8.604  -5.160  1.00  0.00     0.163 C 
ATOM     32  G   UNL     1       3.092  -6.513  -5.021  1.00  0.00     0.000 G0
ATOM     33  C   UNL     1       3.799 -11.002  -5.593  1.00  0.00     0.033 C 
ATOM     34  C   UNL     1       4.993 -10.100  -5.288  1.00  0.00     0.089 C 
ATOM     35  O   UNL     1       5.734  -7.903  -4.960  1.00  0.00    -0.294 OA
BRANCH  33  36
ATOM     36  C   UNL     1       3.825 -11.661  -6.969  1.00  0.00    -0.044 A 
ATOM     37  C   UNL     1       2.820 -11.473  -7.929  1.00  0.00     0.004 A 
ATOM     38  C   UNL     1       4.833 -12.595  -7.260  1.00  0.00     0.004 A 
ATOM     39  C   UNL     1       2.799 -12.201  -9.119  1.00  0.00     0.000 A 
ATOM     40  C   UNL     1       4.816 -13.325  -8.452  1.00  0.00     0.000 A 
ATOM     41  C   UNL     1       3.793 -13.134  -9.377  1.00  0.00     0.000 A 
ENDBRANCH  33  36
ENDBRANCH  26  28
ENDBRANCH  21  26
ENDBRANCH   9  20
ENDBRANCH   7   9
ENDBRANCH   6   7
ENDBRANCH   5   6
ENDBRANCH   1   5
BRANCH   3  42
ATOM     42  C   UNL     1       0.015  -3.136  -2.435  1.00  0.00     0.117 C 
BRANCH  42  43
ATOM     43  C   UNL     1       0.610  -4.260  -1.577  1.00  0.00     0.042 C 
BRANCH  43  44
ATOM     44  C   UNL     1       2.083  -4.607  -1.817  1.00  0.00     0.118 C 
BRANCH  44  45
ATOM     45  N   UNL     1       2.964  -4.230  -0.722  1.00  0.00    -0.352 N 
ATOM     46  C   UNL     1       3.981  -4.825  -0.014  1.00  0.00     0.251 C 
ATOM     47  H   UNL     1       2.786  -3.314  -0.407  1.00  0.00     0.163 HD
ATOM     48  O   UNL     1       4.501  -4.098   0.841  1.00  0.00    -0.269 OA
BRANCH  46  49
ATOM     49  C   UNL     1       4.526  -6.225  -0.157  1.00  0.00     0.039 A 
ATOM     50  C   UNL     1       5.488  -6.615   0.800  1.00  0.00     0.014 A 
ATOM     51  C   UNL     1       4.197  -7.174  -1.127  1.00  0.00     0.014 A 
ATOM     52  C   UNL     1       6.064  -7.897   0.807  1.00  0.00     0.010 A 
ATOM     53  C   UNL     1       4.788  -8.454  -1.145  1.00  0.00     0.010 A 
ATOM     54  C   UNL     1       5.704  -8.839  -0.160  1.00  0.00    -0.014 A 
BRANCH  54  55
ATOM     55  C   UNL     1       6.065 -10.269   0.021  1.00  0.00     0.031 A 
ATOM     56  C   UNL     1       7.310 -10.886  -0.542  1.00  0.00     0.074 A 
ATOM     57  C   UNL     1       5.210 -11.033   0.728  1.00  0.00     0.049 A 
ATOM     58  N   UNL     1       7.803 -12.081  -0.315  1.00  0.00    -0.248 NA
ATOM     59  C   UNL     1       8.091 -10.081  -1.489  1.00  0.00     0.031 C 
ATOM     60  C   UNL     1       3.941 -10.566   1.292  1.00  0.00     0.029 A 
ATOM     61  N   UNL     1       5.275 -12.353   1.094  1.00  0.00    -0.354 N 
ATOM     62  C   UNL     1       8.966 -12.167  -1.071  1.00  0.00     0.074 A 
ATOM     63  C   UNL     1       9.079 -10.916  -1.796  1.00  0.00     0.031 C 
ATOM     64  C   UNL     1       3.347 -11.583   1.932  1.00  0.00     0.029 A 
ATOM     65  C   UNL     1       4.198 -12.764   1.838  1.00  0.00     0.049 A 
ATOM     66  H   UNL     1       6.020 -12.947   0.847  1.00  0.00     0.167 HD
ATOM     67  C   UNL     1       9.854 -13.191  -1.142  1.00  0.00     0.031 A 
ATOM     68  C   UNL     1       3.927 -13.949   2.413  1.00  0.00     0.031 A 
ATOM     69  C   UNL     1       9.723 -14.446  -0.437  1.00  0.00     0.049 A 
ATOM     70  C   UNL     1       4.936 -15.054   2.342  1.00  0.00     0.074 A 
ATOM     71  C   UNL     1      10.618 -15.504  -0.381  1.00  0.00     0.029 A 
ATOM     72  N   UNL     1       8.622 -14.824   0.316  1.00  0.00    -0.354 N 
ATOM     73  N   UNL     1       6.096 -15.071   1.735  1.00  0.00    -0.248 NA
ATOM     74  C   UNL     1       4.613 -16.288   3.071  1.00  0.00     0.031 C 
ATOM     75  C   UNL     1      10.035 -16.541   0.359  1.00  0.00     0.029 A 
ATOM     76  C   UNL     1       8.799 -16.109   0.809  1.00  0.00     0.049 A 
ATOM     77  H   UNL     1       7.830 -14.263   0.478  1.00  0.00     0.167 HD
ATOM     78  C   UNL     1       6.656 -16.306   2.029  1.00  0.00     0.074 A 
ATOM     79  C   UNL     1       5.713 -17.003   2.880  1.00  0.00     0.031 C 
ATOM     80  C   UNL     1       7.849 -16.811   1.632  1.00  0.00     0.031 A 
BRANCH  67  81
ATOM     81  C   UNL     1      11.069 -13.012  -2.014  1.00  0.00    -0.014 A 
ATOM     82  C   UNL     1      12.111 -12.150  -1.636  1.00  0.00     0.009 A 
ATOM     83  C   UNL     1      11.223 -13.789  -3.174  1.00  0.00     0.009 A 
ATOM     84  C   UNL     1      13.268 -12.051  -2.414  1.00  0.00     0.001 A 
ATOM     85  C   UNL     1      12.390 -13.705  -3.938  1.00  0.00     0.001 A 
ATOM     86  C   UNL     1      13.408 -12.832  -3.561  1.00  0.00     0.000 A 
ENDBRANCH  67  81
BRANCH  68  87
ATOM     87  C   UNL     1       2.662 -14.113   3.168  1.00  0.00    -0.014 A 
ATOM     88  C   UNL     1       2.665 -14.100   4.570  1.00  0.00     0.009 A 
ATOM     89  C   UNL     1       1.441 -14.230   2.486  1.00  0.00     0.009 A 
ATOM     90  C   UNL     1       1.468 -14.217   5.277  1.00  0.00     0.001 A 
ATOM     91  C   UNL     1       0.244 -14.324   3.197  1.00  0.00     0.001 A 
ATOM     92  C   UNL     1       0.259 -14.323   4.591  1.00  0.00     0.000 A 
ENDBRANCH  68  87
BRANCH  80  93
ATOM     93  C   UNL     1       8.196 -18.188   2.126  1.00  0.00    -0.014 A 
ATOM     94  C   UNL     1       7.543 -19.325   1.624  1.00  0.00     0.009 A 
ATOM     95  C   UNL     1       9.181 -18.349   3.113  1.00  0.00     0.009 A 
ATOM     96  C   UNL     1       7.838 -20.592   2.133  1.00  0.00     0.001 A 
ATOM     97  C   UNL     1       9.492 -19.620   3.601  1.00  0.00     0.001 A 
ATOM     98  C   UNL     1       8.812 -20.738   3.120  1.00  0.00     0.000 A 
ENDBRANCH  80  93
ENDBRANCH  54  55
ENDBRANCH  46  49
ENDBRANCH  44  45
ENDBRANCH  43  44
ENDBRANCH  42  43
ENDBRANCH   3  42
TORSDOF 16
