REMARK SMILES Cc1oc2c(C)c3oc(=O)c(CC(=O)N[C@@H](CC(C)C)C(=O)NCCCNC(=O)c4ccc(-c5c6nc(c(-c7ccccc7)c7ccc([nH]7)c(-c7ccccc7)c7nc(c(-c8ccccc8)c8ccc5[nH]8)C=C7)C=C6)cc4)c(C)c3cc2c1C
REMARK SMILES IDX 24 1 23 2 21 3 22 4 16 6 15 7 13 8 14 9 12 11 11 12 1 13
REMARK SMILES IDX 2 14 3 15 83 16 4 17 82 18 84 19 5 20 81 21 6 22 7 23 80 24
REMARK SMILES IDX 8 25 78 26 9 27 79 28 10 29 17 30 18 31 19 32 20 33 25 34
REMARK SMILES IDX 26 35 27 36 28 37 29 39 30 40 31 41 77 42 32 43 76 44 33 45
REMARK SMILES IDX 34 46 35 47 70 48 36 49 75 50 69 51 71 52 37 53 74 54 68 55
REMARK SMILES IDX 67 56 38 58 60 59 45 60 59 61 46 62 49 63 58 64 72 65 47 66
REMARK SMILES IDX 48 67 57 69 73 70 50 71 39 72 40 73 44 74 41 75 43 76 42 77
REMARK SMILES IDX 61 78 62 79 66 80 63 81 65 82 64 83 51 84 52 85 56 86 53 87
REMARK SMILES IDX 55 88 54 89
REMARK H PARENT 23 5 15 10 27 38 71 57 49 68
REMARK Flexibility Score: inf
ROOT
ATOM      1  C   UNL     1      -7.349  -9.166  -3.210  1.00  0.00     0.117 C 
ENDROOT
BRANCH   1   2
ATOM      2  N   UNL     1      -6.323 -10.191  -3.207  1.00  0.00    -0.354 N 
ATOM      3  C   UNL     1      -5.009 -10.152  -2.841  1.00  0.00     0.242 C 
ATOM      4  O   UNL     1      -4.497 -11.237  -2.541  1.00  0.00    -0.273 OA
ATOM      5  H   UNL     1      -6.629 -11.071  -3.524  1.00  0.00     0.163 HD
BRANCH   3   6
ATOM      6  C   UNL     1      -4.199  -8.847  -2.696  1.00  0.00     0.171 C 
BRANCH   6   7
ATOM      7  N   UNL     1      -4.438  -7.931  -3.813  1.00  0.00    -0.344 N 
ATOM      8  C   UNL     1      -3.657  -7.720  -4.908  1.00  0.00     0.225 C 
ATOM      9  O   UNL     1      -4.199  -7.272  -5.920  1.00  0.00    -0.275 OA
ATOM     10  H   UNL     1      -5.267  -7.403  -3.767  1.00  0.00     0.164 HD
BRANCH   8  11
ATOM     11  C   UNL     1      -2.153  -7.947  -4.837  1.00  0.00     0.143 C 
BRANCH  11  12
ATOM     12  C   UNL     1      -1.534  -7.021  -3.807  1.00  0.00     0.051 A 
ATOM     13  C   UNL     1       1.076  -0.299   0.600  1.00  0.00     0.088 C 
ATOM     14  C   UNL     1       0.422  -1.379  -0.167  1.00  0.00     0.105 A 
ATOM     15  O   UNL     1       0.667  -2.645   0.276  1.00  0.00    -0.461 OA
ATOM     16  C   UNL     1      -0.386  -1.406  -1.290  1.00  0.00    -0.002 A 
ATOM     17  C   UNL     1       0.078  -3.506  -0.601  1.00  0.00     0.141 A 
ATOM     18  C   UNL     1      -0.574  -2.788  -1.591  1.00  0.00     0.025 A 
ATOM     19  C   UNL     1      -0.910  -0.263  -2.077  1.00  0.00     0.049 C 
ATOM     20  C   UNL     1       0.138  -4.900  -0.536  1.00  0.00     0.036 A 
ATOM     21  C   UNL     1      -1.214  -3.494  -2.625  1.00  0.00     0.024 A 
ATOM     22  C   UNL     1       0.823  -5.619   0.582  1.00  0.00     0.052 C 
ATOM     23  C   UNL     1      -0.451  -5.553  -1.641  1.00  0.00     0.145 A 
ATOM     24  C   UNL     1      -1.107  -4.893  -2.686  1.00  0.00     0.022 A 
ATOM     25  O   UNL     1      -0.331  -6.958  -1.674  1.00  0.00    -0.422 OA
ATOM     26  C   UNL     1      -1.654  -5.675  -3.813  1.00  0.00    -0.029 A 
ATOM     27  C   UNL     1      -0.787  -7.721  -2.730  1.00  0.00     0.340 A 
ATOM     28  C   UNL     1      -2.323  -4.906  -4.928  1.00  0.00     0.046 C 
ATOM     29  O   UNL     1      -0.598  -8.933  -2.755  1.00  0.00    -0.246 OA
ENDBRANCH  11  12
ENDBRANCH   8  11
ENDBRANCH   6   7
BRANCH   6  30
ATOM     30  C   UNL     1      -4.212  -8.140  -1.324  1.00  0.00     0.038 C 
BRANCH  30  31
ATOM     31  C   UNL     1      -5.561  -7.891  -0.626  1.00  0.00    -0.015 C 
ATOM     32  C   UNL     1      -6.052  -9.126   0.138  1.00  0.00     0.007 C 
ATOM     33  C   UNL     1      -5.444  -6.732   0.373  1.00  0.00     0.007 C 
ENDBRANCH  30  31
ENDBRANCH   6  30
ENDBRANCH   3   6
ENDBRANCH   1   2
BRANCH   1  34
ATOM     34  C   UNL     1      -8.505  -9.462  -4.156  1.00  0.00     0.042 C 
BRANCH  34  35
ATOM     35  C   UNL     1      -9.375 -10.640  -3.724  1.00  0.00     0.118 C 
BRANCH  35  36
ATOM     36  N   UNL     1      -9.893 -10.469  -2.374  1.00  0.00    -0.352 N 
ATOM     37  C   UNL     1     -11.179 -10.447  -1.917  1.00  0.00     0.251 C 
ATOM     38  H   UNL     1      -9.205 -10.350  -1.680  1.00  0.00     0.163 HD
ATOM     39  O   UNL     1     -11.409 -10.013  -0.787  1.00  0.00    -0.269 OA
BRANCH  37  40
ATOM     40  C   UNL     1     -12.289 -10.946  -2.748  1.00  0.00     0.039 A 
ATOM     41  C   UNL     1     -13.512 -10.274  -2.688  1.00  0.00     0.014 A 
ATOM     42  C   UNL     1     -12.163 -12.121  -3.499  1.00  0.00     0.014 A 
ATOM     43  C   UNL     1     -14.597 -10.755  -3.414  1.00  0.00     0.010 A 
ATOM     44  C   UNL     1     -13.243 -12.591  -4.241  1.00  0.00     0.010 A 
ATOM     45  C   UNL     1     -14.462 -11.908  -4.203  1.00  0.00    -0.014 A 
BRANCH  45  46
ATOM     46  C   UNL     1     -15.634 -12.376  -4.957  1.00  0.00     0.031 A 
ATOM     47  C   UNL     1     -15.434 -12.684  -6.403  1.00  0.00     0.074 A 
ATOM     48  C   UNL     1     -16.651 -12.988  -4.316  1.00  0.00     0.049 A 
ATOM     49  N   UNL     1     -14.942 -13.815  -6.824  1.00  0.00    -0.248 NA
ATOM     50  C   UNL     1     -15.581 -11.676  -7.452  1.00  0.00     0.031 C 
ATOM     51  C   UNL     1     -16.502 -13.714  -3.046  1.00  0.00     0.029 A 
ATOM     52  N   UNL     1     -17.922 -13.290  -4.731  1.00  0.00    -0.354 N 
ATOM     53  C   UNL     1     -14.670 -13.666  -8.172  1.00  0.00     0.074 A 
ATOM     54  C   UNL     1     -15.099 -12.329  -8.521  1.00  0.00     0.031 C 
ATOM     55  C   UNL     1     -17.565 -14.529  -2.889  1.00  0.00     0.029 A 
ATOM     56  C   UNL     1     -18.536 -14.252  -3.939  1.00  0.00     0.049 A 
ATOM     57  H   UNL     1     -18.354 -12.869  -5.509  1.00  0.00     0.167 HD
ATOM     58  C   UNL     1     -14.096 -14.639  -8.928  1.00  0.00     0.031 A 
ATOM     59  C   UNL     1     -19.493 -15.120  -4.358  1.00  0.00     0.031 A 
ATOM     60  C   UNL     1     -13.796 -15.863  -8.249  1.00  0.00     0.049 A 
ATOM     61  C   UNL     1     -18.716 -15.971  -5.332  1.00  0.00     0.074 A 
ATOM     62  C   UNL     1     -12.716 -16.421  -7.599  1.00  0.00     0.029 A 
ATOM     63  N   UNL     1     -14.804 -16.782  -8.095  1.00  0.00    -0.354 N 
ATOM     64  N   UNL     1     -17.912 -16.955  -5.032  1.00  0.00    -0.248 NA
ATOM     65  C   UNL     1     -18.587 -15.476  -6.705  1.00  0.00     0.031 C 
ATOM     66  C   UNL     1     -13.267 -17.402  -6.717  1.00  0.00     0.029 A 
ATOM     67  C   UNL     1     -14.653 -17.331  -6.847  1.00  0.00     0.049 A 
ATOM     68  H   UNL     1     -15.502 -17.005  -8.753  1.00  0.00     0.167 HD
ATOM     69  C   UNL     1     -16.978 -17.003  -6.069  1.00  0.00     0.074 A 
ATOM     70  C   UNL     1     -17.466 -16.080  -7.076  1.00  0.00     0.031 C 
ATOM     71  C   UNL     1     -15.770 -17.634  -5.979  1.00  0.00     0.031 A 
BRANCH  58  72
ATOM     72  C   UNL     1     -13.865 -14.542 -10.383  1.00  0.00    -0.014 A 
ATOM     73  C   UNL     1     -14.751 -15.200 -11.249  1.00  0.00     0.009 A 
ATOM     74  C   UNL     1     -12.686 -13.992 -10.898  1.00  0.00     0.009 A 
ATOM     75  C   UNL     1     -14.446 -15.343 -12.602  1.00  0.00     0.001 A 
ATOM     76  C   UNL     1     -12.387 -14.128 -12.257  1.00  0.00     0.001 A 
ATOM     77  C   UNL     1     -13.260 -14.814 -13.104  1.00  0.00     0.000 A 
ENDBRANCH  58  72
BRANCH  59  78
ATOM     78  C   UNL     1     -20.804 -14.479  -4.705  1.00  0.00    -0.014 A 
ATOM     79  C   UNL     1     -21.354 -13.550  -3.795  1.00  0.00     0.009 A 
ATOM     80  C   UNL     1     -21.540 -14.747  -5.867  1.00  0.00     0.009 A 
ATOM     81  C   UNL     1     -22.526 -12.845  -4.082  1.00  0.00     0.001 A 
ATOM     82  C   UNL     1     -22.701 -14.022  -6.170  1.00  0.00     0.001 A 
ATOM     83  C   UNL     1     -23.185 -13.062  -5.285  1.00  0.00     0.000 A 
ENDBRANCH  59  78
BRANCH  71  84
ATOM     84  C   UNL     1     -15.534 -18.472  -4.765  1.00  0.00    -0.014 A 
ATOM     85  C   UNL     1     -16.174 -19.709  -4.625  1.00  0.00     0.009 A 
ATOM     86  C   UNL     1     -14.602 -18.076  -3.791  1.00  0.00     0.009 A 
ATOM     87  C   UNL     1     -15.860 -20.549  -3.554  1.00  0.00     0.001 A 
ATOM     88  C   UNL     1     -14.276 -18.923  -2.731  1.00  0.00     0.001 A 
ATOM     89  C   UNL     1     -14.901 -20.163  -2.618  1.00  0.00     0.000 A 
ENDBRANCH  71  84
ENDBRANCH  45  46
ENDBRANCH  37  40
ENDBRANCH  35  36
ENDBRANCH  34  35
ENDBRANCH   1  34
TORSDOF 15
