REMARK SMILES Cc1ccc2c(CC(=O)N3CCC(C(=O)NCCCNC(=O)c4ccc(-c5c6nc(c(-c7ccccc7)c7ccc([nH]7)c(-c7ccccc7)c7nc(c(-c8ccccc8)c8ccc5[nH]8)C=C7)C=C6)cc4)CC3)coc2c1
REMARK SMILES IDX 18 1 17 2 16 3 14 4 15 5 13 7 8 8 9 9 10 10 11 11 72 12
REMARK SMILES IDX 12 13 71 14 7 15 6 16 1 17 2 18 3 19 76 20 4 21 75 22 5 23
REMARK SMILES IDX 74 24 73 25 19 26 20 27 21 28 22 30 23 31 24 32 70 33 25 34
REMARK SMILES IDX 69 35 26 36 27 37 28 38 63 39 29 40 68 41 62 42 64 43 30 44
REMARK SMILES IDX 67 45 61 46 60 47 31 49 53 50 38 51 52 52 39 53 42 54 51 55
REMARK SMILES IDX 65 56 40 57 41 58 50 60 66 61 43 62 32 63 33 64 37 65 34 66
REMARK SMILES IDX 36 67 35 68 54 69 55 70 59 71 56 72 58 73 57 74 44 75 45 76
REMARK SMILES IDX 49 77 46 78 48 79 47 80
REMARK H PARENT 16 6 20 29 64 48 42 59
REMARK Flexibility Score: inf
ROOT
ATOM      1  C   UNL     1      -4.772   8.119  -5.495  1.00  0.00     0.042 C 
ENDROOT
BRANCH   1   2
ATOM      2  C   UNL     1      -4.357   7.381  -4.224  1.00  0.00     0.117 C 
BRANCH   2   3
ATOM      3  N   UNL     1      -5.490   6.996  -3.399  1.00  0.00    -0.356 N 
ATOM      4  C   UNL     1      -5.999   5.781  -3.066  1.00  0.00     0.223 C 
ATOM      5  O   UNL     1      -6.968   5.765  -2.302  1.00  0.00    -0.275 OA
ATOM      6  H   UNL     1      -5.978   7.757  -3.008  1.00  0.00     0.163 HD
BRANCH   4   7
ATOM      7  C   UNL     1      -5.419   4.473  -3.588  1.00  0.00     0.082 C 
ATOM      8  C   UNL     1      -2.358   3.543  -5.888  1.00  0.00     0.227 C 
ATOM      9  O   UNL     1      -2.553   4.341  -6.812  1.00  0.00    -0.275 OA
ATOM     10  N   UNL     1      -3.417   3.088  -5.107  1.00  0.00    -0.342 N 
ATOM     11  C   UNL     1      -4.765   3.156  -5.652  1.00  0.00     0.120 C 
ATOM     12  C   UNL     1      -3.381   2.959  -3.655  1.00  0.00     0.120 C 
ATOM     13  C   UNL     1      -5.516   4.366  -5.116  1.00  0.00     0.035 C 
ATOM     14  C   UNL     1      -4.024   4.188  -3.010  1.00  0.00     0.035 C 
BRANCH   8  15
ATOM     15  C   UNL     1      -0.995   2.869  -5.753  1.00  0.00     0.139 C 
BRANCH  15  16
ATOM     16  C   UNL     1      -0.263   3.084  -4.479  1.00  0.00     0.008 A 
ATOM     17  C   UNL     1       1.108   0.079   0.167  1.00  0.00     0.044 C 
ATOM     18  C   UNL     1       0.754   0.782  -1.113  1.00  0.00    -0.047 A 
ATOM     19  C   UNL     1       0.171   0.070  -2.171  1.00  0.00     0.004 A 
ATOM     20  C   UNL     1       1.025   2.155  -1.247  1.00  0.00     0.051 A 
ATOM     21  C   UNL     1      -0.190   0.707  -3.366  1.00  0.00     0.012 A 
ATOM     22  C   UNL     1       0.650   2.759  -2.445  1.00  0.00     0.134 A 
ATOM     23  C   UNL     1       0.042   2.088  -3.497  1.00  0.00     0.024 A 
ATOM     24  O   UNL     1       0.797   4.077  -2.752  1.00  0.00    -0.464 OA
ATOM     25  C   UNL     1       0.257   4.264  -3.985  1.00  0.00     0.200 A 
ENDBRANCH  15  16
ENDBRANCH   8  15
ENDBRANCH   4   7
ENDBRANCH   2   3
ENDBRANCH   1   2
BRANCH   1  26
ATOM     26  C   UNL     1      -5.456   9.467  -5.264  1.00  0.00     0.118 C 
BRANCH  26  27
ATOM     27  N   UNL     1      -4.703  10.396  -4.444  1.00  0.00    -0.352 N 
ATOM     28  C   UNL     1      -3.720  11.323  -4.671  1.00  0.00     0.251 C 
ATOM     29  H   UNL     1      -4.960  10.349  -3.495  1.00  0.00     0.163 HD
ATOM     30  O   UNL     1      -3.425  12.036  -3.717  1.00  0.00    -0.269 OA
BRANCH  28  31
ATOM     31  C   UNL     1      -2.967  11.492  -5.949  1.00  0.00     0.039 A 
ATOM     32  C   UNL     1      -3.157  10.749  -7.110  1.00  0.00     0.014 A 
ATOM     33  C   UNL     1      -1.940  12.458  -5.941  1.00  0.00     0.014 A 
ATOM     34  C   UNL     1      -2.292  10.895  -8.193  1.00  0.00     0.010 A 
ATOM     35  C   UNL     1      -1.090  12.631  -7.035  1.00  0.00     0.010 A 
ATOM     36  C   UNL     1      -1.240  11.817  -8.151  1.00  0.00    -0.014 A 
BRANCH  36  37
ATOM     37  C   UNL     1      -0.385  11.911  -9.336  1.00  0.00     0.031 A 
ATOM     38  C   UNL     1      -1.072  12.224 -10.622  1.00  0.00     0.074 A 
ATOM     39  C   UNL     1       0.958  11.809  -9.346  1.00  0.00     0.049 A 
ATOM     40  N   UNL     1      -1.140  11.495 -11.690  1.00  0.00    -0.248 NA
ATOM     41  C   UNL     1      -1.803  13.495 -10.710  1.00  0.00     0.031 C 
ATOM     42  C   UNL     1       1.885  11.821  -8.214  1.00  0.00     0.029 A 
ATOM     43  N   UNL     1       1.788  11.757 -10.432  1.00  0.00    -0.354 N 
ATOM     44  C   UNL     1      -1.814  12.259 -12.638  1.00  0.00     0.074 A 
ATOM     45  C   UNL     1      -2.265  13.450 -11.960  1.00  0.00     0.031 C 
ATOM     46  C   UNL     1       3.144  11.998  -8.675  1.00  0.00     0.029 A 
ATOM     47  C   UNL     1       3.124  11.949 -10.128  1.00  0.00     0.049 A 
ATOM     48  H   UNL     1       1.464  11.598 -11.347  1.00  0.00     0.167 HD
ATOM     49  C   UNL     1      -1.840  11.940 -13.961  1.00  0.00     0.031 A 
ATOM     50  C   UNL     1       4.138  12.104 -11.009  1.00  0.00     0.031 A 
ATOM     51  C   UNL     1      -1.451  10.581 -14.213  1.00  0.00     0.049 A 
ATOM     52  C   UNL     1       3.726  11.533 -12.308  1.00  0.00     0.074 A 
ATOM     53  C   UNL     1      -1.959   9.342 -13.885  1.00  0.00     0.029 A 
ATOM     54  N   UNL     1      -0.176  10.362 -14.667  1.00  0.00    -0.354 N 
ATOM     55  N   UNL     1       3.553  10.262 -12.524  1.00  0.00    -0.248 NA
ATOM     56  C   UNL     1       3.213  12.415 -13.344  1.00  0.00     0.031 C 
ATOM     57  C   UNL     1      -0.820   8.497 -13.738  1.00  0.00     0.029 A 
ATOM     58  C   UNL     1       0.315   9.267 -14.001  1.00  0.00     0.049 A 
ATOM     59  H   UNL     1       0.300  10.892 -15.347  1.00  0.00     0.167 HD
ATOM     60  C   UNL     1       2.558  10.199 -13.485  1.00  0.00     0.074 A 
ATOM     61  C   UNL     1       2.510  11.536 -14.061  1.00  0.00     0.031 C 
ATOM     62  C   UNL     1       1.679   9.154 -13.522  1.00  0.00     0.031 A 
BRANCH  49  63
ATOM     63  C   UNL     1      -1.948  12.957 -15.065  1.00  0.00    -0.014 A 
ATOM     64  C   UNL     1      -1.584  14.305 -14.888  1.00  0.00     0.009 A 
ATOM     65  C   UNL     1      -2.180  12.530 -16.385  1.00  0.00     0.009 A 
ATOM     66  C   UNL     1      -1.480  15.191 -15.965  1.00  0.00     0.001 A 
ATOM     67  C   UNL     1      -2.037  13.405 -17.470  1.00  0.00     0.001 A 
ATOM     68  C   UNL     1      -1.690  14.736 -17.259  1.00  0.00     0.000 A 
ENDBRANCH  49  63
BRANCH  50  69
ATOM     69  C   UNL     1       5.337  12.955 -10.879  1.00  0.00    -0.014 A 
ATOM     70  C   UNL     1       5.267  14.153 -10.146  1.00  0.00     0.009 A 
ATOM     71  C   UNL     1       6.453  12.751 -11.704  1.00  0.00     0.009 A 
ATOM     72  C   UNL     1       6.255  15.134 -10.267  1.00  0.00     0.001 A 
ATOM     73  C   UNL     1       7.441  13.736 -11.828  1.00  0.00     0.001 A 
ATOM     74  C   UNL     1       7.332  14.933 -11.123  1.00  0.00     0.000 A 
ENDBRANCH  50  69
BRANCH  62  75
ATOM     75  C   UNL     1       2.020   7.908 -12.735  1.00  0.00    -0.014 A 
ATOM     76  C   UNL     1       1.960   6.665 -13.385  1.00  0.00     0.009 A 
ATOM     77  C   UNL     1       2.256   7.919 -11.349  1.00  0.00     0.009 A 
ATOM     78  C   UNL     1       2.135   5.473 -12.675  1.00  0.00     0.001 A 
ATOM     79  C   UNL     1       2.461   6.729 -10.644  1.00  0.00     0.001 A 
ATOM     80  C   UNL     1       2.393   5.506 -11.307  1.00  0.00     0.000 A 
ENDBRANCH  62  75
ENDBRANCH  36  37
ENDBRANCH  28  31
ENDBRANCH  26  27
ENDBRANCH   1  26
TORSDOF 12
