REMARK SMILES Cc1c(C[NH2+]C[C@@H]2CCCO2)c(C(=O)NCCCNC(=O)c2ccc(-c3c4nc(c(-c5ccccc5)c5ccc([nH]5)c(-c5ccccc5)c5nc(c(-c6ccccc6)c6ccc3[nH]6)C=C5)C=C4)cc2)c(C)n1Cc1ccc(F)cc1
REMARK SMILES IDX 16 1 15 2 13 3 14 4 12 6 1 7 2 8 3 9 72 10 70 11 71 12 4 13
REMARK SMILES IDX 5 14 6 17 7 18 8 19 11 20 9 21 10 22 73 23 74 24 75 25 80 26
REMARK SMILES IDX 76 27 79 28 77 29 78 30 17 31 18 32 19 33 20 34 21 36 22 37
REMARK SMILES IDX 23 38 69 39 24 40 68 41 25 42 26 43 27 44 62 45 28 46 67 47
REMARK SMILES IDX 61 48 63 49 29 50 66 51 60 52 59 53 30 55 52 56 37 57 51 58
REMARK SMILES IDX 38 59 41 60 50 61 64 62 39 63 40 64 49 66 65 67 42 68 31 69
REMARK SMILES IDX 32 70 36 71 33 72 35 73 34 74 53 75 54 76 58 77 55 78 57 79
REMARK SMILES IDX 56 80 43 81 44 82 48 83 45 84 47 85 46 86
REMARK H PARENT 15 5 5 15 5 16 19 35 63 54 41 65
REMARK Flexibility Score: inf
ROOT
ATOM      1  C   UNL     1      -0.456   5.867   4.106  1.00  0.00     0.118 C 
ENDROOT
BRANCH   1   2
ATOM      2  N   UNL     1      -0.911   4.549   4.512  1.00  0.00    -0.352 N 
ATOM      3  C   UNL     1      -0.837   3.258   4.070  1.00  0.00     0.253 C 
ATOM      4  O   UNL     1      -1.510   2.494   4.799  1.00  0.00    -0.269 OA
ATOM      5  H   UNL     1      -1.423   4.601   5.351  1.00  0.00     0.163 HD
BRANCH   3   6
ATOM      6  C   UNL     1      -0.180   2.743   2.849  1.00  0.00     0.069 A 
ATOM      7  C   UNL     1       0.604   0.039   0.321  1.00  0.00     0.065 C 
ATOM      8  C   UNL     1       0.347   1.242   1.169  1.00  0.00     0.025 A 
ATOM      9  C   UNL     1      -0.307   1.350   2.392  1.00  0.00     0.040 A 
ATOM     10  N   UNL     1       0.754   2.515   0.818  1.00  0.00    -0.343 N 
ATOM     11  C   UNL     1       0.778   3.284   1.979  1.00  0.00     0.028 A 
ATOM     12  C   UNL     1       1.772   4.379   2.145  1.00  0.00     0.065 C 
BRANCH   9  13
ATOM     13  C   UNL     1      -1.010   0.217   3.111  1.00  0.00     0.300 C 
BRANCH  13  14
ATOM     14  N   UNL     1      -0.192  -0.238   4.239  1.00  0.00    -0.340 N 
ATOM     15  H   UNL     1      -0.005   0.555   4.852  1.00  0.00     0.346 HD
ATOM     16  H   UNL     1       0.675  -0.625   3.864  1.00  0.00     0.346 HD
BRANCH  14  17
ATOM     17  C   UNL     1      -0.864  -1.294   5.016  1.00  0.00     0.293 C 
BRANCH  17  18
ATOM     18  C   UNL     1      -0.738  -2.709   4.412  1.00  0.00     0.173 C 
ATOM     19  C   UNL     1      -2.039  -3.498   4.424  1.00  0.00     0.040 C 
ATOM     20  O   UNL     1       0.205  -3.511   5.158  1.00  0.00    -0.372 OA
ATOM     21  C   UNL     1      -1.534  -4.919   4.376  1.00  0.00     0.031 C 
ATOM     22  C   UNL     1      -0.321  -4.843   5.277  1.00  0.00     0.161 C 
ENDBRANCH  17  18
ENDBRANCH  14  17
ENDBRANCH  13  14
ENDBRANCH   9  13
BRANCH  10  23
ATOM     23  C   UNL     1       1.299   2.893  -0.497  1.00  0.00     0.157 C 
BRANCH  23  24
ATOM     24  C   UNL     1       0.420   3.829  -1.313  1.00  0.00    -0.028 A 
ATOM     25  C   UNL     1       0.022   3.469  -2.615  1.00  0.00     0.008 A 
ATOM     26  C   UNL     1       0.072   5.112  -0.859  1.00  0.00     0.008 A 
ATOM     27  C   UNL     1      -0.700   4.358  -3.420  1.00  0.00     0.039 A 
ATOM     28  C   UNL     1      -0.650   6.001  -1.660  1.00  0.00     0.039 A 
ATOM     29  C   UNL     1      -1.029   5.616  -2.935  1.00  0.00     0.123 A 
ATOM     30  F   UNL     1      -1.710   6.472  -3.708  1.00  0.00    -0.207 F 
ENDBRANCH  23  24
ENDBRANCH  10  23
ENDBRANCH   3   6
ENDBRANCH   1   2
BRANCH   1  31
ATOM     31  C   UNL     1      -1.436   6.611   3.192  1.00  0.00     0.042 C 
BRANCH  31  32
ATOM     32  C   UNL     1      -2.705   7.140   3.898  1.00  0.00     0.118 C 
BRANCH  32  33
ATOM     33  N   UNL     1      -2.616   8.523   4.336  1.00  0.00    -0.352 N 
ATOM     34  C   UNL     1      -3.641   9.424   4.565  1.00  0.00     0.251 C 
ATOM     35  H   UNL     1      -1.706   8.864   4.490  1.00  0.00     0.163 HD
ATOM     36  O   UNL     1      -3.331  10.580   4.866  1.00  0.00    -0.269 OA
BRANCH  34  37
ATOM     37  C   UNL     1      -5.092   9.082   4.329  1.00  0.00     0.039 A 
ATOM     38  C   UNL     1      -5.689   9.647   3.220  1.00  0.00     0.014 A 
ATOM     39  C   UNL     1      -5.950   8.387   5.202  1.00  0.00     0.014 A 
ATOM     40  C   UNL     1      -7.075   9.449   2.964  1.00  0.00     0.010 A 
ATOM     41  C   UNL     1      -7.403   8.286   4.983  1.00  0.00     0.010 A 
ATOM     42  C   UNL     1      -8.038   8.825   3.847  1.00  0.00    -0.014 A 
BRANCH  42  43
ATOM     43  C   UNL     1      -9.616   9.238   3.599  1.00  0.00     0.031 A 
ATOM     44  C   UNL     1      -9.491  10.674   3.230  1.00  0.00     0.074 A 
ATOM     45  C   UNL     1     -10.962   8.878   3.760  1.00  0.00     0.049 A 
ATOM     46  N   UNL     1      -8.944  11.456   4.112  1.00  0.00    -0.248 NA
ATOM     47  C   UNL     1      -9.504  11.198   1.865  1.00  0.00     0.031 C 
ATOM     48  C   UNL     1     -11.530   7.687   4.415  1.00  0.00     0.029 A 
ATOM     49  N   UNL     1     -12.191   9.524   3.366  1.00  0.00    -0.354 N 
ATOM     50  C   UNL     1      -8.719  12.659   3.500  1.00  0.00     0.074 A 
ATOM     51  C   UNL     1      -8.905  12.379   2.079  1.00  0.00     0.031 C 
ATOM     52  C   UNL     1     -12.886   7.604   4.247  1.00  0.00     0.029 A 
ATOM     53  C   UNL     1     -13.410   8.755   3.509  1.00  0.00     0.049 A 
ATOM     54  H   UNL     1     -12.200  10.444   3.016  1.00  0.00     0.167 HD
ATOM     55  C   UNL     1      -9.106  13.747   4.225  1.00  0.00     0.031 A 
ATOM     56  C   UNL     1     -14.733   9.039   3.152  1.00  0.00     0.031 A 
ATOM     57  C   UNL     1     -10.417  14.179   3.817  1.00  0.00     0.049 A 
ATOM     58  C   UNL     1     -14.848  10.500   3.190  1.00  0.00     0.074 A 
ATOM     59  C   UNL     1     -10.991  14.347   2.571  1.00  0.00     0.029 A 
ATOM     60  N   UNL     1     -11.449  13.972   4.706  1.00  0.00    -0.354 N 
ATOM     61  N   UNL     1     -15.008  11.122   4.318  1.00  0.00    -0.248 NA
ATOM     62  C   UNL     1     -14.951  11.327   1.994  1.00  0.00     0.031 C 
ATOM     63  C   UNL     1     -12.237  13.693   2.672  1.00  0.00     0.029 A 
ATOM     64  C   UNL     1     -12.568  13.558   4.014  1.00  0.00     0.049 A 
ATOM     65  H   UNL     1     -11.396  14.100   5.681  1.00  0.00     0.167 HD
ATOM     66  C   UNL     1     -14.647  12.393   4.003  1.00  0.00     0.074 A 
ATOM     67  C   UNL     1     -14.921  12.525   2.583  1.00  0.00     0.031 C 
ATOM     68  C   UNL     1     -13.641  12.926   4.739  1.00  0.00     0.031 A 
BRANCH  55  69
ATOM     69  C   UNL     1      -8.628  13.699   5.662  1.00  0.00    -0.014 A 
ATOM     70  C   UNL     1      -7.633  14.588   6.078  1.00  0.00     0.009 A 
ATOM     71  C   UNL     1      -9.007  12.668   6.553  1.00  0.00     0.009 A 
ATOM     72  C   UNL     1      -6.984  14.400   7.306  1.00  0.00     0.001 A 
ATOM     73  C   UNL     1      -8.325  12.449   7.748  1.00  0.00     0.001 A 
ATOM     74  C   UNL     1      -7.305  13.313   8.122  1.00  0.00     0.000 A 
ENDBRANCH  55  69
BRANCH  56  75
ATOM     75  C   UNL     1     -16.184   8.482   2.972  1.00  0.00    -0.014 A 
ATOM     76  C   UNL     1     -17.314   9.320   3.287  1.00  0.00     0.009 A 
ATOM     77  C   UNL     1     -16.497   7.408   2.129  1.00  0.00     0.009 A 
ATOM     78  C   UNL     1     -18.596   9.185   2.710  1.00  0.00     0.001 A 
ATOM     79  C   UNL     1     -17.804   7.245   1.577  1.00  0.00     0.001 A 
ATOM     80  C   UNL     1     -18.838   8.149   1.832  1.00  0.00     0.000 A 
ENDBRANCH  56  75
BRANCH  68  81
ATOM     81  C   UNL     1     -13.610  12.606   6.226  1.00  0.00    -0.014 A 
ATOM     82  C   UNL     1     -13.753  11.319   6.791  1.00  0.00     0.009 A 
ATOM     83  C   UNL     1     -13.471  13.678   7.118  1.00  0.00     0.009 A 
ATOM     84  C   UNL     1     -13.816  11.123   8.177  1.00  0.00     0.001 A 
ATOM     85  C   UNL     1     -13.480  13.479   8.503  1.00  0.00     0.001 A 
ATOM     86  C   UNL     1     -13.671  12.205   9.033  1.00  0.00     0.000 A 
ENDBRANCH  68  81
ENDBRANCH  42  43
ENDBRANCH  34  37
ENDBRANCH  32  33
ENDBRANCH  31  32
ENDBRANCH   1  31
TORSDOF 16
