REMARK SMILES COc1ccc(C2=NN(C(=O)CCC(=O)NCCCNC(=O)c3ccc(-c4c5nc(c(-c6ccccc6)c6ccc([nH]6)c(-c6ccccc6)c6nc(c(-c7ccccc7)c7ccc4[nH]7)C=C6)C=C5)cc3)[C@H](c3ccc(Cl)cc3Cl)C2)cc1
REMARK SMILES IDX 14 1 15 2 16 3 13 5 12 6 10 7 11 8 9 9 7 10 8 11 80 12 71 13
REMARK SMILES IDX 6 14 3 15 4 16 82 17 5 18 81 19 2 20 1 21 72 22 73 23 78 24
REMARK SMILES IDX 74 25 77 26 79 27 75 28 76 29 17 30 18 31 19 32 20 33 21 34
REMARK SMILES IDX 22 36 23 37 24 38 70 39 25 40 69 41 26 42 27 43 28 44 63 45
REMARK SMILES IDX 29 46 68 47 62 48 64 49 30 50 67 51 61 52 60 53 31 55 53 56
REMARK SMILES IDX 38 57 52 58 39 59 42 60 51 61 65 62 40 63 41 64 50 66 66 67
REMARK SMILES IDX 43 68 32 69 33 70 37 71 34 72 36 73 35 74 54 75 55 76 59 77
REMARK SMILES IDX 56 78 58 79 57 80 44 81 45 82 49 83 46 84 48 85 47 86
REMARK H PARENT 16 4 20 35 64 54 42 65
REMARK Flexibility Score: inf
ROOT
ATOM      1  C   UNL     1       3.628  -4.314 -10.080  1.00  0.00     0.220 C 
ATOM      2  O   UNL     1       4.711  -4.692 -10.531  1.00  0.00    -0.275 OA
ATOM      3  N   UNL     1       3.629  -3.896  -8.795  1.00  0.00    -0.356 N 
ATOM      4  H   UNL     1       4.529  -3.685  -8.457  1.00  0.00     0.163 HD
ENDROOT
BRANCH   1   5
ATOM      5  C   UNL     1       2.372  -4.297 -10.903  1.00  0.00     0.110 C 
BRANCH   5   6
ATOM      6  C   UNL     1       1.070  -4.966 -10.458  1.00  0.00     0.112 C 
BRANCH   6   7
ATOM      7  C   UNL     1       0.346  -4.512  -9.203  1.00  0.00     0.243 C 
ATOM      8  O   UNL     1      -0.594  -3.720  -9.305  1.00  0.00    -0.273 OA
BRANCH   7   9
ATOM      9  N   UNL     1       0.920  -4.898  -7.950  1.00  0.00    -0.225 N 
ATOM     10  C   UNL     1       1.933  -3.285  -5.877  1.00  0.00     0.071 C 
ATOM     11  N   UNL     1       0.710  -3.519  -6.767  1.00  0.00    -0.174 NA
ATOM     12  C   UNL     1       3.576  -4.529  -6.510  1.00  0.00     0.091 C 
ATOM     13  C   UNL     1       2.570  -5.790  -7.776  1.00  0.00     0.149 C 
BRANCH  10  14
ATOM     14  C   UNL     1       1.280  -3.314  -4.157  1.00  0.00    -0.002 A 
ATOM     15  C   UNL     1       0.317  -2.048  -1.011  1.00  0.00     0.118 A 
ATOM     16  C   UNL     1      -0.892  -2.166  -2.618  1.00  0.00     0.047 A 
ATOM     17  C   UNL     1       1.919  -2.685  -1.064  1.00  0.00     0.047 A 
ATOM     18  C   UNL     1      -0.342  -2.788  -4.154  1.00  0.00     0.014 A 
ATOM     19  C   UNL     1       2.354  -3.349  -2.575  1.00  0.00     0.014 A 
BRANCH  15  20
ATOM     20  O   UNL     1       0.157  -1.474   0.291  1.00  0.00    -0.497 OA
ATOM     21  C   UNL     1       0.979  -0.316   0.549  1.00  0.00     0.278 C 
ENDBRANCH  15  20
ENDBRANCH  10  14
BRANCH  13  22
ATOM     22  C   UNL     1       2.239  -7.412  -7.566  1.00  0.00    -0.004 A 
ATOM     23  C   UNL     1       2.132  -8.082  -6.309  1.00  0.00     0.009 A 
ATOM     24  C   UNL     1       1.917  -8.234  -8.673  1.00  0.00     0.047 A 
ATOM     25  C   UNL     1       1.526  -9.338  -6.156  1.00  0.00     0.021 A 
ATOM     26  C   UNL     1       1.278  -9.482  -8.525  1.00  0.00     0.041 A 
ATOM     27  Cl  UNL     1       2.571  -7.970 -10.255  1.00  0.00    -0.084 Cl
ATOM     28  C   UNL     1       1.065 -10.018  -7.266  1.00  0.00     0.042 A 
ATOM     29  Cl  UNL     1       0.351 -11.570  -7.086  1.00  0.00    -0.084 Cl
ENDBRANCH  13  22
ENDBRANCH   7   9
ENDBRANCH   6   7
ENDBRANCH   5   6
ENDBRANCH   1   5
BRANCH   3  30
ATOM     30  C   UNL     1       2.492  -3.674  -7.717  1.00  0.00     0.117 C 
BRANCH  30  31
ATOM     31  C   UNL     1       1.929  -5.030  -6.047  1.00  0.00     0.042 C 
BRANCH  31  32
ATOM     32  C   UNL     1       3.085  -4.533  -4.498  1.00  0.00     0.118 C 
BRANCH  32  33
ATOM     33  N   UNL     1       3.441  -2.704  -4.389  1.00  0.00    -0.352 N 
ATOM     34  C   UNL     1       2.510  -1.430  -3.799  1.00  0.00     0.251 C 
ATOM     35  H   UNL     1       4.323  -2.438  -4.735  1.00  0.00     0.163 HD
ATOM     36  O   UNL     1       2.893  -0.291  -4.058  1.00  0.00    -0.269 OA
BRANCH  34  37
ATOM     37  C   UNL     1       0.982  -1.720  -2.805  1.00  0.00     0.039 A 
ATOM     38  C   UNL     1      -0.052  -0.325  -2.228  1.00  0.00     0.014 A 
ATOM     39  C   UNL     1       0.337  -3.550  -2.241  1.00  0.00     0.014 A 
ATOM     40  C   UNL     1      -1.482  -0.723  -1.152  1.00  0.00     0.010 A 
ATOM     41  C   UNL     1      -1.019  -3.808  -1.218  1.00  0.00     0.010 A 
ATOM     42  C   UNL     1      -1.881  -2.425  -0.641  1.00  0.00    -0.014 A 
BRANCH  42  43
ATOM     43  C   UNL     1      -2.939  -3.006   0.224  1.00  0.00     0.031 A 
ATOM     44  C   UNL     1      -2.595  -3.965   1.383  1.00  0.00     0.074 A 
ATOM     45  C   UNL     1      -4.125  -3.148  -0.392  1.00  0.00     0.049 A 
ATOM     46  N   UNL     1      -3.402  -4.686   2.128  1.00  0.00    -0.248 NA
ATOM     47  C   UNL     1      -1.167  -4.222   1.690  1.00  0.00     0.031 C 
ATOM     48  C   UNL     1      -4.458  -2.583  -1.699  1.00  0.00     0.029 A 
ATOM     49  N   UNL     1      -5.249  -3.838  -0.038  1.00  0.00    -0.354 N 
ATOM     50  C   UNL     1      -2.590  -5.425   2.993  1.00  0.00     0.074 A 
ATOM     51  C   UNL     1      -1.227  -5.199   2.586  1.00  0.00     0.031 C 
ATOM     52  C   UNL     1      -5.727  -2.870  -2.000  1.00  0.00     0.029 A 
ATOM     53  C   UNL     1      -6.294  -3.625  -0.901  1.00  0.00     0.049 A 
ATOM     54  H   UNL     1      -5.303  -4.425   0.751  1.00  0.00     0.167 HD
ATOM     55  C   UNL     1      -2.953  -6.167   4.072  1.00  0.00     0.031 A 
ATOM     56  C   UNL     1      -7.594  -3.927  -0.774  1.00  0.00     0.031 A 
ATOM     57  C   UNL     1      -4.334  -6.384   4.414  1.00  0.00     0.049 A 
ATOM     58  C   UNL     1      -8.016  -4.604   0.488  1.00  0.00     0.074 A 
ATOM     59  C   UNL     1      -4.883  -6.964   5.543  1.00  0.00     0.029 A 
ATOM     60  N   UNL     1      -5.392  -6.026   3.588  1.00  0.00    -0.354 N 
ATOM     61  N   UNL     1      -7.271  -5.066   1.464  1.00  0.00    -0.248 NA
ATOM     62  C   UNL     1      -9.457  -4.757   0.690  1.00  0.00     0.031 C 
ATOM     63  C   UNL     1      -6.271  -7.014   5.366  1.00  0.00     0.029 A 
ATOM     64  C   UNL     1      -6.591  -6.392   4.167  1.00  0.00     0.049 A 
ATOM     65  H   UNL     1      -5.300  -5.576   2.717  1.00  0.00     0.167 HD
ATOM     66  C   UNL     1      -8.155  -5.541   2.418  1.00  0.00     0.074 A 
ATOM     67  C   UNL     1      -9.489  -5.280   1.906  1.00  0.00     0.031 C 
ATOM     68  C   UNL     1      -7.895  -6.137   3.608  1.00  0.00     0.031 A 
BRANCH  55  69
ATOM     69  C   UNL     1      -1.868  -6.718   4.978  1.00  0.00    -0.014 A 
ATOM     70  C   UNL     1      -0.956  -5.857   5.619  1.00  0.00     0.009 A 
ATOM     71  C   UNL     1      -1.773  -8.093   5.252  1.00  0.00     0.009 A 
ATOM     72  C   UNL     1       0.059  -6.357   6.441  1.00  0.00     0.001 A 
ATOM     73  C   UNL     1      -0.779  -8.590   6.106  1.00  0.00     0.001 A 
ATOM     74  C   UNL     1       0.147  -7.724   6.685  1.00  0.00     0.000 A 
ENDBRANCH  55  69
BRANCH  56  75
ATOM     75  C   UNL     1      -8.559  -3.403  -1.773  1.00  0.00    -0.014 A 
ATOM     76  C   UNL     1      -9.405  -2.332  -1.442  1.00  0.00     0.009 A 
ATOM     77  C   UNL     1      -8.579  -3.902  -3.083  1.00  0.00     0.009 A 
ATOM     78  C   UNL     1     -10.290  -1.810  -2.386  1.00  0.00     0.001 A 
ATOM     79  C   UNL     1      -9.438  -3.352  -4.037  1.00  0.00     0.001 A 
ATOM     80  C   UNL     1     -10.305  -2.319  -3.683  1.00  0.00     0.000 A 
ENDBRANCH  56  75
BRANCH  68  81
ATOM     81  C   UNL     1      -9.087  -6.524   4.429  1.00  0.00    -0.014 A 
ATOM     82  C   UNL     1      -9.964  -7.536   4.011  1.00  0.00     0.009 A 
ATOM     83  C   UNL     1      -9.316  -5.877   5.653  1.00  0.00     0.009 A 
ATOM     84  C   UNL     1     -11.082  -7.855   4.779  1.00  0.00     0.001 A 
ATOM     85  C   UNL     1     -10.406  -6.233   6.442  1.00  0.00     0.001 A 
ATOM     86  C   UNL     1     -11.296  -7.209   5.997  1.00  0.00     0.000 A 
ENDBRANCH  68  81
ENDBRANCH  42  43
ENDBRANCH  34  37
ENDBRANCH  32  33
ENDBRANCH  31  32
ENDBRANCH  30  31
ENDBRANCH   3  30
TORSDOF 16
