REMARK SMILES C[C@@H]1CCC[C@H](C)[N@H+]1Cc1cc2c(cc1Cl)C=C(C(=O)NCCCNC(=O)c1ccc(-c3c4nc(c(-c5ccccc5)c5ccc([nH]5)c(-c5ccccc5)c5nc(c(-c6ccccc6)c6ccc3[nH]6)C=C5)C=C4)cc1)[C@@H](C(F)(F)F)O2
REMARK SMILES IDX 23 1 22 2 21 3 19 4 20 5 18 7 10 8 11 9 15 10 12 11 14 12
REMARK SMILES IDX 16 13 13 14 81 15 17 16 76 17 9 18 8 19 7 20 6 21 5 22 4 23
REMARK SMILES IDX 2 24 3 26 1 27 77 28 78 29 79 30 80 31 24 32 25 33 26 34
REMARK SMILES IDX 27 36 28 37 29 38 75 39 30 40 74 41 31 42 32 43 33 44 68 45
REMARK SMILES IDX 34 46 73 47 67 48 69 49 35 50 72 51 66 52 65 53 36 55 58 56
REMARK SMILES IDX 43 57 57 58 44 59 47 60 56 61 70 62 45 63 46 64 55 66 71 67
REMARK SMILES IDX 48 68 37 69 38 70 42 71 39 72 41 73 40 74 59 75 60 76 64 77
REMARK SMILES IDX 61 78 63 79 62 80 49 81 50 82 54 83 51 84 53 85 52 86
REMARK H PARENT 21 6 8 25 25 35 69 54 47 65
REMARK Flexibility Score: inf
ROOT
ATOM      1  C   UNL     1      -4.441   7.222  -6.280  1.00  0.00     0.042 C 
ENDROOT
BRANCH   1   2
ATOM      2  C   UNL     1      -3.368   6.699  -7.219  1.00  0.00     0.118 C 
BRANCH   2   3
ATOM      3  N   UNL     1      -2.048   7.158  -6.822  1.00  0.00    -0.352 N 
ATOM      4  C   UNL     1      -0.910   6.591  -6.362  1.00  0.00     0.251 C 
ATOM      5  O   UNL     1       0.023   7.371  -6.152  1.00  0.00    -0.270 OA
ATOM      6  H   UNL     1      -1.959   8.135  -6.910  1.00  0.00     0.163 HD
BRANCH   4   7
ATOM      7  C   UNL     1      -0.736   5.140  -6.099  1.00  0.00     0.067 C 
ATOM      8  C   UNL     1       1.096   0.752  -4.458  1.00  0.00     0.029 A 
ATOM      9  C   UNL     1      -0.190   1.311  -4.534  1.00  0.00     0.058 A 
ATOM     10  C   UNL     1       2.146   1.420  -5.116  1.00  0.00     0.050 A 
ATOM     11  C   UNL     1      -0.371   2.576  -5.079  1.00  0.00     0.128 A 
ATOM     12  C   UNL     1       1.970   2.722  -5.597  1.00  0.00     0.033 A 
ATOM     13  Cl  UNL     1       3.702   0.710  -5.357  1.00  0.00    -0.084 Cl
ATOM     14  C   UNL     1       0.719   3.322  -5.526  1.00  0.00     0.019 A 
ATOM     15  O   UNL     1      -1.646   3.075  -5.098  1.00  0.00    -0.475 OA
ATOM     16  C   UNL     1       0.520   4.729  -5.850  1.00  0.00     0.025 C 
ATOM     17  C   UNL     1      -1.845   4.128  -6.085  1.00  0.00     0.314 C 
BRANCH   8  18
ATOM     18  C   UNL     1       1.299  -0.468  -3.580  1.00  0.00     0.301 C 
BRANCH  18  19
ATOM     19  N   UNL     1       1.582  -0.204  -2.146  1.00  0.00    -0.327 N 
ATOM     20  C   UNL     1       0.373  -0.373   0.013  1.00  0.00     0.075 C 
ATOM     21  C   UNL     1       0.446   0.312  -1.362  1.00  0.00     0.181 C 
ATOM     22  C   UNL     1       0.411   1.843  -1.206  1.00  0.00     0.065 C 
ATOM     23  C   UNL     1       1.750   2.437  -0.805  1.00  0.00     0.012 C 
ATOM     24  C   UNL     1       2.891   0.431  -1.897  1.00  0.00     0.181 C 
ATOM     25  H   UNL     1       1.698  -1.132  -1.738  1.00  0.00     0.348 HD
ATOM     26  C   UNL     1       2.846   1.962  -1.747  1.00  0.00     0.065 C 
ATOM     27  C   UNL     1       3.624  -0.200  -0.706  1.00  0.00     0.075 C 
ENDBRANCH  18  19
ENDBRANCH   8  18
BRANCH  17  28
ATOM     28  C   UNL     1      -2.086   3.527  -7.489  1.00  0.00     0.429 C 
ATOM     29  F   UNL     1      -3.316   2.961  -7.559  1.00  0.00    -0.167 F 
ATOM     30  F   UNL     1      -2.040   4.470  -8.463  1.00  0.00    -0.167 F 
ATOM     31  F   UNL     1      -1.184   2.581  -7.830  1.00  0.00    -0.167 F 
ENDBRANCH  17  28
ENDBRANCH   4   7
ENDBRANCH   2   3
ENDBRANCH   1   2
BRANCH   1  32
ATOM     32  C   UNL     1      -4.783   8.675  -6.564  1.00  0.00     0.118 C 
BRANCH  32  33
ATOM     33  N   UNL     1      -5.425   8.841  -7.867  1.00  0.00    -0.352 N 
ATOM     34  C   UNL     1      -6.720   9.165  -8.188  1.00  0.00     0.251 C 
ATOM     35  H   UNL     1      -4.832   8.698  -8.640  1.00  0.00     0.163 HD
ATOM     36  O   UNL     1      -7.122   9.016  -9.339  1.00  0.00    -0.269 OA
BRANCH  34  37
ATOM     37  C   UNL     1      -7.631   9.672  -7.145  1.00  0.00     0.039 A 
ATOM     38  C   UNL     1      -7.157  10.547  -6.169  1.00  0.00     0.014 A 
ATOM     39  C   UNL     1      -8.969   9.269  -7.133  1.00  0.00     0.014 A 
ATOM     40  C   UNL     1      -7.944  10.835  -5.067  1.00  0.00     0.010 A 
ATOM     41  C   UNL     1      -9.804   9.676  -6.089  1.00  0.00     0.010 A 
ATOM     42  C   UNL     1      -9.283  10.418  -5.019  1.00  0.00    -0.014 A 
BRANCH  42  43
ATOM     43  C   UNL     1     -10.106  10.802  -3.845  1.00  0.00     0.031 A 
ATOM     44  C   UNL     1     -10.704   9.760  -2.941  1.00  0.00     0.074 A 
ATOM     45  C   UNL     1     -10.246  12.111  -3.557  1.00  0.00     0.049 A 
ATOM     46  N   UNL     1     -11.398   9.930  -1.843  1.00  0.00    -0.248 NA
ATOM     47  C   UNL     1     -10.508   8.348  -3.309  1.00  0.00     0.031 C 
ATOM     48  C   UNL     1      -9.696  13.210  -4.356  1.00  0.00     0.029 A 
ATOM     49  N   UNL     1     -10.848  12.742  -2.499  1.00  0.00    -0.354 N 
ATOM     50  C   UNL     1     -11.743   8.657  -1.409  1.00  0.00     0.074 A 
ATOM     51  C   UNL     1     -11.206   7.721  -2.371  1.00  0.00     0.031 C 
ATOM     52  C   UNL     1      -9.908  14.368  -3.718  1.00  0.00     0.029 A 
ATOM     53  C   UNL     1     -10.689  14.107  -2.514  1.00  0.00     0.049 A 
ATOM     54  H   UNL     1     -11.345  12.264  -1.796  1.00  0.00     0.167 HD
ATOM     55  C   UNL     1     -12.438   8.304  -0.302  1.00  0.00     0.031 A 
ATOM     56  C   UNL     1     -11.131  15.054  -1.666  1.00  0.00     0.031 A 
ATOM     57  C   UNL     1     -12.950   9.243   0.661  1.00  0.00     0.049 A 
ATOM     58  C   UNL     1     -11.927  14.637  -0.467  1.00  0.00     0.074 A 
ATOM     59  C   UNL     1     -13.639   8.978   1.832  1.00  0.00     0.029 A 
ATOM     60  N   UNL     1     -12.832  10.622   0.569  1.00  0.00    -0.354 N 
ATOM     61  N   UNL     1     -12.233  13.427  -0.065  1.00  0.00    -0.248 NA
ATOM     62  C   UNL     1     -12.443  15.709   0.394  1.00  0.00     0.031 C 
ATOM     63  C   UNL     1     -14.000  10.196   2.410  1.00  0.00     0.029 A 
ATOM     64  C   UNL     1     -13.466  11.221   1.644  1.00  0.00     0.049 A 
ATOM     65  H   UNL     1     -12.367  11.103  -0.154  1.00  0.00     0.167 HD
ATOM     66  C   UNL     1     -12.971  13.590   1.099  1.00  0.00     0.074 A 
ATOM     67  C   UNL     1     -13.042  15.015   1.353  1.00  0.00     0.031 C 
ATOM     68  C   UNL     1     -13.541  12.641   1.880  1.00  0.00     0.031 A 
BRANCH  55  69
ATOM     69  C   UNL     1     -12.711   6.843  -0.067  1.00  0.00    -0.014 A 
ATOM     70  C   UNL     1     -14.032   6.367  -0.126  1.00  0.00     0.009 A 
ATOM     71  C   UNL     1     -11.691   5.957   0.313  1.00  0.00     0.009 A 
ATOM     72  C   UNL     1     -14.329   5.045   0.208  1.00  0.00     0.001 A 
ATOM     73  C   UNL     1     -11.986   4.625   0.616  1.00  0.00     0.001 A 
ATOM     74  C   UNL     1     -13.305   4.174   0.575  1.00  0.00     0.000 A 
ENDBRANCH  55  69
BRANCH  56  75
ATOM     75  C   UNL     1     -10.812  16.480  -1.943  1.00  0.00    -0.014 A 
ATOM     76  C   UNL     1     -11.338  17.120  -3.079  1.00  0.00     0.009 A 
ATOM     77  C   UNL     1      -9.916  17.184  -1.126  1.00  0.00     0.009 A 
ATOM     78  C   UNL     1     -10.941  18.415  -3.414  1.00  0.00     0.001 A 
ATOM     79  C   UNL     1      -9.548  18.494  -1.445  1.00  0.00     0.001 A 
ATOM     80  C   UNL     1     -10.049  19.103  -2.595  1.00  0.00     0.000 A 
ENDBRANCH  56  75
BRANCH  68  81
ATOM     81  C   UNL     1     -14.297  13.099   3.096  1.00  0.00    -0.014 A 
ATOM     82  C   UNL     1     -13.810  12.793   4.377  1.00  0.00     0.009 A 
ATOM     83  C   UNL     1     -15.540  13.739   2.977  1.00  0.00     0.009 A 
ATOM     84  C   UNL     1     -14.559  13.100   5.513  1.00  0.00     0.001 A 
ATOM     85  C   UNL     1     -16.272  14.076   4.117  1.00  0.00     0.001 A 
ATOM     86  C   UNL     1     -15.787  13.746   5.383  1.00  0.00     0.000 A 
ENDBRANCH  68  81
ENDBRANCH  42  43
ENDBRANCH  34  37
ENDBRANCH  32  33
ENDBRANCH   1  32
TORSDOF 13
