REMARK SMILES Cc1ccc(F)c(C(=O)Nc2cccc(C(=O)NCCCNC(=O)c3ccc(-c4c5nc(c(-c6ccccc6)c6ccc([nH]6)c(-c6ccccc6)c6nc(c(-c7ccccc7)c7ccc4[nH]7)C=C6)C=C5)cc3)c2)c1
REMARK SMILES IDX 20 1 19 2 18 3 16 4 17 5 15 7 11 8 12 9 73 10 13 11 14 12
REMARK SMILES IDX 10 13 8 14 9 15 7 17 1 18 2 19 3 20 74 21 4 22 5 23 6 24
REMARK SMILES IDX 21 25 22 26 23 27 24 29 25 30 26 31 72 32 27 33 71 34 28 35
REMARK SMILES IDX 29 36 30 37 65 38 31 39 70 40 64 41 66 42 32 43 69 44 63 45
REMARK SMILES IDX 62 46 33 48 55 49 40 50 54 51 41 52 44 53 53 54 67 55 42 56
REMARK SMILES IDX 43 57 52 59 68 60 45 61 34 62 35 63 39 64 36 65 38 66 37 67
REMARK SMILES IDX 56 68 57 69 61 70 58 71 60 72 59 73 46 74 47 75 51 76 48 77
REMARK SMILES IDX 50 78 49 79
REMARK H PARENT 18 6 10 16 22 28 66 47 44 58
REMARK Flexibility Score: inf
ROOT
ATOM      1  C   UNL     1       0.877  -1.220   3.787  1.00  0.00     0.042 C 
ENDROOT
BRANCH   1   2
ATOM      2  C   UNL     1       1.891  -0.864   2.709  1.00  0.00     0.118 C 
BRANCH   2   3
ATOM      3  N   UNL     1       3.113  -1.627   2.848  1.00  0.00    -0.352 N 
ATOM      4  C   UNL     1       3.574  -2.760   2.230  1.00  0.00     0.251 C 
ATOM      5  O   UNL     1       4.707  -3.136   2.537  1.00  0.00    -0.269 OA
ATOM      6  H   UNL     1       3.734  -1.259   3.517  1.00  0.00     0.163 HD
BRANCH   4   7
ATOM      7  C   UNL     1       2.821  -3.514   1.183  1.00  0.00     0.041 A 
ATOM      8  C   UNL     1       0.854  -4.082  -0.123  1.00  0.00     0.042 A 
ATOM      9  C   UNL     1       1.607  -4.946  -0.916  1.00  0.00     0.026 A 
ATOM     10  C   UNL     1       1.439  -3.458   0.983  1.00  0.00     0.040 A 
ATOM     11  C   UNL     1       2.977  -5.061  -0.697  1.00  0.00     0.003 A 
ATOM     12  C   UNL     1       3.582  -4.327   0.325  1.00  0.00     0.014 A 
BRANCH   8  13
ATOM     13  N   UNL     1      -0.464  -3.817  -0.520  1.00  0.00    -0.322 N 
ATOM     14  C   UNL     1      -1.175  -2.628  -0.550  1.00  0.00     0.258 C 
ATOM     15  O   UNL     1      -2.383  -2.690  -0.779  1.00  0.00    -0.269 OA
ATOM     16  H   UNL     1      -0.967  -4.605  -0.829  1.00  0.00     0.170 HD
BRANCH  14  17
ATOM     17  C   UNL     1      -0.517  -1.290  -0.448  1.00  0.00     0.076 A 
ATOM     18  C   UNL     1       2.915   0.336  -0.818  1.00  0.00     0.044 C 
ATOM     19  C   UNL     1       1.433   0.180  -0.629  1.00  0.00    -0.050 A 
ATOM     20  C   UNL     1       0.669   1.252  -0.157  1.00  0.00     0.006 A 
ATOM     21  C   UNL     1       0.809  -1.059  -0.853  1.00  0.00     0.020 A 
ATOM     22  C   UNL     1      -0.678   1.064   0.148  1.00  0.00     0.040 A 
ATOM     23  C   UNL     1      -1.256  -0.201   0.026  1.00  0.00     0.135 A 
ATOM     24  F   UNL     1      -2.534  -0.337   0.405  1.00  0.00    -0.206 F 
ENDBRANCH  14  17
ENDBRANCH   8  13
ENDBRANCH   4   7
ENDBRANCH   2   3
ENDBRANCH   1   2
BRANCH   1  25
ATOM     25  C   UNL     1       1.140  -0.475   5.085  1.00  0.00     0.118 C 
BRANCH  25  26
ATOM     26  N   UNL     1       0.858   0.948   4.955  1.00  0.00    -0.352 N 
ATOM     27  C   UNL     1       0.076   1.764   5.731  1.00  0.00     0.251 C 
ATOM     28  H   UNL     1       1.296   1.392   4.194  1.00  0.00     0.163 HD
ATOM     29  O   UNL     1      -0.196   2.893   5.336  1.00  0.00    -0.269 OA
BRANCH  27  30
ATOM     30  C   UNL     1      -0.445   1.289   7.030  1.00  0.00     0.039 A 
ATOM     31  C   UNL     1      -1.727   1.681   7.422  1.00  0.00     0.014 A 
ATOM     32  C   UNL     1       0.336   0.499   7.879  1.00  0.00     0.014 A 
ATOM     33  C   UNL     1      -2.235   1.258   8.651  1.00  0.00     0.010 A 
ATOM     34  C   UNL     1      -0.205   0.002   9.058  1.00  0.00     0.010 A 
ATOM     35  C   UNL     1      -1.484   0.400   9.470  1.00  0.00    -0.014 A 
BRANCH  35  36
ATOM     36  C   UNL     1      -2.000  -0.048  10.785  1.00  0.00     0.031 A 
ATOM     37  C   UNL     1      -1.290   0.356  12.049  1.00  0.00     0.074 A 
ATOM     38  C   UNL     1      -3.075  -0.856  10.839  1.00  0.00     0.049 A 
ATOM     39  N   UNL     1      -1.571   0.048  13.289  1.00  0.00    -0.248 NA
ATOM     40  C   UNL     1      -0.086   1.192  11.898  1.00  0.00     0.031 C 
ATOM     41  C   UNL     1      -3.816  -1.362   9.681  1.00  0.00     0.029 A 
ATOM     42  N   UNL     1      -3.731  -1.395  11.915  1.00  0.00    -0.354 N 
ATOM     43  C   UNL     1      -0.568   0.625  14.057  1.00  0.00     0.074 A 
ATOM     44  C   UNL     1       0.357   1.256  13.143  1.00  0.00     0.031 C 
ATOM     45  C   UNL     1      -4.845  -2.109  10.111  1.00  0.00     0.029 A 
ATOM     46  C   UNL     1      -4.817  -2.161  11.569  1.00  0.00     0.049 A 
ATOM     47  H   UNL     1      -3.451  -1.246  12.848  1.00  0.00     0.167 HD
ATOM     48  C   UNL     1      -0.439   0.650  15.405  1.00  0.00     0.031 A 
ATOM     49  C   UNL     1      -5.695  -2.825  12.343  1.00  0.00     0.031 A 
ATOM     50  C   UNL     1      -1.375   0.045  16.312  1.00  0.00     0.049 A 
ATOM     51  C   UNL     1      -5.551  -2.756  13.837  1.00  0.00     0.074 A 
ATOM     52  C   UNL     1      -1.378   0.073  17.696  1.00  0.00     0.029 A 
ATOM     53  N   UNL     1      -2.479  -0.697  15.923  1.00  0.00    -0.354 N 
ATOM     54  N   UNL     1      -4.642  -2.139  14.552  1.00  0.00    -0.248 NA
ATOM     55  C   UNL     1      -6.568  -3.461  14.630  1.00  0.00     0.031 C 
ATOM     56  C   UNL     1      -2.461  -0.692  18.144  1.00  0.00     0.029 A 
ATOM     57  C   UNL     1      -3.161  -1.150  17.039  1.00  0.00     0.049 A 
ATOM     58  H   UNL     1      -2.740  -0.876  14.990  1.00  0.00     0.167 HD
ATOM     59  C   UNL     1      -4.991  -2.358  15.878  1.00  0.00     0.074 A 
ATOM     60  C   UNL     1      -6.204  -3.150  15.866  1.00  0.00     0.031 C 
ATOM     61  C   UNL     1      -4.364  -1.940  17.005  1.00  0.00     0.031 A 
BRANCH  48  62
ATOM     62  C   UNL     1       0.765   1.353  15.970  1.00  0.00    -0.014 A 
ATOM     63  C   UNL     1       0.902   2.748  15.889  1.00  0.00     0.009 A 
ATOM     64  C   UNL     1       1.771   0.610  16.607  1.00  0.00     0.009 A 
ATOM     65  C   UNL     1       2.042   3.379  16.392  1.00  0.00     0.001 A 
ATOM     66  C   UNL     1       2.895   1.247  17.137  1.00  0.00     0.001 A 
ATOM     67  C   UNL     1       3.035   2.629  17.019  1.00  0.00     0.000 A 
ENDBRANCH  48  62
BRANCH  49  68
ATOM     68  C   UNL     1      -6.809  -3.582  11.715  1.00  0.00    -0.014 A 
ATOM     69  C   UNL     1      -8.126  -3.107  11.796  1.00  0.00     0.009 A 
ATOM     70  C   UNL     1      -6.559  -4.777  11.022  1.00  0.00     0.009 A 
ATOM     71  C   UNL     1      -9.175  -3.825  11.216  1.00  0.00     0.001 A 
ATOM     72  C   UNL     1      -7.606  -5.478  10.420  1.00  0.00     0.001 A 
ATOM     73  C   UNL     1      -8.913  -5.007  10.525  1.00  0.00     0.000 A 
ENDBRANCH  49  68
BRANCH  61  74
ATOM     74  C   UNL     1      -4.999  -2.308  18.315  1.00  0.00    -0.014 A 
ATOM     75  C   UNL     1      -4.967  -3.626  18.797  1.00  0.00     0.009 A 
ATOM     76  C   UNL     1      -5.610  -1.312  19.093  1.00  0.00     0.009 A 
ATOM     77  C   UNL     1      -5.568  -3.945  20.016  1.00  0.00     0.001 A 
ATOM     78  C   UNL     1      -6.184  -1.629  20.325  1.00  0.00     0.001 A 
ATOM     79  C   UNL     1      -6.171  -2.946  20.780  1.00  0.00     0.000 A 
ENDBRANCH  61  74
ENDBRANCH  35  36
ENDBRANCH  27  30
ENDBRANCH  25  26
ENDBRANCH   1  25
TORSDOF 12
