REMARK SMILES Cc1cc2c(cc1C(=O)c1ccccc1C(=O)NCCCNC(=O)c1ccc(-c3c4nc(c(-c5ccccc5)c5ccc([nH]5)c(-c5ccccc5)c5nc(c(-c6ccccc6)c6ccc3[nH]6)C=C5)C=C4)cc1)CCCC2
REMARK SMILES IDX 20 1 19 2 18 3 16 4 17 5 15 7 10 8 11 9 12 10 14 11 13 12
REMARK SMILES IDX 8 13 9 14 7 15 1 16 2 17 3 18 4 19 6 20 5 21 76 22 73 23
REMARK SMILES IDX 75 24 74 25 21 26 22 27 23 28 24 30 25 31 26 32 72 33 27 34
REMARK SMILES IDX 71 35 28 36 29 37 30 38 65 39 31 40 70 41 64 42 66 43 32 44
REMARK SMILES IDX 69 45 63 46 62 47 33 49 55 50 40 51 54 52 41 53 44 54 53 55
REMARK SMILES IDX 67 56 42 57 43 58 52 60 68 61 45 62 34 63 35 64 39 65 36 66
REMARK SMILES IDX 38 67 37 68 56 69 57 70 61 71 58 72 60 73 59 74 46 75 47 76
REMARK SMILES IDX 51 77 48 78 50 79 49 80
REMARK H PARENT 18 6 22 29 66 48 44 59
REMARK Flexibility Score: inf
ROOT
ATOM      1  C   UNL     1       1.905   2.232   4.123  1.00  0.00     0.042 C 
ENDROOT
BRANCH   1   2
ATOM      2  C   UNL     1       1.211   3.227   3.207  1.00  0.00     0.118 C 
BRANCH   2   3
ATOM      3  N   UNL     1       2.112   3.833   2.265  1.00  0.00    -0.352 N 
ATOM      4  C   UNL     1       2.250   3.871   0.910  1.00  0.00     0.252 C 
ATOM      5  O   UNL     1       3.220   4.565   0.568  1.00  0.00    -0.269 OA
ATOM      6  H   UNL     1       2.813   4.356   2.717  1.00  0.00     0.163 HD
BRANCH   4   7
ATOM      7  C   UNL     1       1.427   3.238  -0.188  1.00  0.00     0.050 A 
ATOM      8  C   UNL     1       0.192   2.564  -0.208  1.00  0.00     0.035 A 
ATOM      9  C   UNL     1      -0.457   2.255  -1.432  1.00  0.00     0.013 A 
ATOM     10  C   UNL     1       0.162   2.479  -2.654  1.00  0.00     0.001 A 
ATOM     11  C   UNL     1       2.028   3.424  -1.464  1.00  0.00     0.014 A 
ATOM     12  C   UNL     1       1.426   3.038  -2.668  1.00  0.00     0.001 A 
BRANCH   8  13
ATOM     13  C   UNL     1      -0.585   2.066   0.923  1.00  0.00     0.194 C 
ATOM     14  O   UNL     1      -1.458   2.824   1.347  1.00  0.00    -0.289 OA
BRANCH  13  15
ATOM     15  C   UNL     1      -0.396   0.688   1.524  1.00  0.00     0.026 A 
ATOM     16  C   UNL     1       1.193  -0.437  -0.232  1.00  0.00     0.045 C 
ATOM     17  C   UNL     1       0.354  -0.388   1.011  1.00  0.00    -0.040 A 
ATOM     18  C   UNL     1       0.373  -1.602   1.736  1.00  0.00     0.008 A 
ATOM     19  C   UNL     1      -0.242  -1.750   2.981  1.00  0.00    -0.044 A 
ATOM     20  C   UNL     1      -1.026   0.520   2.784  1.00  0.00     0.016 A 
ATOM     21  C   UNL     1      -0.920  -0.663   3.532  1.00  0.00    -0.044 A 
ATOM     22  C   UNL     1      -0.213  -3.097   3.654  1.00  0.00     0.036 C 
ATOM     23  C   UNL     1      -1.429  -0.707   4.952  1.00  0.00     0.036 C 
ATOM     24  C   UNL     1      -0.511  -3.030   5.145  1.00  0.00     0.005 C 
ATOM     25  C   UNL     1      -1.711  -2.131   5.423  1.00  0.00     0.005 C 
ENDBRANCH  13  15
ENDBRANCH   8  13
ENDBRANCH   4   7
ENDBRANCH   2   3
ENDBRANCH   1   2
BRANCH   1  26
ATOM     26  C   UNL     1       2.482   2.911   5.352  1.00  0.00     0.118 C 
BRANCH  26  27
ATOM     27  N   UNL     1       1.442   3.438   6.237  1.00  0.00    -0.352 N 
ATOM     28  C   UNL     1       0.735   2.918   7.291  1.00  0.00     0.251 C 
ATOM     29  H   UNL     1       1.198   4.370   6.031  1.00  0.00     0.163 HD
ATOM     30  O   UNL     1      -0.243   3.549   7.703  1.00  0.00    -0.269 OA
BRANCH  28  31
ATOM     31  C   UNL     1       1.073   1.625   7.933  1.00  0.00     0.039 A 
ATOM     32  C   UNL     1       2.364   1.119   7.936  1.00  0.00     0.014 A 
ATOM     33  C   UNL     1       0.078   0.917   8.623  1.00  0.00     0.014 A 
ATOM     34  C   UNL     1       2.615  -0.167   8.395  1.00  0.00     0.010 A 
ATOM     35  C   UNL     1       0.373  -0.306   9.244  1.00  0.00     0.010 A 
ATOM     36  C   UNL     1       1.635  -0.892   9.088  1.00  0.00    -0.014 A 
BRANCH  36  37
ATOM     37  C   UNL     1       2.014  -2.210   9.673  1.00  0.00     0.031 A 
ATOM     38  C   UNL     1       1.308  -3.482   9.288  1.00  0.00     0.074 A 
ATOM     39  C   UNL     1       3.085  -2.271  10.492  1.00  0.00     0.049 A 
ATOM     40  N   UNL     1       1.662  -4.722   9.520  1.00  0.00    -0.248 NA
ATOM     41  C   UNL     1       0.047  -3.358   8.547  1.00  0.00     0.031 C 
ATOM     42  C   UNL     1       3.847  -1.112  10.969  1.00  0.00     0.029 A 
ATOM     43  N   UNL     1       3.752  -3.344  11.027  1.00  0.00    -0.354 N 
ATOM     44  C   UNL     1       0.688  -5.514   8.924  1.00  0.00     0.074 A 
ATOM     45  C   UNL     1      -0.302  -4.624   8.370  1.00  0.00     0.031 C 
ATOM     46  C   UNL     1       4.920  -1.538  11.646  1.00  0.00     0.029 A 
ATOM     47  C   UNL     1       4.879  -2.994  11.732  1.00  0.00     0.049 A 
ATOM     48  H   UNL     1       3.452  -4.276  10.917  1.00  0.00     0.167 HD
ATOM     49  C   UNL     1       0.628  -6.863   8.833  1.00  0.00     0.031 A 
ATOM     50  C   UNL     1       5.780  -3.748  12.389  1.00  0.00     0.031 A 
ATOM     51  C   UNL     1       1.573  -7.753   9.450  1.00  0.00     0.049 A 
ATOM     52  C   UNL     1       5.630  -5.241  12.369  1.00  0.00     0.074 A 
ATOM     53  C   UNL     1       1.593  -9.136   9.419  1.00  0.00     0.029 A 
ATOM     54  N   UNL     1       2.639  -7.351  10.238  1.00  0.00    -0.354 N 
ATOM     55  N   UNL     1       4.758  -5.970  11.716  1.00  0.00    -0.248 NA
ATOM     56  C   UNL     1       6.583  -6.015  13.174  1.00  0.00     0.031 C 
ATOM     57  C   UNL     1       2.611  -9.572  10.268  1.00  0.00     0.029 A 
ATOM     58  C   UNL     1       3.285  -8.462  10.752  1.00  0.00     0.049 A 
ATOM     59  H   UNL     1       2.898  -6.416  10.407  1.00  0.00     0.167 HD
ATOM     60  C   UNL     1       5.058  -7.289  12.028  1.00  0.00     0.074 A 
ATOM     61  C   UNL     1       6.215  -7.260  12.899  1.00  0.00     0.031 C 
ATOM     62  C   UNL     1       4.424  -8.421  11.634  1.00  0.00     0.031 A 
BRANCH  49  63
ATOM     63  C   UNL     1      -0.505  -7.479   8.057  1.00  0.00    -0.014 A 
ATOM     64  C   UNL     1      -1.490  -8.221   8.728  1.00  0.00     0.009 A 
ATOM     65  C   UNL     1      -0.528  -7.432   6.654  1.00  0.00     0.009 A 
ATOM     66  C   UNL     1      -2.458  -8.927   8.011  1.00  0.00     0.001 A 
ATOM     67  C   UNL     1      -1.513  -8.120   5.940  1.00  0.00     0.001 A 
ATOM     68  C   UNL     1      -2.468  -8.876   6.618  1.00  0.00     0.000 A 
ENDBRANCH  49  63
BRANCH  50  69
ATOM     69  C   UNL     1       6.886  -3.079  13.128  1.00  0.00    -0.014 A 
ATOM     70  C   UNL     1       6.599  -2.232  14.214  1.00  0.00     0.009 A 
ATOM     71  C   UNL     1       8.220  -3.223  12.722  1.00  0.00     0.009 A 
ATOM     72  C   UNL     1       7.613  -1.511  14.846  1.00  0.00     0.001 A 
ATOM     73  C   UNL     1       9.239  -2.532  13.383  1.00  0.00     0.001 A 
ATOM     74  C   UNL     1       8.934  -1.666  14.433  1.00  0.00     0.000 A 
ENDBRANCH  50  69
BRANCH  62  75
ATOM     75  C   UNL     1       4.945  -9.733  12.149  1.00  0.00    -0.014 A 
ATOM     76  C   UNL     1       5.495 -10.668  11.257  1.00  0.00     0.009 A 
ATOM     77  C   UNL     1       4.792 -10.091  13.498  1.00  0.00     0.009 A 
ATOM     78  C   UNL     1       5.861 -11.940  11.698  1.00  0.00     0.001 A 
ATOM     79  C   UNL     1       5.195 -11.350  13.944  1.00  0.00     0.001 A 
ATOM     80  C   UNL     1       5.716 -12.277  13.043  1.00  0.00     0.000 A 
ENDBRANCH  62  75
ENDBRANCH  36  37
ENDBRANCH  28  31
ENDBRANCH  26  27
ENDBRANCH   1  26
TORSDOF 12
