REMARK SMILES Cc1ccc(-n2nc(C(=O)NCCCNC(=O)c3ccc(-c4c5nc(c(-c6ccccc6)c6ccc([nH]6)c(-c6ccccc6)c6nc(c(-c7ccccc7)c7ccc4[nH]7)C=C6)C=C5)cc3)c(C)c(C#N)c2=O)cc1Cl
REMARK SMILES IDX 13 1 12 2 11 3 9 4 10 5 8 7 6 8 7 9 71 10 68 11 72 12 66 13
REMARK SMILES IDX 67 14 5 15 1 16 2 17 3 18 74 19 4 20 73 21 75 22 69 23 70 24
REMARK SMILES IDX 14 25 15 26 16 27 17 29 18 30 19 31 65 32 20 33 64 34 21 35
REMARK SMILES IDX 22 36 23 37 58 38 24 39 63 40 57 41 59 42 25 43 62 44 56 45
REMARK SMILES IDX 55 46 26 48 48 49 33 50 47 51 34 52 37 53 46 54 60 55 35 56
REMARK SMILES IDX 36 57 45 59 61 60 38 61 27 62 28 63 32 64 29 65 31 66 30 67
REMARK SMILES IDX 49 68 50 69 54 70 51 71 53 72 52 73 39 74 40 75 44 76 41 77
REMARK SMILES IDX 43 78 42 79
REMARK H PARENT 11 6 15 28 59 47 37 58
REMARK Flexibility Score: inf
ROOT
ATOM      1  C   UNL     1      -4.769  -8.289   1.121  1.00  0.00     0.042 C 
ENDROOT
BRANCH   1   2
ATOM      2  C   UNL     1      -5.010  -7.101   2.053  1.00  0.00     0.118 C 
BRANCH   2   3
ATOM      3  N   UNL     1      -3.784  -6.392   2.309  1.00  0.00    -0.351 N 
ATOM      4  C   UNL     1      -3.087  -5.346   1.783  1.00  0.00     0.272 C 
ATOM      5  O   UNL     1      -2.028  -5.131   2.388  1.00  0.00    -0.267 OA
ATOM      6  H   UNL     1      -3.315  -6.772   3.087  1.00  0.00     0.163 HD
BRANCH   4   7
ATOM      7  C   UNL     1      -3.428  -4.375   0.619  1.00  0.00     0.153 A 
ATOM      8  N   UNL     1      -2.774  -2.317  -0.217  1.00  0.00    -0.195 N 
ATOM      9  N   UNL     1      -2.654  -3.325   0.679  1.00  0.00    -0.159 NA
ATOM     10  C   UNL     1      -3.663  -2.317  -1.274  1.00  0.00     0.289 A 
ATOM     11  C   UNL     1      -4.493  -3.529  -1.388  1.00  0.00     0.124 A 
ATOM     12  O   UNL     1      -3.769  -1.429  -2.119  1.00  0.00    -0.266 OA
ATOM     13  C   UNL     1      -4.431  -4.539  -0.493  1.00  0.00     0.006 A 
ATOM     14  C   UNL     1      -5.270  -5.747  -0.714  1.00  0.00     0.048 C 
BRANCH   8  15
ATOM     15  C   UNL     1      -1.917  -1.212   0.008  1.00  0.00     0.070 A 
ATOM     16  C   UNL     1       0.665   2.236   0.083  1.00  0.00     0.046 C 
ATOM     17  C   UNL     1      -0.214   1.021   0.134  1.00  0.00    -0.032 A 
ATOM     18  C   UNL     1      -1.597   1.190   0.007  1.00  0.00     0.007 A 
ATOM     19  C   UNL     1       0.300  -0.282   0.253  1.00  0.00     0.046 A 
ATOM     20  C   UNL     1      -2.436   0.084  -0.070  1.00  0.00     0.029 A 
ATOM     21  C   UNL     1      -0.549  -1.395   0.228  1.00  0.00     0.049 A 
ATOM     22  Cl  UNL     1       2.002  -0.564   0.365  1.00  0.00    -0.084 Cl
ENDBRANCH   8  15
BRANCH  11  23
ATOM     23  C   UNL     1      -5.352  -3.562  -2.531  1.00  0.00     0.105 C 
ATOM     24  N   UNL     1      -6.063  -3.662  -3.438  1.00  0.00    -0.192 NA
ENDBRANCH  11  23
ENDBRANCH   4   7
ENDBRANCH   2   3
ENDBRANCH   1   2
BRANCH   1  25
ATOM     25  C   UNL     1      -4.761  -9.621   1.845  1.00  0.00     0.118 C 
BRANCH  25  26
ATOM     26  N   UNL     1      -6.084  -9.934   2.365  1.00  0.00    -0.352 N 
ATOM     27  C   UNL     1      -6.869 -11.037   2.151  1.00  0.00     0.251 C 
ATOM     28  H   UNL     1      -6.473  -9.252   2.959  1.00  0.00     0.163 HD
ATOM     29  O   UNL     1      -8.054 -11.008   2.468  1.00  0.00    -0.269 OA
BRANCH  27  30
ATOM     30  C   UNL     1      -6.293 -12.243   1.525  1.00  0.00     0.039 A 
ATOM     31  C   UNL     1      -7.073 -12.975   0.627  1.00  0.00     0.014 A 
ATOM     32  C   UNL     1      -4.992 -12.653   1.827  1.00  0.00     0.014 A 
ATOM     33  C   UNL     1      -6.524 -14.086  -0.011  1.00  0.00     0.010 A 
ATOM     34  C   UNL     1      -4.415 -13.695   1.116  1.00  0.00     0.010 A 
ATOM     35  C   UNL     1      -5.180 -14.430   0.202  1.00  0.00    -0.014 A 
BRANCH  35  36
ATOM     36  C   UNL     1      -4.550 -15.566  -0.508  1.00  0.00     0.031 A 
ATOM     37  C   UNL     1      -4.032 -16.738   0.276  1.00  0.00     0.074 A 
ATOM     38  C   UNL     1      -4.394 -15.506  -1.845  1.00  0.00     0.049 A 
ATOM     39  N   UNL     1      -3.377 -17.787  -0.150  1.00  0.00    -0.248 NA
ATOM     40  C   UNL     1      -4.258 -16.725   1.733  1.00  0.00     0.031 C 
ATOM     41  C   UNL     1      -4.839 -14.405  -2.703  1.00  0.00     0.029 A 
ATOM     42  N   UNL     1      -3.814 -16.392  -2.716  1.00  0.00    -0.354 N 
ATOM     43  C   UNL     1      -3.110 -18.548   0.980  1.00  0.00     0.074 A 
ATOM     44  C   UNL     1      -3.619 -17.819   2.119  1.00  0.00     0.031 C 
ATOM     45  C   UNL     1      -4.548 -14.698  -3.980  1.00  0.00     0.029 A 
ATOM     46  C   UNL     1      -3.847 -15.977  -4.026  1.00  0.00     0.049 A 
ATOM     47  H   UNL     1      -3.413 -17.244  -2.430  1.00  0.00     0.167 HD
ATOM     48  C   UNL     1      -2.517 -19.761   1.055  1.00  0.00     0.031 A 
ATOM     49  C   UNL     1      -3.357 -16.558  -5.136  1.00  0.00     0.031 A 
ATOM     50  C   UNL     1      -2.023 -20.484  -0.085  1.00  0.00     0.049 A 
ATOM     51  C   UNL     1      -2.660 -17.885  -5.012  1.00  0.00     0.074 A 
ATOM     52  C   UNL     1      -1.433 -21.735  -0.116  1.00  0.00     0.029 A 
ATOM     53  N   UNL     1      -2.065 -20.024  -1.391  1.00  0.00    -0.354 N 
ATOM     54  N   UNL     1      -2.453 -18.612  -3.941  1.00  0.00    -0.248 NA
ATOM     55  C   UNL     1      -2.143 -18.479  -6.252  1.00  0.00     0.031 C 
ATOM     56  C   UNL     1      -1.060 -22.005  -1.434  1.00  0.00     0.029 A 
ATOM     57  C   UNL     1      -1.492 -20.959  -2.235  1.00  0.00     0.049 A 
ATOM     58  H   UNL     1      -2.445 -19.162  -1.677  1.00  0.00     0.167 HD
ATOM     59  C   UNL     1      -1.819 -19.766  -4.383  1.00  0.00     0.074 A 
ATOM     60  C   UNL     1      -1.690 -19.648  -5.821  1.00  0.00     0.031 C 
ATOM     61  C   UNL     1      -1.385 -20.830  -3.665  1.00  0.00     0.031 A 
BRANCH  48  62
ATOM     62  C   UNL     1      -2.378 -20.401   2.408  1.00  0.00    -0.014 A 
ATOM     63  C   UNL     1      -3.499 -20.904   3.088  1.00  0.00     0.009 A 
ATOM     64  C   UNL     1      -1.103 -20.602   2.959  1.00  0.00     0.009 A 
ATOM     65  C   UNL     1      -3.345 -21.592   4.293  1.00  0.00     0.001 A 
ATOM     66  C   UNL     1      -0.949 -21.316   4.148  1.00  0.00     0.001 A 
ATOM     67  C   UNL     1      -2.070 -21.809   4.815  1.00  0.00     0.000 A 
ENDBRANCH  48  62
BRANCH  49  68
ATOM     68  C   UNL     1      -3.519 -15.900  -6.461  1.00  0.00    -0.014 A 
ATOM     69  C   UNL     1      -4.329 -16.479  -7.451  1.00  0.00     0.009 A 
ATOM     70  C   UNL     1      -2.862 -14.693  -6.748  1.00  0.00     0.009 A 
ATOM     71  C   UNL     1      -4.449 -15.883  -8.709  1.00  0.00     0.001 A 
ATOM     72  C   UNL     1      -3.014 -14.079  -7.993  1.00  0.00     0.001 A 
ATOM     73  C   UNL     1      -3.796 -14.681  -8.977  1.00  0.00     0.000 A 
ENDBRANCH  49  68
BRANCH  61  74
ATOM     74  C   UNL     1      -0.782 -21.981  -4.421  1.00  0.00    -0.014 A 
ATOM     75  C   UNL     1       0.468 -21.874  -5.049  1.00  0.00     0.009 A 
ATOM     76  C   UNL     1      -1.452 -23.215  -4.445  1.00  0.00     0.009 A 
ATOM     77  C   UNL     1       1.017 -22.971  -5.716  1.00  0.00     0.001 A 
ATOM     78  C   UNL     1      -0.883 -24.320  -5.079  1.00  0.00     0.001 A 
ATOM     79  C   UNL     1       0.345 -24.193  -5.723  1.00  0.00     0.000 A 
ENDBRANCH  61  74
ENDBRANCH  35  36
ENDBRANCH  27  30
ENDBRANCH  25  26
ENDBRANCH   1  25
TORSDOF 12
