REMARK SMILES Cc1cc(/C=C2/C(=O)NC(=S)[NH+]=C2NCCCNC(=O)c2ccc(-c3c4nc(c(-c5ccccc5)c5ccc([nH]5)c(-c5ccccc5)c5nc(c(-c6ccccc6)c6ccc3[nH]6)C=C5)C=C4)cc2)c(C)n1-c1cccc(C(=O)[O-])c1
REMARK SMILES IDX 16 1 15 2 14 3 5 4 6 5 7 6 13 7 8 8 9 9 12 10 10 11 11 15
REMARK SMILES IDX 4 16 1 17 2 18 3 19 71 20 69 21 70 22 72 23 73 24 80 25
REMARK SMILES IDX 74 26 76 27 75 28 77 29 78 30 79 31 17 32 18 33 19 34 20 36
REMARK SMILES IDX 21 37 22 38 68 39 23 40 67 41 24 42 25 43 26 44 61 45 27 46
REMARK SMILES IDX 66 47 60 48 62 49 28 50 65 51 59 52 58 53 29 55 51 56 36 57
REMARK SMILES IDX 50 58 37 59 40 60 49 61 63 62 38 63 39 64 48 66 64 67 41 68
REMARK SMILES IDX 30 69 31 70 35 71 32 72 34 73 33 74 52 75 53 76 57 77 54 78
REMARK SMILES IDX 56 79 55 80 42 81 43 82 47 83 44 84 46 85 45 86
REMARK H PARENT 9 12 12 13 14 14 18 35 62 54 40 65
REMARK Flexibility Score: inf
ROOT
ATOM      1  C   UNL     1      -1.724  -3.348  -3.555  1.00  0.00     0.059 C 
ENDROOT
BRANCH   1   2
ATOM      2  C   UNL     1      -2.471  -4.487  -2.977  1.00  0.00     0.195 C 
BRANCH   2   3
ATOM      3  N   UNL     1      -1.593  -5.587  -3.131  1.00  0.00    -0.305 N 
ATOM      4  C   UNL     1       0.709  -4.915  -0.564  1.00  0.00     0.032 C 
ATOM      5  C   UNL     1       0.110  -6.007  -1.130  1.00  0.00     0.128 C 
ATOM      6  C   UNL     1       0.681  -7.288  -0.529  1.00  0.00     0.319 C 
ATOM      7  C   UNL     1      -0.883  -6.322  -2.245  1.00  0.00     0.234 C 
ATOM      8  O   UNL     1       1.555  -7.322   0.335  1.00  0.00    -0.250 OA
ATOM      9  N   UNL     1       0.193  -8.472  -1.005  1.00  0.00    -0.229 N 
ATOM     10  N   UNL     1      -1.193  -7.543  -2.606  1.00  0.00    -0.236 N 
ATOM     11  C   UNL     1      -0.716  -8.639  -1.994  1.00  0.00     0.295 C 
ATOM     12  H   UNL     1       0.540  -9.291  -0.584  1.00  0.00     0.268 HD
ATOM     13  H   UNL     1      -1.808  -7.663  -3.365  1.00  0.00     0.268 HD
ATOM     14  H   UNL     1      -1.477  -5.874  -4.066  1.00  0.00     0.256 HD
ATOM     15  S   UNL     1      -1.207 -10.184  -2.412  1.00  0.00    -0.005 S 
BRANCH   4  16
ATOM     16  C   UNL     1       0.706  -3.484  -0.744  1.00  0.00    -0.003 A 
ATOM     17  C   UNL     1       1.703   0.064  -0.002  1.00  0.00     0.065 C 
ATOM     18  C   UNL     1       1.275  -1.254  -0.551  1.00  0.00     0.020 A 
ATOM     19  C   UNL     1       1.732  -2.556  -0.305  1.00  0.00     0.031 A 
ATOM     20  N   UNL     1       0.235  -1.476  -1.447  1.00  0.00    -0.318 N 
ATOM     21  C   UNL     1      -0.360  -2.615  -0.866  1.00  0.00     0.027 A 
ATOM     22  C   UNL     1      -1.725  -2.719  -0.282  1.00  0.00     0.065 C 
BRANCH  20  23
ATOM     23  C   UNL     1      -0.278  -0.623  -2.502  1.00  0.00     0.046 A 
ATOM     24  C   UNL     1      -1.337   0.647  -1.871  1.00  0.00     0.026 A 
ATOM     25  C   UNL     1      -0.497  -1.238  -4.243  1.00  0.00     0.036 A 
ATOM     26  C   UNL     1      -2.635   1.348  -2.852  1.00  0.00     0.003 A 
ATOM     27  C   UNL     1      -1.903  -0.459  -5.324  1.00  0.00    -0.001 A 
ATOM     28  C   UNL     1      -2.925   0.838  -4.522  1.00  0.00     0.010 A 
BRANCH  27  29
ATOM     29  C   UNL     1      -2.332  -0.329  -6.746  1.00  0.00     0.072 C 
ATOM     30  O   UNL     1      -2.896   0.676  -7.160  1.00  0.00    -0.545 OA
ATOM     31  O   UNL     1      -1.971  -1.267  -7.606  1.00  0.00    -0.545 OA
ENDBRANCH  27  29
ENDBRANCH  20  23
ENDBRANCH   4  16
ENDBRANCH   2   3
ENDBRANCH   1   2
BRANCH   1  32
ATOM     32  C   UNL     1      -2.639  -2.187  -3.911  1.00  0.00     0.119 C 
BRANCH  32  33
ATOM     33  N   UNL     1      -2.065  -0.607  -3.433  1.00  0.00    -0.352 N 
ATOM     34  C   UNL     1      -0.769   0.682  -4.215  1.00  0.00     0.251 C 
ATOM     35  H   UNL     1      -2.471  -0.286  -2.596  1.00  0.00     0.163 HD
ATOM     36  O   UNL     1      -0.478   1.827  -3.797  1.00  0.00    -0.269 OA
BRANCH  34  37
ATOM     37  C   UNL     1       0.211   0.343  -5.872  1.00  0.00     0.039 A 
ATOM     38  C   UNL     1       0.307   1.245  -6.928  1.00  0.00     0.014 A 
ATOM     39  C   UNL     1       0.605  -0.959  -6.586  1.00  0.00     0.014 A 
ATOM     40  C   UNL     1       0.662   0.803  -8.432  1.00  0.00     0.010 A 
ATOM     41  C   UNL     1       0.981  -1.387  -8.057  1.00  0.00     0.010 A 
ATOM     42  C   UNL     1       1.015  -0.519  -9.116  1.00  0.00    -0.014 A 
BRANCH  42  43
ATOM     43  C   UNL     1       1.573  -0.790 -10.821  1.00  0.00     0.031 A 
ATOM     44  C   UNL     1       1.821   0.611 -11.113  1.00  0.00     0.074 A 
ATOM     45  C   UNL     1       1.709  -1.502 -12.133  1.00  0.00     0.049 A 
ATOM     46  N   UNL     1       0.719   1.235 -11.350  1.00  0.00    -0.248 NA
ATOM     47  C   UNL     1       2.930   1.425 -10.653  1.00  0.00     0.031 C 
ATOM     48  C   UNL     1       1.087  -2.767 -12.660  1.00  0.00     0.029 A 
ATOM     49  N   UNL     1       2.417  -1.158 -13.463  1.00  0.00    -0.354 N 
ATOM     50  C   UNL     1       0.948   2.567 -11.150  1.00  0.00     0.074 A 
ATOM     51  C   UNL     1       2.340   2.633 -10.688  1.00  0.00     0.031 C 
ATOM     52  C   UNL     1       1.512  -3.156 -13.922  1.00  0.00     0.029 A 
ATOM     53  C   UNL     1       2.473  -2.228 -14.556  1.00  0.00     0.049 A 
ATOM     54  H   UNL     1       2.821  -0.272 -13.604  1.00  0.00     0.167 HD
ATOM     55  C   UNL     1       0.209   3.314 -12.004  1.00  0.00     0.031 A 
ATOM     56  C   UNL     1       3.104  -2.299 -15.870  1.00  0.00     0.031 A 
ATOM     57  C   UNL     1       0.893   3.279 -13.275  1.00  0.00     0.049 A 
ATOM     58  C   UNL     1       2.865  -0.973 -16.434  1.00  0.00     0.074 A 
ATOM     59  C   UNL     1       2.249   3.291 -13.564  1.00  0.00     0.029 A 
ATOM     60  N   UNL     1       0.260   2.663 -14.327  1.00  0.00    -0.354 N 
ATOM     61  N   UNL     1       1.729  -0.681 -16.990  1.00  0.00    -0.248 NA
ATOM     62  C   UNL     1       3.923   0.007 -16.613  1.00  0.00     0.031 C 
ATOM     63  C   UNL     1       2.416   2.278 -14.516  1.00  0.00     0.029 A 
ATOM     64  C   UNL     1       1.192   2.052 -15.127  1.00  0.00     0.049 A 
ATOM     65  H   UNL     1      -0.712   2.660 -14.482  1.00  0.00     0.167 HD
ATOM     66  C   UNL     1       1.748   0.675 -16.960  1.00  0.00     0.074 A 
ATOM     67  C   UNL     1       3.162   1.040 -16.985  1.00  0.00     0.031 C 
ATOM     68  C   UNL     1       0.757   1.205 -16.201  1.00  0.00     0.031 A 
BRANCH  55  69
ATOM     69  C   UNL     1      -1.283   2.971 -11.805  1.00  0.00    -0.014 A 
ATOM     70  C   UNL     1      -2.090   3.891 -11.130  1.00  0.00     0.009 A 
ATOM     71  C   UNL     1      -1.845   1.689 -12.063  1.00  0.00     0.009 A 
ATOM     72  C   UNL     1      -3.382   3.538 -10.707  1.00  0.00     0.001 A 
ATOM     73  C   UNL     1      -3.115   1.324 -11.603  1.00  0.00     0.001 A 
ATOM     74  C   UNL     1      -3.886   2.255 -10.924  1.00  0.00     0.000 A 
ENDBRANCH  55  69
BRANCH  56  75
ATOM     75  C   UNL     1       3.647  -3.097 -17.268  1.00  0.00    -0.014 A 
ATOM     76  C   UNL     1       3.511  -2.507 -18.606  1.00  0.00     0.009 A 
ATOM     77  C   UNL     1       4.687  -4.045 -17.256  1.00  0.00     0.009 A 
ATOM     78  C   UNL     1       4.377  -2.732 -19.726  1.00  0.00     0.001 A 
ATOM     79  C   UNL     1       5.542  -4.303 -18.399  1.00  0.00     0.001 A 
ATOM     80  C   UNL     1       5.420  -3.624 -19.612  1.00  0.00     0.000 A 
ENDBRANCH  56  75
BRANCH  68  81
ATOM     81  C   UNL     1      -0.650   0.665 -16.373  1.00  0.00    -0.014 A 
ATOM     82  C   UNL     1      -1.014  -0.699 -16.436  1.00  0.00     0.009 A 
ATOM     83  C   UNL     1      -1.677   1.603 -16.534  1.00  0.00     0.009 A 
ATOM     84  C   UNL     1      -2.332  -1.099 -16.692  1.00  0.00     0.001 A 
ATOM     85  C   UNL     1      -3.001   1.208 -16.740  1.00  0.00     0.001 A 
ATOM     86  C   UNL     1      -3.327  -0.141 -16.838  1.00  0.00     0.000 A 
ENDBRANCH  68  81
ENDBRANCH  42  43
ENDBRANCH  34  37
ENDBRANCH  32  33
ENDBRANCH   1  32
TORSDOF 12
