REMARK SMILES C[NH2+][C@]1(C(=O)NCCCNC(=O)c2ccc(-c3c4nc(c(-c5ccccc5)c5ccc([nH]5)c(-c5ccccc5)c5nc(c(-c6ccccc6)c6ccc3[nH]6)C=C5)C=C4)cc2)CCC[C@@H](Sc2nncs2)C1
REMARK SMILES IDX 8 1 7 2 6 3 4 4 5 5 3 7 61 8 71 9 62 10 64 11 63 12 2 13
REMARK SMILES IDX 1 14 65 17 66 18 67 19 70 20 68 21 69 22 9 23 10 24 11 25
REMARK SMILES IDX 12 27 13 28 14 29 60 30 15 31 59 32 16 33 17 34 18 35 53 36
REMARK SMILES IDX 19 37 58 38 52 39 54 40 20 41 57 42 51 43 50 44 21 46 43 47
REMARK SMILES IDX 28 48 42 49 29 50 32 51 41 52 55 53 30 54 31 55 40 57 56 58
REMARK SMILES IDX 33 59 22 60 23 61 27 62 24 63 26 64 25 65 44 66 45 67 49 68
REMARK SMILES IDX 46 69 48 70 47 71 34 72 35 73 39 74 36 75 38 76 37 77
REMARK H PARENT 6 6 2 15 2 16 10 26 54 45 32 56
REMARK Flexibility Score: inf
ROOT
ATOM      1  C   UNL     1       0.985  -3.335   2.329  1.00  0.00     0.042 C 
ENDROOT
BRANCH   1   2
ATOM      2  C   UNL     1       0.811  -1.888   1.876  1.00  0.00     0.118 C 
BRANCH   2   3
ATOM      3  N   UNL     1       1.138  -1.724   0.467  1.00  0.00    -0.351 N 
ATOM      4  C   UNL     1       0.371  -1.576  -0.649  1.00  0.00     0.281 C 
ATOM      5  O   UNL     1       0.994  -1.449  -1.713  1.00  0.00    -0.268 OA
ATOM      6  H   UNL     1       2.106  -1.721   0.284  1.00  0.00     0.163 HD
BRANCH   4   7
ATOM      7  C   UNL     1      -1.199  -1.492  -0.617  1.00  0.00     0.176 C 
ATOM      8  C   UNL     1      -1.846  -2.719   0.065  1.00  0.00     0.079 C 
ATOM      9  C   UNL     1      -1.587  -0.168   0.094  1.00  0.00     0.094 C 
ATOM     10  C   UNL     1      -3.346  -2.563   0.305  1.00  0.00     0.008 C 
ATOM     11  C   UNL     1      -3.086  -0.061   0.404  1.00  0.00     0.061 C 
ATOM     12  C   UNL     1      -3.632  -1.303   1.117  1.00  0.00     0.015 C 
BRANCH   7  13
ATOM     13  N   UNL     1      -1.694  -1.313  -2.025  1.00  0.00    -0.336 N 
ATOM     14  C   UNL     1      -1.716  -2.522  -2.842  1.00  0.00     0.331 C 
ATOM     15  H   UNL     1      -2.645  -0.948  -1.980  1.00  0.00     0.346 HD
ATOM     16  H   UNL     1      -1.032  -0.682  -2.477  1.00  0.00     0.346 HD
ENDBRANCH   7  13
BRANCH  11  17
ATOM     17  S   UNL     1      -3.509   1.483   1.301  1.00  0.00    -0.090 SA
BRANCH  17  18
ATOM     18  C   UNL     1      -2.870   1.205   2.902  1.00  0.00     0.174 A 
ATOM     19  N   UNL     1      -1.638   0.799   3.123  1.00  0.00    -0.132 NA
ATOM     20  S   UNL     1      -3.792   1.454   4.327  1.00  0.00    -0.094 S 
ATOM     21  N   UNL     1      -1.365   0.649   4.468  1.00  0.00    -0.146 NA
ATOM     22  C   UNL     1      -2.405   0.966   5.209  1.00  0.00     0.203 A 
ENDBRANCH  17  18
ENDBRANCH  11  17
ENDBRANCH   4   7
ENDBRANCH   2   3
ENDBRANCH   1   2
BRANCH   1  23
ATOM     23  C   UNL     1       2.442  -3.764   2.451  1.00  0.00     0.118 C 
BRANCH  23  24
ATOM     24  N   UNL     1       3.103  -3.155   3.595  1.00  0.00    -0.352 N 
ATOM     25  C   UNL     1       3.740  -3.742   4.660  1.00  0.00     0.251 C 
ATOM     26  H   UNL     1       3.093  -2.170   3.606  1.00  0.00     0.163 HD
ATOM     27  O   UNL     1       4.070  -3.058   5.624  1.00  0.00    -0.269 OA
BRANCH  25  28
ATOM     28  C   UNL     1       4.017  -5.196   4.667  1.00  0.00     0.039 A 
ATOM     29  C   UNL     1       3.832  -5.907   5.857  1.00  0.00     0.014 A 
ATOM     30  C   UNL     1       4.496  -5.853   3.530  1.00  0.00     0.014 A 
ATOM     31  C   UNL     1       4.075  -7.282   5.893  1.00  0.00     0.010 A 
ATOM     32  C   UNL     1       4.671  -7.235   3.547  1.00  0.00     0.010 A 
ATOM     33  C   UNL     1       4.469  -7.962   4.730  1.00  0.00    -0.014 A 
BRANCH  33  34
ATOM     34  C   UNL     1       4.687  -9.430   4.734  1.00  0.00     0.031 A 
ATOM     35  C   UNL     1       6.061  -9.992   4.491  1.00  0.00     0.074 A 
ATOM     36  C   UNL     1       3.638 -10.260   4.894  1.00  0.00     0.049 A 
ATOM     37  N   UNL     1       6.434 -11.243   4.389  1.00  0.00    -0.248 NA
ATOM     38  C   UNL     1       7.154  -9.022   4.318  1.00  0.00     0.031 C 
ATOM     39  C   UNL     1       2.250  -9.843   5.105  1.00  0.00     0.029 A 
ATOM     40  N   UNL     1       3.578 -11.631   4.897  1.00  0.00    -0.354 N 
ATOM     41  C   UNL     1       7.797 -11.209   4.119  1.00  0.00     0.074 A 
ATOM     42  C   UNL     1       8.176  -9.815   4.033  1.00  0.00     0.031 C 
ATOM     43  C   UNL     1       1.480 -10.935   5.237  1.00  0.00     0.029 A 
ATOM     44  C   UNL     1       2.310 -12.125   5.085  1.00  0.00     0.049 A 
ATOM     45  H   UNL     1       4.368 -12.206   4.776  1.00  0.00     0.167 HD
ATOM     46  C   UNL     1       8.659 -12.243   3.970  1.00  0.00     0.031 A 
ATOM     47  C   UNL     1       1.864 -13.395   5.123  1.00  0.00     0.031 A 
ATOM     48  C   UNL     1       8.288 -13.629   4.072  1.00  0.00     0.049 A 
ATOM     49  C   UNL     1       2.840 -14.524   4.953  1.00  0.00     0.074 A 
ATOM     50  C   UNL     1       9.100 -14.747   3.992  1.00  0.00     0.029 A 
ATOM     51  N   UNL     1       6.996 -14.085   4.277  1.00  0.00    -0.354 N 
ATOM     52  N   UNL     1       4.135 -14.474   4.755  1.00  0.00    -0.248 NA
ATOM     53  C   UNL     1       2.292 -15.887   5.022  1.00  0.00     0.031 C 
ATOM     54  C   UNL     1       8.292 -15.883   4.109  1.00  0.00     0.029 A 
ATOM     55  C   UNL     1       6.985 -15.470   4.308  1.00  0.00     0.049 A 
ATOM     56  H   UNL     1       6.204 -13.511   4.385  1.00  0.00     0.167 HD
ATOM     57  C   UNL     1       4.561 -15.795   4.703  1.00  0.00     0.074 A 
ATOM     58  C   UNL     1       3.389 -16.622   4.902  1.00  0.00     0.031 C 
ATOM     59  C   UNL     1       5.811 -16.278   4.510  1.00  0.00     0.031 A 
BRANCH  46  60
ATOM     60  C   UNL     1      10.094 -11.909   3.674  1.00  0.00    -0.014 A 
ATOM     61  C   UNL     1      10.928 -11.351   4.657  1.00  0.00     0.009 A 
ATOM     62  C   UNL     1      10.628 -12.185   2.407  1.00  0.00     0.009 A 
ATOM     63  C   UNL     1      12.258 -11.044   4.364  1.00  0.00     0.001 A 
ATOM     64  C   UNL     1      11.966 -11.902   2.125  1.00  0.00     0.001 A 
ATOM     65  C   UNL     1      12.777 -11.324   3.100  1.00  0.00     0.000 A 
ENDBRANCH  46  60
BRANCH  47  66
ATOM     66  C   UNL     1       0.422 -13.668   5.349  1.00  0.00    -0.014 A 
ATOM     67  C   UNL     1      -0.017 -14.191   6.575  1.00  0.00     0.009 A 
ATOM     68  C   UNL     1      -0.521 -13.410   4.343  1.00  0.00     0.009 A 
ATOM     69  C   UNL     1      -1.370 -14.472   6.780  1.00  0.00     0.001 A 
ATOM     70  C   UNL     1      -1.877 -13.668   4.560  1.00  0.00     0.001 A 
ATOM     71  C   UNL     1      -2.298 -14.206   5.775  1.00  0.00     0.000 A 
ENDBRANCH  47  66
BRANCH  59  72
ATOM     72  C   UNL     1       5.982 -17.769   4.540  1.00  0.00    -0.014 A 
ATOM     73  C   UNL     1       5.555 -18.573   3.473  1.00  0.00     0.009 A 
ATOM     74  C   UNL     1       6.617 -18.372   5.638  1.00  0.00     0.009 A 
ATOM     75  C   UNL     1       5.734 -19.957   3.518  1.00  0.00     0.001 A 
ATOM     76  C   UNL     1       6.817 -19.752   5.668  1.00  0.00     0.001 A 
ATOM     77  C   UNL     1       6.369 -20.544   4.613  1.00  0.00     0.000 A 
ENDBRANCH  59  72
ENDBRANCH  33  34
ENDBRANCH  25  28
ENDBRANCH  23  24
ENDBRANCH   1  23
TORSDOF 13
