REMARK SMILES CC(C)C[C@H](CNC(=O)c1ccc(O)cc1O)C(=O)NCCCNC(=O)c1ccc(-c2c3nc(c(-c4ccccc4)c4ccc([nH]4)c(-c4ccccc4)c4nc(c(-c5ccccc5)c5ccc2[nH]5)C=C4)C=C3)cc1
REMARK SMILES IDX 21 1 20 2 18 3 19 4 5 6 4 7 2 8 1 9 3 10 6 11 7 12 8 13 9 15
REMARK SMILES IDX 10 16 11 17 16 18 12 19 15 20 13 21 17 22 14 24 22 26 23 27
REMARK SMILES IDX 24 28 25 29 26 31 27 32 28 33 74 34 29 35 73 36 30 37 31 38
REMARK SMILES IDX 32 39 67 40 33 41 72 42 66 43 68 44 34 45 71 46 65 47 64 48
REMARK SMILES IDX 35 50 57 51 42 52 56 53 43 54 46 55 55 56 69 57 44 58 45 59
REMARK SMILES IDX 54 61 70 62 47 63 36 64 37 65 41 66 38 67 40 68 39 69 58 70
REMARK SMILES IDX 59 71 63 72 60 73 62 74 61 75 48 76 49 77 53 78 50 79 52 80
REMARK SMILES IDX 51 81
REMARK H PARENT 20 5 7 14 17 23 14 25 24 30 68 49 46 60
REMARK Flexibility Score: inf
ROOT
ATOM      1  C   UNL     1      -3.504   2.869  -2.068  1.00  0.00     0.117 C 
ENDROOT
BRANCH   1   2
ATOM      2  N   UNL     1      -3.735   2.045  -0.894  1.00  0.00    -0.356 N 
ATOM      3  C   UNL     1      -2.904   1.497   0.025  1.00  0.00     0.224 C 
ATOM      4  O   UNL     1      -3.461   0.911   0.962  1.00  0.00    -0.275 OA
ATOM      5  H   UNL     1      -4.685   1.843  -0.735  1.00  0.00     0.163 HD
BRANCH   3   6
ATOM      6  C   UNL     1      -1.376   1.526  -0.032  1.00  0.00     0.098 C 
BRANCH   6   7
ATOM      7  C   UNL     1      -0.648   2.839   0.346  1.00  0.00     0.018 C 
BRANCH   7   8
ATOM      8  C   UNL     1      -0.674   4.043  -0.605  1.00  0.00    -0.017 C 
ATOM      9  C   UNL     1      -1.812   5.007  -0.251  1.00  0.00     0.007 C 
ATOM     10  C   UNL     1       0.646   4.821  -0.544  1.00  0.00     0.007 C 
ENDBRANCH   7   8
ENDBRANCH   6   7
BRANCH   6  11
ATOM     11  C   UNL     1      -0.715   0.643  -1.109  1.00  0.00     0.129 C 
BRANCH  11  12
ATOM     12  N   UNL     1      -1.225   0.766  -2.458  1.00  0.00    -0.351 N 
ATOM     13  C   UNL     1      -0.672   1.336  -3.571  1.00  0.00     0.255 C 
ATOM     14  H   UNL     1      -2.118   0.375  -2.597  1.00  0.00     0.163 HD
ATOM     15  O   UNL     1      -1.371   1.600  -4.548  1.00  0.00    -0.269 OA
BRANCH  13  16
ATOM     16  C   UNL     1       0.748   1.703  -3.619  1.00  0.00     0.081 A 
ATOM     17  C   UNL     1       1.730   0.738  -3.370  1.00  0.00     0.021 A 
ATOM     18  C   UNL     1       1.114   2.987  -4.038  1.00  0.00     0.132 A 
ATOM     19  C   UNL     1       3.078   1.072  -3.507  1.00  0.00     0.047 A 
ATOM     20  C   UNL     1       2.456   3.330  -4.146  1.00  0.00     0.093 A 
ATOM     21  C   UNL     1       3.427   2.366  -3.892  1.00  0.00     0.119 A 
BRANCH  18  22
ATOM     22  O   UNL     1       0.193   3.943  -4.375  1.00  0.00    -0.507 OA
ATOM     23  H   UNL     1      -0.722   3.752  -4.317  1.00  0.00     0.293 HD
ENDBRANCH  18  22
BRANCH  21  24
ATOM     24  O   UNL     1       4.733   2.723  -4.059  1.00  0.00    -0.508 OA
ATOM     25  H   UNL     1       5.413   2.099  -3.897  1.00  0.00     0.293 HD
ENDBRANCH  21  24
ENDBRANCH  13  16
ENDBRANCH  11  12
ENDBRANCH   6  11
ENDBRANCH   3   6
ENDBRANCH   1   2
BRANCH   1  26
ATOM     26  C   UNL     1      -4.148   2.305  -3.323  1.00  0.00     0.042 C 
BRANCH  26  27
ATOM     27  C   UNL     1      -5.657   2.467  -3.328  1.00  0.00     0.118 C 
BRANCH  27  28
ATOM     28  N   UNL     1      -6.062   3.828  -3.659  1.00  0.00    -0.352 N 
ATOM     29  C   UNL     1      -6.341   4.403  -4.878  1.00  0.00     0.251 C 
ATOM     30  H   UNL     1      -6.151   4.432  -2.887  1.00  0.00     0.163 HD
ATOM     31  O   UNL     1      -6.423   5.624  -4.969  1.00  0.00    -0.269 OA
BRANCH  29  32
ATOM     32  C   UNL     1      -6.521   3.562  -6.083  1.00  0.00     0.039 A 
ATOM     33  C   UNL     1      -6.019   3.998  -7.314  1.00  0.00     0.014 A 
ATOM     34  C   UNL     1      -7.207   2.352  -6.009  1.00  0.00     0.014 A 
ATOM     35  C   UNL     1      -6.139   3.181  -8.444  1.00  0.00     0.010 A 
ATOM     36  C   UNL     1      -7.208   1.487  -7.094  1.00  0.00     0.010 A 
ATOM     37  C   UNL     1      -6.694   1.896  -8.332  1.00  0.00    -0.014 A 
BRANCH  37  38
ATOM     38  C   UNL     1      -6.801   0.962  -9.484  1.00  0.00     0.031 A 
ATOM     39  C   UNL     1      -8.153   0.423  -9.879  1.00  0.00     0.074 A 
ATOM     40  C   UNL     1      -5.690   0.510 -10.099  1.00  0.00     0.049 A 
ATOM     41  N   UNL     1      -8.451  -0.539 -10.714  1.00  0.00    -0.248 NA
ATOM     42  C   UNL     1      -9.323   1.016  -9.207  1.00  0.00     0.031 C 
ATOM     43  C   UNL     1      -4.318   0.922  -9.795  1.00  0.00     0.029 A 
ATOM     44  N   UNL     1      -5.543  -0.417 -11.102  1.00  0.00    -0.354 N 
ATOM     45  C   UNL     1      -9.830  -0.694 -10.631  1.00  0.00     0.074 A 
ATOM     46  C   UNL     1     -10.303   0.231  -9.628  1.00  0.00     0.031 C 
ATOM     47  C   UNL     1      -3.473   0.271 -10.610  1.00  0.00     0.029 A 
ATOM     48  C   UNL     1      -4.234  -0.646 -11.453  1.00  0.00     0.049 A 
ATOM     49  H   UNL     1      -6.303  -0.875 -11.528  1.00  0.00     0.167 HD
ATOM     50  C   UNL     1     -10.636  -1.518 -11.342  1.00  0.00     0.031 A 
ATOM     51  C   UNL     1      -3.704  -1.510 -12.339  1.00  0.00     0.031 A 
ATOM     52  C   UNL     1     -10.169  -2.410 -12.368  1.00  0.00     0.049 A 
ATOM     53  C   UNL     1      -4.619  -2.416 -13.117  1.00  0.00     0.074 A 
ATOM     54  C   UNL     1     -10.909  -3.236 -13.193  1.00  0.00     0.029 A 
ATOM     55  N   UNL     1      -8.838  -2.582 -12.713  1.00  0.00    -0.354 N 
ATOM     56  N   UNL     1      -5.925  -2.517 -13.063  1.00  0.00    -0.248 NA
ATOM     57  C   UNL     1      -3.985  -3.324 -14.085  1.00  0.00     0.031 C 
ATOM     58  C   UNL     1     -10.022  -3.946 -14.007  1.00  0.00     0.029 A 
ATOM     59  C   UNL     1      -8.734  -3.515 -13.729  1.00  0.00     0.049 A 
ATOM     60  H   UNL     1      -8.079  -2.111 -12.298  1.00  0.00     0.167 HD
ATOM     61  C   UNL     1      -6.272  -3.468 -14.014  1.00  0.00     0.074 A 
ATOM     62  C   UNL     1      -5.040  -3.911 -14.634  1.00  0.00     0.031 C 
ATOM     63  C   UNL     1      -7.501  -3.930 -14.346  1.00  0.00     0.031 A 
BRANCH  50  64
ATOM     64  C   UNL     1     -12.107  -1.492 -11.030  1.00  0.00    -0.014 A 
ATOM     65  C   UNL     1     -12.899  -0.372 -11.333  1.00  0.00     0.009 A 
ATOM     66  C   UNL     1     -12.717  -2.615 -10.450  1.00  0.00     0.009 A 
ATOM     67  C   UNL     1     -14.260  -0.362 -11.022  1.00  0.00     0.001 A 
ATOM     68  C   UNL     1     -14.086  -2.616 -10.172  1.00  0.00     0.001 A 
ATOM     69  C   UNL     1     -14.853  -1.485 -10.447  1.00  0.00     0.000 A 
ENDBRANCH  50  64
BRANCH  51  70
ATOM     70  C   UNL     1      -2.233  -1.554 -12.551  1.00  0.00    -0.014 A 
ATOM     71  C   UNL     1      -1.675  -1.088 -13.752  1.00  0.00     0.009 A 
ATOM     72  C   UNL     1      -1.378  -2.062 -11.559  1.00  0.00     0.009 A 
ATOM     73  C   UNL     1      -0.296  -1.156 -13.966  1.00  0.00     0.001 A 
ATOM     74  C   UNL     1       0.003  -2.100 -11.765  1.00  0.00     0.001 A 
ATOM     75  C   UNL     1       0.541  -1.657 -12.972  1.00  0.00     0.000 A 
ENDBRANCH  51  70
BRANCH  63  76
ATOM     76  C   UNL     1      -7.591  -4.922 -15.471  1.00  0.00    -0.014 A 
ATOM     77  C   UNL     1      -7.188  -6.255 -15.306  1.00  0.00     0.009 A 
ATOM     78  C   UNL     1      -8.159  -4.526 -16.693  1.00  0.00     0.009 A 
ATOM     79  C   UNL     1      -7.333  -7.168 -16.352  1.00  0.00     0.001 A 
ATOM     80  C   UNL     1      -8.329  -5.447 -17.726  1.00  0.00     0.001 A 
ATOM     81  C   UNL     1      -7.910  -6.766 -17.557  1.00  0.00     0.000 A 
ENDBRANCH  63  76
ENDBRANCH  37  38
ENDBRANCH  29  32
ENDBRANCH  27  28
ENDBRANCH  26  27
ENDBRANCH   1  26
TORSDOF 17
