REMARK SMILES [NH3+][C@]1(C(=O)NCCCNC(=O)c2ccc(-c3c4nc(c(-c5ccccc5)c5ccc([nH]5)c(-c5ccccc5)c5nc(c(-c6ccccc6)c6ccc3[nH]6)C=C5)C=C4)cc2)CCC[C@@H](OC2CCC2)C1
REMARK SMILES IDX 7 1 6 2 5 3 3 4 4 5 2 7 60 8 69 9 61 10 63 11 62 12 1 13
REMARK SMILES IDX 64 17 65 18 66 19 68 20 67 21 8 22 9 23 10 24 11 26 12 27
REMARK SMILES IDX 13 28 59 29 14 30 58 31 15 32 16 33 17 34 52 35 18 36 57 37
REMARK SMILES IDX 51 38 53 39 19 40 56 41 50 42 49 43 20 45 42 46 27 47 41 48
REMARK SMILES IDX 28 49 31 50 40 51 54 52 29 53 30 54 39 56 55 57 32 58 21 59
REMARK SMILES IDX 22 60 26 61 23 62 25 63 24 64 43 65 44 66 48 67 45 68 47 69
REMARK SMILES IDX 46 70 33 71 34 72 38 73 35 74 37 75 36 76
REMARK H PARENT 5 6 1 14 1 15 1 16 9 25 53 44 31 55
REMARK Flexibility Score: inf
ROOT
ATOM      1  C   UNL     1      -1.882   3.392  -2.194  1.00  0.00     0.042 C 
ENDROOT
BRANCH   1   2
ATOM      2  C   UNL     1      -2.840   2.442  -1.473  1.00  0.00     0.118 C 
BRANCH   2   3
ATOM      3  N   UNL     1      -2.635   1.040  -1.772  1.00  0.00    -0.351 N 
ATOM      4  C   UNL     1      -2.091  -0.008  -1.094  1.00  0.00     0.281 C 
ATOM      5  O   UNL     1      -2.363  -1.109  -1.595  1.00  0.00    -0.268 OA
ATOM      6  H   UNL     1      -2.962   0.788  -2.665  1.00  0.00     0.163 HD
BRANCH   4   7
ATOM      7  C   UNL     1      -1.306   0.104   0.279  1.00  0.00     0.176 C 
ATOM      8  C   UNL     1      -0.620  -1.268   0.566  1.00  0.00     0.079 C 
ATOM      9  C   UNL     1      -0.306   1.268   0.408  1.00  0.00     0.111 C 
ATOM     10  C   UNL     1       0.822  -1.269   1.078  1.00  0.00     0.010 C 
ATOM     11  C   UNL     1       1.094   0.993  -0.144  1.00  0.00     0.125 C 
ATOM     12  C   UNL     1       1.758  -0.170   0.575  1.00  0.00     0.032 C 
BRANCH   7  13
ATOM     13  N   UNL     1      -2.358   0.298   1.317  1.00  0.00    -0.345 N 
ATOM     14  H   UNL     1      -3.038  -0.460   1.258  1.00  0.00     0.345 HD
ATOM     15  H   UNL     1      -2.828   1.190   1.162  1.00  0.00     0.345 HD
ATOM     16  H   UNL     1      -1.928   0.297   2.242  1.00  0.00     0.345 HD
ENDBRANCH   7  13
BRANCH  11  17
ATOM     17  O   UNL     1       0.989   1.048  -1.551  1.00  0.00    -0.375 OA
BRANCH  17  18
ATOM     18  C   UNL     1       1.474   0.140  -2.554  1.00  0.00     0.118 C 
ATOM     19  C   UNL     1       1.566  -1.384  -2.396  1.00  0.00     0.032 C 
ATOM     20  C   UNL     1       0.374  -0.078  -3.623  1.00  0.00     0.032 C 
ATOM     21  C   UNL     1       0.380  -1.576  -3.338  1.00  0.00     0.005 C 
ENDBRANCH  17  18
ENDBRANCH  11  17
ENDBRANCH   4   7
ENDBRANCH   2   3
ENDBRANCH   1   2
BRANCH   1  22
ATOM     22  C   UNL     1      -1.887   3.332  -3.719  1.00  0.00     0.118 C 
BRANCH  22  23
ATOM     23  N   UNL     1      -3.173   3.655  -4.316  1.00  0.00    -0.352 N 
ATOM     24  C   UNL     1      -3.624   4.770  -4.965  1.00  0.00     0.251 C 
ATOM     25  H   UNL     1      -3.843   2.937  -4.238  1.00  0.00     0.163 HD
ATOM     26  O   UNL     1      -4.830   4.841  -5.251  1.00  0.00    -0.269 OA
BRANCH  24  27
ATOM     27  C   UNL     1      -2.743   5.907  -5.316  1.00  0.00     0.039 A 
ATOM     28  C   UNL     1      -3.258   7.204  -5.202  1.00  0.00     0.014 A 
ATOM     29  C   UNL     1      -1.456   5.728  -5.828  1.00  0.00     0.014 A 
ATOM     30  C   UNL     1      -2.471   8.311  -5.535  1.00  0.00     0.010 A 
ATOM     31  C   UNL     1      -0.643   6.835  -6.089  1.00  0.00     0.010 A 
ATOM     32  C   UNL     1      -1.141   8.140  -5.947  1.00  0.00    -0.014 A 
BRANCH  32  33
ATOM     33  C   UNL     1      -0.264   9.310  -6.230  1.00  0.00     0.031 A 
ATOM     34  C   UNL     1       0.287   9.541  -7.612  1.00  0.00     0.074 A 
ATOM     35  C   UNL     1       0.082  10.144  -5.228  1.00  0.00     0.049 A 
ATOM     36  N   UNL     1       1.122  10.463  -8.025  1.00  0.00    -0.248 NA
ATOM     37  C   UNL     1      -0.139   8.605  -8.663  1.00  0.00     0.031 C 
ATOM     38  C   UNL     1      -0.361  10.027  -3.837  1.00  0.00     0.029 A 
ATOM     39  N   UNL     1       0.895  11.251  -5.224  1.00  0.00    -0.354 N 
ATOM     40  C   UNL     1       1.330  10.209  -9.376  1.00  0.00     0.074 A 
ATOM     41  C   UNL     1       0.572   9.020  -9.701  1.00  0.00     0.031 C 
ATOM     42  C   UNL     1       0.171  11.031  -3.120  1.00  0.00     0.029 A 
ATOM     43  C   UNL     1       1.028  11.834  -3.986  1.00  0.00     0.049 A 
ATOM     44  H   UNL     1       1.341  11.595  -6.032  1.00  0.00     0.167 HD
ATOM     45  C   UNL     1       2.069  10.909 -10.271  1.00  0.00     0.031 A 
ATOM     46  C   UNL     1       1.768  12.886  -3.585  1.00  0.00     0.031 A 
ATOM     47  C   UNL     1       2.824  12.094  -9.953  1.00  0.00     0.049 A 
ATOM     48  C   UNL     1       2.610  13.623  -4.590  1.00  0.00     0.074 A 
ATOM     49  C   UNL     1       3.572  12.891 -10.802  1.00  0.00     0.029 A 
ATOM     50  N   UNL     1       2.929  12.649  -8.688  1.00  0.00    -0.354 N 
ATOM     51  N   UNL     1       2.750  13.400  -5.874  1.00  0.00    -0.248 NA
ATOM     52  C   UNL     1       3.386  14.767  -4.090  1.00  0.00     0.031 C 
ATOM     53  C   UNL     1       4.175  13.898 -10.041  1.00  0.00     0.029 A 
ATOM     54  C   UNL     1       3.748  13.765  -8.730  1.00  0.00     0.049 A 
ATOM     55  H   UNL     1       2.486  12.302  -7.880  1.00  0.00     0.167 HD
ATOM     56  C   UNL     1       3.602  14.393  -6.340  1.00  0.00     0.074 A 
ATOM     57  C   UNL     1       3.934  15.229  -5.205  1.00  0.00     0.031 C 
ATOM     58  C   UNL     1       4.066  14.595  -7.597  1.00  0.00     0.031 A 
BRANCH  45  59
ATOM     59  C   UNL     1       2.106  10.406 -11.689  1.00  0.00    -0.014 A 
ATOM     60  C   UNL     1       0.975  10.485 -12.518  1.00  0.00     0.009 A 
ATOM     61  C   UNL     1       3.300   9.891 -12.219  1.00  0.00     0.009 A 
ATOM     62  C   UNL     1       1.030  10.027 -13.836  1.00  0.00     0.001 A 
ATOM     63  C   UNL     1       3.360   9.463 -13.546  1.00  0.00     0.001 A 
ATOM     64  C   UNL     1       2.223   9.522 -14.351  1.00  0.00     0.000 A 
ENDBRANCH  45  59
BRANCH  46  65
ATOM     65  C   UNL     1       1.755  13.309  -2.159  1.00  0.00    -0.014 A 
ATOM     66  C   UNL     1       1.178  14.531  -1.779  1.00  0.00     0.009 A 
ATOM     67  C   UNL     1       2.342  12.502  -1.171  1.00  0.00     0.009 A 
ATOM     68  C   UNL     1       1.221  14.951  -0.448  1.00  0.00     0.001 A 
ATOM     69  C   UNL     1       2.353  12.910   0.165  1.00  0.00     0.001 A 
ATOM     70  C   UNL     1       1.804  14.139   0.523  1.00  0.00     0.000 A 
ENDBRANCH  46  65
BRANCH  58  71
ATOM     71  C   UNL     1       4.944  15.794  -7.826  1.00  0.00    -0.014 A 
ATOM     72  C   UNL     1       6.258  15.848  -7.336  1.00  0.00     0.009 A 
ATOM     73  C   UNL     1       4.458  16.872  -8.584  1.00  0.00     0.009 A 
ATOM     74  C   UNL     1       7.055  16.971  -7.572  1.00  0.00     0.001 A 
ATOM     75  C   UNL     1       5.267  17.979  -8.845  1.00  0.00     0.001 A 
ATOM     76  C   UNL     1       6.561  18.032  -8.331  1.00  0.00     0.000 A 
ENDBRANCH  58  71
ENDBRANCH  32  33
ENDBRANCH  24  27
ENDBRANCH  22  23
ENDBRANCH   1  22
TORSDOF 13
