REMARK SMILES C=CC[N@@H+](CC(=O)NCCCNC(=O)c1ccc(-c2c3nc(c(-c4ccccc4)c4ccc([nH]4)c(-c4ccccc4)c4nc(c(-c5ccccc5)c5ccc2[nH]5)C=C4)C=C3)cc1)C(C)C
REMARK SMILES IDX 9 1 8 2 6 3 7 4 5 6 4 7 3 9 2 10 1 11 63 12 64 13 65 14
REMARK SMILES IDX 10 15 11 16 12 17 13 18 14 20 15 21 16 22 62 23 17 24 61 25
REMARK SMILES IDX 18 26 19 27 20 28 55 29 21 30 60 31 54 32 56 33 22 34 59 35
REMARK SMILES IDX 53 36 52 37 23 39 45 40 30 41 44 42 31 43 34 44 43 45 57 46
REMARK SMILES IDX 32 47 33 48 42 50 58 51 35 52 24 53 25 54 29 55 26 56 28 57
REMARK SMILES IDX 27 58 46 59 47 60 51 61 48 62 50 63 49 64 36 65 37 66 41 67
REMARK SMILES IDX 38 68 40 69 39 70
REMARK H PARENT 8 5 4 8 12 19 56 38 34 49
REMARK Flexibility Score: inf
ROOT
ATOM      1  C   UNL     1      -3.073   0.090  -1.385  1.00  0.00     0.118 C 
ENDROOT
BRANCH   1   2
ATOM      2  N   UNL     1      -3.683  -0.145  -0.087  1.00  0.00    -0.351 N 
ATOM      3  C   UNL     1      -3.658   0.569   1.075  1.00  0.00     0.275 C 
ATOM      4  O   UNL     1      -4.354   0.133   2.001  1.00  0.00    -0.269 OA
ATOM      5  H   UNL     1      -4.212  -0.974  -0.037  1.00  0.00     0.163 HD
BRANCH   3   6
ATOM      6  C   UNL     1      -2.860   1.868   1.250  1.00  0.00     0.363 C 
BRANCH   6   7
ATOM      7  N   UNL     1      -1.413   1.740   1.580  1.00  0.00    -0.322 N 
ATOM      8  H   UNL     1      -1.085   2.609   2.002  1.00  0.00     0.349 HD
BRANCH   7   9
ATOM      9  C   UNL     1      -0.601   1.667   0.376  1.00  0.00     0.291 C 
BRANCH   9  10
ATOM     10  C   UNL     1       0.881   1.824   0.496  1.00  0.00     0.025 C 
ATOM     11  C   UNL     1       1.756   0.925   0.021  1.00  0.00     0.010 C 
ENDBRANCH   9  10
ENDBRANCH   7   9
BRANCH   7  12
ATOM     12  C   UNL     1      -1.118   0.854   2.725  1.00  0.00     0.178 C 
ATOM     13  C   UNL     1      -1.183  -0.660   2.471  1.00  0.00     0.075 C 
ATOM     14  C   UNL     1       0.236   1.172   3.383  1.00  0.00     0.075 C 
ENDBRANCH   7  12
ENDBRANCH   6   7
ENDBRANCH   3   6
ENDBRANCH   1   2
BRANCH   1  15
ATOM     15  C   UNL     1      -1.930  -0.888  -1.678  1.00  0.00     0.042 C 
BRANCH  15  16
ATOM     16  C   UNL     1      -2.360  -2.317  -1.979  1.00  0.00     0.118 C 
BRANCH  16  17
ATOM     17  N   UNL     1      -2.700  -2.519  -3.375  1.00  0.00    -0.352 N 
ATOM     18  C   UNL     1      -1.987  -3.044  -4.426  1.00  0.00     0.251 C 
ATOM     19  H   UNL     1      -3.609  -2.225  -3.614  1.00  0.00     0.163 HD
ATOM     20  O   UNL     1      -2.456  -2.931  -5.557  1.00  0.00    -0.269 OA
BRANCH  18  21
ATOM     21  C   UNL     1      -0.671  -3.720  -4.260  1.00  0.00     0.039 A 
ATOM     22  C   UNL     1       0.262  -3.604  -5.300  1.00  0.00     0.014 A 
ATOM     23  C   UNL     1      -0.363  -4.541  -3.173  1.00  0.00     0.014 A 
ATOM     24  C   UNL     1       1.495  -4.265  -5.231  1.00  0.00     0.010 A 
ATOM     25  C   UNL     1       0.902  -5.129  -3.062  1.00  0.00     0.010 A 
ATOM     26  C   UNL     1       1.840  -5.016  -4.098  1.00  0.00    -0.014 A 
BRANCH  26  27
ATOM     27  C   UNL     1       3.150  -5.719  -4.004  1.00  0.00     0.031 A 
ATOM     28  C   UNL     1       3.207  -7.223  -3.913  1.00  0.00     0.074 A 
ATOM     29  C   UNL     1       4.296  -5.011  -3.960  1.00  0.00     0.049 A 
ATOM     30  N   UNL     1       4.249  -8.005  -3.768  1.00  0.00    -0.248 NA
ATOM     31  C   UNL     1       1.924  -7.942  -3.969  1.00  0.00     0.031 C 
ATOM     32  C   UNL     1       4.396  -3.552  -4.013  1.00  0.00     0.029 A 
ATOM     33  N   UNL     1       5.601  -5.429  -3.859  1.00  0.00    -0.354 N 
ATOM     34  C   UNL     1       3.746  -9.299  -3.690  1.00  0.00     0.074 A 
ATOM     35  C   UNL     1       2.304  -9.194  -3.762  1.00  0.00     0.031 C 
ATOM     36  C   UNL     1       5.691  -3.198  -3.973  1.00  0.00     0.029 A 
ATOM     37  C   UNL     1       6.511  -4.400  -3.854  1.00  0.00     0.049 A 
ATOM     38  H   UNL     1       5.860  -6.377  -3.797  1.00  0.00     0.167 HD
ATOM     39  C   UNL     1       4.416 -10.472  -3.586  1.00  0.00     0.031 A 
ATOM     40  C   UNL     1       7.855  -4.416  -3.759  1.00  0.00     0.031 A 
ATOM     41  C   UNL     1       5.849 -10.591  -3.543  1.00  0.00     0.049 A 
ATOM     42  C   UNL     1       8.577  -5.729  -3.644  1.00  0.00     0.074 A 
ATOM     43  C   UNL     1       6.617 -11.742  -3.495  1.00  0.00     0.029 A 
ATOM     44  N   UNL     1       6.730  -9.523  -3.546  1.00  0.00    -0.354 N 
ATOM     45  N   UNL     1       8.085  -6.943  -3.621  1.00  0.00    -0.248 NA
ATOM     46  C   UNL     1      10.044  -5.671  -3.551  1.00  0.00     0.031 C 
ATOM     47  C   UNL     1       7.964 -11.368  -3.431  1.00  0.00     0.029 A 
ATOM     48  C   UNL     1       8.034  -9.986  -3.484  1.00  0.00     0.049 A 
ATOM     49  H   UNL     1       6.468  -8.574  -3.586  1.00  0.00     0.167 HD
ATOM     50  C   UNL     1       9.180  -7.793  -3.537  1.00  0.00     0.074 A 
ATOM     51  C   UNL     1      10.363  -6.958  -3.526  1.00  0.00     0.031 C 
ATOM     52  C   UNL     1       9.202  -9.146  -3.475  1.00  0.00     0.031 A 
BRANCH  39  53
ATOM     53  C   UNL     1       3.598 -11.731  -3.510  1.00  0.00    -0.014 A 
ATOM     54  C   UNL     1       2.918 -12.225  -4.634  1.00  0.00     0.009 A 
ATOM     55  C   UNL     1       3.535 -12.451  -2.307  1.00  0.00     0.009 A 
ATOM     56  C   UNL     1       2.160 -13.394  -4.545  1.00  0.00     0.001 A 
ATOM     57  C   UNL     1       2.798 -13.634  -2.227  1.00  0.00     0.001 A 
ATOM     58  C   UNL     1       2.103 -14.099  -3.343  1.00  0.00     0.000 A 
ENDBRANCH  39  53
BRANCH  40  59
ATOM     59  C   UNL     1       8.616  -3.140  -3.788  1.00  0.00    -0.014 A 
ATOM     60  C   UNL     1       9.369  -2.789  -4.919  1.00  0.00     0.009 A 
ATOM     61  C   UNL     1       8.599  -2.272  -2.686  1.00  0.00     0.009 A 
ATOM     62  C   UNL     1      10.107  -1.605  -4.937  1.00  0.00     0.001 A 
ATOM     63  C   UNL     1       9.318  -1.076  -2.717  1.00  0.00     0.001 A 
ATOM     64  C   UNL     1      10.078  -0.747  -3.838  1.00  0.00     0.000 A 
ENDBRANCH  40  59
BRANCH  52  65
ATOM     65  C   UNL     1      10.548  -9.810  -3.424  1.00  0.00    -0.014 A 
ATOM     66  C   UNL     1      11.322  -9.795  -2.254  1.00  0.00     0.009 A 
ATOM     67  C   UNL     1      11.029 -10.494  -4.551  1.00  0.00     0.009 A 
ATOM     68  C   UNL     1      12.567 -10.427  -2.224  1.00  0.00     0.001 A 
ATOM     69  C   UNL     1      12.262 -11.145  -4.511  1.00  0.00     0.001 A 
ATOM     70  C   UNL     1      13.034 -11.105  -3.350  1.00  0.00     0.000 A 
ENDBRANCH  52  65
ENDBRANCH  26  27
ENDBRANCH  18  21
ENDBRANCH  16  17
ENDBRANCH  15  16
ENDBRANCH   1  15
TORSDOF 14
