REMARK SMILES COCCS(=O)(=O)Cc1ccc(C(=O)NCCCNC(=O)c2ccc(-c3c4nc(c(-c5ccccc5)c5ccc([nH]5)c(-c5ccccc5)c5nc(c(-c6ccccc6)c6ccc3[nH]6)C=C5)C=C4)cc2)cn1
REMARK SMILES IDX 13 1 14 2 15 3 12 5 9 6 10 7 71 8 11 9 70 10 8 11 5 12 6 13
REMARK SMILES IDX 7 14 4 15 3 16 2 17 1 18 16 19 17 20 18 21 19 22 20 23 21 25
REMARK SMILES IDX 22 26 23 27 69 28 24 29 68 30 25 31 26 32 27 33 62 34 28 35
REMARK SMILES IDX 67 36 61 37 63 38 29 39 66 40 60 41 59 42 30 44 52 45 37 46
REMARK SMILES IDX 51 47 38 48 41 49 50 50 64 51 39 52 40 53 49 55 65 56 42 57
REMARK SMILES IDX 31 58 32 59 36 60 33 61 35 62 34 63 53 64 54 65 58 66 55 67
REMARK SMILES IDX 57 68 56 69 43 70 44 71 48 72 45 73 47 74 46 75
REMARK H PARENT 15 4 19 24 63 43 41 54
REMARK Flexibility Score: inf
ROOT
ATOM      1  C   UNL     1      -5.217   1.512  -0.916  1.00  0.00     0.252 C 
ATOM      2  O   UNL     1      -5.795   2.577  -0.723  1.00  0.00    -0.269 OA
ATOM      3  N   UNL     1      -5.952   0.366  -1.092  1.00  0.00    -0.352 N 
ATOM      4  H   UNL     1      -6.919   0.470  -0.942  1.00  0.00     0.163 HD
ENDROOT
BRANCH   1   5
ATOM      5  C   UNL     1      -3.748   1.494  -0.995  1.00  0.00     0.058 A 
ATOM      6  C   UNL     1      -0.999   1.583  -1.296  1.00  0.00     0.055 A 
ATOM      7  C   UNL     1      -1.578   0.594  -0.506  1.00  0.00     0.026 A 
ATOM      8  N   UNL     1      -1.753   2.558  -1.858  1.00  0.00    -0.259 NA
ATOM      9  C   UNL     1      -2.961   0.543  -0.360  1.00  0.00     0.017 A 
ATOM     10  C   UNL     1      -3.101   2.504  -1.687  1.00  0.00     0.125 A 
BRANCH   6  11
ATOM     11  C   UNL     1       0.488   1.703  -1.435  1.00  0.00     0.193 C 
BRANCH  11  12
ATOM     12  S   UNL     1       1.164   0.633  -2.694  1.00  0.00     0.158 S 
ATOM     13  O   UNL     1       2.611   0.691  -2.553  1.00  0.00    -0.228 OA
ATOM     14  O   UNL     1       0.575   0.989  -3.974  1.00  0.00    -0.228 OA
BRANCH  12  15
ATOM     15  C   UNL     1       0.688  -1.060  -2.377  1.00  0.00     0.165 C 
BRANCH  15  16
ATOM     16  C   UNL     1       1.480  -1.717  -1.262  1.00  0.00     0.176 C 
BRANCH  16  17
ATOM     17  O   UNL     1       0.850  -1.474  -0.006  1.00  0.00    -0.384 OA
ATOM     18  C   UNL     1       1.741  -0.978   0.985  1.00  0.00     0.194 C 
ENDBRANCH  16  17
ENDBRANCH  15  16
ENDBRANCH  12  15
ENDBRANCH  11  12
ENDBRANCH   6  11
ENDBRANCH   1   5
BRANCH   3  19
ATOM     19  C   UNL     1      -5.532  -0.975  -1.464  1.00  0.00     0.118 C 
BRANCH  19  20
ATOM     20  C   UNL     1      -5.676  -1.953  -0.299  1.00  0.00     0.042 C 
BRANCH  20  21
ATOM     21  C   UNL     1      -7.125  -2.269   0.060  1.00  0.00     0.118 C 
BRANCH  21  22
ATOM     22  N   UNL     1      -7.794  -3.031  -0.982  1.00  0.00    -0.352 N 
ATOM     23  C   UNL     1      -8.487  -4.212  -0.912  1.00  0.00     0.251 C 
ATOM     24  H   UNL     1      -7.740  -2.637  -1.882  1.00  0.00     0.163 HD
ATOM     25  O   UNL     1      -8.796  -4.785  -1.953  1.00  0.00    -0.269 OA
BRANCH  23  26
ATOM     26  C   UNL     1      -8.864  -4.808   0.390  1.00  0.00     0.039 A 
ATOM     27  C   UNL     1      -8.860  -6.202   0.506  1.00  0.00     0.014 A 
ATOM     28  C   UNL     1      -9.296  -4.025   1.465  1.00  0.00     0.014 A 
ATOM     29  C   UNL     1      -9.265  -6.806   1.698  1.00  0.00     0.010 A 
ATOM     30  C   UNL     1      -9.630  -4.625   2.679  1.00  0.00     0.010 A 
ATOM     31  C   UNL     1      -9.642  -6.022   2.800  1.00  0.00    -0.014 A 
BRANCH  31  32
ATOM     32  C   UNL     1     -10.087  -6.658   4.065  1.00  0.00     0.031 A 
ATOM     33  C   UNL     1     -11.509  -6.500   4.535  1.00  0.00     0.074 A 
ATOM     34  C   UNL     1      -9.207  -7.359   4.805  1.00  0.00     0.049 A 
ATOM     35  N   UNL     1     -12.082  -6.984   5.609  1.00  0.00    -0.248 NA
ATOM     36  C   UNL     1     -12.397  -5.673   3.703  1.00  0.00     0.031 C 
ATOM     37  C   UNL     1      -7.793  -7.555   4.481  1.00  0.00     0.029 A 
ATOM     38  N   UNL     1      -9.377  -8.043   5.983  1.00  0.00    -0.354 N 
ATOM     39  C   UNL     1     -13.387  -6.507   5.588  1.00  0.00     0.074 A 
ATOM     40  C   UNL     1     -13.507  -5.656   4.425  1.00  0.00     0.031 C 
ATOM     41  C   UNL     1      -7.233  -8.337   5.418  1.00  0.00     0.029 A 
ATOM     42  C   UNL     1      -8.238  -8.671   6.422  1.00  0.00     0.049 A 
ATOM     43  H   UNL     1     -10.234  -8.079   6.466  1.00  0.00     0.167 HD
ATOM     44  C   UNL     1     -14.403  -6.769   6.446  1.00  0.00     0.031 A 
ATOM     45  C   UNL     1      -8.028  -9.438   7.508  1.00  0.00     0.031 A 
ATOM     46  C   UNL     1     -14.290  -7.626   7.596  1.00  0.00     0.049 A 
ATOM     47  C   UNL     1      -9.173  -9.726   8.437  1.00  0.00     0.074 A 
ATOM     48  C   UNL     1     -15.272  -7.991   8.501  1.00  0.00     0.029 A 
ATOM     49  N   UNL     1     -13.122  -8.256   7.996  1.00  0.00    -0.354 N 
ATOM     50  N   UNL     1     -10.417  -9.316   8.369  1.00  0.00    -0.248 NA
ATOM     51  C   UNL     1      -8.888 -10.602   9.582  1.00  0.00     0.031 C 
ATOM     52  C   UNL     1     -14.687  -8.810   9.473  1.00  0.00     0.029 A 
ATOM     53  C   UNL     1     -13.355  -8.998   9.142  1.00  0.00     0.049 A 
ATOM     54  H   UNL     1     -12.255  -8.186   7.535  1.00  0.00     0.167 HD
ATOM     55  C   UNL     1     -11.070  -9.910   9.441  1.00  0.00     0.074 A 
ATOM     56  C   UNL     1     -10.088 -10.720  10.133  1.00  0.00     0.031 C 
ATOM     57  C   UNL     1     -12.367  -9.798   9.818  1.00  0.00     0.031 A 
BRANCH  44  58
ATOM     58  C   UNL     1     -15.727  -6.111   6.169  1.00  0.00    -0.014 A 
ATOM     59  C   UNL     1     -16.515  -6.495   5.071  1.00  0.00     0.009 A 
ATOM     60  C   UNL     1     -16.205  -5.110   7.029  1.00  0.00     0.009 A 
ATOM     61  C   UNL     1     -17.735  -5.862   4.819  1.00  0.00     0.001 A 
ATOM     62  C   UNL     1     -17.439  -4.500   6.791  1.00  0.00     0.001 A 
ATOM     63  C   UNL     1     -18.197  -4.869   5.680  1.00  0.00     0.000 A 
ENDBRANCH  44  58
BRANCH  45  64
ATOM     64  C   UNL     1      -6.684 -10.023   7.757  1.00  0.00    -0.014 A 
ATOM     65  C   UNL     1      -6.467 -11.400   7.595  1.00  0.00     0.009 A 
ATOM     66  C   UNL     1      -5.616  -9.210   8.164  1.00  0.00     0.009 A 
ATOM     67  C   UNL     1      -5.214 -11.955   7.864  1.00  0.00     0.001 A 
ATOM     68  C   UNL     1      -4.356  -9.764   8.404  1.00  0.00     0.001 A 
ATOM     69  C   UNL     1      -4.160 -11.136   8.264  1.00  0.00     0.000 A 
ENDBRANCH  45  64
BRANCH  57  70
ATOM     70  C   UNL     1     -12.804 -10.607  11.007  1.00  0.00    -0.014 A 
ATOM     71  C   UNL     1     -12.396 -10.276  12.308  1.00  0.00     0.009 A 
ATOM     72  C   UNL     1     -13.653 -11.709  10.819  1.00  0.00     0.009 A 
ATOM     73  C   UNL     1     -12.794 -11.060  13.393  1.00  0.00     0.001 A 
ATOM     74  C   UNL     1     -14.074 -12.473  11.908  1.00  0.00     0.001 A 
ATOM     75  C   UNL     1     -13.634 -12.155  13.192  1.00  0.00     0.000 A 
ENDBRANCH  57  70
ENDBRANCH  31  32
ENDBRANCH  23  26
ENDBRANCH  21  22
ENDBRANCH  20  21
ENDBRANCH  19  20
ENDBRANCH   3  19
TORSDOF 15
