REMARK SMILES Cn1c(=O)c2c(-c3ccc(Cl)cc3)n(CC(=O)NCCCNC(=O)c3ccc(-c4c5nc(c(-c6ccccc6)c6ccc([nH]6)c(-c6ccccc6)c6nc(c(-c7ccccc7)c7ccc4[nH]7)C=C6)C=C5)cc3)cc2n(C)c1=O
REMARK SMILES IDX 20 1 19 2 18 3 16 4 17 5 15 7 14 8 1 9 2 10 3 11 77 12 4 13
REMARK SMILES IDX 5 14 75 15 78 16 6 17 74 18 76 19 73 20 7 21 8 22 13 23 9 24
REMARK SMILES IDX 12 25 10 26 11 27 21 28 22 29 23 30 24 32 25 33 26 34 72 35
REMARK SMILES IDX 27 36 71 37 28 38 29 39 30 40 65 41 31 42 70 43 64 44 66 45
REMARK SMILES IDX 32 46 69 47 63 48 62 49 33 51 55 52 40 53 54 54 41 55 44 56
REMARK SMILES IDX 53 57 67 58 42 59 43 60 52 62 68 63 45 64 34 65 35 66 39 67
REMARK SMILES IDX 36 68 38 69 37 70 56 71 57 72 61 73 58 74 60 75 59 76 46 77
REMARK SMILES IDX 47 78 51 79 48 80 50 81 49 82
REMARK H PARENT 18 6 22 31 66 50 44 61
REMARK Flexibility Score: inf
ROOT
ATOM      1  C   UNL     1      -3.849   3.939   1.408  1.00  0.00     0.042 C 
ENDROOT
BRANCH   1   2
ATOM      2  C   UNL     1      -4.748   4.781   0.499  1.00  0.00     0.117 C 
BRANCH   2   3
ATOM      3  N   UNL     1      -4.251   6.135   0.323  1.00  0.00    -0.354 N 
ATOM      4  C   UNL     1      -3.490   6.640  -0.694  1.00  0.00     0.239 C 
ATOM      5  O   UNL     1      -3.152   7.824  -0.638  1.00  0.00    -0.273 OA
ATOM      6  H   UNL     1      -4.495   6.775   1.031  1.00  0.00     0.163 HD
BRANCH   4   7
ATOM      7  C   UNL     1      -3.112   5.767  -1.877  1.00  0.00     0.222 C 
BRANCH   7   8
ATOM      8  N   UNL     1      -2.102   4.764  -1.551  1.00  0.00    -0.335 N 
ATOM      9  C   UNL     1       1.132   0.043  -0.071  1.00  0.00     0.158 C 
ATOM     10  N   UNL     1       0.655   1.391  -0.314  1.00  0.00    -0.263 N 
ATOM     11  C   UNL     1      -0.625   1.499  -0.872  1.00  0.00     0.265 A 
ATOM     12  C   UNL     1       1.485   2.452   0.091  1.00  0.00     0.330 A 
ATOM     13  O   UNL     1      -1.341   0.531  -1.113  1.00  0.00    -0.268 OA
ATOM     14  C   UNL     1      -1.043   2.863  -1.101  1.00  0.00     0.090 A 
ATOM     15  N   UNL     1       1.028   3.753  -0.155  1.00  0.00    -0.295 N 
ATOM     16  O   UNL     1       2.563   2.244   0.654  1.00  0.00    -0.248 OA
ATOM     17  C   UNL     1      -2.212   3.379  -1.658  1.00  0.00     0.064 A 
ATOM     18  C   UNL     1      -0.213   3.934  -0.740  1.00  0.00     0.076 A 
ATOM     19  C   UNL     1       1.862   4.885   0.223  1.00  0.00     0.155 C 
ATOM     20  C   UNL     1      -0.862   5.099  -1.048  1.00  0.00     0.114 A 
BRANCH  17  21
ATOM     21  C   UNL     1      -3.396   2.676  -2.176  1.00  0.00    -0.001 A 
ATOM     22  C   UNL     1      -3.880   2.931  -3.464  1.00  0.00     0.012 A 
ATOM     23  C   UNL     1      -4.089   1.762  -1.369  1.00  0.00     0.012 A 
ATOM     24  C   UNL     1      -5.064   2.331  -3.909  1.00  0.00     0.021 A 
ATOM     25  C   UNL     1      -5.277   1.171  -1.804  1.00  0.00     0.021 A 
ATOM     26  C   UNL     1      -5.764   1.465  -3.072  1.00  0.00     0.041 A 
ATOM     27  Cl  UNL     1      -7.235   0.754  -3.607  1.00  0.00    -0.084 Cl
ENDBRANCH  17  21
ENDBRANCH   7   8
ENDBRANCH   4   7
ENDBRANCH   2   3
ENDBRANCH   1   2
BRANCH   1  28
ATOM     28  C   UNL     1      -4.064   4.246   2.875  1.00  0.00     0.118 C 
BRANCH  28  29
ATOM     29  N   UNL     1      -5.367   3.779   3.355  1.00  0.00    -0.352 N 
ATOM     30  C   UNL     1      -5.875   3.854   4.634  1.00  0.00     0.251 C 
ATOM     31  H   UNL     1      -5.952   3.362   2.682  1.00  0.00     0.163 HD
ATOM     32  O   UNL     1      -6.822   3.152   4.983  1.00  0.00    -0.269 OA
BRANCH  30  33
ATOM     33  C   UNL     1      -5.257   4.795   5.578  1.00  0.00     0.039 A 
ATOM     34  C   UNL     1      -5.007   4.443   6.906  1.00  0.00     0.014 A 
ATOM     35  C   UNL     1      -4.876   6.038   5.083  1.00  0.00     0.014 A 
ATOM     36  C   UNL     1      -4.292   5.328   7.707  1.00  0.00     0.010 A 
ATOM     37  C   UNL     1      -4.022   6.821   5.809  1.00  0.00     0.010 A 
ATOM     38  C   UNL     1      -3.782   6.507   7.141  1.00  0.00    -0.014 A 
BRANCH  38  39
ATOM     39  C   UNL     1      -2.893   7.387   7.887  1.00  0.00     0.031 A 
ATOM     40  C   UNL     1      -1.687   6.723   8.448  1.00  0.00     0.074 A 
ATOM     41  C   UNL     1      -3.035   8.731   7.875  1.00  0.00     0.049 A 
ATOM     42  N   UNL     1      -1.391   6.587   9.696  1.00  0.00    -0.248 NA
ATOM     43  C   UNL     1      -0.765   6.022   7.538  1.00  0.00     0.031 C 
ATOM     44  C   UNL     1      -4.014   9.540   7.137  1.00  0.00     0.029 A 
ATOM     45  N   UNL     1      -2.231   9.677   8.426  1.00  0.00    -0.354 N 
ATOM     46  C   UNL     1      -0.156   5.950   9.737  1.00  0.00     0.074 A 
ATOM     47  C   UNL     1       0.105   5.487   8.397  1.00  0.00     0.031 C 
ATOM     48  C   UNL     1      -3.590  10.822   7.076  1.00  0.00     0.029 A 
ATOM     49  C   UNL     1      -2.412  10.957   7.913  1.00  0.00     0.049 A 
ATOM     50  H   UNL     1      -1.574   9.474   9.131  1.00  0.00     0.167 HD
ATOM     51  C   UNL     1       0.657   6.058  10.825  1.00  0.00     0.031 A 
ATOM     52  C   UNL     1      -1.635  12.045   8.142  1.00  0.00     0.031 A 
ATOM     53  C   UNL     1      -0.045   6.609  11.956  1.00  0.00     0.049 A 
ATOM     54  C   UNL     1      -0.873  11.779   9.383  1.00  0.00     0.074 A 
ATOM     55  C   UNL     1      -1.146   6.221  12.692  1.00  0.00     0.029 A 
ATOM     56  N   UNL     1       0.129   7.951  12.202  1.00  0.00    -0.354 N 
ATOM     57  N   UNL     1      -1.436  11.701  10.555  1.00  0.00    -0.248 NA
ATOM     58  C   UNL     1       0.423  11.128   9.268  1.00  0.00     0.031 C 
ATOM     59  C   UNL     1      -1.858   7.430  12.941  1.00  0.00     0.029 A 
ATOM     60  C   UNL     1      -1.111   8.491  12.424  1.00  0.00     0.049 A 
ATOM     61  H   UNL     1       0.986   8.435  12.217  1.00  0.00     0.167 HD
ATOM     62  C   UNL     1      -0.815  10.623  11.167  1.00  0.00     0.074 A 
ATOM     63  C   UNL     1       0.393  10.381  10.376  1.00  0.00     0.031 C 
ATOM     64  C   UNL     1      -1.485   9.841  12.064  1.00  0.00     0.031 A 
BRANCH  51  65
ATOM     65  C   UNL     1       2.160   6.057  10.760  1.00  0.00    -0.014 A 
ATOM     66  C   UNL     1       2.886   6.105  11.965  1.00  0.00     0.009 A 
ATOM     67  C   UNL     1       2.877   6.306   9.576  1.00  0.00     0.009 A 
ATOM     68  C   UNL     1       4.239   6.459  11.986  1.00  0.00     0.001 A 
ATOM     69  C   UNL     1       4.238   6.620   9.590  1.00  0.00     0.001 A 
ATOM     70  C   UNL     1       4.913   6.725  10.798  1.00  0.00     0.000 A 
ENDBRANCH  51  65
BRANCH  52  71
ATOM     71  C   UNL     1      -1.347  13.204   7.269  1.00  0.00    -0.014 A 
ATOM     72  C   UNL     1      -0.783  14.378   7.793  1.00  0.00     0.009 A 
ATOM     73  C   UNL     1      -1.370  13.061   5.869  1.00  0.00     0.009 A 
ATOM     74  C   UNL     1      -0.222  15.349   6.952  1.00  0.00     0.001 A 
ATOM     75  C   UNL     1      -0.812  14.032   5.028  1.00  0.00     0.001 A 
ATOM     76  C   UNL     1      -0.222  15.168   5.571  1.00  0.00     0.000 A 
ENDBRANCH  52  71
BRANCH  64  77
ATOM     77  C   UNL     1      -2.855  10.289  12.518  1.00  0.00    -0.014 A 
ATOM     78  C   UNL     1      -3.948  10.425  11.642  1.00  0.00     0.009 A 
ATOM     79  C   UNL     1      -3.096  10.381  13.896  1.00  0.00     0.009 A 
ATOM     80  C   UNL     1      -5.237  10.660  12.133  1.00  0.00     0.001 A 
ATOM     81  C   UNL     1      -4.386  10.593  14.387  1.00  0.00     0.001 A 
ATOM     82  C   UNL     1      -5.456  10.734  13.507  1.00  0.00     0.000 A 
ENDBRANCH  64  77
ENDBRANCH  38  39
ENDBRANCH  30  33
ENDBRANCH  28  29
ENDBRANCH   1  28
TORSDOF 12
