REMARK SMILES O=C(NCCCNC(=O)c1nccnc1C(=O)N1CCC(Cc2ccccc2)CC1)c1ccc(-c2c3nc(c(-c4ccccc4)c4ccc([nH]4)c(-c4ccccc4)c4nc(c(-c5ccccc5)c5ccc2[nH]5)C=C4)C=C3)cc1
REMARK SMILES IDX 5 1 4 2 3 3 1 4 2 5 31 7 32 8 78 9 33 10 77 11 34 12 35 13
REMARK SMILES IDX 36 14 71 15 37 16 76 17 70 18 72 19 38 20 75 21 69 22 68 23
REMARK SMILES IDX 39 25 61 26 46 27 60 28 47 29 50 30 59 31 73 32 48 33 49 34
REMARK SMILES IDX 58 36 74 37 51 38 40 39 41 40 45 41 42 42 44 43 43 44 62 45
REMARK SMILES IDX 63 46 67 47 64 48 66 49 65 50 52 51 53 52 57 53 54 54 56 55
REMARK SMILES IDX 55 56 6 57 7 58 8 59 9 61 10 62 11 63 15 64 12 65 14 66
REMARK SMILES IDX 13 67 16 68 17 69 18 70 19 71 30 72 20 73 29 74 21 75 22 76
REMARK SMILES IDX 23 77 24 78 28 79 25 80 27 81 26 82
REMARK H PARENT 3 6 72 24 50 35 7 60
REMARK Flexibility Score: inf
ROOT
ATOM      1  C   UNL     1       4.968   1.999   1.569  1.00  0.00     0.042 C 
ENDROOT
BRANCH   1   2
ATOM      2  C   UNL     1       4.601   0.527   1.407  1.00  0.00     0.118 C 
BRANCH   2   3
ATOM      3  N   UNL     1       3.184   0.319   1.148  1.00  0.00    -0.352 N 
ATOM      4  O   UNL     1       1.286   0.011  -0.006  1.00  0.00    -0.269 OA
ATOM      5  C   UNL     1       2.516  -0.061   0.015  1.00  0.00     0.251 C 
ATOM      6  H   UNL     1       2.602   0.480   1.926  1.00  0.00     0.163 HD
BRANCH   5   7
ATOM      7  C   UNL     1       3.233  -0.544  -1.185  1.00  0.00     0.039 A 
ATOM      8  C   UNL     1       4.321  -1.413  -1.088  1.00  0.00     0.014 A 
ATOM      9  C   UNL     1       2.744  -0.186  -2.448  1.00  0.00     0.014 A 
ATOM     10  C   UNL     1       4.990  -1.826  -2.238  1.00  0.00     0.010 A 
ATOM     11  C   UNL     1       3.367  -0.664  -3.604  1.00  0.00     0.010 A 
ATOM     12  C   UNL     1       4.508  -1.474  -3.508  1.00  0.00    -0.014 A 
BRANCH  12  13
ATOM     13  C   UNL     1       5.152  -2.034  -4.722  1.00  0.00     0.031 A 
ATOM     14  C   UNL     1       5.863  -1.149  -5.706  1.00  0.00     0.074 A 
ATOM     15  C   UNL     1       5.083  -3.363  -4.936  1.00  0.00     0.049 A 
ATOM     16  N   UNL     1       6.471  -1.480  -6.817  1.00  0.00    -0.248 NA
ATOM     17  C   UNL     1       5.891   0.293  -5.413  1.00  0.00     0.031 C 
ATOM     18  C   UNL     1       4.404  -4.324  -4.063  1.00  0.00     0.029 A 
ATOM     19  N   UNL     1       5.591  -4.135  -5.949  1.00  0.00    -0.354 N 
ATOM     20  C   UNL     1       6.934  -0.291  -7.367  1.00  0.00     0.074 A 
ATOM     21  C   UNL     1       6.524   0.773  -6.475  1.00  0.00     0.031 C 
ATOM     22  C   UNL     1       4.564  -5.559  -4.561  1.00  0.00     0.029 A 
ATOM     23  C   UNL     1       5.304  -5.472  -5.815  1.00  0.00     0.049 A 
ATOM     24  H   UNL     1       6.111  -3.768  -6.700  1.00  0.00     0.167 HD
ATOM     25  C   UNL     1       7.639  -0.107  -8.508  1.00  0.00     0.031 A 
ATOM     26  C   UNL     1       5.581  -6.513  -6.620  1.00  0.00     0.031 A 
ATOM     27  C   UNL     1       8.055  -1.167  -9.389  1.00  0.00     0.049 A 
ATOM     28  C   UNL     1       6.334  -6.272  -7.895  1.00  0.00     0.074 A 
ATOM     29  C   UNL     1       8.832  -1.082 -10.532  1.00  0.00     0.029 A 
ATOM     30  N   UNL     1       7.718  -2.502  -9.232  1.00  0.00    -0.354 N 
ATOM     31  N   UNL     1       6.822  -5.149  -8.363  1.00  0.00    -0.248 NA
ATOM     32  C   UNL     1       6.569  -7.440  -8.755  1.00  0.00     0.031 C 
ATOM     33  C   UNL     1       8.919  -2.358 -11.097  1.00  0.00     0.029 A 
ATOM     34  C   UNL     1       8.236  -3.245 -10.280  1.00  0.00     0.049 A 
ATOM     35  H   UNL     1       7.189  -2.868  -8.487  1.00  0.00     0.167 HD
ATOM     36  C   UNL     1       7.428  -5.476  -9.568  1.00  0.00     0.074 A 
ATOM     37  C   UNL     1       7.268  -6.904  -9.747  1.00  0.00     0.031 C 
ATOM     38  C   UNL     1       8.057  -4.662 -10.449  1.00  0.00     0.031 A 
BRANCH  25  39
ATOM     39  C   UNL     1       7.990   1.302  -8.894  1.00  0.00    -0.014 A 
ATOM     40  C   UNL     1       9.005   2.009  -8.232  1.00  0.00     0.009 A 
ATOM     41  C   UNL     1       7.343   1.903  -9.985  1.00  0.00     0.009 A 
ATOM     42  C   UNL     1       9.348   3.300  -8.641  1.00  0.00     0.001 A 
ATOM     43  C   UNL     1       7.702   3.185 -10.405  1.00  0.00     0.001 A 
ATOM     44  C   UNL     1       8.701   3.884  -9.730  1.00  0.00     0.000 A 
ENDBRANCH  25  39
BRANCH  26  45
ATOM     45  C   UNL     1       5.111  -7.874  -6.257  1.00  0.00    -0.014 A 
ATOM     46  C   UNL     1       6.020  -8.863  -5.856  1.00  0.00     0.009 A 
ATOM     47  C   UNL     1       3.742  -8.184  -6.302  1.00  0.00     0.009 A 
ATOM     48  C   UNL     1       5.569 -10.143  -5.525  1.00  0.00     0.001 A 
ATOM     49  C   UNL     1       3.292  -9.456  -5.943  1.00  0.00     0.001 A 
ATOM     50  C   UNL     1       4.206 -10.436  -5.563  1.00  0.00     0.000 A 
ENDBRANCH  26  45
BRANCH  38  51
ATOM     51  C   UNL     1       8.624  -5.303 -11.682  1.00  0.00    -0.014 A 
ATOM     52  C   UNL     1       7.788  -5.710 -12.732  1.00  0.00     0.009 A 
ATOM     53  C   UNL     1      10.012  -5.469 -11.808  1.00  0.00     0.009 A 
ATOM     54  C   UNL     1       8.330  -6.296 -13.877  1.00  0.00     0.001 A 
ATOM     55  C   UNL     1      10.552  -6.033 -12.964  1.00  0.00     0.001 A 
ATOM     56  C   UNL     1       9.711  -6.453 -13.994  1.00  0.00     0.000 A 
ENDBRANCH  38  51
ENDBRANCH  12  13
ENDBRANCH   5   7
ENDBRANCH   2   3
ENDBRANCH   1   2
BRANCH   1  57
ATOM     57  C   UNL     1       4.226   2.718   2.689  1.00  0.00     0.118 C 
BRANCH  57  58
ATOM     58  N   UNL     1       4.406   2.087   3.988  1.00  0.00    -0.351 N 
ATOM     59  C   UNL     1       5.153   2.505   5.066  1.00  0.00     0.272 C 
ATOM     60  H   UNL     1       3.924   1.238   4.114  1.00  0.00     0.163 HD
ATOM     61  O   UNL     1       5.069   1.881   6.127  1.00  0.00    -0.267 OA
BRANCH  59  62
ATOM     62  C   UNL     1       5.976   3.728   4.969  1.00  0.00     0.159 A 
ATOM     63  N   UNL     1       5.211   4.852   4.746  1.00  0.00    -0.247 NA
ATOM     64  C   UNL     1       7.358   3.781   5.122  1.00  0.00     0.159 A 
ATOM     65  C   UNL     1       5.870   6.024   4.686  1.00  0.00     0.132 A 
ATOM     66  N   UNL     1       7.998   4.994   5.022  1.00  0.00    -0.247 NA
ATOM     67  C   UNL     1       7.239   6.093   4.817  1.00  0.00     0.132 A 
BRANCH  64  68
ATOM     68  C   UNL     1       8.313   2.647   5.422  1.00  0.00     0.274 C 
ATOM     69  O   UNL     1       9.512   2.877   5.589  1.00  0.00    -0.267 OA
ATOM     70  N   UNL     1       7.840   1.358   5.596  1.00  0.00    -0.337 N 
ATOM     71  C   UNL     1       7.853   0.805   6.949  1.00  0.00     0.120 C 
ATOM     72  C   UNL     1       7.599   0.476   4.461  1.00  0.00     0.120 C 
ATOM     73  C   UNL     1       8.501  -0.571   7.049  1.00  0.00     0.025 C 
ATOM     74  C   UNL     1       8.268  -0.892   4.605  1.00  0.00     0.025 C 
ATOM     75  C   UNL     1       7.927  -1.504   5.973  1.00  0.00    -0.003 C 
BRANCH  75  76
ATOM     76  C   UNL     1       8.449  -2.945   6.098  1.00  0.00     0.039 C 
BRANCH  76  77
ATOM     77  C   UNL     1       8.012  -3.636   7.372  1.00  0.00    -0.048 A 
ATOM     78  C   UNL     1       8.966  -4.090   8.293  1.00  0.00     0.004 A 
ATOM     79  C   UNL     1       6.653  -3.833   7.658  1.00  0.00     0.004 A 
ATOM     80  C   UNL     1       8.569  -4.710   9.480  1.00  0.00     0.000 A 
ATOM     81  C   UNL     1       6.257  -4.448   8.848  1.00  0.00     0.000 A 
ATOM     82  C   UNL     1       7.216  -4.885   9.759  1.00  0.00     0.000 A 
ENDBRANCH  76  77
ENDBRANCH  75  76
ENDBRANCH  64  68
ENDBRANCH  59  62
ENDBRANCH  57  58
ENDBRANCH   1  57
TORSDOF 13
