REMARK SMILES C[C@H]([C@H](C)C(=O)NCCCNC(=O)c1ccc(-c2c3nc(c(-c4ccccc4)c4ccc([nH]4)c(-c4ccccc4)c4nc(c(-c5ccccc5)c5ccc2[nH]5)C=C4)C=C3)cc1)[C@H](O)c1cncn1C1CC1
REMARK SMILES IDX 8 1 7 2 5 3 6 4 3 6 4 7 2 8 1 9 62 10 64 11 65 12 68 13
REMARK SMILES IDX 66 14 67 15 69 16 70 17 71 18 63 19 9 21 10 22 11 23 12 24
REMARK SMILES IDX 13 26 14 27 15 28 61 29 16 30 60 31 17 32 18 33 19 34 54 35
REMARK SMILES IDX 20 36 59 37 53 38 55 39 21 40 58 41 52 42 51 43 22 45 44 46
REMARK SMILES IDX 29 47 43 48 30 49 33 50 42 51 56 52 31 53 32 54 41 56 57 57
REMARK SMILES IDX 34 58 23 59 24 60 28 61 25 62 27 63 26 64 45 65 46 66 50 67
REMARK SMILES IDX 47 68 49 69 48 70 35 71 36 72 40 73 37 74 39 75 38 76
REMARK H PARENT 7 5 63 20 11 25 55 44 33 55
REMARK Flexibility Score: inf
ROOT
ATOM      1  C   UNL     1      -0.465  -2.149   0.545  1.00  0.00     0.117 C 
ENDROOT
BRANCH   1   2
ATOM      2  N   UNL     1       0.295  -0.959   0.902  1.00  0.00    -0.356 N 
ATOM      3  C   UNL     1      -0.011   0.367   0.930  1.00  0.00     0.223 C 
ATOM      4  O   UNL     1       0.866   1.123   1.359  1.00  0.00    -0.275 OA
ATOM      5  H   UNL     1       1.219  -1.153   1.181  1.00  0.00     0.163 HD
BRANCH   3   6
ATOM      6  C   UNL     1      -1.378   0.903   0.475  1.00  0.00     0.081 C 
ATOM      7  C   UNL     1      -1.836   1.956   1.500  1.00  0.00     0.018 C 
BRANCH   6   8
ATOM      8  C   UNL     1      -1.382   1.494  -0.988  1.00  0.00     0.033 C 
ATOM      9  C   UNL     1      -0.471   2.728  -1.075  1.00  0.00     0.011 C 
BRANCH   8  10
ATOM     10  C   UNL     1      -1.027   0.414  -2.026  1.00  0.00     0.166 C 
BRANCH  10  11
ATOM     11  C   UNL     1      -1.974  -0.011  -3.110  1.00  0.00     0.067 A 
ATOM     12  C   UNL     1      -2.459  -1.315  -3.237  1.00  0.00     0.137 A 
ATOM     13  N   UNL     1      -2.486   0.609  -4.236  1.00  0.00    -0.329 N 
ATOM     14  N   UNL     1      -3.173  -1.510  -4.377  1.00  0.00    -0.245 NA
ATOM     15  C   UNL     1      -3.155  -0.344  -4.968  1.00  0.00     0.199 A 
BRANCH  13  16
ATOM     16  C   UNL     1      -2.456   1.962  -4.752  1.00  0.00     0.088 C 
ATOM     17  C   UNL     1      -2.572   3.193  -3.888  1.00  0.00     0.027 C 
ATOM     18  C   UNL     1      -1.307   2.927  -4.633  1.00  0.00     0.027 C 
ENDBRANCH  13  16
ENDBRANCH  10  11
BRANCH  10  19
ATOM     19  O   UNL     1       0.285   0.511  -2.551  1.00  0.00    -0.387 OA
ATOM     20  H   UNL     1       0.331   1.254  -3.172  1.00  0.00     0.211 HD
ENDBRANCH  10  19
ENDBRANCH   8  10
ENDBRANCH   6   8
ENDBRANCH   3   6
ENDBRANCH   1   2
BRANCH   1  21
ATOM     21  C   UNL     1       0.062  -2.837  -0.721  1.00  0.00     0.042 C 
BRANCH  21  22
ATOM     22  C   UNL     1       1.494  -3.352  -0.618  1.00  0.00     0.118 C 
BRANCH  22  23
ATOM     23  N   UNL     1       1.526  -4.784  -0.384  1.00  0.00    -0.352 N 
ATOM     24  C   UNL     1       1.687  -5.825  -1.266  1.00  0.00     0.251 C 
ATOM     25  H   UNL     1       1.416  -5.052   0.556  1.00  0.00     0.163 HD
ATOM     26  O   UNL     1       1.401  -6.961  -0.893  1.00  0.00    -0.269 OA
BRANCH  24  27
ATOM     27  C   UNL     1       2.196  -5.625  -2.647  1.00  0.00     0.039 A 
ATOM     28  C   UNL     1       1.678  -6.435  -3.667  1.00  0.00     0.014 A 
ATOM     29  C   UNL     1       3.257  -4.763  -2.937  1.00  0.00     0.014 A 
ATOM     30  C   UNL     1       2.208  -6.374  -4.961  1.00  0.00     0.010 A 
ATOM     31  C   UNL     1       3.747  -4.658  -4.244  1.00  0.00     0.010 A 
ATOM     32  C   UNL     1       3.247  -5.481  -5.264  1.00  0.00    -0.014 A 
BRANCH  32  33
ATOM     33  C   UNL     1       3.856  -5.443  -6.622  1.00  0.00     0.031 A 
ATOM     34  C   UNL     1       5.282  -5.887  -6.829  1.00  0.00     0.074 A 
ATOM     35  C   UNL     1       3.149  -4.983  -7.673  1.00  0.00     0.049 A 
ATOM     36  N   UNL     1       6.006  -5.864  -7.921  1.00  0.00    -0.248 NA
ATOM     37  C   UNL     1       5.993  -6.411  -5.651  1.00  0.00     0.031 C 
ATOM     38  C   UNL     1       1.766  -4.507  -7.624  1.00  0.00     0.029 A 
ATOM     39  N   UNL     1       3.507  -4.834  -8.992  1.00  0.00    -0.354 N 
ATOM     40  C   UNL     1       7.260  -6.341  -7.557  1.00  0.00     0.074 A 
ATOM     41  C   UNL     1       7.207  -6.624  -6.138  1.00  0.00     0.031 C 
ATOM     42  C   UNL     1       1.388  -4.134  -8.858  1.00  0.00     0.029 A 
ATOM     43  C   UNL     1       2.509  -4.311  -9.777  1.00  0.00     0.049 A 
ATOM     44  H   UNL     1       4.394  -5.080  -9.340  1.00  0.00     0.167 HD
ATOM     45  C   UNL     1       8.354  -6.539  -8.330  1.00  0.00     0.031 A 
ATOM     46  C   UNL     1       2.498  -3.995 -11.086  1.00  0.00     0.031 A 
ATOM     47  C   UNL     1       8.412  -6.297  -9.747  1.00  0.00     0.049 A 
ATOM     48  C   UNL     1       3.727  -4.221 -11.921  1.00  0.00     0.074 A 
ATOM     49  C   UNL     1       9.463  -6.532 -10.618  1.00  0.00     0.029 A 
ATOM     50  N   UNL     1       7.377  -5.771 -10.500  1.00  0.00    -0.354 N 
ATOM     51  N   UNL     1       4.888  -4.714 -11.566  1.00  0.00    -0.248 NA
ATOM     52  C   UNL     1       3.640  -3.848 -13.342  1.00  0.00     0.031 C 
ATOM     53  C   UNL     1       9.075  -6.113 -11.895  1.00  0.00     0.029 A 
ATOM     54  C   UNL     1       7.771  -5.652 -11.822  1.00  0.00     0.049 A 
ATOM     55  H   UNL     1       6.493  -5.518 -10.148  1.00  0.00     0.167 HD
ATOM     56  C   UNL     1       5.661  -4.728 -12.720  1.00  0.00     0.074 A 
ATOM     57  C   UNL     1       4.834  -4.209 -13.789  1.00  0.00     0.031 C 
ATOM     58  C   UNL     1       6.943  -5.134 -12.877  1.00  0.00     0.031 A 
BRANCH  45  59
ATOM     59  C   UNL     1       9.600  -7.041  -7.656  1.00  0.00    -0.014 A 
ATOM     60  C   UNL     1       9.721  -8.381  -7.261  1.00  0.00     0.009 A 
ATOM     61  C   UNL     1      10.688  -6.173  -7.471  1.00  0.00     0.009 A 
ATOM     62  C   UNL     1      10.901  -8.838  -6.669  1.00  0.00     0.001 A 
ATOM     63  C   UNL     1      11.873  -6.638  -6.899  1.00  0.00     0.001 A 
ATOM     64  C   UNL     1      11.977  -7.967  -6.494  1.00  0.00     0.000 A 
ENDBRANCH  45  59
BRANCH  46  65
ATOM     65  C   UNL     1       1.275  -3.421 -11.701  1.00  0.00    -0.014 A 
ATOM     66  C   UNL     1       0.486  -4.191 -12.569  1.00  0.00     0.009 A 
ATOM     67  C   UNL     1       0.905  -2.092 -11.442  1.00  0.00     0.009 A 
ATOM     68  C   UNL     1      -0.637  -3.634 -13.184  1.00  0.00     0.001 A 
ATOM     69  C   UNL     1      -0.231  -1.545 -12.041  1.00  0.00     0.001 A 
ATOM     70  C   UNL     1      -0.996  -2.313 -12.918  1.00  0.00     0.000 A 
ENDBRANCH  46  65
BRANCH  58  71
ATOM     71  C   UNL     1       7.523  -5.056 -14.259  1.00  0.00    -0.014 A 
ATOM     72  C   UNL     1       7.923  -3.828 -14.807  1.00  0.00     0.009 A 
ATOM     73  C   UNL     1       7.704  -6.229 -15.008  1.00  0.00     0.009 A 
ATOM     74  C   UNL     1       8.468  -3.773 -16.091  1.00  0.00     0.001 A 
ATOM     75  C   UNL     1       8.268  -6.173 -16.283  1.00  0.00     0.001 A 
ATOM     76  C   UNL     1       8.643  -4.945 -16.826  1.00  0.00     0.000 A 
ENDBRANCH  58  71
ENDBRANCH  32  33
ENDBRANCH  24  27
ENDBRANCH  22  23
ENDBRANCH  21  22
ENDBRANCH   1  21
TORSDOF 15
