REMARK SMILES O=C(NCCCNC(=O)c1[nH]ncc1C[N@H+]1CCC[C@H](C(=O)c2ccc3ccccc3c2)C1)c1ccc(-c2c3nc(c(-c4ccccc4)c4ccc([nH]4)c(-c4ccccc4)c4nc(c(-c5ccccc5)c5ccc2[nH]5)C=C4)C=C3)cc1
REMARK SMILES IDX 6 1 5 2 4 3 3 4 1 5 2 6 34 8 35 9 81 10 36 11 80 12 37 13
REMARK SMILES IDX 38 14 39 15 74 16 40 17 79 18 73 19 75 20 41 21 78 22 72 23
REMARK SMILES IDX 71 24 42 26 64 27 49 28 63 29 50 30 53 31 62 32 76 33 51 34
REMARK SMILES IDX 52 35 61 37 77 38 54 39 43 40 44 41 48 42 45 43 47 44 46 45
REMARK SMILES IDX 65 46 66 47 70 48 67 49 69 50 68 51 55 52 56 53 60 54 57 55
REMARK SMILES IDX 59 56 58 57 7 58 8 59 9 61 10 62 11 63 14 64 12 65 13 67
REMARK SMILES IDX 15 68 16 69 17 70 33 71 18 73 20 74 19 75 21 76 22 77 23 78
REMARK SMILES IDX 24 79 32 80 25 81 31 82 26 83 30 84 27 85 29 86 28 87
REMARK H PARENT 3 7 75 25 53 36 7 60 11 66 16 72
REMARK Flexibility Score: inf
ROOT
ATOM      1  C   UNL     1       4.296   1.446   3.431  1.00  0.00     0.118 C 
ENDROOT
BRANCH   1   2
ATOM      2  C   UNL     1       4.906   1.266   2.045  1.00  0.00     0.042 C 
BRANCH   2   3
ATOM      3  C   UNL     1       4.640  -0.101   1.422  1.00  0.00     0.118 C 
BRANCH   3   4
ATOM      4  N   UNL     1       3.230  -0.315   1.131  1.00  0.00    -0.352 N 
ATOM      5  O   UNL     1       1.301  -0.246  -0.009  1.00  0.00    -0.269 OA
ATOM      6  C   UNL     1       2.529  -0.250  -0.047  1.00  0.00     0.251 C 
ATOM      7  H   UNL     1       2.684  -0.548   1.917  1.00  0.00     0.163 HD
BRANCH   6   8
ATOM      8  C   UNL     1       3.213  -0.177  -1.359  1.00  0.00     0.039 A 
ATOM      9  C   UNL     1       4.343  -0.946  -1.643  1.00  0.00     0.014 A 
ATOM     10  C   UNL     1       2.646   0.612  -2.369  1.00  0.00     0.014 A 
ATOM     11  C   UNL     1       4.968  -0.839  -2.884  1.00  0.00     0.010 A 
ATOM     12  C   UNL     1       3.234   0.667  -3.638  1.00  0.00     0.010 A 
ATOM     13  C   UNL     1       4.415  -0.039  -3.898  1.00  0.00    -0.014 A 
BRANCH  13  14
ATOM     14  C   UNL     1       5.067  -0.008  -5.231  1.00  0.00     0.031 A 
ATOM     15  C   UNL     1       5.769   1.224  -5.726  1.00  0.00     0.074 A 
ATOM     16  C   UNL     1       5.077  -1.128  -5.979  1.00  0.00     0.049 A 
ATOM     17  N   UNL     1       6.466   1.385  -6.824  1.00  0.00    -0.248 NA
ATOM     18  C   UNL     1       5.674   2.430  -4.891  1.00  0.00     0.031 C 
ATOM     19  C   UNL     1       4.422  -2.389  -5.625  1.00  0.00     0.029 A 
ATOM     20  N   UNL     1       5.702  -1.399  -7.170  1.00  0.00    -0.354 N 
ATOM     21  C   UNL     1       6.868   2.713  -6.826  1.00  0.00     0.074 A 
ATOM     22  C   UNL     1       6.339   3.317  -5.621  1.00  0.00     0.031 C 
ATOM     23  C   UNL     1       4.746  -3.321  -6.534  1.00  0.00     0.029 A 
ATOM     24  C   UNL     1       5.604  -2.716  -7.547  1.00  0.00     0.049 A 
ATOM     25  H   UNL     1       6.173  -0.718  -7.702  1.00  0.00     0.167 HD
ATOM     26  C   UNL     1       7.609   3.374  -7.747  1.00  0.00     0.031 A 
ATOM     27  C   UNL     1       6.163  -3.373  -8.579  1.00  0.00     0.031 A 
ATOM     28  C   UNL     1       8.168   2.784  -8.932  1.00  0.00     0.049 A 
ATOM     29  C   UNL     1       7.026  -2.634  -9.554  1.00  0.00     0.074 A 
ATOM     30  C   UNL     1       8.938   3.382  -9.915  1.00  0.00     0.029 A 
ATOM     31  N   UNL     1       8.026   1.454  -9.289  1.00  0.00    -0.354 N 
ATOM     32  N   UNL     1       7.387  -1.376  -9.543  1.00  0.00    -0.248 NA
ATOM     33  C   UNL     1       7.549  -3.407 -10.690  1.00  0.00     0.031 C 
ATOM     34  C   UNL     1       9.259   2.411 -10.872  1.00  0.00     0.029 A 
ATOM     35  C   UNL     1       8.694   1.210 -10.477  1.00  0.00     0.049 A 
ATOM     36  H   UNL     1       7.524   0.781  -8.775  1.00  0.00     0.167 HD
ATOM     37  C   UNL     1       8.169  -1.200 -10.675  1.00  0.00     0.074 A 
ATOM     38  C   UNL     1       8.248  -2.486 -11.339  1.00  0.00     0.031 C 
ATOM     39  C   UNL     1       8.758  -0.069 -11.128  1.00  0.00     0.031 A 
BRANCH  26  40
ATOM     40  C   UNL     1       7.846   4.833  -7.507  1.00  0.00    -0.014 A 
ATOM     41  C   UNL     1       8.899   5.264  -6.688  1.00  0.00     0.009 A 
ATOM     42  C   UNL     1       7.024   5.785  -8.128  1.00  0.00     0.009 A 
ATOM     43  C   UNL     1       9.115   6.628  -6.481  1.00  0.00     0.001 A 
ATOM     44  C   UNL     1       7.247   7.148  -7.924  1.00  0.00     0.001 A 
ATOM     45  C   UNL     1       8.289   7.568  -7.098  1.00  0.00     0.000 A 
ENDBRANCH  26  40
BRANCH  27  46
ATOM     46  C   UNL     1       5.947  -4.831  -8.716  1.00  0.00    -0.014 A 
ATOM     47  C   UNL     1       6.909  -5.729  -8.231  1.00  0.00     0.009 A 
ATOM     48  C   UNL     1       4.774  -5.328  -9.302  1.00  0.00     0.009 A 
ATOM     49  C   UNL     1       6.702  -7.105  -8.336  1.00  0.00     0.001 A 
ATOM     50  C   UNL     1       4.568  -6.705  -9.398  1.00  0.00     0.001 A 
ATOM     51  C   UNL     1       5.532  -7.591  -8.917  1.00  0.00     0.000 A 
ENDBRANCH  27  46
BRANCH  39  52
ATOM     52  C   UNL     1       9.523  -0.175 -12.410  1.00  0.00    -0.014 A 
ATOM     53  C   UNL     1       8.858  -0.064 -13.640  1.00  0.00     0.009 A 
ATOM     54  C   UNL     1      10.910  -0.373 -12.392  1.00  0.00     0.009 A 
ATOM     55  C   UNL     1       9.571  -0.166 -14.835  1.00  0.00     0.001 A 
ATOM     56  C   UNL     1      11.621  -0.469 -13.589  1.00  0.00     0.001 A 
ATOM     57  C   UNL     1      10.951  -0.369 -14.809  1.00  0.00     0.000 A 
ENDBRANCH  39  52
ENDBRANCH  13  14
ENDBRANCH   6   8
ENDBRANCH   3   4
ENDBRANCH   2   3
ENDBRANCH   1   2
BRANCH   1  58
ATOM     58  N   UNL     1       4.879   0.543   4.412  1.00  0.00    -0.351 N 
ATOM     59  C   UNL     1       5.845   0.778   5.356  1.00  0.00     0.269 C 
ATOM     60  H   UNL     1       4.526  -0.376   4.396  1.00  0.00     0.163 HD
ATOM     61  O   UNL     1       6.421  -0.192   5.846  1.00  0.00    -0.268 OA
BRANCH  59  62
ATOM     62  C   UNL     1       6.188   2.126   5.707  1.00  0.00     0.131 A 
ATOM     63  N   UNL     1       7.492   2.512   5.864  1.00  0.00    -0.272 N 
ATOM     64  C   UNL     1       5.428   3.234   6.065  1.00  0.00     0.057 A 
ATOM     65  N   UNL     1       7.642   3.820   6.122  1.00  0.00    -0.183 NA
ATOM     66  H   UNL     1       8.249   1.888   5.794  1.00  0.00     0.190 HD
ATOM     67  C   UNL     1       6.389   4.255   6.259  1.00  0.00     0.145 A 
BRANCH  64  68
ATOM     68  C   UNL     1       3.943   3.331   6.195  1.00  0.00     0.303 C 
BRANCH  68  69
ATOM     69  N   UNL     1       3.455   3.547   7.555  1.00  0.00    -0.330 N 
ATOM     70  C   UNL     1       4.002   2.634   8.558  1.00  0.00     0.262 C 
ATOM     71  C   UNL     1       3.474   4.937   7.999  1.00  0.00     0.274 C 
ATOM     72  H   UNL     1       2.469   3.300   7.475  1.00  0.00     0.348 HD
ATOM     73  C   UNL     1       3.138   2.670   9.816  1.00  0.00     0.062 C 
ATOM     74  C   UNL     1       2.614   5.126   9.252  1.00  0.00     0.116 C 
ATOM     75  C   UNL     1       2.906   4.087  10.341  1.00  0.00     0.023 C 
BRANCH  74  76
ATOM     76  C   UNL     1       1.138   5.319   8.900  1.00  0.00     0.171 C 
ATOM     77  O   UNL     1       0.582   6.410   9.027  1.00  0.00    -0.294 OA
BRANCH  76  78
ATOM     78  C   UNL     1       0.348   4.218   8.313  1.00  0.00     0.019 A 
ATOM     79  C   UNL     1      -0.223   3.249   9.134  1.00  0.00     0.012 A 
ATOM     80  C   UNL     1       0.097   4.222   6.937  1.00  0.00     0.020 A 
ATOM     81  C   UNL     1      -0.995   2.233   8.566  1.00  0.00     0.009 A 
ATOM     82  C   UNL     1      -0.690   3.213   6.357  1.00  0.00    -0.018 A 
ATOM     83  C   UNL     1      -1.234   2.200   7.182  1.00  0.00    -0.018 A 
ATOM     84  C   UNL     1      -0.957   3.192   4.978  1.00  0.00     0.009 A 
ATOM     85  C   UNL     1      -2.016   1.188   6.602  1.00  0.00     0.009 A 
ATOM     86  C   UNL     1      -1.741   2.182   4.419  1.00  0.00     0.001 A 
ATOM     87  C   UNL     1      -2.267   1.180   5.229  1.00  0.00     0.001 A 
ENDBRANCH  76  78
ENDBRANCH  74  76
ENDBRANCH  68  69
ENDBRANCH  64  68
ENDBRANCH  59  62
ENDBRANCH   1  58
TORSDOF 14
