REMARK SMILES Cc1oc2ccc(NS(=O)(=O)c3ccc(C(C)C)cc3)cc2c1C(=O)NCCCNC(=O)c1ccc(-c2c3nc(c(-c4ccccc4)c4ccc([nH]4)c(-c4ccccc4)c4nc(c(-c5ccccc5)c5ccc2[nH]5)C=C4)C=C3)cc1
REMARK SMILES IDX 27 1 26 2 24 3 25 4 23 6 1 7 2 8 3 9 4 10 22 11 5 12 21 13
REMARK SMILES IDX 6 14 7 15 8 16 9 18 10 19 11 20 12 21 13 22 20 23 14 24
REMARK SMILES IDX 19 25 15 26 16 27 17 28 18 29 28 30 29 31 30 32 31 33 32 35
REMARK SMILES IDX 33 36 34 37 80 38 35 39 79 40 36 41 37 42 38 43 73 44 39 45
REMARK SMILES IDX 78 46 72 47 74 48 40 49 77 50 71 51 70 52 41 54 63 55 48 56
REMARK SMILES IDX 62 57 49 58 52 59 61 60 75 61 50 62 51 63 60 65 76 66 53 67
REMARK SMILES IDX 42 68 43 69 47 70 44 71 46 72 45 73 64 74 65 75 69 76 66 77
REMARK SMILES IDX 68 78 67 79 54 80 55 81 59 82 56 83 58 84 57 85
REMARK H PARENT 26 5 8 17 30 34 74 53 52 64
REMARK Flexibility Score: inf
ROOT
ATOM      1  C   UNL     1       4.138  -1.615   0.355  1.00  0.00     0.118 C 
ENDROOT
BRANCH   1   2
ATOM      2  N   UNL     1       3.184  -2.340  -0.462  1.00  0.00    -0.352 N 
ATOM      3  C   UNL     1       1.987  -1.962  -1.024  1.00  0.00     0.255 C 
ATOM      4  O   UNL     1       1.426  -2.800  -1.730  1.00  0.00    -0.269 OA
ATOM      5  H   UNL     1       3.440  -3.273  -0.647  1.00  0.00     0.163 HD
BRANCH   3   6
ATOM      6  C   UNL     1       1.361  -0.680  -0.732  1.00  0.00     0.088 A 
ATOM      7  C   UNL     1       3.250   1.182  -0.866  1.00  0.00     0.088 C 
ATOM      8  C   UNL     1       1.916   0.589  -0.622  1.00  0.00     0.114 A 
ATOM      9  O   UNL     1       0.971   1.490  -0.222  1.00  0.00    -0.461 OA
ATOM     10  C   UNL     1      -0.223   0.845  -0.193  1.00  0.00     0.135 A 
ATOM     11  C   UNL     1      -0.057  -0.471  -0.591  1.00  0.00     0.035 A 
ATOM     12  C   UNL     1      -1.448   1.412   0.151  1.00  0.00     0.050 A 
ATOM     13  C   UNL     1      -1.217  -1.259  -0.749  1.00  0.00     0.039 A 
ATOM     14  C   UNL     1      -2.576   0.580   0.063  1.00  0.00     0.030 A 
ATOM     15  C   UNL     1      -2.470  -0.739  -0.392  1.00  0.00     0.050 A 
BRANCH  15  16
ATOM     16  N   UNL     1      -3.656  -1.522  -0.605  1.00  0.00    -0.280 N 
ATOM     17  H   UNL     1      -4.265  -1.286  -1.342  1.00  0.00     0.180 HD
BRANCH  16  18
ATOM     18  S   UNL     1      -4.029  -2.854   0.395  1.00  0.00     0.261 S 
ATOM     19  O   UNL     1      -4.359  -2.333   1.698  1.00  0.00    -0.201 OA
ATOM     20  O   UNL     1      -5.009  -3.629  -0.350  1.00  0.00    -0.201 OA
BRANCH  18  21
ATOM     21  C   UNL     1      -2.563  -3.837   0.551  1.00  0.00     0.087 A 
ATOM     22  C   UNL     1      -2.415  -5.017  -0.178  1.00  0.00     0.022 A 
ATOM     23  C   UNL     1      -1.556  -3.415   1.422  1.00  0.00     0.022 A 
ATOM     24  C   UNL     1      -1.199  -5.707  -0.130  1.00  0.00     0.005 A 
ATOM     25  C   UNL     1      -0.329  -4.079   1.426  1.00  0.00     0.005 A 
ATOM     26  C   UNL     1      -0.119  -5.206   0.614  1.00  0.00    -0.045 A 
BRANCH  26  27
ATOM     27  C   UNL     1       1.275  -5.809   0.544  1.00  0.00     0.013 C 
ATOM     28  C   UNL     1       1.520  -6.779   1.698  1.00  0.00     0.012 C 
ATOM     29  C   UNL     1       1.601  -6.474  -0.798  1.00  0.00     0.012 C 
ENDBRANCH  26  27
ENDBRANCH  18  21
ENDBRANCH  16  18
ENDBRANCH  15  16
ENDBRANCH   3   6
ENDBRANCH   1   2
BRANCH   1  30
ATOM     30  C   UNL     1       4.733  -2.397   1.521  1.00  0.00     0.042 C 
BRANCH  30  31
ATOM     31  C   UNL     1       5.349  -3.751   1.197  1.00  0.00     0.118 C 
BRANCH  31  32
ATOM     32  N   UNL     1       6.446  -3.703   0.243  1.00  0.00    -0.352 N 
ATOM     33  C   UNL     1       7.812  -3.761   0.377  1.00  0.00     0.251 C 
ATOM     34  H   UNL     1       6.148  -3.609  -0.690  1.00  0.00     0.163 HD
ATOM     35  O   UNL     1       8.500  -3.615  -0.633  1.00  0.00    -0.269 OA
BRANCH  33  36
ATOM     36  C   UNL     1       8.491  -3.941   1.685  1.00  0.00     0.039 A 
ATOM     37  C   UNL     1       9.712  -3.283   1.891  1.00  0.00     0.014 A 
ATOM     38  C   UNL     1       7.999  -4.773   2.690  1.00  0.00     0.014 A 
ATOM     39  C   UNL     1      10.379  -3.388   3.117  1.00  0.00     0.010 A 
ATOM     40  C   UNL     1       8.610  -4.798   3.946  1.00  0.00     0.010 A 
ATOM     41  C   UNL     1       9.806  -4.105   4.177  1.00  0.00    -0.014 A 
BRANCH  41  42
ATOM     42  C   UNL     1      10.433  -4.138   5.528  1.00  0.00     0.031 A 
ATOM     43  C   UNL     1      10.856  -5.445   6.147  1.00  0.00     0.074 A 
ATOM     44  C   UNL     1      10.553  -2.997   6.238  1.00  0.00     0.049 A 
ATOM     45  N   UNL     1      11.323  -5.677   7.349  1.00  0.00    -0.248 NA
ATOM     46  C   UNL     1      10.706  -6.652   5.320  1.00  0.00     0.031 C 
ATOM     47  C   UNL     1      10.150  -1.665   5.782  1.00  0.00     0.029 A 
ATOM     48  N   UNL     1      11.041  -2.778   7.503  1.00  0.00    -0.354 N 
ATOM     49  C   UNL     1      11.490  -7.054   7.432  1.00  0.00     0.074 A 
ATOM     50  C   UNL     1      11.035  -7.609   6.175  1.00  0.00     0.031 C 
ATOM     51  C   UNL     1      10.434  -0.767   6.738  1.00  0.00     0.029 A 
ATOM     52  C   UNL     1      10.995  -1.461   7.892  1.00  0.00     0.049 A 
ATOM     53  H   UNL     1      11.390  -3.497   8.078  1.00  0.00     0.167 HD
ATOM     54  C   UNL     1      11.992  -7.793   8.451  1.00  0.00     0.031 A 
ATOM     55  C   UNL     1      11.354  -0.873   9.049  1.00  0.00     0.031 A 
ATOM     56  C   UNL     1      12.475  -7.245   9.691  1.00  0.00     0.049 A 
ATOM     57  C   UNL     1      11.912  -1.712  10.163  1.00  0.00     0.074 A 
ATOM     58  C   UNL     1      13.065  -7.909  10.753  1.00  0.00     0.029 A 
ATOM     59  N   UNL     1      12.425  -5.904  10.034  1.00  0.00    -0.354 N 
ATOM     60  N   UNL     1      12.117  -3.006  10.199  1.00  0.00    -0.248 NA
ATOM     61  C   UNL     1      12.297  -1.006  11.394  1.00  0.00     0.031 C 
ATOM     62  C   UNL     1      13.331  -6.974  11.759  1.00  0.00     0.029 A 
ATOM     63  C   UNL     1      12.955  -5.722  11.301  1.00  0.00     0.049 A 
ATOM     64  H   UNL     1      12.066  -5.187   9.463  1.00  0.00     0.167 HD
ATOM     65  C   UNL     1      12.680  -3.265  11.442  1.00  0.00     0.074 A 
ATOM     66  C   UNL     1      12.797  -1.993  12.124  1.00  0.00     0.031 C 
ATOM     67  C   UNL     1      13.066  -4.452  11.970  1.00  0.00     0.031 A 
BRANCH  54  68
ATOM     68  C   UNL     1      12.041  -9.285   8.267  1.00  0.00    -0.014 A 
ATOM     69  C   UNL     1      12.941  -9.880   7.368  1.00  0.00     0.009 A 
ATOM     70  C   UNL     1      11.201 -10.110   9.031  1.00  0.00     0.009 A 
ATOM     71  C   UNL     1      12.968 -11.267   7.208  1.00  0.00     0.001 A 
ATOM     72  C   UNL     1      11.252 -11.498   8.891  1.00  0.00     0.001 A 
ATOM     73  C   UNL     1      12.127 -12.075   7.973  1.00  0.00     0.000 A 
ENDBRANCH  54  68
BRANCH  55  74
ATOM     74  C   UNL     1      11.213   0.598   9.210  1.00  0.00    -0.014 A 
ATOM     75  C   UNL     1      12.351   1.419   9.234  1.00  0.00     0.009 A 
ATOM     76  C   UNL     1       9.947   1.187   9.343  1.00  0.00     0.009 A 
ATOM     77  C   UNL     1      12.224   2.799   9.412  1.00  0.00     0.001 A 
ATOM     78  C   UNL     1       9.822   2.570   9.494  1.00  0.00     0.001 A 
ATOM     79  C   UNL     1      10.960   3.373   9.537  1.00  0.00     0.000 A 
ENDBRANCH  55  74
BRANCH  67  80
ATOM     80  C   UNL     1      13.685  -4.428  13.338  1.00  0.00    -0.014 A 
ATOM     81  C   UNL     1      12.910  -4.201  14.486  1.00  0.00     0.009 A 
ATOM     82  C   UNL     1      15.059  -4.676  13.482  1.00  0.00     0.009 A 
ATOM     83  C   UNL     1      13.505  -4.192  15.749  1.00  0.00     0.001 A 
ATOM     84  C   UNL     1      15.647  -4.693  14.748  1.00  0.00     0.001 A 
ATOM     85  C   UNL     1      14.871  -4.443  15.879  1.00  0.00     0.000 A 
ENDBRANCH  67  80
ENDBRANCH  41  42
ENDBRANCH  33  36
ENDBRANCH  31  32
ENDBRANCH  30  31
ENDBRANCH   1  30
TORSDOF 14
