REMARK SMILES O=C(NCCCNC(=O)c1ccc([C@@H]2CC(O)=Nc3c2ncn3-c2cccc(Cl)c2)cc1)c1ccc(-c2c3nc(c(-c4ccccc4)c4ccc([nH]4)c(-c4ccccc4)c4nc(c(-c5ccccc5)c5ccc2[nH]5)C=C4)C=C3)cc1
REMARK SMILES IDX 5 1 4 2 3 3 1 4 2 5 33 7 34 8 80 9 35 10 79 11 36 12 37 13
REMARK SMILES IDX 38 14 73 15 39 16 78 17 72 18 74 19 40 20 77 21 71 22 70 23
REMARK SMILES IDX 41 25 63 26 48 27 62 28 49 29 52 30 61 31 75 32 50 33 51 34
REMARK SMILES IDX 60 36 76 37 53 38 42 39 43 40 47 41 44 42 46 43 45 44 64 45
REMARK SMILES IDX 65 46 69 47 66 48 68 49 67 50 54 51 55 52 59 53 56 54 58 55
REMARK SMILES IDX 57 56 6 57 7 58 8 59 9 61 10 62 11 63 32 64 12 65 31 66
REMARK SMILES IDX 13 67 14 68 15 69 20 70 16 71 19 72 21 73 18 74 23 75 22 76
REMARK SMILES IDX 17 77 24 79 25 80 30 81 26 82 28 83 27 84 29 85
REMARK H PARENT 3 6 74 24 52 35 7 60 17 78
REMARK Flexibility Score: inf
ROOT
ATOM      1  C   UNL     1       4.960  -1.005   1.956  1.00  0.00     0.042 C 
ENDROOT
BRANCH   1   2
ATOM      2  C   UNL     1       4.630  -1.034   0.468  1.00  0.00     0.118 C 
BRANCH   2   3
ATOM      3  N   UNL     1       3.220  -1.128   0.146  1.00  0.00    -0.352 N 
ATOM      4  O   UNL     1       1.158  -0.667  -0.486  1.00  0.00    -0.269 OA
ATOM      5  C   UNL     1       2.195  -0.234   0.023  1.00  0.00     0.251 C 
ATOM      6  H   UNL     1       2.934  -2.054  -0.023  1.00  0.00     0.163 HD
BRANCH   5   7
ATOM      7  C   UNL     1       2.206   1.166   0.526  1.00  0.00     0.039 A 
ATOM      8  C   UNL     1       3.331   1.909   0.886  1.00  0.00     0.014 A 
ATOM      9  C   UNL     1       0.936   1.760   0.664  1.00  0.00     0.014 A 
ATOM     10  C   UNL     1       3.183   3.178   1.453  1.00  0.00     0.010 A 
ATOM     11  C   UNL     1       0.783   3.022   1.222  1.00  0.00     0.010 A 
ATOM     12  C   UNL     1       1.908   3.719   1.648  1.00  0.00    -0.014 A 
BRANCH  12  13
ATOM     13  C   UNL     1       1.780   5.101   2.110  1.00  0.00     0.031 A 
ATOM     14  C   UNL     1       2.243   6.117   1.123  1.00  0.00     0.074 A 
ATOM     15  C   UNL     1       1.130   5.468   3.235  1.00  0.00     0.049 A 
ATOM     16  N   UNL     1       3.201   6.974   1.255  1.00  0.00    -0.248 NA
ATOM     17  C   UNL     1       1.632   6.106  -0.217  1.00  0.00     0.031 C 
ATOM     18  C   UNL     1       0.360   4.615   4.144  1.00  0.00     0.029 A 
ATOM     19  N   UNL     1       0.921   6.719   3.744  1.00  0.00    -0.354 N 
ATOM     20  C   UNL     1       3.201   7.735   0.088  1.00  0.00     0.074 A 
ATOM     21  C   UNL     1       2.323   7.064  -0.836  1.00  0.00     0.031 C 
ATOM     22  C   UNL     1      -0.410   5.391   4.942  1.00  0.00     0.029 A 
ATOM     23  C   UNL     1      -0.094   6.788   4.694  1.00  0.00     0.049 A 
ATOM     24  H   UNL     1       1.445   7.504   3.463  1.00  0.00     0.167 HD
ATOM     25  C   UNL     1       3.730   8.990   0.053  1.00  0.00     0.031 A 
ATOM     26  C   UNL     1      -0.672   7.909   5.199  1.00  0.00     0.031 A 
ATOM     27  C   UNL     1       4.593   9.238   1.177  1.00  0.00     0.049 A 
ATOM     28  C   UNL     1       0.236   9.045   4.935  1.00  0.00     0.074 A 
ATOM     29  C   UNL     1       5.750   8.672   1.672  1.00  0.00     0.029 A 
ATOM     30  N   UNL     1       4.078   9.998   2.199  1.00  0.00    -0.354 N 
ATOM     31  N   UNL     1       1.386   9.198   5.523  1.00  0.00    -0.248 NA
ATOM     32  C   UNL     1       0.057   9.794   3.702  1.00  0.00     0.031 C 
ATOM     33  C   UNL     1       5.606   8.726   3.089  1.00  0.00     0.029 A 
ATOM     34  C   UNL     1       4.408   9.382   3.375  1.00  0.00     0.049 A 
ATOM     35  H   UNL     1       3.567  10.834   2.103  1.00  0.00     0.167 HD
ATOM     36  C   UNL     1       2.224   9.668   4.525  1.00  0.00     0.074 A 
ATOM     37  C   UNL     1       1.330  10.118   3.459  1.00  0.00     0.031 C 
ATOM     38  C   UNL     1       3.559   9.383   4.543  1.00  0.00     0.031 A 
BRANCH  25  39
ATOM     39  C   UNL     1       3.118  10.127  -0.735  1.00  0.00    -0.014 A 
ATOM     40  C   UNL     1       3.733  11.392  -0.675  1.00  0.00     0.009 A 
ATOM     41  C   UNL     1       1.814  10.085  -1.263  1.00  0.00     0.009 A 
ATOM     42  C   UNL     1       3.041  12.558  -1.024  1.00  0.00     0.001 A 
ATOM     43  C   UNL     1       1.136  11.243  -1.654  1.00  0.00     0.001 A 
ATOM     44  C   UNL     1       1.737  12.483  -1.501  1.00  0.00     0.000 A 
ENDBRANCH  25  39
BRANCH  26  45
ATOM     45  C   UNL     1      -2.060   8.135   5.666  1.00  0.00    -0.014 A 
ATOM     46  C   UNL     1      -2.388   9.264   6.438  1.00  0.00     0.009 A 
ATOM     47  C   UNL     1      -3.120   7.399   5.107  1.00  0.00     0.009 A 
ATOM     48  C   UNL     1      -3.722   9.664   6.606  1.00  0.00     0.001 A 
ATOM     49  C   UNL     1      -4.451   7.796   5.278  1.00  0.00     0.001 A 
ATOM     50  C   UNL     1      -4.752   8.938   6.013  1.00  0.00     0.000 A 
ENDBRANCH  26  45
BRANCH  38  51
ATOM     51  C   UNL     1       4.140   8.784   5.798  1.00  0.00    -0.014 A 
ATOM     52  C   UNL     1       3.716   7.558   6.341  1.00  0.00     0.009 A 
ATOM     53  C   UNL     1       5.254   9.416   6.370  1.00  0.00     0.009 A 
ATOM     54  C   UNL     1       4.369   7.002   7.446  1.00  0.00     0.001 A 
ATOM     55  C   UNL     1       5.920   8.849   7.457  1.00  0.00     0.001 A 
ATOM     56  C   UNL     1       5.474   7.646   7.999  1.00  0.00     0.000 A 
ENDBRANCH  38  51
ENDBRANCH  12  13
ENDBRANCH   5   7
ENDBRANCH   2   3
ENDBRANCH   1   2
BRANCH   1  57
ATOM     57  C   UNL     1       4.428  -2.188   2.762  1.00  0.00     0.118 C 
BRANCH  57  58
ATOM     58  N   UNL     1       4.950  -3.470   2.315  1.00  0.00    -0.352 N 
ATOM     59  C   UNL     1       5.721  -4.399   2.973  1.00  0.00     0.251 C 
ATOM     60  H   UNL     1       4.712  -3.711   1.391  1.00  0.00     0.163 HD
ATOM     61  O   UNL     1       6.167  -5.359   2.360  1.00  0.00    -0.269 OA
BRANCH  59  62
ATOM     62  C   UNL     1       6.033  -4.241   4.411  1.00  0.00     0.039 A 
ATOM     63  C   UNL     1       7.350  -4.440   4.830  1.00  0.00     0.014 A 
ATOM     64  C   UNL     1       5.039  -3.952   5.350  1.00  0.00     0.014 A 
ATOM     65  C   UNL     1       7.685  -4.273   6.175  1.00  0.00     0.005 A 
ATOM     66  C   UNL     1       5.377  -3.767   6.691  1.00  0.00     0.005 A 
ATOM     67  C   UNL     1       6.707  -3.915   7.121  1.00  0.00    -0.038 A 
BRANCH  67  68
ATOM     68  C   UNL     1       7.111  -3.741   8.575  1.00  0.00     0.081 C 
ATOM     69  C   UNL     1       6.322  -4.669   9.524  1.00  0.00     0.111 C 
ATOM     70  C   UNL     1       6.896  -2.309   8.910  1.00  0.00     0.093 A 
ATOM     71  C   UNL     1       5.322  -3.968  10.429  1.00  0.00     0.188 C 
ATOM     72  C   UNL     1       6.040  -1.927   9.918  1.00  0.00     0.164 A 
ATOM     73  N   UNL     1       7.454  -1.229   8.282  1.00  0.00    -0.238 NA
ATOM     74  N   UNL     1       5.215  -2.700  10.664  1.00  0.00    -0.198 NA
ATOM     75  N   UNL     1       6.079  -0.544   9.925  1.00  0.00    -0.283 N 
ATOM     76  C   UNL     1       6.909  -0.187   8.880  1.00  0.00     0.206 A 
BRANCH  71  77
ATOM     77  O   UNL     1       4.491  -4.806  11.080  1.00  0.00    -0.496 OA
ATOM     78  H   UNL     1       4.545  -5.730  10.930  1.00  0.00     0.294 HD
ENDBRANCH  71  77
BRANCH  75  79
ATOM     79  C   UNL     1       5.419   0.334  10.816  1.00  0.00     0.050 A 
ATOM     80  C   UNL     1       4.878   1.538  10.348  1.00  0.00     0.027 A 
ATOM     81  C   UNL     1       5.320  -0.005  12.172  1.00  0.00     0.047 A 
ATOM     82  C   UNL     1       4.205   2.382  11.235  1.00  0.00     0.004 A 
ATOM     83  C   UNL     1       4.692   0.870  13.054  1.00  0.00     0.043 A 
ATOM     84  C   UNL     1       4.121   2.054  12.590  1.00  0.00     0.020 A 
ATOM     85  Cl  UNL     1       4.641   0.500  14.734  1.00  0.00    -0.084 Cl
ENDBRANCH  75  79
ENDBRANCH  67  68
ENDBRANCH  59  62
ENDBRANCH  57  58
ENDBRANCH   1  57
TORSDOF 13
