REMARK SMILES C[NH+](C)[C@@H]1CC[N@@H+](Cc2ccc(C(=O)NCCCNC(=O)c3ccc(-c4c5nc(c(-c6ccccc6)c6ccc([nH]6)c(-c6ccccc6)c6nc(c(-c7ccccc7)c7ccc4[nH]7)C=C6)C=C5)cc3)cn2)C1
REMARK SMILES IDX 16 1 15 2 13 3 14 4 12 6 9 7 10 8 71 9 11 10 70 11 8 12 7 13
REMARK SMILES IDX 4 14 5 15 72 16 6 17 2 19 1 20 3 21 17 23 18 24 19 25 20 26
REMARK SMILES IDX 21 28 22 29 23 30 69 31 24 32 68 33 25 34 26 35 27 36 62 37
REMARK SMILES IDX 28 38 67 39 61 40 63 41 29 42 66 43 60 44 59 45 30 47 52 48
REMARK SMILES IDX 37 49 51 50 38 51 41 52 50 53 64 54 39 55 40 56 49 58 65 59
REMARK SMILES IDX 42 60 31 61 32 62 36 63 33 64 35 65 34 66 53 67 54 68 58 69
REMARK SMILES IDX 55 70 57 71 56 72 43 73 44 74 48 75 45 76 47 77 46 78
REMARK H PARENT 15 5 7 18 2 22 19 27 63 46 41 57
REMARK Flexibility Score: inf
ROOT
ATOM      1  C   UNL     1       5.214  -0.468   0.874  1.00  0.00     0.118 C 
ENDROOT
BRANCH   1   2
ATOM      2  N   UNL     1       6.022   0.510   1.584  1.00  0.00    -0.352 N 
ATOM      3  C   UNL     1       6.071   1.878   1.488  1.00  0.00     0.252 C 
ATOM      4  O   UNL     1       6.753   2.505   2.295  1.00  0.00    -0.269 OA
ATOM      5  H   UNL     1       6.639   0.125   2.247  1.00  0.00     0.163 HD
BRANCH   3   6
ATOM      6  C   UNL     1       5.282   2.619   0.486  1.00  0.00     0.058 A 
ATOM      7  C   UNL     1       3.642   4.090  -1.172  1.00  0.00     0.095 A 
ATOM      8  C   UNL     1       4.316   2.983  -1.688  1.00  0.00     0.030 A 
ATOM      9  N   UNL     1       3.831   4.517   0.103  1.00  0.00    -0.255 NA
ATOM     10  C   UNL     1       5.145   2.242  -0.847  1.00  0.00     0.017 A 
ATOM     11  C   UNL     1       4.655   3.787   0.894  1.00  0.00     0.125 A 
BRANCH   7  12
ATOM     12  C   UNL     1       2.593   4.807  -2.004  1.00  0.00     0.319 C 
BRANCH  12  13
ATOM     13  N   UNL     1       1.190   4.367  -1.871  1.00  0.00    -0.325 N 
ATOM     14  C   UNL     1       1.004   2.105  -1.052  1.00  0.00     0.245 C 
ATOM     15  C   UNL     1       0.698   3.059   0.108  1.00  0.00     0.132 C 
ATOM     16  C   UNL     1       0.908   2.994  -2.308  1.00  0.00     0.328 C 
ATOM     17  C   UNL     1       0.665   4.458  -0.505  1.00  0.00     0.269 C 
ATOM     18  H   UNL     1       0.730   5.028  -2.497  1.00  0.00     0.348 HD
BRANCH  14  19
ATOM     19  N   UNL     1       0.296   0.811  -1.101  1.00  0.00    -0.333 N 
ATOM     20  C   UNL     1       0.665  -0.037   0.035  1.00  0.00     0.332 C 
ATOM     21  C   UNL     1      -1.159   0.924  -1.188  1.00  0.00     0.332 C 
ATOM     22  H   UNL     1       0.603   0.376  -1.970  1.00  0.00     0.348 HD
ENDBRANCH  14  19
ENDBRANCH  12  13
ENDBRANCH   7  12
ENDBRANCH   3   6
ENDBRANCH   1   2
BRANCH   1  23
ATOM     23  C   UNL     1       6.038  -1.242  -0.152  1.00  0.00     0.042 C 
BRANCH  23  24
ATOM     24  C   UNL     1       7.073  -2.177   0.467  1.00  0.00     0.118 C 
BRANCH  24  25
ATOM     25  N   UNL     1       6.466  -3.334   1.108  1.00  0.00    -0.352 N 
ATOM     26  C   UNL     1       6.615  -4.673   0.842  1.00  0.00     0.251 C 
ATOM     27  H   UNL     1       5.852  -3.124   1.849  1.00  0.00     0.163 HD
ATOM     28  O   UNL     1       5.860  -5.483   1.371  1.00  0.00    -0.269 OA
BRANCH  26  29
ATOM     29  C   UNL     1       7.662  -5.149  -0.091  1.00  0.00     0.039 A 
ATOM     30  C   UNL     1       7.348  -6.177  -0.986  1.00  0.00     0.014 A 
ATOM     31  C   UNL     1       8.956  -4.622  -0.064  1.00  0.00     0.014 A 
ATOM     32  C   UNL     1       8.309  -6.628  -1.895  1.00  0.00     0.010 A 
ATOM     33  C   UNL     1       9.890  -5.021  -1.017  1.00  0.00     0.010 A 
ATOM     34  C   UNL     1       9.577  -6.029  -1.942  1.00  0.00    -0.014 A 
BRANCH  34  35
ATOM     35  C   UNL     1      10.586  -6.433  -2.954  1.00  0.00     0.031 A 
ATOM     36  C   UNL     1      11.882  -7.065  -2.527  1.00  0.00     0.074 A 
ATOM     37  C   UNL     1      10.365  -6.167  -4.256  1.00  0.00     0.049 A 
ATOM     38  N   UNL     1      12.910  -7.416  -3.258  1.00  0.00    -0.248 NA
ATOM     39  C   UNL     1      12.055  -7.314  -1.087  1.00  0.00     0.031 C 
ATOM     40  C   UNL     1       9.163  -5.531  -4.800  1.00  0.00     0.029 A 
ATOM     41  N   UNL     1      11.151  -6.391  -5.359  1.00  0.00    -0.354 N 
ATOM     42  C   UNL     1      13.856  -7.908  -2.368  1.00  0.00     0.074 A 
ATOM     43  C   UNL     1      13.299  -7.767  -1.040  1.00  0.00     0.031 C 
ATOM     44  C   UNL     1       9.280  -5.441  -6.134  1.00  0.00     0.029 A 
ATOM     45  C   UNL     1      10.579  -5.971  -6.535  1.00  0.00     0.049 A 
ATOM     46  H   UNL     1      12.039  -6.813  -5.312  1.00  0.00     0.167 HD
ATOM     47  C   UNL     1      15.073  -8.444  -2.630  1.00  0.00     0.031 A 
ATOM     48  C   UNL     1      11.050  -5.999  -7.796  1.00  0.00     0.031 A 
ATOM     49  C   UNL     1      15.627  -8.587  -3.950  1.00  0.00     0.049 A 
ATOM     50  C   UNL     1      12.415  -6.569  -8.060  1.00  0.00     0.074 A 
ATOM     51  C   UNL     1      16.828  -9.166  -4.324  1.00  0.00     0.029 A 
ATOM     52  N   UNL     1      15.019  -8.141  -5.114  1.00  0.00    -0.354 N 
ATOM     53  N   UNL     1      13.271  -7.085  -7.213  1.00  0.00    -0.248 NA
ATOM     54  C   UNL     1      12.873  -6.566  -9.456  1.00  0.00     0.031 C 
ATOM     55  C   UNL     1      16.970  -9.023  -5.709  1.00  0.00     0.029 A 
ATOM     56  C   UNL     1      15.832  -8.406  -6.203  1.00  0.00     0.049 A 
ATOM     57  H   UNL     1      14.139  -7.701  -5.159  1.00  0.00     0.167 HD
ATOM     58  C   UNL     1      14.359  -7.492  -7.975  1.00  0.00     0.074 A 
ATOM     59  C   UNL     1      14.047  -7.174  -9.354  1.00  0.00     0.031 C 
ATOM     60  C   UNL     1      15.511  -8.078  -7.569  1.00  0.00     0.031 A 
BRANCH  47  61
ATOM     61  C   UNL     1      15.892  -8.901  -1.454  1.00  0.00    -0.014 A 
ATOM     62  C   UNL     1      15.517 -10.024  -0.697  1.00  0.00     0.009 A 
ATOM     63  C   UNL     1      17.064  -8.212  -1.108  1.00  0.00     0.009 A 
ATOM     64  C   UNL     1      16.274 -10.417   0.409  1.00  0.00     0.001 A 
ATOM     65  C   UNL     1      17.836  -8.626  -0.020  1.00  0.00     0.001 A 
ATOM     66  C   UNL     1      17.434  -9.720   0.744  1.00  0.00     0.000 A 
ENDBRANCH  47  61
BRANCH  48  67
ATOM     67  C   UNL     1      10.213  -5.485  -8.910  1.00  0.00    -0.014 A 
ATOM     68  C   UNL     1       9.637  -6.373  -9.831  1.00  0.00     0.009 A 
ATOM     69  C   UNL     1       9.975  -4.109  -9.054  1.00  0.00     0.009 A 
ATOM     70  C   UNL     1       8.855  -5.893 -10.884  1.00  0.00     0.001 A 
ATOM     71  C   UNL     1       9.171  -3.634 -10.093  1.00  0.00     0.001 A 
ATOM     72  C   UNL     1       8.618  -4.525 -11.011  1.00  0.00     0.000 A 
ENDBRANCH  48  67
BRANCH  60  73
ATOM     73  C   UNL     1      16.509  -8.440  -8.632  1.00  0.00    -0.014 A 
ATOM     74  C   UNL     1      17.268  -7.457  -9.285  1.00  0.00     0.009 A 
ATOM     75  C   UNL     1      16.720  -9.790  -8.956  1.00  0.00     0.009 A 
ATOM     76  C   UNL     1      18.197  -7.817 -10.264  1.00  0.00     0.001 A 
ATOM     77  C   UNL     1      17.669 -10.148  -9.914  1.00  0.00     0.001 A 
ATOM     78  C   UNL     1      18.401  -9.161 -10.573  1.00  0.00     0.000 A 
ENDBRANCH  60  73
ENDBRANCH  34  35
ENDBRANCH  26  29
ENDBRANCH  24  25
ENDBRANCH  23  24
ENDBRANCH   1  23
TORSDOF 13
