REMARK SMILES O=C(Nc1ccc2c(c1)OCO2)N[C@H]1C=C[C@@H](C(=O)NCCCNC(=O)c2ccc(-c3c4nc(c(-c5ccccc5)c5ccc([nH]5)c(-c5ccccc5)c5nc(c(-c6ccccc6)c6ccc3[nH]6)C=C5)C=C4)cc2)C1
REMARK SMILES IDX 22 1 21 2 20 3 18 4 19 5 17 7 14 8 15 9 75 10 16 11 13 12
REMARK SMILES IDX 1 13 2 14 3 15 4 18 5 19 9 20 6 21 8 22 7 23 10 24 12 25
REMARK SMILES IDX 11 26 23 27 24 28 25 29 26 31 27 32 28 33 74 34 29 35 73 36
REMARK SMILES IDX 30 37 31 38 32 39 67 40 33 41 72 42 66 43 68 44 34 45 71 46
REMARK SMILES IDX 65 47 64 48 35 50 57 51 42 52 56 53 43 54 46 55 55 56 69 57
REMARK SMILES IDX 44 58 45 59 54 61 70 62 47 63 36 64 37 65 41 66 38 67 40 68
REMARK SMILES IDX 39 69 58 70 59 71 63 72 60 73 62 74 61 75 48 76 49 77 53 78
REMARK SMILES IDX 50 79 52 80 51 81
REMARK H PARENT 20 6 3 16 13 17 24 30 68 49 46 60
REMARK Flexibility Score: inf
ROOT
ATOM      1  C   UNL     1       0.162   1.944   0.862  1.00  0.00     0.042 C 
ENDROOT
BRANCH   1   2
ATOM      2  C   UNL     1      -0.789   1.362  -0.179  1.00  0.00     0.117 C 
BRANCH   2   3
ATOM      3  N   UNL     1      -1.187   2.337  -1.175  1.00  0.00    -0.356 N 
ATOM      4  C   UNL     1      -0.823   2.445  -2.482  1.00  0.00     0.227 C 
ATOM      5  O   UNL     1      -1.387   3.323  -3.145  1.00  0.00    -0.274 OA
ATOM      6  H   UNL     1      -1.816   3.024  -0.858  1.00  0.00     0.163 HD
BRANCH   4   7
ATOM      7  C   UNL     1       0.241   1.552  -3.143  1.00  0.00     0.103 C 
ATOM      8  C   UNL     1       2.197   0.195  -2.556  1.00  0.00     0.107 C 
ATOM      9  C   UNL     1       1.008  -0.652  -2.853  1.00  0.00    -0.006 C 
ATOM     10  C   UNL     1       1.640   1.624  -2.517  1.00  0.00     0.047 C 
ATOM     11  C   UNL     1      -0.066   0.085  -3.170  1.00  0.00    -0.016 C 
BRANCH   8  12
ATOM     12  N   UNL     1       2.921  -0.203  -1.360  1.00  0.00    -0.332 N 
ATOM     13  O   UNL     1       1.237  -0.955  -0.001  1.00  0.00    -0.248 OA
ATOM     14  C   UNL     1       2.414  -0.647  -0.183  1.00  0.00     0.319 C 
ATOM     15  N   UNL     1       3.276  -0.867   0.845  1.00  0.00    -0.308 N 
ATOM     16  H   UNL     1       2.870  -1.351   1.600  1.00  0.00     0.171 HD
ATOM     17  H   UNL     1       3.903  -0.143  -1.411  1.00  0.00     0.165 HD
BRANCH  15  18
ATOM     18  C   UNL     1       4.625  -0.545   1.047  1.00  0.00     0.046 A 
ATOM     19  C   UNL     1       5.273   0.544   0.435  1.00  0.00     0.030 A 
ATOM     20  C   UNL     1       5.336  -1.379   1.920  1.00  0.00     0.076 A 
ATOM     21  C   UNL     1       6.647   0.748   0.611  1.00  0.00     0.053 A 
ATOM     22  C   UNL     1       6.691  -1.176   2.047  1.00  0.00     0.167 A 
ATOM     23  C   UNL     1       7.334  -0.149   1.399  1.00  0.00     0.165 A 
ATOM     24  O   UNL     1       7.544  -1.952   2.768  1.00  0.00    -0.454 OA
ATOM     25  O   UNL     1       8.673  -0.153   1.630  1.00  0.00    -0.454 OA
ATOM     26  C   UNL     1       8.810  -1.366   2.401  1.00  0.00     0.468 C 
ENDBRANCH  15  18
ENDBRANCH   8  12
ENDBRANCH   4   7
ENDBRANCH   2   3
ENDBRANCH   1   2
BRANCH   1  27
ATOM     27  C   UNL     1      -0.536   2.772   1.928  1.00  0.00     0.118 C 
BRANCH  27  28
ATOM     28  N   UNL     1      -1.327   1.949   2.833  1.00  0.00    -0.352 N 
ATOM     29  C   UNL     1      -1.248   1.786   4.191  1.00  0.00     0.251 C 
ATOM     30  H   UNL     1      -2.036   1.423   2.397  1.00  0.00     0.163 HD
ATOM     31  O   UNL     1      -1.896   0.887   4.727  1.00  0.00    -0.269 OA
BRANCH  29  32
ATOM     32  C   UNL     1      -0.396   2.662   5.027  1.00  0.00     0.039 A 
ATOM     33  C   UNL     1       0.225   2.112   6.155  1.00  0.00     0.014 A 
ATOM     34  C   UNL     1      -0.252   4.025   4.757  1.00  0.00     0.014 A 
ATOM     35  C   UNL     1       1.008   2.917   6.986  1.00  0.00     0.010 A 
ATOM     36  C   UNL     1       0.603   4.805   5.531  1.00  0.00     0.010 A 
ATOM     37  C   UNL     1       1.217   4.268   6.671  1.00  0.00    -0.014 A 
BRANCH  37  38
ATOM     38  C   UNL     1       2.017   5.153   7.553  1.00  0.00     0.031 A 
ATOM     39  C   UNL     1       1.357   6.322   8.237  1.00  0.00     0.074 A 
ATOM     40  C   UNL     1       3.339   4.944   7.701  1.00  0.00     0.049 A 
ATOM     41  N   UNL     1       1.893   7.253   8.987  1.00  0.00    -0.248 NA
ATOM     42  C   UNL     1      -0.091   6.484   8.025  1.00  0.00     0.031 C 
ATOM     43  C   UNL     1       4.107   3.871   7.066  1.00  0.00     0.029 A 
ATOM     44  N   UNL     1       4.272   5.632   8.435  1.00  0.00    -0.354 N 
ATOM     45  C   UNL     1       0.857   8.123   9.304  1.00  0.00     0.074 A 
ATOM     46  C   UNL     1      -0.327   7.638   8.629  1.00  0.00     0.031 C 
ATOM     47  C   UNL     1       5.388   3.956   7.462  1.00  0.00     0.029 A 
ATOM     48  C   UNL     1       5.537   5.105   8.349  1.00  0.00     0.049 A 
ATOM     49  H   UNL     1       4.055   6.428   8.972  1.00  0.00     0.167 HD
ATOM     50  C   UNL     1       0.878   9.216  10.103  1.00  0.00     0.031 A 
ATOM     51  C   UNL     1       6.687   5.503   8.924  1.00  0.00     0.031 A 
ATOM     52  C   UNL     1       2.045   9.682  10.802  1.00  0.00     0.049 A 
ATOM     53  C   UNL     1       6.680   6.700   9.833  1.00  0.00     0.074 A 
ATOM     54  C   UNL     1       2.160  10.751  11.674  1.00  0.00     0.029 A 
ATOM     55  N   UNL     1       3.297   9.095  10.718  1.00  0.00    -0.354 N 
ATOM     56  N   UNL     1       5.682   7.485  10.159  1.00  0.00    -0.248 NA
ATOM     57  C   UNL     1       7.957   7.051  10.469  1.00  0.00     0.031 C 
ATOM     58  C   UNL     1       3.493  10.828  12.095  1.00  0.00     0.029 A 
ATOM     59  C   UNL     1       4.193   9.780  11.520  1.00  0.00     0.049 A 
ATOM     60  H   UNL     1       3.517   8.308  10.169  1.00  0.00     0.167 HD
ATOM     61  C   UNL     1       6.202   8.401  11.064  1.00  0.00     0.074 A 
ATOM     62  C   UNL     1       7.600   8.067  11.243  1.00  0.00     0.031 C 
ATOM     63  C   UNL     1       5.577   9.425  11.694  1.00  0.00     0.031 A 
BRANCH  50  64
ATOM     64  C   UNL     1      -0.406   9.982  10.256  1.00  0.00    -0.014 A 
ATOM     65  C   UNL     1      -1.489   9.449  10.976  1.00  0.00     0.009 A 
ATOM     66  C   UNL     1      -0.533  11.257   9.686  1.00  0.00     0.009 A 
ATOM     67  C   UNL     1      -2.686  10.160  11.084  1.00  0.00     0.001 A 
ATOM     68  C   UNL     1      -1.721  11.979   9.820  1.00  0.00     0.001 A 
ATOM     69  C   UNL     1      -2.800  11.425  10.509  1.00  0.00     0.000 A 
ENDBRANCH  50  64
BRANCH  51  70
ATOM     70  C   UNL     1       7.939   4.738   8.690  1.00  0.00    -0.014 A 
ATOM     71  C   UNL     1       8.480   3.939   9.710  1.00  0.00     0.009 A 
ATOM     72  C   UNL     1       8.600   4.804   7.455  1.00  0.00     0.009 A 
ATOM     73  C   UNL     1       9.675   3.246   9.506  1.00  0.00     0.001 A 
ATOM     74  C   UNL     1       9.780   4.088   7.245  1.00  0.00     0.001 A 
ATOM     75  C   UNL     1      10.322   3.318   8.274  1.00  0.00     0.000 A 
ENDBRANCH  51  70
BRANCH  63  76
ATOM     76  C   UNL     1       6.388  10.221  12.676  1.00  0.00    -0.014 A 
ATOM     77  C   UNL     1       7.371  11.127  12.249  1.00  0.00     0.009 A 
ATOM     78  C   UNL     1       6.141  10.079  14.050  1.00  0.00     0.009 A 
ATOM     79  C   UNL     1       8.117  11.847  13.184  1.00  0.00     0.001 A 
ATOM     80  C   UNL     1       6.870  10.820  14.980  1.00  0.00     0.001 A 
ATOM     81  C   UNL     1       7.864  11.696  14.547  1.00  0.00     0.000 A 
ENDBRANCH  63  76
ENDBRANCH  37  38
ENDBRANCH  29  32
ENDBRANCH  27  28
ENDBRANCH   1  27
TORSDOF 12
