REMARK SMILES Cc1ccccc1NC(=O)CSc1nc(C(=O)NCCCNC(=O)c2ccc(-c3c4nc(c(-c5ccccc5)c5ccc([nH]5)c(-c5ccccc5)c5nc(c(-c6ccccc6)c6ccc3[nH]6)C=C5)C=C4)cc2)c2ccccc2n1
REMARK SMILES IDX 19 1 18 2 16 3 17 4 15 6 13 7 14 8 79 9 78 10 73 11 77 12
REMARK SMILES IDX 74 13 76 14 75 15 12 16 11 17 9 18 8 19 10 21 7 22 1 23 2 24
REMARK SMILES IDX 3 25 4 26 6 27 5 28 20 29 21 30 22 31 23 32 24 34 25 35
REMARK SMILES IDX 26 36 72 37 27 38 71 39 28 40 29 41 30 42 65 43 31 44 70 45
REMARK SMILES IDX 64 46 66 47 32 48 69 49 63 50 62 51 33 53 55 54 40 55 54 56
REMARK SMILES IDX 41 57 44 58 53 59 67 60 42 61 43 62 52 64 68 65 45 66 34 67
REMARK SMILES IDX 35 68 39 69 36 70 38 71 37 72 56 73 57 74 61 75 58 76 60 77
REMARK SMILES IDX 59 78 46 79 47 80 51 81 48 82 50 83 49 84
REMARK H PARENT 18 5 8 20 22 33 66 52 44 63
REMARK Flexibility Score: inf
ROOT
ATOM      1  C   UNL     1      -0.861   6.958  -6.710  1.00  0.00     0.118 C 
ENDROOT
BRANCH   1   2
ATOM      2  N   UNL     1      -0.841   7.613  -5.414  1.00  0.00    -0.351 N 
ATOM      3  C   UNL     1      -0.564   7.079  -4.163  1.00  0.00     0.270 C 
ATOM      4  O   UNL     1      -0.501   7.850  -3.207  1.00  0.00    -0.267 OA
ATOM      5  H   UNL     1      -1.054   8.575  -5.423  1.00  0.00     0.163 HD
BRANCH   3   6
ATOM      6  C   UNL     1      -0.453   5.593  -3.947  1.00  0.00     0.140 A 
ATOM      7  C   UNL     1      -1.429   3.837  -2.891  1.00  0.00     0.189 A 
ATOM      8  N   UNL     1      -1.278   5.154  -2.971  1.00  0.00    -0.217 NA
ATOM      9  N   UNL     1      -0.950   2.955  -3.777  1.00  0.00    -0.222 NA
ATOM     10  C   UNL     1      -0.126   3.413  -4.722  1.00  0.00     0.076 A 
ATOM     11  C   UNL     1       0.277   4.746  -4.792  1.00  0.00     0.032 A 
ATOM     12  C   UNL     1       0.315   2.539  -5.708  1.00  0.00     0.029 A 
ATOM     13  C   UNL     1       1.280   5.123  -5.726  1.00  0.00     0.013 A 
ATOM     14  C   UNL     1       1.189   2.945  -6.720  1.00  0.00     0.002 A 
ATOM     15  C   UNL     1       1.704   4.233  -6.707  1.00  0.00     0.001 A 
BRANCH   7  16
ATOM     16  S   UNL     1      -2.388   3.191  -1.559  1.00  0.00    -0.076 SA
BRANCH  16  17
ATOM     17  C   UNL     1      -1.447   3.875  -0.161  1.00  0.00     0.178 C 
BRANCH  17  18
ATOM     18  C   UNL     1       0.030   3.546  -0.194  1.00  0.00     0.234 C 
ATOM     19  N   UNL     1       0.568   2.308  -0.014  1.00  0.00    -0.325 N 
ATOM     20  H   UNL     1       1.552   2.330  -0.023  1.00  0.00     0.169 HD
ATOM     21  O   UNL     1       0.851   4.457  -0.382  1.00  0.00    -0.274 OA
BRANCH  19  22
ATOM     22  C   UNL     1       0.071   1.005   0.183  1.00  0.00     0.044 A 
ATOM     23  C   UNL     1       2.447   0.013  -0.164  1.00  0.00     0.046 C 
ATOM     24  C   UNL     1       0.956  -0.092   0.047  1.00  0.00    -0.027 A 
ATOM     25  C   UNL     1       0.442  -1.406   0.080  1.00  0.00     0.005 A 
ATOM     26  C   UNL     1      -0.910  -1.646   0.295  1.00  0.00     0.000 A 
ATOM     27  C   UNL     1      -1.267   0.733   0.483  1.00  0.00     0.026 A 
ATOM     28  C   UNL     1      -1.759  -0.576   0.523  1.00  0.00     0.002 A 
ENDBRANCH  19  22
ENDBRANCH  17  18
ENDBRANCH  16  17
ENDBRANCH   7  16
ENDBRANCH   3   6
ENDBRANCH   1   2
BRANCH   1  29
ATOM     29  C   UNL     1      -2.007   7.334  -7.617  1.00  0.00     0.042 C 
BRANCH  29  30
ATOM     30  C   UNL     1      -1.705   8.515  -8.519  1.00  0.00     0.118 C 
BRANCH  30  31
ATOM     31  N   UNL     1      -0.735   8.240  -9.588  1.00  0.00    -0.352 N 
ATOM     32  C   UNL     1      -0.489   8.993 -10.732  1.00  0.00     0.251 C 
ATOM     33  H   UNL     1      -0.194   7.424  -9.482  1.00  0.00     0.163 HD
ATOM     34  O   UNL     1       0.471   8.778 -11.450  1.00  0.00    -0.269 OA
BRANCH  32  35
ATOM     35  C   UNL     1      -1.391  10.137 -10.988  1.00  0.00     0.039 A 
ATOM     36  C   UNL     1      -0.879  11.408 -10.722  1.00  0.00     0.014 A 
ATOM     37  C   UNL     1      -2.760   9.887 -10.993  1.00  0.00     0.014 A 
ATOM     38  C   UNL     1      -1.721  12.348 -10.144  1.00  0.00     0.010 A 
ATOM     39  C   UNL     1      -3.569  10.785 -10.321  1.00  0.00     0.010 A 
ATOM     40  C   UNL     1      -3.019  11.967  -9.805  1.00  0.00    -0.014 A 
BRANCH  40  41
ATOM     41  C   UNL     1      -3.772  12.650  -8.752  1.00  0.00     0.031 A 
ATOM     42  C   UNL     1      -5.010  13.380  -9.083  1.00  0.00     0.074 A 
ATOM     43  C   UNL     1      -3.338  12.636  -7.469  1.00  0.00     0.049 A 
ATOM     44  N   UNL     1      -5.466  14.369  -8.389  1.00  0.00    -0.248 NA
ATOM     45  C   UNL     1      -5.781  13.124 -10.295  1.00  0.00     0.031 C 
ATOM     46  C   UNL     1      -4.067  13.066  -6.277  1.00  0.00     0.029 A 
ATOM     47  N   UNL     1      -2.030  12.446  -7.019  1.00  0.00    -0.354 N 
ATOM     48  C   UNL     1      -6.719  14.658  -8.870  1.00  0.00     0.074 A 
ATOM     49  C   UNL     1      -6.799  13.973 -10.134  1.00  0.00     0.031 C 
ATOM     50  C   UNL     1      -3.185  13.356  -5.307  1.00  0.00     0.029 A 
ATOM     51  C   UNL     1      -1.854  13.248  -5.877  1.00  0.00     0.049 A 
ATOM     52  H   UNL     1      -1.353  11.857  -7.426  1.00  0.00     0.167 HD
ATOM     53  C   UNL     1      -7.603  15.311  -8.067  1.00  0.00     0.031 A 
ATOM     54  C   UNL     1      -0.900  14.222  -5.830  1.00  0.00     0.031 A 
ATOM     55  C   UNL     1      -6.951  15.880  -6.885  1.00  0.00     0.049 A 
ATOM     56  C   UNL     1      -1.456  15.617  -5.639  1.00  0.00     0.074 A 
ATOM     57  C   UNL     1      -6.967  15.562  -5.537  1.00  0.00     0.029 A 
ATOM     58  N   UNL     1      -5.919  16.799  -7.058  1.00  0.00    -0.354 N 
ATOM     59  N   UNL     1      -2.716  15.927  -5.767  1.00  0.00    -0.248 NA
ATOM     60  C   UNL     1      -0.623  16.784  -5.356  1.00  0.00     0.031 C 
ATOM     61  C   UNL     1      -5.880  16.237  -4.915  1.00  0.00     0.029 A 
ATOM     62  C   UNL     1      -5.231  16.992  -5.876  1.00  0.00     0.049 A 
ATOM     63  H   UNL     1      -5.708  17.250  -7.907  1.00  0.00     0.167 HD
ATOM     64  C   UNL     1      -2.869  17.284  -5.648  1.00  0.00     0.074 A 
ATOM     65  C   UNL     1      -1.534  17.773  -5.358  1.00  0.00     0.031 C 
ATOM     66  C   UNL     1      -4.080  17.889  -5.833  1.00  0.00     0.031 A 
BRANCH  53  67
ATOM     67  C   UNL     1      -9.109  15.214  -8.228  1.00  0.00    -0.014 A 
ATOM     68  C   UNL     1      -9.948  15.723  -7.220  1.00  0.00     0.009 A 
ATOM     69  C   UNL     1      -9.767  14.535  -9.272  1.00  0.00     0.009 A 
ATOM     70  C   UNL     1     -11.339  15.528  -7.236  1.00  0.00     0.001 A 
ATOM     71  C   UNL     1     -11.155  14.351  -9.307  1.00  0.00     0.001 A 
ATOM     72  C   UNL     1     -11.943  14.838  -8.279  1.00  0.00     0.000 A 
ENDBRANCH  53  67
BRANCH  54  73
ATOM     73  C   UNL     1       0.327  13.902  -6.608  1.00  0.00    -0.014 A 
ATOM     74  C   UNL     1       1.141  12.840  -6.168  1.00  0.00     0.009 A 
ATOM     75  C   UNL     1       0.500  14.383  -7.913  1.00  0.00     0.009 A 
ATOM     76  C   UNL     1       2.022  12.202  -7.045  1.00  0.00     0.001 A 
ATOM     77  C   UNL     1       1.391  13.746  -8.786  1.00  0.00     0.001 A 
ATOM     78  C   UNL     1       2.125  12.637  -8.363  1.00  0.00     0.000 A 
ENDBRANCH  54  73
BRANCH  66  79
ATOM     79  C   UNL     1      -4.321  19.378  -5.946  1.00  0.00    -0.014 A 
ATOM     80  C   UNL     1      -3.341  20.321  -6.287  1.00  0.00     0.009 A 
ATOM     81  C   UNL     1      -5.642  19.863  -5.822  1.00  0.00     0.009 A 
ATOM     82  C   UNL     1      -3.654  21.680  -6.443  1.00  0.00     0.001 A 
ATOM     83  C   UNL     1      -5.967  21.208  -6.022  1.00  0.00     0.001 A 
ATOM     84  C   UNL     1      -4.968  22.121  -6.319  1.00  0.00     0.000 A 
ENDBRANCH  66  79
ENDBRANCH  40  41
ENDBRANCH  32  35
ENDBRANCH  30  31
ENDBRANCH  29  30
ENDBRANCH   1  29
TORSDOF 14
