REMARK SMILES Cc1cccc(Cl)c1Nc1ccccc1CC(=O)NCCCNC(=O)c1ccc(-c2c3nc(c(-c4ccccc4)c4ccc([nH]4)c(-c4ccccc4)c4nc(c(-c5ccccc5)c5ccc2[nH]5)C=C4)C=C3)cc1
REMARK SMILES IDX 20 1 19 2 17 3 18 4 16 6 15 7 10 8 11 9 12 10 14 11 13 12
REMARK SMILES IDX 9 13 8 15 1 16 2 17 3 18 4 19 6 20 5 21 7 22 21 23 22 24
REMARK SMILES IDX 23 25 24 26 25 28 26 29 27 30 73 31 28 32 72 33 29 34 30 35
REMARK SMILES IDX 31 36 66 37 32 38 71 39 65 40 67 41 33 42 70 43 64 44 63 45
REMARK SMILES IDX 34 47 56 48 41 49 55 50 42 51 45 52 54 53 68 54 43 55 44 56
REMARK SMILES IDX 53 58 69 59 46 60 35 61 36 62 40 63 37 64 39 65 38 66 57 67
REMARK SMILES IDX 58 68 62 69 59 70 61 71 60 72 47 73 48 74 52 75 49 76 51 77
REMARK SMILES IDX 50 78
REMARK H PARENT 19 5 9 14 23 27 67 46 45 57
REMARK Flexibility Score: inf
ROOT
ATOM      1  C   UNL     1      -0.056   3.643  -2.834  1.00  0.00     0.117 C 
ENDROOT
BRANCH   1   2
ATOM      2  N   UNL     1       0.942   3.063  -3.711  1.00  0.00    -0.356 N 
ATOM      3  C   UNL     1       1.871   2.105  -3.418  1.00  0.00     0.224 C 
ATOM      4  O   UNL     1       2.701   1.814  -4.282  1.00  0.00    -0.275 OA
ATOM      5  H   UNL     1       0.951   3.403  -4.635  1.00  0.00     0.163 HD
BRANCH   3   6
ATOM      6  C   UNL     1       1.838   1.405  -2.070  1.00  0.00     0.137 C 
BRANCH   6   7
ATOM      7  C   UNL     1       2.332   2.260  -0.920  1.00  0.00    -0.015 A 
ATOM      8  C   UNL     1       1.560   2.544   0.227  1.00  0.00     0.042 A 
ATOM      9  C   UNL     1       2.086   3.428   1.189  1.00  0.00     0.026 A 
ATOM     10  C   UNL     1       3.352   3.996   1.046  1.00  0.00     0.002 A 
ATOM     11  C   UNL     1       3.622   2.822  -1.035  1.00  0.00     0.006 A 
ATOM     12  C   UNL     1       4.126   3.682  -0.062  1.00  0.00     0.000 A 
BRANCH   8  13
ATOM     13  N   UNL     1       0.310   1.960   0.518  1.00  0.00    -0.354 N 
ATOM     14  H   UNL     1      -0.358   2.599   0.856  1.00  0.00     0.167 HD
BRANCH  13  15
ATOM     15  C   UNL     1      -0.172   0.631   0.418  1.00  0.00     0.060 A 
ATOM     16  C   UNL     1      -2.507   1.599   0.006  1.00  0.00     0.046 C 
ATOM     17  C   UNL     1      -1.551   0.440   0.132  1.00  0.00    -0.026 A 
ATOM     18  C   UNL     1      -2.054  -0.856  -0.080  1.00  0.00     0.005 A 
ATOM     19  C   UNL     1      -1.222  -1.968  -0.000  1.00  0.00     0.002 A 
ATOM     20  C   UNL     1       0.644  -0.519   0.530  1.00  0.00     0.064 A 
ATOM     21  C   UNL     1       0.121  -1.800   0.313  1.00  0.00     0.023 A 
ATOM     22  Cl  UNL     1       2.298  -0.463   1.045  1.00  0.00    -0.082 Cl
ENDBRANCH  13  15
ENDBRANCH   8  13
ENDBRANCH   6   7
ENDBRANCH   3   6
ENDBRANCH   1   2
BRANCH   1  23
ATOM     23  C   UNL     1       0.394   4.983  -2.261  1.00  0.00     0.042 C 
BRANCH  23  24
ATOM     24  C   UNL     1       0.500   6.092  -3.302  1.00  0.00     0.118 C 
BRANCH  24  25
ATOM     25  N   UNL     1      -0.795   6.437  -3.878  1.00  0.00    -0.352 N 
ATOM     26  C   UNL     1      -1.412   7.652  -3.988  1.00  0.00     0.251 C 
ATOM     27  H   UNL     1      -1.303   5.678  -4.246  1.00  0.00     0.163 HD
ATOM     28  O   UNL     1      -2.593   7.702  -4.336  1.00  0.00    -0.269 OA
BRANCH  26  29
ATOM     29  C   UNL     1      -0.687   8.903  -3.683  1.00  0.00     0.039 A 
ATOM     30  C   UNL     1      -1.364   9.926  -3.011  1.00  0.00     0.014 A 
ATOM     31  C   UNL     1       0.635   9.096  -4.095  1.00  0.00     0.014 A 
ATOM     32  C   UNL     1      -0.704  11.119  -2.712  1.00  0.00     0.010 A 
ATOM     33  C   UNL     1       1.314  10.256  -3.732  1.00  0.00     0.010 A 
ATOM     34  C   UNL     1       0.649  11.284  -3.048  1.00  0.00    -0.014 A 
BRANCH  34  35
ATOM     35  C   UNL     1       1.379  12.533  -2.713  1.00  0.00     0.031 A 
ATOM     36  C   UNL     1       1.901  13.419  -3.812  1.00  0.00     0.074 A 
ATOM     37  C   UNL     1       1.622  12.840  -1.424  1.00  0.00     0.049 A 
ATOM     38  N   UNL     1       2.620  14.509  -3.721  1.00  0.00    -0.248 NA
ATOM     39  C   UNL     1       1.597  13.014  -5.194  1.00  0.00     0.031 C 
ATOM     40  C   UNL     1       1.197  12.049  -0.267  1.00  0.00     0.029 A 
ATOM     41  N   UNL     1       2.295  13.901  -0.871  1.00  0.00    -0.354 N 
ATOM     42  C   UNL     1       2.872  14.905  -5.029  1.00  0.00     0.074 A 
ATOM     43  C   UNL     1       2.268  13.916  -5.895  1.00  0.00     0.031 C 
ATOM     44  C   UNL     1       1.599  12.664   0.857  1.00  0.00     0.029 A 
ATOM     45  C   UNL     1       2.343  13.867   0.501  1.00  0.00     0.049 A 
ATOM     46  H   UNL     1       2.704  14.618  -1.407  1.00  0.00     0.167 HD
ATOM     47  C   UNL     1       3.532  16.001  -5.472  1.00  0.00     0.031 A 
ATOM     48  C   UNL     1       2.929  14.707   1.375  1.00  0.00     0.031 A 
ATOM     49  C   UNL     1       4.116  16.995  -4.612  1.00  0.00     0.049 A 
ATOM     50  C   UNL     1       3.663  15.912   0.856  1.00  0.00     0.074 A 
ATOM     51  C   UNL     1       4.755  18.171  -4.965  1.00  0.00     0.029 A 
ATOM     52  N   UNL     1       4.130  16.930  -3.228  1.00  0.00    -0.354 N 
ATOM     53  N   UNL     1       3.836  16.305  -0.383  1.00  0.00    -0.248 NA
ATOM     54  C   UNL     1       4.273  16.797   1.859  1.00  0.00     0.031 C 
ATOM     55  C   UNL     1       5.199  18.795  -3.795  1.00  0.00     0.029 A 
ATOM     56  C   UNL     1       4.786  18.035  -2.712  1.00  0.00     0.049 A 
ATOM     57  H   UNL     1       3.734  16.206  -2.692  1.00  0.00     0.167 HD
ATOM     58  C   UNL     1       4.544  17.498  -0.306  1.00  0.00     0.074 A 
ATOM     59  C   UNL     1       4.755  17.771   1.101  1.00  0.00     0.031 C 
ATOM     60  C   UNL     1       4.979  18.297  -1.310  1.00  0.00     0.031 A 
BRANCH  47  61
ATOM     61  C   UNL     1       3.662  16.183  -6.959  1.00  0.00    -0.014 A 
ATOM     62  C   UNL     1       2.553  16.518  -7.751  1.00  0.00     0.009 A 
ATOM     63  C   UNL     1       4.921  16.063  -7.569  1.00  0.00     0.009 A 
ATOM     64  C   UNL     1       2.696  16.697  -9.129  1.00  0.00     0.001 A 
ATOM     65  C   UNL     1       5.066  16.271  -8.941  1.00  0.00     0.001 A 
ATOM     66  C   UNL     1       3.953  16.580  -9.721  1.00  0.00     0.000 A 
ENDBRANCH  47  61
BRANCH  48  67
ATOM     67  C   UNL     1       2.840  14.450   2.837  1.00  0.00    -0.014 A 
ATOM     68  C   UNL     1       2.074  15.288   3.661  1.00  0.00     0.009 A 
ATOM     69  C   UNL     1       3.539  13.381   3.419  1.00  0.00     0.009 A 
ATOM     70  C   UNL     1       2.038  15.083   5.042  1.00  0.00     0.001 A 
ATOM     71  C   UNL     1       3.476  13.159   4.796  1.00  0.00     0.001 A 
ATOM     72  C   UNL     1       2.735  14.017   5.608  1.00  0.00     0.000 A 
ENDBRANCH  48  67
BRANCH  60  73
ATOM     73  C   UNL     1       5.683  19.566  -0.923  1.00  0.00    -0.014 A 
ATOM     74  C   UNL     1       6.984  19.550  -0.398  1.00  0.00     0.009 A 
ATOM     75  C   UNL     1       5.046  20.800  -1.128  1.00  0.00     0.009 A 
ATOM     76  C   UNL     1       7.619  20.745  -0.053  1.00  0.00     0.001 A 
ATOM     77  C   UNL     1       5.695  21.994  -0.811  1.00  0.00     0.001 A 
ATOM     78  C   UNL     1       6.977  21.964  -0.265  1.00  0.00     0.000 A 
ENDBRANCH  60  73
ENDBRANCH  34  35
ENDBRANCH  26  29
ENDBRANCH  24  25
ENDBRANCH  23  24
ENDBRANCH   1  23
TORSDOF 13
