REMARK SMILES O=C(NCCCNC(=O)c1cc([C@@H]2C=NN=C2c2ccc(F)cc2)c2c(ccc3ccccc32)n1)c1ccc(-c2c3nc(c(-c4ccccc4)c4ccc([nH]4)c(-c4ccccc4)c4nc(c(-c5ccccc5)c5ccc2[nH]5)C=C4)C=C3)cc1
REMARK SMILES IDX 5 1 4 2 3 3 1 4 2 5 36 7 37 8 83 9 38 10 82 11 39 12 40 13
REMARK SMILES IDX 41 14 76 15 42 16 81 17 75 18 77 19 43 20 80 21 74 22 73 23
REMARK SMILES IDX 44 25 66 26 51 27 65 28 52 29 55 30 64 31 78 32 53 33 54 34
REMARK SMILES IDX 63 36 79 37 56 38 45 39 46 40 50 41 47 42 49 43 48 44 67 45
REMARK SMILES IDX 68 46 72 47 69 48 71 49 70 50 57 51 58 52 62 53 59 54 61 55
REMARK SMILES IDX 60 56 6 57 7 58 8 59 9 61 10 62 11 63 35 64 12 65 26 66
REMARK SMILES IDX 25 67 27 68 34 69 28 70 29 71 33 72 30 73 32 74 31 75 13 76
REMARK SMILES IDX 14 77 17 78 15 79 16 80 18 81 19 82 24 83 20 84 23 85 21 86
REMARK SMILES IDX 22 87
REMARK H PARENT 3 6 77 24 55 35 7 60
REMARK Flexibility Score: inf
ROOT
ATOM      1  C   UNL     1       5.037   1.815  -0.912  1.00  0.00     0.042 C 
ENDROOT
BRANCH   1   2
ATOM      2  C   UNL     1       4.622   0.808   0.156  1.00  0.00     0.118 C 
BRANCH   2   3
ATOM      3  N   UNL     1       3.194   0.743   0.397  1.00  0.00    -0.352 N 
ATOM      4  O   UNL     1       1.087   0.135   0.527  1.00  0.00    -0.269 OA
ATOM      5  C   UNL     1       2.146   0.019  -0.098  1.00  0.00     0.251 C 
ATOM      6  H   UNL     1       2.908   1.379   1.092  1.00  0.00     0.163 HD
BRANCH   5   7
ATOM      7  C   UNL     1       2.151  -0.827  -1.326  1.00  0.00     0.039 A 
ATOM      8  C   UNL     1       3.247  -1.099  -2.145  1.00  0.00     0.014 A 
ATOM      9  C   UNL     1       0.897  -1.355  -1.699  1.00  0.00     0.014 A 
ATOM     10  C   UNL     1       3.075  -1.821  -3.333  1.00  0.00     0.010 A 
ATOM     11  C   UNL     1       0.722  -2.075  -2.878  1.00  0.00     0.010 A 
ATOM     12  C   UNL     1       1.808  -2.284  -3.718  1.00  0.00    -0.014 A 
BRANCH  12  13
ATOM     13  C   UNL     1       1.683  -3.105  -4.927  1.00  0.00     0.031 A 
ATOM     14  C   UNL     1       2.415  -4.404  -4.887  1.00  0.00     0.074 A 
ATOM     15  C   UNL     1       0.859  -2.848  -5.967  1.00  0.00     0.049 A 
ATOM     16  N   UNL     1       3.382  -4.798  -5.651  1.00  0.00    -0.248 NA
ATOM     17  C   UNL     1       2.071  -5.354  -3.818  1.00  0.00     0.031 C 
ATOM     18  C   UNL     1      -0.174  -1.815  -6.079  1.00  0.00     0.029 A 
ATOM     19  N   UNL     1       0.718  -3.545  -7.135  1.00  0.00    -0.354 N 
ATOM     20  C   UNL     1       3.678  -6.105  -5.264  1.00  0.00     0.074 A 
ATOM     21  C   UNL     1       2.913  -6.358  -4.068  1.00  0.00     0.031 C 
ATOM     22  C   UNL     1      -0.968  -2.086  -7.143  1.00  0.00     0.029 A 
ATOM     23  C   UNL     1      -0.414  -3.216  -7.871  1.00  0.00     0.049 A 
ATOM     24  H   UNL     1       1.367  -4.224  -7.431  1.00  0.00     0.167 HD
ATOM     25  C   UNL     1       4.397  -6.952  -6.052  1.00  0.00     0.031 A 
ATOM     26  C   UNL     1      -0.881  -3.846  -8.979  1.00  0.00     0.031 A 
ATOM     27  C   UNL     1       5.111  -6.256  -7.086  1.00  0.00     0.049 A 
ATOM     28  C   UNL     1       0.232  -4.622  -9.562  1.00  0.00     0.074 A 
ATOM     29  C   UNL     1       6.096  -5.289  -7.112  1.00  0.00     0.029 A 
ATOM     30  N   UNL     1       4.580  -6.283  -8.352  1.00  0.00    -0.354 N 
ATOM     31  N   UNL     1       1.272  -4.082 -10.126  1.00  0.00    -0.248 NA
ATOM     32  C   UNL     1       0.381  -6.013  -9.171  1.00  0.00     0.031 C 
ATOM     33  C   UNL     1       5.757  -4.455  -8.217  1.00  0.00     0.029 A 
ATOM     34  C   UNL     1       4.626  -4.999  -8.828  1.00  0.00     0.049 A 
ATOM     35  H   UNL     1       4.234  -7.072  -8.827  1.00  0.00     0.167 HD
ATOM     36  C   UNL     1       2.329  -4.902  -9.766  1.00  0.00     0.074 A 
ATOM     37  C   UNL     1       1.708  -6.128  -9.271  1.00  0.00     0.031 C 
ATOM     38  C   UNL     1       3.595  -4.405  -9.647  1.00  0.00     0.031 A 
BRANCH  25  39
ATOM     39  C   UNL     1       4.171  -8.441  -6.113  1.00  0.00    -0.014 A 
ATOM     40  C   UNL     1       5.024  -9.229  -6.910  1.00  0.00     0.009 A 
ATOM     41  C   UNL     1       2.991  -9.054  -5.653  1.00  0.00     0.009 A 
ATOM     42  C   UNL     1       4.677 -10.533  -7.284  1.00  0.00     0.001 A 
ATOM     43  C   UNL     1       2.661 -10.370  -5.991  1.00  0.00     0.001 A 
ATOM     44  C   UNL     1       3.490 -11.100  -6.831  1.00  0.00     0.000 A 
ENDBRANCH  25  39
BRANCH  26  45
ATOM     45  C   UNL     1      -2.272  -4.037  -9.446  1.00  0.00    -0.014 A 
ATOM     46  C   UNL     1      -2.546  -4.394 -10.778  1.00  0.00     0.009 A 
ATOM     47  C   UNL     1      -3.313  -4.165  -8.509  1.00  0.00     0.009 A 
ATOM     48  C   UNL     1      -3.800  -4.901 -11.148  1.00  0.00     0.001 A 
ATOM     49  C   UNL     1      -4.564  -4.671  -8.878  1.00  0.00     0.001 A 
ATOM     50  C   UNL     1      -4.803  -5.054 -10.194  1.00  0.00     0.000 A 
ENDBRANCH  26  45
BRANCH  38  51
ATOM     51  C   UNL     1       3.866  -3.012 -10.157  1.00  0.00    -0.014 A 
ATOM     52  C   UNL     1       3.217  -1.870  -9.655  1.00  0.00     0.009 A 
ATOM     53  C   UNL     1       4.929  -2.833 -11.055  1.00  0.00     0.009 A 
ATOM     54  C   UNL     1       3.609  -0.589 -10.059  1.00  0.00     0.001 A 
ATOM     55  C   UNL     1       5.335  -1.554 -11.441  1.00  0.00     0.001 A 
ATOM     56  C   UNL     1       4.673  -0.432 -10.946  1.00  0.00     0.000 A 
ENDBRANCH  38  51
ENDBRANCH  12  13
ENDBRANCH   5   7
ENDBRANCH   2   3
ENDBRANCH   1   2
BRANCH   1  57
ATOM     57  C   UNL     1       4.559   3.247  -0.679  1.00  0.00     0.118 C 
BRANCH  57  58
ATOM     58  N   UNL     1       5.159   3.887   0.482  1.00  0.00    -0.351 N 
ATOM     59  C   UNL     1       5.983   4.992   0.592  1.00  0.00     0.269 C 
ATOM     60  H   UNL     1       4.940   3.457   1.340  1.00  0.00     0.163 HD
ATOM     61  O   UNL     1       6.423   5.280   1.701  1.00  0.00    -0.268 OA
BRANCH  59  62
ATOM     62  C   UNL     1       6.302   5.849  -0.592  1.00  0.00     0.129 A 
ATOM     63  C   UNL     1       5.323   6.223  -1.478  1.00  0.00     0.039 A 
ATOM     64  N   UNL     1       7.550   6.323  -0.691  1.00  0.00    -0.243 NA
ATOM     65  C   UNL     1       5.624   7.049  -2.591  1.00  0.00    -0.021 A 
ATOM     66  C   UNL     1       7.851   7.168  -1.686  1.00  0.00     0.072 A 
ATOM     67  C   UNL     1       6.962   7.600  -2.721  1.00  0.00     0.012 A 
ATOM     68  C   UNL     1       9.146   7.632  -1.616  1.00  0.00     0.029 A 
ATOM     69  C   UNL     1       7.529   8.552  -3.708  1.00  0.00    -0.009 A 
ATOM     70  C   UNL     1       9.662   8.530  -2.536  1.00  0.00     0.011 A 
ATOM     71  C   UNL     1       8.878   8.991  -3.580  1.00  0.00    -0.018 A 
ATOM     72  C   UNL     1       6.858   9.125  -4.814  1.00  0.00     0.009 A 
ATOM     73  C   UNL     1       9.464   9.902  -4.480  1.00  0.00     0.009 A 
ATOM     74  C   UNL     1       7.439  10.027  -5.717  1.00  0.00     0.001 A 
ATOM     75  C   UNL     1       8.749  10.419  -5.550  1.00  0.00     0.001 A 
BRANCH  65  76
ATOM     76  C   UNL     1       4.394   7.274  -3.442  1.00  0.00     0.115 C 
ATOM     77  C   UNL     1       4.450   6.908  -4.878  1.00  0.00     0.123 C 
ATOM     78  C   UNL     1       3.761   8.621  -3.572  1.00  0.00     0.083 C 
ATOM     79  N   UNL     1       3.835   7.762  -5.631  1.00  0.00    -0.162 NA
ATOM     80  N   UNL     1       3.391   8.852  -4.801  1.00  0.00    -0.154 NA
BRANCH  78  81
ATOM     81  C   UNL     1       3.416   9.497  -2.428  1.00  0.00    -0.001 A 
ATOM     82  C   UNL     1       2.256  10.277  -2.530  1.00  0.00     0.013 A 
ATOM     83  C   UNL     1       4.165   9.541  -1.245  1.00  0.00     0.013 A 
ATOM     84  C   UNL     1       1.828  11.047  -1.446  1.00  0.00     0.040 A 
ATOM     85  C   UNL     1       3.732  10.306  -0.160  1.00  0.00     0.040 A 
ATOM     86  C   UNL     1       2.562  11.044  -0.266  1.00  0.00     0.123 A 
ATOM     87  F   UNL     1       2.140  11.762   0.781  1.00  0.00    -0.207 F 
ENDBRANCH  78  81
ENDBRANCH  65  76
ENDBRANCH  59  62
ENDBRANCH  57  58
ENDBRANCH   1  57
TORSDOF 12
