REMARK SMILES C[C@@H](C(=O)NCCCNC(=O)c1ccc(-c2c3nc(c(-c4ccccc4)c4ccc([nH]4)c(-c4ccccc4)c4nc(c(-c5ccccc5)c5ccc2[nH]5)C=C4)C=C3)cc1)N1C(=O)/C(=C/c2ccc(-c3ccc([N+](=O)[O-])cc3Cl)o2)SC1=S
REMARK SMILES IDX 6 1 5 2 3 3 4 4 2 6 1 7 60 8 61 9 81 10 62 11 63 12 80 13
REMARK SMILES IDX 82 14 64 15 65 16 66 17 79 18 67 19 68 20 69 21 70 22 77 23
REMARK SMILES IDX 71 24 76 25 78 26 72 27 73 28 74 29 75 30 7 31 8 32 9 33
REMARK SMILES IDX 10 34 11 36 12 37 13 38 59 39 14 40 58 41 15 42 16 43 17 44
REMARK SMILES IDX 52 45 18 46 57 47 51 48 53 49 19 50 56 51 50 52 49 53 20 55
REMARK SMILES IDX 42 56 27 57 41 58 28 59 31 60 40 61 54 62 29 63 30 64 39 66
REMARK SMILES IDX 55 67 32 68 21 69 22 70 26 71 23 72 25 73 24 74 43 75 44 76
REMARK SMILES IDX 48 77 45 78 47 79 46 80 33 81 34 82 38 83 35 84 37 85 36 86
REMARK H PARENT 5 5 9 35 53 54 31 65
REMARK Flexibility Score: inf
ROOT
ATOM      1  C   UNL     1       3.307   1.119  -1.635  1.00  0.00     0.117 C 
ENDROOT
BRANCH   1   2
ATOM      2  N   UNL     1       2.200   0.716  -2.480  1.00  0.00    -0.354 N 
ATOM      3  C   UNL     1       0.872   0.593  -2.188  1.00  0.00     0.242 C 
ATOM      4  O   UNL     1       0.119   0.285  -3.116  1.00  0.00    -0.273 OA
ATOM      5  H   UNL     1       2.444   0.496  -3.408  1.00  0.00     0.163 HD
BRANCH   3   6
ATOM      6  C   UNL     1       0.356   0.875  -0.760  1.00  0.00     0.178 C 
ATOM      7  C   UNL     1       0.849  -0.130   0.280  1.00  0.00     0.042 C 
BRANCH   6   8
ATOM      8  N   UNL     1      -1.117   0.976  -0.832  1.00  0.00    -0.281 N 
ATOM      9  C   UNL     1      -1.891  -0.176  -0.866  1.00  0.00     0.267 C 
ATOM     10  C   UNL     1      -1.789   2.166  -1.033  1.00  0.00     0.149 C 
ATOM     11  O   UNL     1      -1.494  -1.327  -0.782  1.00  0.00    -0.268 OA
ATOM     12  C   UNL     1      -3.328   0.169  -1.025  1.00  0.00     0.084 C 
ATOM     13  S   UNL     1      -3.512   1.867  -1.198  1.00  0.00    -0.054 SA
ATOM     14  S   UNL     1      -1.163   3.713  -1.108  1.00  0.00    -0.052 S 
ATOM     15  C   UNL     1      -4.275  -0.777  -0.982  1.00  0.00     0.068 C 
BRANCH  15  16
ATOM     16  C   UNL     1      -5.660  -0.502  -1.126  1.00  0.00     0.128 A 
ATOM     17  C   UNL     1      -6.334   0.136  -2.160  1.00  0.00     0.051 A 
ATOM     18  O   UNL     1      -6.597  -0.882  -0.191  1.00  0.00    -0.457 OA
ATOM     19  C   UNL     1      -7.703   0.185  -1.821  1.00  0.00     0.051 A 
ATOM     20  C   UNL     1      -7.813  -0.423  -0.593  1.00  0.00     0.136 A 
BRANCH  20  21
ATOM     21  C   UNL     1      -8.941  -0.670   0.292  1.00  0.00     0.036 A 
ATOM     22  C   UNL     1     -10.076  -1.302  -0.246  1.00  0.00     0.020 A 
ATOM     23  C   UNL     1      -8.982  -0.231   1.629  1.00  0.00     0.058 A 
ATOM     24  C   UNL     1     -11.235  -1.472   0.515  1.00  0.00     0.086 A 
ATOM     25  C   UNL     1     -10.140  -0.395   2.399  1.00  0.00     0.106 A 
ATOM     26  Cl  UNL     1      -7.655   0.594   2.377  1.00  0.00    -0.083 Cl
ATOM     27  C   UNL     1     -11.266  -1.004   1.833  1.00  0.00     0.270 A 
BRANCH  27  28
ATOM     28  N   UNL     1     -12.502  -1.123   2.616  1.00  0.00     0.062 N 
ATOM     29  O   UNL     1     -13.482  -1.644   2.067  1.00  0.00    -0.258 OA
ATOM     30  O   UNL     1     -12.493  -0.686   3.775  1.00  0.00    -0.258 OA
ENDBRANCH  27  28
ENDBRANCH  20  21
ENDBRANCH  15  16
ENDBRANCH   6   8
ENDBRANCH   3   6
ENDBRANCH   1   2
BRANCH   1  31
ATOM     31  C   UNL     1       4.194  -0.063  -1.256  1.00  0.00     0.042 C 
BRANCH  31  32
ATOM     32  C   UNL     1       4.948  -0.681  -2.432  1.00  0.00     0.118 C 
BRANCH  32  33
ATOM     33  N   UNL     1       5.908   0.236  -3.027  1.00  0.00    -0.352 N 
ATOM     34  C   UNL     1       7.266   0.124  -3.192  1.00  0.00     0.251 C 
ATOM     35  H   UNL     1       5.520   1.074  -3.367  1.00  0.00     0.163 HD
ATOM     36  O   UNL     1       7.908   1.107  -3.554  1.00  0.00    -0.269 OA
BRANCH  34  37
ATOM     37  C   UNL     1       7.969  -1.150  -2.922  1.00  0.00     0.039 A 
ATOM     38  C   UNL     1       9.220  -1.101  -2.299  1.00  0.00     0.014 A 
ATOM     39  C   UNL     1       7.437  -2.382  -3.312  1.00  0.00     0.014 A 
ATOM     40  C   UNL     1       9.902  -2.285  -2.008  1.00  0.00     0.010 A 
ATOM     41  C   UNL     1       8.082  -3.566  -2.954  1.00  0.00     0.010 A 
ATOM     42  C   UNL     1       9.320  -3.530  -2.297  1.00  0.00    -0.014 A 
BRANCH  42  43
ATOM     43  C   UNL     1       9.987  -4.794  -1.889  1.00  0.00     0.031 A 
ATOM     44  C   UNL     1      10.457  -5.785  -2.919  1.00  0.00     0.074 A 
ATOM     45  C   UNL     1      10.131  -5.071  -0.577  1.00  0.00     0.049 A 
ATOM     46  N   UNL     1      11.035  -6.948  -2.740  1.00  0.00    -0.248 NA
ATOM     47  C   UNL     1      10.236  -5.437  -4.331  1.00  0.00     0.031 C 
ATOM     48  C   UNL     1       9.683  -4.214   0.524  1.00  0.00     0.029 A 
ATOM     49  N   UNL     1      10.693  -6.152   0.054  1.00  0.00    -0.354 N 
ATOM     50  C   UNL     1      11.239  -7.469  -4.012  1.00  0.00     0.074 A 
ATOM     51  C   UNL     1      10.678  -6.522  -4.951  1.00  0.00     0.031 C 
ATOM     52  C   UNL     1      10.014  -4.787   1.691  1.00  0.00     0.029 A 
ATOM     53  C   UNL     1      10.656  -6.070   1.425  1.00  0.00     0.049 A 
ATOM     54  H   UNL     1      11.085  -6.915  -0.430  1.00  0.00     0.167 HD
ATOM     55  C   UNL     1      11.855  -8.622  -4.368  1.00  0.00     0.031 A 
ATOM     56  C   UNL     1      11.083  -6.933   2.367  1.00  0.00     0.031 A 
ATOM     57  C   UNL     1      12.413  -9.567  -3.437  1.00  0.00     0.049 A 
ATOM     58  C   UNL     1      11.737  -8.218   1.942  1.00  0.00     0.074 A 
ATOM     59  C   UNL     1      13.094 -10.742  -3.705  1.00  0.00     0.029 A 
ATOM     60  N   UNL     1      12.351  -9.449  -2.057  1.00  0.00    -0.354 N 
ATOM     61  N   UNL     1      11.983  -8.661   0.733  1.00  0.00    -0.248 NA
ATOM     62  C   UNL     1      12.184  -9.117   3.016  1.00  0.00     0.031 C 
ATOM     63  C   UNL     1      13.395 -11.362  -2.489  1.00  0.00     0.029 A 
ATOM     64  C   UNL     1      12.958 -10.542  -1.462  1.00  0.00     0.049 A 
ATOM     65  H   UNL     1      11.936  -8.699  -1.573  1.00  0.00     0.167 HD
ATOM     66  C   UNL     1      12.635  -9.876   0.901  1.00  0.00     0.074 A 
ATOM     67  C   UNL     1      12.770 -10.086   2.328  1.00  0.00     0.031 C 
ATOM     68  C   UNL     1      13.081 -10.742  -0.041  1.00  0.00     0.031 A 
BRANCH  55  69
ATOM     69  C   UNL     1      11.961  -8.930  -5.837  1.00  0.00    -0.014 A 
ATOM     70  C   UNL     1      12.815  -8.193  -6.674  1.00  0.00     0.009 A 
ATOM     71  C   UNL     1      11.245 -10.009  -6.380  1.00  0.00     0.009 A 
ATOM     72  C   UNL     1      12.927  -8.511  -8.029  1.00  0.00     0.001 A 
ATOM     73  C   UNL     1      11.382 -10.343  -7.729  1.00  0.00     0.001 A 
ATOM     74  C   UNL     1      12.216  -9.590  -8.554  1.00  0.00     0.000 A 
ENDBRANCH  55  69
BRANCH  56  75
ATOM     75  C   UNL     1      10.906  -6.617   3.809  1.00  0.00    -0.014 A 
ATOM     76  C   UNL     1      12.017  -6.358   4.627  1.00  0.00     0.009 A 
ATOM     77  C   UNL     1       9.625  -6.601   4.383  1.00  0.00     0.009 A 
ATOM     78  C   UNL     1      11.851  -6.128   5.995  1.00  0.00     0.001 A 
ATOM     79  C   UNL     1       9.459  -6.336   5.744  1.00  0.00     0.001 A 
ATOM     80  C   UNL     1      10.573  -6.113   6.551  1.00  0.00     0.000 A 
ENDBRANCH  56  75
BRANCH  68  81
ATOM     81  C   UNL     1      13.785 -11.979   0.444  1.00  0.00    -0.014 A 
ATOM     82  C   UNL     1      13.088 -13.011   1.091  1.00  0.00     0.009 A 
ATOM     83  C   UNL     1      15.165 -12.123   0.229  1.00  0.00     0.009 A 
ATOM     84  C   UNL     1      13.766 -14.141   1.552  1.00  0.00     0.001 A 
ATOM     85  C   UNL     1      15.834 -13.269   0.660  1.00  0.00     0.001 A 
ATOM     86  C   UNL     1      15.137 -14.271   1.332  1.00  0.00     0.000 A 
ENDBRANCH  68  81
ENDBRANCH  42  43
ENDBRANCH  34  37
ENDBRANCH  32  33
ENDBRANCH  31  32
ENDBRANCH   1  31
TORSDOF 14
