REMARK SMILES CC[C@@H](C)Nc1cc(OC)c(C(=O)NCCCNC(=O)c2ccc(-c3c4nc(c(-c5ccccc5)c5ccc([nH]5)c(-c5ccccc5)c5nc(c(-c6ccccc6)c6ccc3[nH]6)C=C5)C=C4)cc2)cc1Cl
REMARK SMILES IDX 15 1 14 2 12 3 13 4 11 6 6 7 7 8 70 9 8 10 69 11 71 12 5 13
REMARK SMILES IDX 3 15 4 16 2 17 1 18 9 19 10 20 16 21 17 22 18 23 19 24 20 26
REMARK SMILES IDX 21 27 22 28 68 29 23 30 67 31 24 32 25 33 26 34 61 35 27 36
REMARK SMILES IDX 66 37 60 38 62 39 28 40 65 41 59 42 58 43 29 45 51 46 36 47
REMARK SMILES IDX 50 48 37 49 40 50 49 51 63 52 38 53 39 54 48 56 64 57 41 58
REMARK SMILES IDX 30 59 31 60 35 61 32 62 34 63 33 64 52 65 53 66 57 67 54 68
REMARK SMILES IDX 56 69 55 70 42 71 43 72 47 73 44 74 46 75 45 76
REMARK H PARENT 14 5 5 14 18 25 62 44 40 55
REMARK Flexibility Score: inf
ROOT
ATOM      1  C   UNL     1       6.273   5.900  -3.803  1.00  0.00     0.118 C 
ENDROOT
BRANCH   1   2
ATOM      2  N   UNL     1       5.669   7.109  -3.264  1.00  0.00    -0.352 N 
ATOM      3  C   UNL     1       4.395   7.452  -2.881  1.00  0.00     0.255 C 
ATOM      4  O   UNL     1       4.194   8.659  -2.778  1.00  0.00    -0.269 OA
ATOM      5  H   UNL     1       6.316   7.842  -3.148  1.00  0.00     0.163 HD
BRANCH   3   6
ATOM      6  C   UNL     1       3.308   6.455  -2.633  1.00  0.00     0.083 A 
ATOM      7  C   UNL     1       1.409   4.324  -2.233  1.00  0.00     0.057 A 
ATOM      8  C   UNL     1       1.446   5.468  -1.417  1.00  0.00     0.074 A 
ATOM      9  C   UNL     1       2.329   4.292  -3.284  1.00  0.00     0.065 A 
ATOM     10  C   UNL     1       2.376   6.524  -1.585  1.00  0.00     0.133 A 
ATOM     11  C   UNL     1       3.209   5.361  -3.503  1.00  0.00     0.040 A 
ATOM     12  Cl  UNL     1       2.439   2.996  -4.425  1.00  0.00    -0.082 Cl
BRANCH   7  13
ATOM     13  N   UNL     1       0.514   3.316  -1.894  1.00  0.00    -0.381 N 
ATOM     14  H   UNL     1      -0.432   3.556  -1.766  1.00  0.00     0.160 HD
BRANCH  13  15
ATOM     15  C   UNL     1       0.905   1.915  -1.718  1.00  0.00     0.075 C 
ATOM     16  C   UNL     1       0.160   1.052  -2.739  1.00  0.00     0.031 C 
BRANCH  15  17
ATOM     17  C   UNL     1       0.542   1.493  -0.278  1.00  0.00     0.021 C 
ATOM     18  C   UNL     1       1.023   0.096   0.090  1.00  0.00     0.006 C 
ENDBRANCH  15  17
ENDBRANCH  13  15
ENDBRANCH   7  13
BRANCH  10  19
ATOM     19  O   UNL     1       2.277   7.419  -0.552  1.00  0.00    -0.496 OA
ATOM     20  C   UNL     1       2.449   8.805  -0.803  1.00  0.00     0.278 C 
ENDBRANCH  10  19
ENDBRANCH   3   6
ENDBRANCH   1   2
BRANCH   1  21
ATOM     21  C   UNL     1       6.268   5.939  -5.336  1.00  0.00     0.042 C 
BRANCH  21  22
ATOM     22  C   UNL     1       7.154   7.035  -5.926  1.00  0.00     0.118 C 
BRANCH  22  23
ATOM     23  N   UNL     1       8.567   6.762  -5.718  1.00  0.00    -0.352 N 
ATOM     24  C   UNL     1       9.552   6.497  -6.637  1.00  0.00     0.251 C 
ATOM     25  H   UNL     1       8.861   6.769  -4.779  1.00  0.00     0.163 HD
ATOM     26  O   UNL     1      10.627   6.040  -6.264  1.00  0.00    -0.269 OA
BRANCH  24  27
ATOM     27  C   UNL     1       9.321   6.754  -8.075  1.00  0.00     0.039 A 
ATOM     28  C   UNL     1       9.758   5.811  -9.009  1.00  0.00     0.014 A 
ATOM     29  C   UNL     1       8.717   7.939  -8.504  1.00  0.00     0.014 A 
ATOM     30  C   UNL     1       9.539   6.030 -10.371  1.00  0.00     0.010 A 
ATOM     31  C   UNL     1       8.441   8.127  -9.856  1.00  0.00     0.010 A 
ATOM     32  C   UNL     1       8.851   7.176 -10.803  1.00  0.00    -0.014 A 
BRANCH  32  33
ATOM     33  C   UNL     1       8.541   7.398 -12.238  1.00  0.00     0.031 A 
ATOM     34  C   UNL     1       9.142   8.565 -12.971  1.00  0.00     0.074 A 
ATOM     35  C   UNL     1       7.656   6.594 -12.858  1.00  0.00     0.049 A 
ATOM     36  N   UNL     1       8.916   8.977 -14.193  1.00  0.00    -0.248 NA
ATOM     37  C   UNL     1      10.107   9.390 -12.226  1.00  0.00     0.031 C 
ATOM     38  C   UNL     1       6.981   5.446 -12.249  1.00  0.00     0.029 A 
ATOM     39  N   UNL     1       7.162   6.628 -14.138  1.00  0.00    -0.354 N 
ATOM     40  C   UNL     1       9.692  10.118 -14.355  1.00  0.00     0.074 A 
ATOM     41  C   UNL     1      10.362  10.357 -13.095  1.00  0.00     0.031 C 
ATOM     42  C   UNL     1       6.176   4.875 -13.160  1.00  0.00     0.029 A 
ATOM     43  C   UNL     1       6.244   5.641 -14.400  1.00  0.00     0.049 A 
ATOM     44  H   UNL     1       7.440   7.297 -14.805  1.00  0.00     0.167 HD
ATOM     45  C   UNL     1       9.845  10.890 -15.458  1.00  0.00     0.031 A 
ATOM     46  C   UNL     1       5.525   5.388 -15.509  1.00  0.00     0.031 A 
ATOM     47  C   UNL     1       9.185  10.646 -16.713  1.00  0.00     0.049 A 
ATOM     48  C   UNL     1       5.692   6.275 -16.711  1.00  0.00     0.074 A 
ATOM     49  C   UNL     1       9.318  11.338 -17.905  1.00  0.00     0.029 A 
ATOM     50  N   UNL     1       8.265   9.634 -16.936  1.00  0.00    -0.354 N 
ATOM     51  N   UNL     1       6.475   7.314 -16.867  1.00  0.00    -0.248 NA
ATOM     52  C   UNL     1       4.877   5.950 -17.891  1.00  0.00     0.031 C 
ATOM     53  C   UNL     1       8.439  10.774 -18.836  1.00  0.00     0.029 A 
ATOM     54  C   UNL     1       7.801   9.699 -18.239  1.00  0.00     0.049 A 
ATOM     55  H   UNL     1       7.983   8.969 -16.268  1.00  0.00     0.167 HD
ATOM     56  C   UNL     1       6.268   7.751 -18.169  1.00  0.00     0.074 A 
ATOM     57  C   UNL     1       5.297   6.856 -18.763  1.00  0.00     0.031 C 
ATOM     58  C   UNL     1       6.833   8.800 -18.814  1.00  0.00     0.031 A 
BRANCH  45  59
ATOM     59  C   UNL     1      10.758  12.080 -15.350  1.00  0.00    -0.014 A 
ATOM     60  C   UNL     1      12.149  11.923 -15.240  1.00  0.00     0.009 A 
ATOM     61  C   UNL     1      10.223  13.377 -15.395  1.00  0.00     0.009 A 
ATOM     62  C   UNL     1      12.981  13.040 -15.139  1.00  0.00     0.001 A 
ATOM     63  C   UNL     1      11.060  14.492 -15.322  1.00  0.00     0.001 A 
ATOM     64  C   UNL     1      12.437  14.323 -15.184  1.00  0.00     0.000 A 
ENDBRANCH  45  59
BRANCH  46  65
ATOM     65  C   UNL     1       4.583   4.239 -15.540  1.00  0.00    -0.014 A 
ATOM     66  C   UNL     1       4.869   3.107 -16.318  1.00  0.00     0.009 A 
ATOM     67  C   UNL     1       3.395   4.266 -14.793  1.00  0.00     0.009 A 
ATOM     68  C   UNL     1       3.974   2.036 -16.367  1.00  0.00     0.001 A 
ATOM     69  C   UNL     1       2.515   3.182 -14.821  1.00  0.00     0.001 A 
ATOM     70  C   UNL     1       2.800   2.072 -15.615  1.00  0.00     0.000 A 
ENDBRANCH  46  65
BRANCH  58  71
ATOM     71  C   UNL     1       6.439   9.019 -20.247  1.00  0.00    -0.014 A 
ATOM     72  C   UNL     1       5.178   9.534 -20.584  1.00  0.00     0.009 A 
ATOM     73  C   UNL     1       7.362   8.753 -21.270  1.00  0.00     0.009 A 
ATOM     74  C   UNL     1       4.840   9.751 -21.921  1.00  0.00     0.001 A 
ATOM     75  C   UNL     1       7.032   8.998 -22.603  1.00  0.00     0.001 A 
ATOM     76  C   UNL     1       5.769   9.489 -22.928  1.00  0.00     0.000 A 
ENDBRANCH  58  71
ENDBRANCH  32  33
ENDBRANCH  24  27
ENDBRANCH  22  23
ENDBRANCH  21  22
ENDBRANCH   1  21
TORSDOF 14
