REMARK SMILES C[C@@](O)(CNC(=O)CC1([NH3+])CCC1)C(=O)NCCCNC(=O)c1ccc(-c2c3nc(c(-c4ccccc4)c4ccc([nH]4)c(-c4ccccc4)c4nc(c(-c5ccccc5)c5ccc2[nH]5)C=C4)C=C3)cc1
REMARK SMILES IDX 14 1 15 2 16 3 2 5 1 6 3 7 4 9 5 10 6 11 7 13 8 14 9 15
REMARK SMILES IDX 11 16 13 17 12 18 10 19 17 23 18 24 19 25 20 26 21 27 22 29
REMARK SMILES IDX 23 30 24 31 70 32 25 33 69 34 26 35 27 36 28 37 63 38 29 39
REMARK SMILES IDX 68 40 62 41 64 42 30 43 67 44 61 45 60 46 31 48 53 49 38 50
REMARK SMILES IDX 52 51 39 52 42 53 51 54 65 55 40 56 41 57 50 59 66 60 43 61
REMARK SMILES IDX 32 62 33 63 37 64 34 65 36 66 35 67 54 68 55 69 59 70 56 71
REMARK SMILES IDX 58 72 57 73 44 74 45 75 49 76 46 77 48 78 47 79
REMARK H PARENT 16 4 3 8 5 12 10 20 10 21 10 22 20 28 64 47 42 58
REMARK Flexibility Score: inf
ROOT
ATOM      1  C   UNL     1       1.348   1.925  -1.522  1.00  0.00     0.253 C 
ATOM      2  O   UNL     1       2.001   2.349  -0.561  1.00  0.00    -0.272 OA
ATOM      3  N   UNL     1       1.371   2.713  -2.636  1.00  0.00    -0.353 N 
ATOM      4  H   UNL     1       1.864   3.555  -2.499  1.00  0.00     0.163 HD
ENDROOT
BRANCH   1   5
ATOM      5  C   UNL     1       0.565   0.581  -1.422  1.00  0.00     0.157 C 
ATOM      6  C   UNL     1       1.204  -0.279  -0.312  1.00  0.00     0.055 C 
BRANCH   5   7
ATOM      7  O   UNL     1       0.699  -0.181  -2.631  1.00  0.00    -0.378 OA
ATOM      8  H   UNL     1       0.205  -1.011  -2.546  1.00  0.00     0.212 HD
ENDBRANCH   5   7
BRANCH   5   9
ATOM      9  C   UNL     1      -0.958   0.793  -1.153  1.00  0.00     0.160 C 
BRANCH   9  10
ATOM     10  N   UNL     1      -1.343   0.995   0.250  1.00  0.00    -0.352 N 
ATOM     11  C   UNL     1      -2.293   1.790   0.819  1.00  0.00     0.226 C 
ATOM     12  H   UNL     1      -0.822   0.463   0.893  1.00  0.00     0.163 HD
ATOM     13  O   UNL     1      -2.437   1.745   2.043  1.00  0.00    -0.275 OA
BRANCH  11  14
ATOM     14  C   UNL     1      -3.180   2.659  -0.038  1.00  0.00     0.168 C 
BRANCH  14  15
ATOM     15  C   UNL     1      -2.534   3.882  -0.672  1.00  0.00     0.103 C 
ATOM     16  C   UNL     1      -2.683   5.290  -0.022  1.00  0.00     0.069 C 
ATOM     17  C   UNL     1      -1.001   4.087  -0.591  1.00  0.00     0.069 C 
ATOM     18  C   UNL     1      -1.196   5.571  -0.299  1.00  0.00     0.013 C 
BRANCH  15  19
ATOM     19  N   UNL     1      -2.955   4.042  -2.080  1.00  0.00    -0.352 N 
ATOM     20  H   UNL     1      -3.964   3.910  -2.150  1.00  0.00     0.344 HD
ATOM     21  H   UNL     1      -2.480   3.348  -2.658  1.00  0.00     0.344 HD
ATOM     22  H   UNL     1      -2.711   4.978  -2.404  1.00  0.00     0.344 HD
ENDBRANCH  15  19
ENDBRANCH  14  15
ENDBRANCH  11  14
ENDBRANCH   9  10
ENDBRANCH   5   9
ENDBRANCH   1   5
BRANCH   3  23
ATOM     23  C   UNL     1       0.831   2.587  -3.984  1.00  0.00     0.117 C 
BRANCH  23  24
ATOM     24  C   UNL     1      -0.302   3.569  -4.331  1.00  0.00     0.042 C 
BRANCH  24  25
ATOM     25  C   UNL     1      -0.060   5.061  -4.048  1.00  0.00     0.118 C 
BRANCH  25  26
ATOM     26  N   UNL     1       0.144   5.841  -5.261  1.00  0.00    -0.352 N 
ATOM     27  C   UNL     1      -0.643   6.728  -5.952  1.00  0.00     0.251 C 
ATOM     28  H   UNL     1       1.029   5.703  -5.671  1.00  0.00     0.163 HD
ATOM     29  O   UNL     1      -0.228   7.105  -7.054  1.00  0.00    -0.269 OA
BRANCH  27  30
ATOM     30  C   UNL     1      -1.956   7.263  -5.484  1.00  0.00     0.039 A 
ATOM     31  C   UNL     1      -2.913   7.552  -6.470  1.00  0.00     0.014 A 
ATOM     32  C   UNL     1      -2.235   7.640  -4.167  1.00  0.00     0.014 A 
ATOM     33  C   UNL     1      -4.121   8.188  -6.151  1.00  0.00     0.010 A 
ATOM     34  C   UNL     1      -3.469   8.242  -3.838  1.00  0.00     0.010 A 
ATOM     35  C   UNL     1      -4.424   8.537  -4.827  1.00  0.00    -0.014 A 
BRANCH  35  36
ATOM     36  C   UNL     1      -5.728   9.200  -4.508  1.00  0.00     0.031 A 
ATOM     37  C   UNL     1      -5.797  10.637  -4.049  1.00  0.00     0.074 A 
ATOM     38  C   UNL     1      -6.885   8.520  -4.651  1.00  0.00     0.049 A 
ATOM     39  N   UNL     1      -6.854  11.373  -3.789  1.00  0.00    -0.248 NA
ATOM     40  C   UNL     1      -4.520  11.336  -3.850  1.00  0.00     0.031 C 
ATOM     41  C   UNL     1      -6.998   7.124  -5.073  1.00  0.00     0.029 A 
ATOM     42  N   UNL     1      -8.190   8.917  -4.464  1.00  0.00    -0.354 N 
ATOM     43  C   UNL     1      -6.371  12.613  -3.386  1.00  0.00     0.074 A 
ATOM     44  C   UNL     1      -4.925  12.519  -3.406  1.00  0.00     0.031 C 
ATOM     45  C   UNL     1      -8.297   6.788  -5.135  1.00  0.00     0.029 A 
ATOM     46  C   UNL     1      -9.111   7.932  -4.731  1.00  0.00     0.049 A 
ATOM     47  H   UNL     1      -8.441   9.821  -4.166  1.00  0.00     0.167 HD
ATOM     48  C   UNL     1      -7.057  13.732  -3.042  1.00  0.00     0.031 A 
ATOM     49  C   UNL     1     -10.457   7.935  -4.662  1.00  0.00     0.031 A 
ATOM     50  C   UNL     1      -8.493  13.855  -3.024  1.00  0.00     0.049 A 
ATOM     51  C   UNL     1     -11.196   9.181  -4.260  1.00  0.00     0.074 A 
ATOM     52  C   UNL     1      -9.258  14.978  -2.746  1.00  0.00     0.029 A 
ATOM     53  N   UNL     1      -9.382  12.826  -3.281  1.00  0.00    -0.354 N 
ATOM     54  N   UNL     1     -10.718  10.362  -3.954  1.00  0.00    -0.248 NA
ATOM     55  C   UNL     1     -12.665   9.095  -4.205  1.00  0.00     0.031 C 
ATOM     56  C   UNL     1     -10.608  14.615  -2.784  1.00  0.00     0.029 A 
ATOM     57  C   UNL     1     -10.685  13.279  -3.137  1.00  0.00     0.049 A 
ATOM     58  H   UNL     1      -9.127  11.908  -3.529  1.00  0.00     0.167 HD
ATOM     59  C   UNL     1     -11.825  11.162  -3.694  1.00  0.00     0.074 A 
ATOM     60  C   UNL     1     -12.999  10.339  -3.892  1.00  0.00     0.031 C 
ATOM     61  C   UNL     1     -11.857  12.465  -3.325  1.00  0.00     0.031 A 
BRANCH  48  62
ATOM     62  C   UNL     1      -6.255  14.939  -2.635  1.00  0.00    -0.014 A 
ATOM     63  C   UNL     1      -5.550  15.698  -3.582  1.00  0.00     0.009 A 
ATOM     64  C   UNL     1      -6.258  15.358  -1.295  1.00  0.00     0.009 A 
ATOM     65  C   UNL     1      -4.835  16.831  -3.188  1.00  0.00     0.001 A 
ATOM     66  C   UNL     1      -5.563  16.506  -0.909  1.00  0.00     0.001 A 
ATOM     67  C   UNL     1      -4.845  17.236  -1.854  1.00  0.00     0.000 A 
ENDBRANCH  48  62
BRANCH  49  68
ATOM     68  C   UNL     1     -11.214   6.698  -4.990  1.00  0.00    -0.014 A 
ATOM     69  C   UNL     1     -11.958   6.608  -6.176  1.00  0.00     0.009 A 
ATOM     70  C   UNL     1     -11.203   5.607  -4.108  1.00  0.00     0.009 A 
ATOM     71  C   UNL     1     -12.694   5.456  -6.462  1.00  0.00     0.001 A 
ATOM     72  C   UNL     1     -11.918   4.446  -4.410  1.00  0.00     0.001 A 
ATOM     73  C   UNL     1     -12.668   4.375  -5.582  1.00  0.00     0.000 A 
ENDBRANCH  49  68
BRANCH  61  74
ATOM     74  C   UNL     1     -13.208  13.098  -3.129  1.00  0.00    -0.014 A 
ATOM     75  C   UNL     1     -14.001  12.792  -2.011  1.00  0.00     0.009 A 
ATOM     76  C   UNL     1     -13.681  14.038  -4.059  1.00  0.00     0.009 A 
ATOM     77  C   UNL     1     -15.251  13.393  -1.845  1.00  0.00     0.001 A 
ATOM     78  C   UNL     1     -14.920  14.655  -3.877  1.00  0.00     0.001 A 
ATOM     79  C   UNL     1     -15.708  14.326  -2.775  1.00  0.00     0.000 A 
ENDBRANCH  61  74
ENDBRANCH  35  36
ENDBRANCH  27  30
ENDBRANCH  25  26
ENDBRANCH  24  25
ENDBRANCH  23  24
ENDBRANCH   3  23
TORSDOF 16
