REMARK SMILES Cc1cc(S(F)(F)(F)(F)F)cc2c1O[C@H](C(F)(F)F)C(C(=O)NCCCNC(=O)c1ccc(-c3c4nc(c(-c5ccccc5)c5ccc([nH]5)c(-c5ccccc5)c5nc(c(-c6ccccc6)c6ccc3[nH]6)C=C5)C=C4)cc1)=C2
REMARK SMILES IDX 25 1 24 2 23 3 21 4 22 5 20 7 1 8 2 9 3 10 13 11 4 12 12 13
REMARK SMILES IDX 14 14 11 15 78 16 15 17 5 18 6 19 7 20 8 21 9 22 10 23 16 24
REMARK SMILES IDX 17 25 18 26 19 27 26 28 27 29 28 30 29 32 30 33 31 34 77 35
REMARK SMILES IDX 32 36 76 37 33 38 34 39 35 40 70 41 36 42 75 43 69 44 71 45
REMARK SMILES IDX 37 46 74 47 68 48 67 49 38 51 60 52 45 53 59 54 46 55 49 56
REMARK SMILES IDX 58 57 72 58 47 59 48 60 57 62 73 63 50 64 39 65 40 66 44 67
REMARK SMILES IDX 41 68 43 69 42 70 61 71 62 72 66 73 63 74 65 75 64 76 51 77
REMARK SMILES IDX 52 78 56 79 53 80 55 81 54 82
REMARK H PARENT 23 6 27 31 71 50 49 61
REMARK Flexibility Score: inf
ROOT
ATOM      1  C   UNL     1       4.794  -4.333   4.350  1.00  0.00     0.042 C 
ENDROOT
BRANCH   1   2
ATOM      2  C   UNL     1       4.904  -4.463   2.840  1.00  0.00     0.118 C 
BRANCH   2   3
ATOM      3  N   UNL     1       4.497  -5.816   2.434  1.00  0.00    -0.352 N 
ATOM      4  C   UNL     1       3.363  -5.998   1.516  1.00  0.00     0.251 C 
ATOM      5  O   UNL     1       3.011  -7.168   1.165  1.00  0.00    -0.270 OA
ATOM      6  H   UNL     1       4.984  -6.600   2.776  1.00  0.00     0.163 HD
BRANCH   4   7
ATOM      7  C   UNL     1       2.611  -4.787   0.988  1.00  0.00     0.067 C 
ATOM      8  C   UNL     1       1.075  -0.052  -0.041  1.00  0.00     0.048 C 
ATOM      9  C   UNL     1       0.568  -1.427  -0.444  1.00  0.00    -0.007 A 
ATOM     10  C   UNL     1      -0.493  -1.617  -1.302  1.00  0.00     0.031 A 
ATOM     11  C   UNL     1       1.261  -2.535   0.043  1.00  0.00     0.130 A 
ATOM     12  C   UNL     1      -0.879  -2.897  -1.681  1.00  0.00     0.108 A 
ATOM     13  C   UNL     1       0.869  -3.834  -0.349  1.00  0.00     0.019 A 
ATOM     14  O   UNL     1       2.399  -2.399   0.960  1.00  0.00    -0.475 OA
ATOM     15  C   UNL     1      -0.210  -3.996  -1.221  1.00  0.00     0.036 A 
ATOM     16  C   UNL     1       1.613  -4.979   0.178  1.00  0.00     0.025 C 
ATOM     17  C   UNL     1       3.022  -3.517   1.391  1.00  0.00     0.314 C 
BRANCH  12  18
ATOM     18  S   UNL     1      -2.287  -3.111  -2.799  1.00  0.00     0.310 S 
ATOM     19  F   UNL     1      -3.321  -3.173  -1.598  1.00  0.00    -0.094 F 
ATOM     20  F   UNL     1      -2.128  -4.671  -2.652  1.00  0.00    -0.094 F 
ATOM     21  F   UNL     1      -3.491  -3.296  -3.765  1.00  0.00    -0.094 F 
ATOM     22  F   UNL     1      -2.519  -1.549  -2.821  1.00  0.00    -0.094 F 
ATOM     23  F   UNL     1      -1.139  -2.910  -1.730  1.00  0.00    -0.094 F 
ENDBRANCH  12  18
BRANCH  17  24
ATOM     24  C   UNL     1       4.389  -3.396   0.739  1.00  0.00     0.429 C 
ATOM     25  F   UNL     1       4.952  -2.245   1.096  1.00  0.00    -0.167 F 
ATOM     26  F   UNL     1       5.159  -4.407   1.134  1.00  0.00    -0.167 F 
ATOM     27  F   UNL     1       4.255  -3.432  -0.584  1.00  0.00    -0.167 F 
ENDBRANCH  17  24
ENDBRANCH   4   7
ENDBRANCH   2   3
ENDBRANCH   1   2
BRANCH   1  28
ATOM     28  C   UNL     1       5.701  -5.356   5.014  1.00  0.00     0.118 C 
BRANCH  28  29
ATOM     29  N   UNL     1       7.092  -5.118   4.602  1.00  0.00    -0.352 N 
ATOM     30  C   UNL     1       8.116  -4.811   5.612  1.00  0.00     0.251 C 
ATOM     31  H   UNL     1       7.338  -5.165   3.650  1.00  0.00     0.163 HD
ATOM     32  O   UNL     1       9.318  -4.606   5.255  1.00  0.00    -0.269 OA
BRANCH  30  33
ATOM     33  C   UNL     1       7.736  -4.739   7.082  1.00  0.00     0.039 A 
ATOM     34  C   UNL     1       8.188  -3.698   7.885  1.00  0.00     0.014 A 
ATOM     35  C   UNL     1       6.966  -5.658   7.624  1.00  0.00     0.014 A 
ATOM     36  C   UNL     1       7.421  -3.409   9.035  1.00  0.00     0.010 A 
ATOM     37  C   UNL     1       6.619  -5.593   8.978  1.00  0.00     0.010 A 
ATOM     38  C   UNL     1       6.835  -4.499   9.677  1.00  0.00    -0.014 A 
BRANCH  38  39
ATOM     39  C   UNL     1       6.456  -4.426  11.147  1.00  0.00     0.031 A 
ATOM     40  C   UNL     1       7.050  -5.335  12.024  1.00  0.00     0.074 A 
ATOM     41  C   UNL     1       5.546  -3.457  11.536  1.00  0.00     0.049 A 
ATOM     42  N   UNL     1       6.887  -5.416  13.345  1.00  0.00    -0.248 NA
ATOM     43  C   UNL     1       7.990  -6.386  11.608  1.00  0.00     0.031 C 
ATOM     44  C   UNL     1       4.948  -2.531  10.658  1.00  0.00     0.029 A 
ATOM     45  N   UNL     1       5.060  -3.213  12.801  1.00  0.00    -0.354 N 
ATOM     46  C   UNL     1       7.637  -6.402  13.842  1.00  0.00     0.074 A 
ATOM     47  C   UNL     1       8.352  -7.044  12.732  1.00  0.00     0.031 C 
ATOM     48  C   UNL     1       4.106  -1.748  11.382  1.00  0.00     0.029 A 
ATOM     49  C   UNL     1       4.163  -2.170  12.724  1.00  0.00     0.049 A 
ATOM     50  H   UNL     1       5.310  -3.700  13.619  1.00  0.00     0.167 HD
ATOM     51  C   UNL     1       7.753  -6.789  15.178  1.00  0.00     0.031 A 
ATOM     52  C   UNL     1       3.426  -1.607  13.753  1.00  0.00     0.031 A 
ATOM     53  C   UNL     1       7.048  -6.197  16.214  1.00  0.00     0.049 A 
ATOM     54  C   UNL     1       3.498  -2.033  15.082  1.00  0.00     0.074 A 
ATOM     55  C   UNL     1       7.159  -6.571  17.567  1.00  0.00     0.029 A 
ATOM     56  N   UNL     1       6.133  -5.171  16.134  1.00  0.00    -0.354 N 
ATOM     57  N   UNL     1       4.277  -2.993  15.584  1.00  0.00    -0.248 NA
ATOM     58  C   UNL     1       2.698  -1.466  16.175  1.00  0.00     0.031 C 
ATOM     59  C   UNL     1       6.316  -5.787  18.292  1.00  0.00     0.029 A 
ATOM     60  C   UNL     1       5.664  -4.912  17.402  1.00  0.00     0.049 A 
ATOM     61  H   UNL     1       5.861  -4.704  15.311  1.00  0.00     0.167 HD
ATOM     62  C   UNL     1       4.082  -3.101  16.900  1.00  0.00     0.074 A 
ATOM     63  C   UNL     1       3.058  -2.125  17.298  1.00  0.00     0.031 C 
ATOM     64  C   UNL     1       4.720  -3.971  17.785  1.00  0.00     0.031 A 
BRANCH  51  65
ATOM     65  C   UNL     1       8.706  -7.924  15.516  1.00  0.00    -0.014 A 
ATOM     66  C   UNL     1      10.068  -7.841  15.248  1.00  0.00     0.009 A 
ATOM     67  C   UNL     1       8.247  -9.017  16.087  1.00  0.00     0.009 A 
ATOM     68  C   UNL     1      10.916  -8.658  16.029  1.00  0.00     0.001 A 
ATOM     69  C   UNL     1       9.108 -10.072  16.409  1.00  0.00     0.001 A 
ATOM     70  C   UNL     1      10.413  -9.908  16.385  1.00  0.00     0.000 A 
ENDBRANCH  51  65
BRANCH  52  71
ATOM     71  C   UNL     1       2.485  -0.461  13.418  1.00  0.00    -0.014 A 
ATOM     72  C   UNL     1       2.618   0.792  14.005  1.00  0.00     0.009 A 
ATOM     73  C   UNL     1       1.507  -0.648  12.557  1.00  0.00     0.009 A 
ATOM     74  C   UNL     1       2.059   1.882  13.301  1.00  0.00     0.001 A 
ATOM     75  C   UNL     1       0.618   0.388  12.249  1.00  0.00     0.001 A 
ATOM     76  C   UNL     1       0.879   1.628  12.605  1.00  0.00     0.000 A 
ENDBRANCH  52  71
BRANCH  64  77
ATOM     77  C   UNL     1       4.358  -3.882  19.259  1.00  0.00    -0.014 A 
ATOM     78  C   UNL     1       3.054  -4.105  19.688  1.00  0.00     0.009 A 
ATOM     79  C   UNL     1       5.273  -3.601  20.161  1.00  0.00     0.009 A 
ATOM     80  C   UNL     1       2.892  -4.512  21.031  1.00  0.00     0.001 A 
ATOM     81  C   UNL     1       4.940  -3.519  21.518  1.00  0.00     0.001 A 
ATOM     82  C   UNL     1       3.780  -3.962  21.954  1.00  0.00     0.000 A 
ENDBRANCH  64  77
ENDBRANCH  38  39
ENDBRANCH  30  33
ENDBRANCH  28  29
ENDBRANCH   1  28
TORSDOF 12
