REMARK SMILES Cc1cc2c(c(C)c1Cl)C=C(C(=O)NCCCNC(=O)c1ccc(-c3c4nc(c(-c5ccccc5)c5ccc([nH]5)c(-c5ccccc5)c5nc(c(-c6ccccc6)c6ccc3[nH]6)C=C5)C=C4)cc1)[C@@H](C(F)(F)F)O2
REMARK SMILES IDX 16 1 15 2 14 3 12 4 13 5 11 7 1 8 2 9 3 10 8 11 4 12 6 13
REMARK SMILES IDX 9 14 5 15 74 16 7 17 10 18 69 19 70 20 71 21 72 22 73 23
REMARK SMILES IDX 17 24 18 25 19 26 20 28 21 29 22 30 68 31 23 32 67 33 24 34
REMARK SMILES IDX 25 35 26 36 61 37 27 38 66 39 60 40 62 41 28 42 65 43 59 44
REMARK SMILES IDX 58 45 29 47 51 48 36 49 50 50 37 51 40 52 49 53 63 54 38 55
REMARK SMILES IDX 39 56 48 58 64 59 41 60 30 61 31 62 35 63 32 64 34 65 33 66
REMARK SMILES IDX 52 67 53 68 57 69 54 70 56 71 55 72 42 73 43 74 47 75 44 76
REMARK SMILES IDX 46 77 45 78
REMARK H PARENT 14 6 18 27 62 46 40 57
REMARK Flexibility Score: inf
ROOT
ATOM      1  C   UNL     1      -4.140   6.231   5.336  1.00  0.00     0.042 C 
ENDROOT
BRANCH   1   2
ATOM      2  C   UNL     1      -4.242   6.263   3.820  1.00  0.00     0.118 C 
BRANCH   2   3
ATOM      3  N   UNL     1      -3.137   6.994   3.220  1.00  0.00    -0.352 N 
ATOM      4  C   UNL     1      -2.035   6.707   2.489  1.00  0.00     0.251 C 
ATOM      5  O   UNL     1      -1.339   7.681   2.186  1.00  0.00    -0.270 OA
ATOM      6  H   UNL     1      -3.211   7.960   3.392  1.00  0.00     0.163 HD
BRANCH   4   7
ATOM      7  C   UNL     1      -1.630   5.340   2.051  1.00  0.00     0.067 C 
ATOM      8  C   UNL     1       1.217  -0.068  -0.172  1.00  0.00     0.046 C 
ATOM      9  C   UNL     1       0.838   1.341   0.195  1.00  0.00    -0.028 A 
ATOM     10  C   UNL     1      -0.259   1.530   1.038  1.00  0.00     0.052 A 
ATOM     11  C   UNL     1       1.517   2.472  -0.304  1.00  0.00     0.047 A 
ATOM     12  C   UNL     1      -0.665   2.811   1.389  1.00  0.00     0.128 A 
ATOM     13  C   UNL     1       1.123   3.784   0.061  1.00  0.00    -0.021 A 
ATOM     14  Cl  UNL     1       2.856   2.217  -1.383  1.00  0.00    -0.084 Cl
ATOM     15  C   UNL     1       0.014   3.943   0.926  1.00  0.00     0.022 A 
ATOM     16  O   UNL     1      -1.730   2.867   2.240  1.00  0.00    -0.475 OA
ATOM     17  C   UNL     1       1.853   5.007  -0.445  1.00  0.00     0.047 C 
ATOM     18  C   UNL     1      -0.452   5.249   1.406  1.00  0.00     0.026 C 
ATOM     19  C   UNL     1      -2.463   4.115   2.270  1.00  0.00     0.314 C 
BRANCH  19  20
ATOM     20  C   UNL     1      -3.667   4.032   1.312  1.00  0.00     0.429 C 
ATOM     21  F   UNL     1      -4.592   3.164   1.794  1.00  0.00    -0.167 F 
ATOM     22  F   UNL     1      -4.300   5.221   1.165  1.00  0.00    -0.167 F 
ATOM     23  F   UNL     1      -3.325   3.616   0.073  1.00  0.00    -0.167 F 
ENDBRANCH  19  20
ENDBRANCH   4   7
ENDBRANCH   2   3
ENDBRANCH   1   2
BRANCH   1  24
ATOM     24  C   UNL     1      -4.562   7.553   5.963  1.00  0.00     0.118 C 
BRANCH  24  25
ATOM     25  N   UNL     1      -5.971   7.847   5.706  1.00  0.00    -0.352 N 
ATOM     26  C   UNL     1      -7.056   7.768   6.539  1.00  0.00     0.251 C 
ATOM     27  H   UNL     1      -6.171   8.149   4.791  1.00  0.00     0.163 HD
ATOM     28  O   UNL     1      -8.193   7.774   6.069  1.00  0.00    -0.269 OA
BRANCH  26  29
ATOM     29  C   UNL     1      -6.860   7.676   7.996  1.00  0.00     0.039 A 
ATOM     30  C   UNL     1      -7.686   6.840   8.751  1.00  0.00     0.014 A 
ATOM     31  C   UNL     1      -5.871   8.440   8.620  1.00  0.00     0.014 A 
ATOM     32  C   UNL     1      -7.474   6.725  10.124  1.00  0.00     0.010 A 
ATOM     33  C   UNL     1      -5.592   8.244   9.964  1.00  0.00     0.010 A 
ATOM     34  C   UNL     1      -6.404   7.400  10.733  1.00  0.00    -0.014 A 
BRANCH  34  35
ATOM     35  C   UNL     1      -6.133   7.273  12.183  1.00  0.00     0.031 A 
ATOM     36  C   UNL     1      -6.230   8.484  13.069  1.00  0.00     0.074 A 
ATOM     37  C   UNL     1      -5.749   6.085  12.688  1.00  0.00     0.049 A 
ATOM     38  N   UNL     1      -5.981   8.591  14.348  1.00  0.00    -0.248 NA
ATOM     39  C   UNL     1      -6.635   9.749  12.430  1.00  0.00     0.031 C 
ATOM     40  C   UNL     1      -5.586   4.849  11.918  1.00  0.00     0.029 A 
ATOM     41  N   UNL     1      -5.428   5.722  13.970  1.00  0.00    -0.354 N 
ATOM     42  C   UNL     1      -6.186   9.929  14.659  1.00  0.00     0.074 A 
ATOM     43  C   UNL     1      -6.516  10.610  13.429  1.00  0.00     0.031 C 
ATOM     44  C   UNL     1      -5.238   3.856  12.752  1.00  0.00     0.029 A 
ATOM     45  C   UNL     1      -5.110   4.392  14.103  1.00  0.00     0.049 A 
ATOM     46  H   UNL     1      -5.427   6.354  14.725  1.00  0.00     0.167 HD
ATOM     47  C   UNL     1      -6.136  10.531  15.869  1.00  0.00     0.031 A 
ATOM     48  C   UNL     1      -4.755   3.685  15.192  1.00  0.00     0.031 A 
ATOM     49  C   UNL     1      -5.826   9.845  17.093  1.00  0.00     0.049 A 
ATOM     50  C   UNL     1      -4.678   4.384  16.521  1.00  0.00     0.074 A 
ATOM     51  C   UNL     1      -5.797  10.354  18.379  1.00  0.00     0.029 A 
ATOM     52  N   UNL     1      -5.496   8.502  17.181  1.00  0.00    -0.354 N 
ATOM     53  N   UNL     1      -4.934   5.638  16.809  1.00  0.00    -0.248 NA
ATOM     54  C   UNL     1      -4.273   3.571  17.675  1.00  0.00     0.031 C 
ATOM     55  C   UNL     1      -5.394   9.330  19.240  1.00  0.00     0.029 A 
ATOM     56  C   UNL     1      -5.234   8.170  18.498  1.00  0.00     0.049 A 
ATOM     57  H   UNL     1      -5.455   7.878  16.421  1.00  0.00     0.167 HD
ATOM     58  C   UNL     1      -4.741   5.759  18.178  1.00  0.00     0.074 A 
ATOM     59  C   UNL     1      -4.367   4.447  18.666  1.00  0.00     0.031 C 
ATOM     60  C   UNL     1      -4.861   6.858  18.962  1.00  0.00     0.031 A 
BRANCH  47  61
ATOM     61  C   UNL     1      -6.434  12.003  15.931  1.00  0.00    -0.014 A 
ATOM     62  C   UNL     1      -7.733  12.488  15.712  1.00  0.00     0.009 A 
ATOM     63  C   UNL     1      -5.418  12.910  16.268  1.00  0.00     0.009 A 
ATOM     64  C   UNL     1      -8.003  13.855  15.805  1.00  0.00     0.001 A 
ATOM     65  C   UNL     1      -5.697  14.273  16.390  1.00  0.00     0.001 A 
ATOM     66  C   UNL     1      -6.987  14.744  16.152  1.00  0.00     0.000 A 
ENDBRANCH  47  61
BRANCH  48  67
ATOM     67  C   UNL     1      -4.474   2.230  15.072  1.00  0.00    -0.014 A 
ATOM     68  C   UNL     1      -5.359   1.290  15.622  1.00  0.00     0.009 A 
ATOM     69  C   UNL     1      -3.337   1.771  14.390  1.00  0.00     0.009 A 
ATOM     70  C   UNL     1      -5.101  -0.078  15.506  1.00  0.00     0.001 A 
ATOM     71  C   UNL     1      -3.096   0.402  14.250  1.00  0.00     0.001 A 
ATOM     72  C   UNL     1      -3.974  -0.521  14.815  1.00  0.00     0.000 A 
ENDBRANCH  48  67
BRANCH  60  73
ATOM     73  C   UNL     1      -4.601   6.696  20.432  1.00  0.00    -0.014 A 
ATOM     74  C   UNL     1      -3.299   6.520  20.922  1.00  0.00     0.009 A 
ATOM     75  C   UNL     1      -5.664   6.810  21.343  1.00  0.00     0.009 A 
ATOM     76  C   UNL     1      -3.068   6.443  22.297  1.00  0.00     0.001 A 
ATOM     77  C   UNL     1      -5.426   6.764  22.717  1.00  0.00     0.001 A 
ATOM     78  C   UNL     1      -4.129   6.574  23.192  1.00  0.00     0.000 A 
ENDBRANCH  60  73
ENDBRANCH  34  35
ENDBRANCH  26  29
ENDBRANCH  24  25
ENDBRANCH   1  24
TORSDOF 11
