REMARK SMILES CC(C)[C@H](NC(=O)N1c2ccccc2[NH+]=C(NCCCNC(=O)c2ccc(-c3c4nc(c(-c5ccccc5)c5ccc([nH]5)c(-c5ccccc5)c5nc(c(-c6ccccc6)c6ccc3[nH]6)C=C5)C=C4)cc2)[C@@H]1C(C)C)C(=O)N1CCC(C(=O)[O-])CC1
REMARK SMILES IDX 18 1 17 2 8 3 9 4 72 5 10 6 14 7 16 8 11 9 13 10 15 11 12 12
REMARK SMILES IDX 6 15 5 16 7 18 4 19 2 20 1 21 3 22 76 23 77 24 78 25 79 26
REMARK SMILES IDX 86 27 80 28 85 29 81 30 82 31 83 32 84 33 73 34 74 35 75 36
REMARK SMILES IDX 19 37 20 38 21 39 22 40 23 42 24 43 25 44 71 45 26 46 70 47
REMARK SMILES IDX 27 48 28 49 29 50 64 51 30 52 69 53 63 54 65 55 31 56 68 57
REMARK SMILES IDX 62 58 61 59 32 61 54 62 39 63 53 64 40 65 43 66 52 67 66 68
REMARK SMILES IDX 41 69 42 70 51 72 67 73 44 74 33 75 34 76 38 77 35 78 37 79
REMARK SMILES IDX 36 80 55 81 56 82 60 83 57 84 59 85 58 86 45 87 46 88 50 89
REMARK SMILES IDX 47 90 49 91 48 92
REMARK H PARENT 15 13 17 14 5 17 21 41 65 60 43 71
REMARK Flexibility Score: inf
ROOT
ATOM      1  C   UNL     1       0.321   1.416  -6.114  1.00  0.00     0.235 C 
ENDROOT
BRANCH   1   2
ATOM      2  N   UNL     1      -0.472   1.586  -4.923  1.00  0.00    -0.276 N 
ATOM      3  N   UNL     1       0.622   0.926  -1.599  1.00  0.00    -0.275 N 
ATOM      4  C   UNL     1      -0.267   1.772  -0.854  1.00  0.00     0.093 A 
ATOM      5  C   UNL     1       1.160   1.619  -2.810  1.00  0.00     0.208 C 
ATOM      6  C   UNL     1      -0.376   1.706   0.539  1.00  0.00     0.031 A 
ATOM      7  C   UNL     1      -1.107   2.628  -1.601  1.00  0.00     0.148 A 
ATOM      8  C   UNL     1      -0.161   1.938  -3.623  1.00  0.00     0.271 C 
ATOM      9  C   UNL     1      -1.344   2.470   1.193  1.00  0.00     0.002 A 
ATOM     10  C   UNL     1      -2.086   3.365  -0.933  1.00  0.00     0.054 A 
ATOM     11  N   UNL     1      -1.165   2.531  -3.011  1.00  0.00    -0.241 N 
ATOM     12  C   UNL     1      -2.207   3.285   0.458  1.00  0.00     0.005 A 
ATOM     13  H   UNL     1      -1.929   2.894  -3.516  1.00  0.00     0.312 HD
ATOM     14  H   UNL     1      -1.432   1.417  -5.064  1.00  0.00     0.304 HD
BRANCH   3  15
ATOM     15  C   UNL     1       1.056  -0.245  -1.073  1.00  0.00     0.323 C 
ATOM     16  N   UNL     1       0.203  -1.288  -0.919  1.00  0.00    -0.326 N 
ATOM     17  H   UNL     1       0.698  -2.130  -0.793  1.00  0.00     0.166 HD
ATOM     18  O   UNL     1       2.215  -0.444  -0.713  1.00  0.00    -0.248 OA
BRANCH  16  19
ATOM     19  C   UNL     1      -1.254  -1.525  -0.886  1.00  0.00     0.175 C 
BRANCH  19  20
ATOM     20  C   UNL     1      -2.210  -0.634  -1.730  1.00  0.00     0.015 C 
ATOM     21  C   UNL     1      -2.828  -1.214  -3.003  1.00  0.00     0.010 C 
ATOM     22  C   UNL     1      -3.356  -0.116  -0.845  1.00  0.00     0.010 C 
ENDBRANCH  19  20
BRANCH  19  23
ATOM     23  C   UNL     1      -1.654  -3.016  -1.083  1.00  0.00     0.245 C 
ATOM     24  O   UNL     1      -2.572  -3.476  -0.392  1.00  0.00    -0.272 OA
ATOM     25  N   UNL     1      -1.225  -3.693  -2.222  1.00  0.00    -0.341 N 
ATOM     26  C   UNL     1      -2.215  -4.491  -2.942  1.00  0.00     0.120 C 
ATOM     27  C   UNL     1       0.088  -3.602  -2.857  1.00  0.00     0.120 C 
ATOM     28  C   UNL     1      -1.724  -5.894  -3.221  1.00  0.00     0.031 C 
ATOM     29  C   UNL     1       0.640  -4.999  -3.149  1.00  0.00     0.031 C 
ATOM     30  C   UNL     1      -0.365  -5.858  -3.921  1.00  0.00     0.038 C 
BRANCH  30  31
ATOM     31  C   UNL     1       0.153  -7.259  -4.111  1.00  0.00     0.045 C 
ATOM     32  O   UNL     1       0.461  -7.764  -5.181  1.00  0.00    -0.550 OA
ATOM     33  O   UNL     1       0.260  -7.957  -2.967  1.00  0.00    -0.550 OA
ENDBRANCH  30  31
ENDBRANCH  19  23
ENDBRANCH  16  19
ENDBRANCH   3  15
BRANCH   5  34
ATOM     34  C   UNL     1       2.339   1.049  -3.645  1.00  0.00     0.018 C 
ATOM     35  C   UNL     1       2.953   2.213  -4.470  1.00  0.00     0.010 C 
ATOM     36  C   UNL     1       3.534   0.422  -2.929  1.00  0.00     0.010 C 
ENDBRANCH   5  34
ENDBRANCH   1   2
BRANCH   1  37
ATOM     37  C   UNL     1      -0.089   0.185  -6.909  1.00  0.00     0.067 C 
BRANCH  37  38
ATOM     38  C   UNL     1      -1.241   0.428  -7.869  1.00  0.00     0.120 C 
BRANCH  38  39
ATOM     39  N   UNL     1      -0.928   1.419  -8.898  1.00  0.00    -0.352 N 
ATOM     40  C   UNL     1      -0.676   1.300 -10.243  1.00  0.00     0.251 C 
ATOM     41  H   UNL     1      -0.892   2.345  -8.564  1.00  0.00     0.163 HD
ATOM     42  O   UNL     1      -0.246   2.270 -10.861  1.00  0.00    -0.269 OA
BRANCH  40  43
ATOM     43  C   UNL     1      -0.894   0.021 -10.953  1.00  0.00     0.039 A 
ATOM     44  C   UNL     1      -0.026  -0.345 -11.988  1.00  0.00     0.014 A 
ATOM     45  C   UNL     1      -1.962  -0.812 -10.625  1.00  0.00     0.014 A 
ATOM     46  C   UNL     1      -0.181  -1.580 -12.623  1.00  0.00     0.010 A 
ATOM     47  C   UNL     1      -2.038  -2.089 -11.163  1.00  0.00     0.010 A 
ATOM     48  C   UNL     1      -1.158  -2.485 -12.179  1.00  0.00    -0.014 A 
BRANCH  48  49
ATOM     49  C   UNL     1      -1.298  -3.842 -12.765  1.00  0.00     0.031 A 
ATOM     50  C   UNL     1      -2.596  -4.258 -13.405  1.00  0.00     0.074 A 
ATOM     51  C   UNL     1      -0.290  -4.729 -12.647  1.00  0.00     0.049 A 
ATOM     52  N   UNL     1      -2.942  -5.421 -13.897  1.00  0.00    -0.248 NA
ATOM     53  C   UNL     1      -3.661  -3.242 -13.467  1.00  0.00     0.031 C 
ATOM     54  C   UNL     1       1.005  -4.466 -12.014  1.00  0.00     0.029 A 
ATOM     55  N   UNL     1      -0.199  -6.035 -13.056  1.00  0.00    -0.354 N 
ATOM     56  C   UNL     1      -4.266  -5.282 -14.296  1.00  0.00     0.074 A 
ATOM     57  C   UNL     1      -4.681  -3.948 -13.927  1.00  0.00     0.031 C 
ATOM     58  C   UNL     1       1.776  -5.559 -12.122  1.00  0.00     0.029 A 
ATOM     59  C   UNL     1       1.016  -6.615 -12.781  1.00  0.00     0.049 A 
ATOM     60  H   UNL     1      -0.935  -6.512 -13.504  1.00  0.00     0.167 HD
ATOM     61  C   UNL     1      -5.060  -6.173 -14.936  1.00  0.00     0.031 A 
ATOM     62  C   UNL     1       1.466  -7.858 -13.033  1.00  0.00     0.031 A 
ATOM     63  C   UNL     1      -4.641  -7.497 -15.312  1.00  0.00     0.049 A 
ATOM     64  C   UNL     1       0.557  -8.841 -13.716  1.00  0.00     0.074 A 
ATOM     65  C   UNL     1      -5.343  -8.457 -16.018  1.00  0.00     0.029 A 
ATOM     66  N   UNL     1      -3.406  -8.048 -15.005  1.00  0.00    -0.354 N 
ATOM     67  N   UNL     1      -0.666  -8.671 -14.155  1.00  0.00    -0.248 NA
ATOM     68  C   UNL     1       1.099 -10.188 -13.945  1.00  0.00     0.031 C 
ATOM     69  C   UNL     1      -4.557  -9.612 -16.082  1.00  0.00     0.029 A 
ATOM     70  C   UNL     1      -3.338  -9.347 -15.478  1.00  0.00     0.049 A 
ATOM     71  H   UNL     1      -2.684  -7.584 -14.522  1.00  0.00     0.167 HD
ATOM     72  C   UNL     1      -1.028  -9.876 -14.743  1.00  0.00     0.074 A 
ATOM     73  C   UNL     1       0.111 -10.762 -14.615  1.00  0.00     0.031 C 
ATOM     74  C   UNL     1      -2.197 -10.217 -15.340  1.00  0.00     0.031 A 
BRANCH  61  75
ATOM     75  C   UNL     1      -6.468  -5.740 -15.249  1.00  0.00    -0.014 A 
ATOM     76  C   UNL     1      -6.731  -4.708 -16.166  1.00  0.00     0.009 A 
ATOM     77  C   UNL     1      -7.549  -6.370 -14.614  1.00  0.00     0.009 A 
ATOM     78  C   UNL     1      -8.040  -4.278 -16.395  1.00  0.00     0.001 A 
ATOM     79  C   UNL     1      -8.860  -5.965 -14.874  1.00  0.00     0.001 A 
ATOM     80  C   UNL     1      -9.103  -4.909 -15.751  1.00  0.00     0.000 A 
ENDBRANCH  61  75
BRANCH  62  81
ATOM     81  C   UNL     1       2.860  -8.233 -12.675  1.00  0.00    -0.014 A 
ATOM     82  C   UNL     1       3.812  -8.452 -13.683  1.00  0.00     0.009 A 
ATOM     83  C   UNL     1       3.250  -8.373 -11.334  1.00  0.00     0.009 A 
ATOM     84  C   UNL     1       5.117  -8.827 -13.358  1.00  0.00     0.001 A 
ATOM     85  C   UNL     1       4.564  -8.719 -11.011  1.00  0.00     0.001 A 
ATOM     86  C   UNL     1       5.494  -8.955 -12.023  1.00  0.00     0.000 A 
ENDBRANCH  62  81
BRANCH  74  87
ATOM     87  C   UNL     1      -2.288 -11.594 -15.937  1.00  0.00    -0.014 A 
ATOM     88  C   UNL     1      -2.350 -12.741 -15.132  1.00  0.00     0.009 A 
ATOM     89  C   UNL     1      -2.351 -11.739 -17.333  1.00  0.00     0.009 A 
ATOM     90  C   UNL     1      -2.438 -14.008 -15.714  1.00  0.00     0.001 A 
ATOM     91  C   UNL     1      -2.473 -13.003 -17.910  1.00  0.00     0.001 A 
ATOM     92  C   UNL     1      -2.505 -14.137 -17.101  1.00  0.00     0.000 A 
ENDBRANCH  74  87
ENDBRANCH  48  49
ENDBRANCH  40  43
ENDBRANCH  38  39
ENDBRANCH  37  38
ENDBRANCH   1  37
TORSDOF 15
