REMARK SMILES Cc1ccc(-c2cnnc(-n3nc(C)c4c3NC(=O)C[C@@H]4c3ccc(C(=O)NCCCNC(=O)c4ccc(-c5c6nc(c(-c7ccccc7)c7ccc([nH]7)c(-c7ccccc7)c7nc(c(-c8ccccc8)c8ccc5[nH]8)C=C7)C=C6)cc4)cc3)n2)cc1
REMARK SMILES IDX 29 1 28 2 26 3 27 4 25 6 22 7 23 8 84 9 24 10 83 11 21 12
REMARK SMILES IDX 11 13 12 14 16 15 13 16 15 17 17 18 14 19 18 20 20 22 19 23
REMARK SMILES IDX 10 24 6 25 7 26 85 27 8 28 9 29 5 30 1 31 2 32 3 33 87 34
REMARK SMILES IDX 4 35 86 36 30 37 31 38 32 39 33 40 34 42 35 43 36 44 82 45
REMARK SMILES IDX 37 46 81 47 38 48 39 49 40 50 75 51 41 52 80 53 74 54 76 55
REMARK SMILES IDX 42 56 79 57 73 58 72 59 43 61 65 62 50 63 64 64 51 65 54 66
REMARK SMILES IDX 63 67 77 68 52 69 53 70 62 72 78 73 55 74 44 75 45 76 49 77
REMARK SMILES IDX 46 78 48 79 47 80 66 81 67 82 71 83 68 84 70 85 69 86 56 87
REMARK SMILES IDX 57 88 61 89 58 90 60 91 59 92
REMARK H PARENT 28 5 17 21 32 41 76 60 54 71
REMARK Flexibility Score: inf
ROOT
ATOM      1  C   UNL     1     -11.775   5.114  -6.283  1.00  0.00     0.118 C 
ENDROOT
BRANCH   1   2
ATOM      2  N   UNL     1     -11.563   5.368  -7.706  1.00  0.00    -0.352 N 
ATOM      3  C   UNL     1     -10.632   4.813  -8.558  1.00  0.00     0.251 C 
ATOM      4  O   UNL     1     -10.732   4.947  -9.772  1.00  0.00    -0.269 OA
ATOM      5  H   UNL     1     -12.170   6.027  -8.114  1.00  0.00     0.163 HD
BRANCH   3   6
ATOM      6  C   UNL     1      -9.529   4.002  -8.004  1.00  0.00     0.039 A 
ATOM      7  C   UNL     1      -7.696   2.340  -6.689  1.00  0.00    -0.040 A 
ATOM      8  C   UNL     1      -8.458   1.861  -7.776  1.00  0.00     0.005 A 
ATOM      9  C   UNL     1      -7.748   3.708  -6.395  1.00  0.00     0.005 A 
ATOM     10  C   UNL     1      -9.371   2.686  -8.432  1.00  0.00     0.014 A 
ATOM     11  C   UNL     1      -8.657   4.532  -7.054  1.00  0.00     0.014 A 
BRANCH   7  12
ATOM     12  C   UNL     1      -6.897   1.332  -5.893  1.00  0.00     0.064 C 
ATOM     13  N   UNL     1      -5.910   1.983  -2.473  1.00  0.00    -0.180 N 
ATOM     14  N   UNL     1      -7.220   2.316  -2.303  1.00  0.00    -0.168 NA
ATOM     15  C   UNL     1      -5.605   1.991  -3.822  1.00  0.00     0.143 A 
ATOM     16  C   UNL     1      -7.785   2.079  -3.490  1.00  0.00     0.066 A 
ATOM     17  C   UNL     1      -6.803   1.765  -4.469  1.00  0.00     0.026 A 
ATOM     18  N   UNL     1      -4.424   2.116  -4.528  1.00  0.00    -0.310 N 
ATOM     19  C   UNL     1      -9.256   2.235  -3.616  1.00  0.00     0.069 C 
ATOM     20  C   UNL     1      -4.450   1.910  -5.944  1.00  0.00     0.226 C 
ATOM     21  H   UNL     1      -3.584   2.341  -4.068  1.00  0.00     0.171 HD
ATOM     22  C   UNL     1      -5.528   1.016  -6.490  1.00  0.00     0.113 C 
ATOM     23  O   UNL     1      -3.505   2.356  -6.589  1.00  0.00    -0.275 OA
BRANCH  13  24
ATOM     24  C   UNL     1      -5.158   1.394  -1.415  1.00  0.00     0.272 A 
ATOM     25  C   UNL     1      -3.287   0.382  -0.586  1.00  0.00     0.095 A 
ATOM     26  C   UNL     1      -4.054  -0.179   0.421  1.00  0.00     0.164 A 
ATOM     27  N   UNL     1      -3.834   1.154  -1.567  1.00  0.00    -0.208 NA
ATOM     28  N   UNL     1      -5.361   0.089   0.525  1.00  0.00    -0.153 NA
ATOM     29  N   UNL     1      -5.908   0.920  -0.385  1.00  0.00    -0.109 NA
BRANCH  25  30
ATOM     30  C   UNL     1      -1.825   0.255  -0.548  1.00  0.00     0.002 A 
ATOM     31  C   UNL     1       2.452  -0.041   0.063  1.00  0.00     0.044 C 
ATOM     32  C   UNL     1       0.973   0.068  -0.163  1.00  0.00    -0.051 A 
ATOM     33  C   UNL     1       0.190  -1.088  -0.246  1.00  0.00     0.004 A 
ATOM     34  C   UNL     1       0.356   1.315  -0.292  1.00  0.00     0.004 A 
ATOM     35  C   UNL     1      -1.193  -0.996  -0.436  1.00  0.00     0.011 A 
ATOM     36  C   UNL     1      -1.025   1.406  -0.488  1.00  0.00     0.011 A 
ENDBRANCH  25  30
ENDBRANCH  13  24
ENDBRANCH   7  12
ENDBRANCH   3   6
ENDBRANCH   1   2
BRANCH   1  37
ATOM     37  C   UNL     1     -11.150   6.174  -5.382  1.00  0.00     0.042 C 
BRANCH  37  38
ATOM     38  C   UNL     1     -11.967   7.449  -5.264  1.00  0.00     0.118 C 
BRANCH  38  39
ATOM     39  N   UNL     1     -12.739   7.558  -4.032  1.00  0.00    -0.352 N 
ATOM     40  C   UNL     1     -13.530   8.599  -3.578  1.00  0.00     0.251 C 
ATOM     41  H   UNL     1     -12.690   6.777  -3.436  1.00  0.00     0.163 HD
ATOM     42  O   UNL     1     -14.061   8.516  -2.474  1.00  0.00    -0.269 OA
BRANCH  40  43
ATOM     43  C   UNL     1     -13.871   9.726  -4.482  1.00  0.00     0.039 A 
ATOM     44  C   UNL     1     -15.209  10.137  -4.515  1.00  0.00     0.014 A 
ATOM     45  C   UNL     1     -12.984  10.169  -5.456  1.00  0.00     0.014 A 
ATOM     46  C   UNL     1     -15.711  10.722  -5.671  1.00  0.00     0.010 A 
ATOM     47  C   UNL     1     -13.494  10.630  -6.647  1.00  0.00     0.010 A 
ATOM     48  C   UNL     1     -14.868  10.835  -6.771  1.00  0.00    -0.014 A 
BRANCH  48  49
ATOM     49  C   UNL     1     -15.334  11.089  -8.120  1.00  0.00     0.031 A 
ATOM     50  C   UNL     1     -15.222  12.442  -8.679  1.00  0.00     0.074 A 
ATOM     51  C   UNL     1     -15.777  10.057  -8.871  1.00  0.00     0.049 A 
ATOM     52  N   UNL     1     -15.982  12.898  -9.612  1.00  0.00    -0.248 NA
ATOM     53  C   UNL     1     -14.254  13.416  -8.185  1.00  0.00     0.031 C 
ATOM     54  C   UNL     1     -16.035  10.035 -10.306  1.00  0.00     0.029 A 
ATOM     55  N   UNL     1     -16.284   8.845  -8.411  1.00  0.00    -0.354 N 
ATOM     56  C   UNL     1     -15.419  14.073 -10.047  1.00  0.00     0.074 A 
ATOM     57  C   UNL     1     -14.405  14.402  -9.073  1.00  0.00     0.031 C 
ATOM     58  C   UNL     1     -16.858   9.009 -10.582  1.00  0.00     0.029 A 
ATOM     59  C   UNL     1     -17.278   8.434  -9.314  1.00  0.00     0.049 A 
ATOM     60  H   UNL     1     -15.998   8.364  -7.601  1.00  0.00     0.167 HD
ATOM     61  C   UNL     1     -15.753  14.558 -11.273  1.00  0.00     0.031 A 
ATOM     62  C   UNL     1     -18.576   8.325  -8.902  1.00  0.00     0.031 A 
ATOM     63  C   UNL     1     -16.749  13.718 -11.930  1.00  0.00     0.049 A 
ATOM     64  C   UNL     1     -19.504   9.302  -9.593  1.00  0.00     0.074 A 
ATOM     65  C   UNL     1     -16.649  12.716 -12.882  1.00  0.00     0.029 A 
ATOM     66  N   UNL     1     -18.015  13.602 -11.367  1.00  0.00    -0.354 N 
ATOM     67  N   UNL     1     -19.101  10.379 -10.211  1.00  0.00    -0.248 NA
ATOM     68  C   UNL     1     -20.956   9.150  -9.636  1.00  0.00     0.031 C 
ATOM     69  C   UNL     1     -17.844  11.950 -12.839  1.00  0.00     0.029 A 
ATOM     70  C   UNL     1     -18.678  12.507 -11.886  1.00  0.00     0.049 A 
ATOM     71  H   UNL     1     -18.387  14.215 -10.692  1.00  0.00     0.167 HD
ATOM     72  C   UNL     1     -20.179  11.041 -10.741  1.00  0.00     0.074 A 
ATOM     73  C   UNL     1     -21.319  10.230 -10.352  1.00  0.00     0.031 C 
ATOM     74  C   UNL     1     -20.035  12.198 -11.454  1.00  0.00     0.031 A 
BRANCH  61  75
ATOM     75  C   UNL     1     -14.924  15.599 -11.974  1.00  0.00    -0.014 A 
ATOM     76  C   UNL     1     -14.764  15.535 -13.370  1.00  0.00     0.009 A 
ATOM     77  C   UNL     1     -14.238  16.632 -11.313  1.00  0.00     0.009 A 
ATOM     78  C   UNL     1     -13.893  16.391 -14.054  1.00  0.00     0.001 A 
ATOM     79  C   UNL     1     -13.334  17.466 -11.986  1.00  0.00     0.001 A 
ATOM     80  C   UNL     1     -13.155  17.338 -13.357  1.00  0.00     0.000 A 
ENDBRANCH  61  75
BRANCH  62  81
ATOM     81  C   UNL     1     -18.696   7.868  -7.486  1.00  0.00    -0.014 A 
ATOM     82  C   UNL     1     -18.265   6.559  -7.179  1.00  0.00     0.009 A 
ATOM     83  C   UNL     1     -18.811   8.794  -6.439  1.00  0.00     0.009 A 
ATOM     84  C   UNL     1     -17.824   6.231  -5.893  1.00  0.00     0.001 A 
ATOM     85  C   UNL     1     -18.384   8.453  -5.148  1.00  0.00     0.001 A 
ATOM     86  C   UNL     1     -17.850   7.191  -4.886  1.00  0.00     0.000 A 
ENDBRANCH  62  81
BRANCH  74  87
ATOM     87  C   UNL     1     -21.136  13.140 -11.890  1.00  0.00    -0.014 A 
ATOM     88  C   UNL     1     -22.430  13.159 -11.358  1.00  0.00     0.009 A 
ATOM     89  C   UNL     1     -20.821  14.172 -12.808  1.00  0.00     0.009 A 
ATOM     90  C   UNL     1     -23.365  14.131 -11.745  1.00  0.00     0.001 A 
ATOM     91  C   UNL     1     -21.730  15.173 -13.156  1.00  0.00     0.001 A 
ATOM     92  C   UNL     1     -23.011  15.145 -12.631  1.00  0.00     0.000 A 
ENDBRANCH  74  87
ENDBRANCH  48  49
ENDBRANCH  40  43
ENDBRANCH  38  39
ENDBRANCH  37  38
ENDBRANCH   1  37
TORSDOF 13
