REMARK SMILES COc1ccc2c(c1)c(Cc1nc(-c3ccc(C(=O)NCCCNC(=O)c4ccc(-c5c6nc(c(-c7ccccc7)c7ccc([nH]7)c(-c7ccccc7)c7nc(c(-c8ccccc8)c8ccc5[nH]8)C=C7)C=C6)cc4)cc3)cs1)c(C)n2C(=O)c1ccc(Cl)cc1
REMARK SMILES IDX 18 1 19 2 20 3 17 5 14 6 15 7 76 8 16 9 75 10 13 11 11 12
REMARK SMILES IDX 12 13 78 14 77 15 10 16 9 17 3 18 4 19 8 20 5 21 7 22 6 23
REMARK SMILES IDX 81 24 79 25 80 26 2 27 1 28 82 29 83 30 84 31 85 32 90 33
REMARK SMILES IDX 86 34 89 35 87 36 88 37 21 38 22 39 23 40 24 41 25 42 26 44
REMARK SMILES IDX 27 45 28 46 74 47 29 48 73 49 30 50 31 51 32 52 67 53 33 54
REMARK SMILES IDX 72 55 66 56 68 57 34 58 71 59 65 60 64 61 35 63 57 64 42 65
REMARK SMILES IDX 56 66 43 67 46 68 55 69 69 70 44 71 45 72 54 74 70 75 47 76
REMARK SMILES IDX 36 77 37 78 41 79 38 80 40 81 39 82 58 83 59 84 63 85 60 86
REMARK SMILES IDX 62 87 61 88 48 89 49 90 53 91 50 92 52 93 51 94
REMARK H PARENT 20 4 24 43 68 62 46 73
REMARK Flexibility Score: inf
ROOT
ATOM      1  C   UNL     1      -2.272   4.965  -5.235  1.00  0.00     0.251 C 
ATOM      2  O   UNL     1      -1.504   5.566  -5.989  1.00  0.00    -0.269 OA
ATOM      3  N   UNL     1      -3.251   4.192  -5.810  1.00  0.00    -0.352 N 
ATOM      4  H   UNL     1      -3.239   4.211  -6.794  1.00  0.00     0.163 HD
ENDROOT
BRANCH   1   5
ATOM      5  C   UNL     1      -2.142   5.172  -3.767  1.00  0.00     0.039 A 
ATOM      6  C   UNL     1      -2.041   5.818  -1.018  1.00  0.00     0.001 A 
ATOM      7  C   UNL     1      -1.621   6.744  -1.978  1.00  0.00     0.011 A 
ATOM      8  C   UNL     1      -2.397   4.531  -1.444  1.00  0.00     0.011 A 
ATOM      9  C   UNL     1      -1.679   6.425  -3.339  1.00  0.00     0.014 A 
ATOM     10  C   UNL     1      -2.414   4.200  -2.804  1.00  0.00     0.014 A 
BRANCH   6  11
ATOM     11  C   UNL     1      -2.088   6.147   0.401  1.00  0.00     0.081 A 
ATOM     12  C   UNL     1      -1.981   5.669   2.562  1.00  0.00     0.098 A 
ATOM     13  N   UNL     1      -2.041   5.150   1.354  1.00  0.00    -0.241 NA
ATOM     14  S   UNL     1      -2.167   7.375   2.632  1.00  0.00    -0.126 S 
ATOM     15  C   UNL     1      -2.219   7.422   0.916  1.00  0.00     0.095 A 
BRANCH  12  16
ATOM     16  C   UNL     1      -1.744   4.862   3.805  1.00  0.00     0.105 C 
BRANCH  16  17
ATOM     17  C   UNL     1      -0.300   4.441   3.925  1.00  0.00    -0.012 A 
ATOM     18  C   UNL     1       0.743   1.763   1.400  1.00  0.00     0.119 A 
ATOM     19  C   UNL     1       2.015   1.570   1.909  1.00  0.00     0.048 A 
ATOM     20  C   UNL     1      -0.095   2.695   2.009  1.00  0.00     0.057 A 
ATOM     21  C   UNL     1       2.471   2.315   3.006  1.00  0.00     0.031 A 
ATOM     22  C   UNL     1       0.344   3.472   3.107  1.00  0.00     0.008 A 
ATOM     23  C   UNL     1       1.650   3.314   3.575  1.00  0.00     0.057 A 
ATOM     24  N   UNL     1       1.866   4.265   4.594  1.00  0.00    -0.280 N 
ATOM     25  C   UNL     1       0.639   4.907   4.838  1.00  0.00     0.028 A 
ATOM     26  C   UNL     1       0.384   5.948   5.884  1.00  0.00     0.065 C 
BRANCH  18  27
ATOM     27  O   UNL     1       0.200   1.121   0.322  1.00  0.00    -0.497 OA
ATOM     28  C   UNL     1       0.856  -0.065  -0.108  1.00  0.00     0.278 C 
ENDBRANCH  18  27
BRANCH  24  29
ATOM     29  C   UNL     1       3.105   4.517   5.259  1.00  0.00     0.262 C 
ATOM     30  O   UNL     1       3.129   5.252   6.235  1.00  0.00    -0.268 OA
BRANCH  29  31
ATOM     31  C   UNL     1       4.404   3.926   4.886  1.00  0.00     0.040 A 
ATOM     32  C   UNL     1       5.002   4.210   3.653  1.00  0.00     0.015 A 
ATOM     33  C   UNL     1       5.016   3.056   5.796  1.00  0.00     0.015 A 
ATOM     34  C   UNL     1       6.183   3.551   3.299  1.00  0.00     0.021 A 
ATOM     35  C   UNL     1       6.198   2.406   5.439  1.00  0.00     0.021 A 
ATOM     36  C   UNL     1       6.766   2.643   4.187  1.00  0.00     0.041 A 
ATOM     37  Cl  UNL     1       8.188   1.792   3.725  1.00  0.00    -0.084 Cl
ENDBRANCH  29  31
ENDBRANCH  24  29
ENDBRANCH  16  17
ENDBRANCH  12  16
ENDBRANCH   6  11
ENDBRANCH   1   5
BRANCH   3  38
ATOM     38  C   UNL     1      -4.299   3.353  -5.261  1.00  0.00     0.118 C 
BRANCH  38  39
ATOM     39  C   UNL     1      -5.711   3.753  -5.671  1.00  0.00     0.042 C 
BRANCH  39  40
ATOM     40  C   UNL     1      -6.040   3.666  -7.161  1.00  0.00     0.118 C 
BRANCH  40  41
ATOM     41  N   UNL     1      -5.634   2.445  -7.829  1.00  0.00    -0.352 N 
ATOM     42  C   UNL     1      -6.173   1.202  -8.011  1.00  0.00     0.251 C 
ATOM     43  H   UNL     1      -4.751   2.532  -8.256  1.00  0.00     0.163 HD
ATOM     44  O   UNL     1      -5.587   0.477  -8.820  1.00  0.00    -0.269 OA
BRANCH  42  45
ATOM     45  C   UNL     1      -7.347   0.642  -7.284  1.00  0.00     0.039 A 
ATOM     46  C   UNL     1      -8.123   1.316  -6.344  1.00  0.00     0.014 A 
ATOM     47  C   UNL     1      -7.646  -0.711  -7.540  1.00  0.00     0.014 A 
ATOM     48  C   UNL     1      -9.088   0.636  -5.599  1.00  0.00     0.010 A 
ATOM     49  C   UNL     1      -8.635  -1.387  -6.827  1.00  0.00     0.010 A 
ATOM     50  C   UNL     1      -9.325  -0.726  -5.815  1.00  0.00    -0.014 A 
BRANCH  50  51
ATOM     51  C   UNL     1     -10.345  -1.387  -4.996  1.00  0.00     0.031 A 
ATOM     52  C   UNL     1     -11.743  -0.869  -5.106  1.00  0.00     0.074 A 
ATOM     53  C   UNL     1     -10.128  -2.503  -4.270  1.00  0.00     0.049 A 
ATOM     54  N   UNL     1     -12.532  -0.467  -4.161  1.00  0.00    -0.248 NA
ATOM     55  C   UNL     1     -12.325  -0.775  -6.454  1.00  0.00     0.031 C 
ATOM     56  C   UNL     1      -8.951  -3.374  -4.279  1.00  0.00     0.029 A 
ATOM     57  N   UNL     1     -10.997  -3.161  -3.446  1.00  0.00    -0.354 N 
ATOM     58  C   UNL     1     -13.757  -0.182  -4.767  1.00  0.00     0.074 A 
ATOM     59  C   UNL     1     -13.550  -0.323  -6.188  1.00  0.00     0.031 C 
ATOM     60  C   UNL     1      -9.271  -4.553  -3.700  1.00  0.00     0.029 A 
ATOM     61  C   UNL     1     -10.616  -4.461  -3.156  1.00  0.00     0.049 A 
ATOM     62  H   UNL     1     -11.818  -2.750  -3.091  1.00  0.00     0.167 HD
ATOM     63  C   UNL     1     -14.905   0.027  -4.063  1.00  0.00     0.031 A 
ATOM     64  C   UNL     1     -11.382  -5.419  -2.584  1.00  0.00     0.031 A 
ATOM     65  C   UNL     1     -14.658   0.328  -2.682  1.00  0.00     0.049 A 
ATOM     66  C   UNL     1     -12.505  -4.763  -1.881  1.00  0.00     0.074 A 
ATOM     67  C   UNL     1     -13.995   1.332  -2.006  1.00  0.00     0.029 A 
ATOM     68  N   UNL     1     -14.895  -0.652  -1.750  1.00  0.00    -0.354 N 
ATOM     69  N   UNL     1     -12.377  -4.042  -0.805  1.00  0.00    -0.248 NA
ATOM     70  C   UNL     1     -13.779  -4.636  -2.569  1.00  0.00     0.031 C 
ATOM     71  C   UNL     1     -13.445   0.701  -0.853  1.00  0.00     0.029 A 
ATOM     72  C   UNL     1     -13.827  -0.641  -0.890  1.00  0.00     0.049 A 
ATOM     73  H   UNL     1     -15.678  -1.247  -1.708  1.00  0.00     0.167 HD
ATOM     74  C   UNL     1     -13.362  -3.073  -0.909  1.00  0.00     0.074 A 
ATOM     75  C   UNL     1     -14.273  -3.572  -1.934  1.00  0.00     0.031 C 
ATOM     76  C   UNL     1     -13.196  -1.832  -0.362  1.00  0.00     0.031 A 
BRANCH  63  77
ATOM     77  C   UNL     1     -16.288  -0.292  -4.573  1.00  0.00    -0.014 A 
ATOM     78  C   UNL     1     -16.525  -1.169  -5.648  1.00  0.00     0.009 A 
ATOM     79  C   UNL     1     -17.410   0.089  -3.812  1.00  0.00     0.009 A 
ATOM     80  C   UNL     1     -17.808  -1.635  -5.955  1.00  0.00     0.001 A 
ATOM     81  C   UNL     1     -18.689  -0.412  -4.088  1.00  0.00     0.001 A 
ATOM     82  C   UNL     1     -18.887  -1.274  -5.160  1.00  0.00     0.000 A 
ENDBRANCH  63  77
BRANCH  64  83
ATOM     83  C   UNL     1     -11.387  -6.870  -2.870  1.00  0.00    -0.014 A 
ATOM     84  C   UNL     1     -10.999  -7.345  -4.136  1.00  0.00     0.009 A 
ATOM     85  C   UNL     1     -12.042  -7.763  -2.007  1.00  0.00     0.009 A 
ATOM     86  C   UNL     1     -11.290  -8.650  -4.542  1.00  0.00     0.001 A 
ATOM     87  C   UNL     1     -12.342  -9.068  -2.418  1.00  0.00     0.001 A 
ATOM     88  C   UNL     1     -11.979  -9.506  -3.690  1.00  0.00     0.000 A 
ENDBRANCH  64  83
BRANCH  76  89
ATOM     89  C   UNL     1     -12.053  -1.612   0.602  1.00  0.00    -0.014 A 
ATOM     90  C   UNL     1     -12.314  -0.960   1.818  1.00  0.00     0.009 A 
ATOM     91  C   UNL     1     -10.713  -1.872   0.266  1.00  0.00     0.009 A 
ATOM     92  C   UNL     1     -11.272  -0.580   2.668  1.00  0.00     0.001 A 
ATOM     93  C   UNL     1      -9.672  -1.518   1.130  1.00  0.00     0.001 A 
ATOM     94  C   UNL     1      -9.952  -0.864   2.326  1.00  0.00     0.000 A 
ENDBRANCH  76  89
ENDBRANCH  50  51
ENDBRANCH  42  45
ENDBRANCH  40  41
ENDBRANCH  39  40
ENDBRANCH  38  39
ENDBRANCH   3  38
TORSDOF 16
