REMARK SMILES O=C1C[C@H](C(=O)NCCCNC(=O)c2ccc(-c3c4nc(c(-c5ccccc5)c5ccc([nH]5)c(-c5ccccc5)c5nc(c(-c6ccccc6)c6ccc3[nH]6)C=C5)C=C4)cc2)c2c(nc(Nc3ccc(Oc4ccccc4)cc3)[nH]c2=O)N1
REMARK SMILES IDX 8 1 7 2 5 3 6 4 4 6 1 7 2 8 3 9 83 10 63 11 62 13 64 14
REMARK SMILES IDX 81 15 65 16 80 17 82 18 66 20 67 22 68 23 79 24 69 25 78 26
REMARK SMILES IDX 70 27 71 28 72 29 73 30 77 31 74 32 76 33 75 34 9 35 10 36
REMARK SMILES IDX 11 37 12 38 13 40 14 41 15 42 61 43 16 44 60 45 17 46 18 47
REMARK SMILES IDX 19 48 54 49 20 50 59 51 53 52 55 53 21 54 58 55 52 56 51 57
REMARK SMILES IDX 22 59 44 60 29 61 43 62 30 63 33 64 42 65 56 66 31 67 32 68
REMARK SMILES IDX 41 70 57 71 34 72 23 73 24 74 28 75 25 76 27 77 26 78 45 79
REMARK SMILES IDX 46 80 50 81 47 82 49 83 48 84 35 85 36 86 40 87 37 88 39 89
REMARK SMILES IDX 38 90
REMARK H PARENT 7 5 83 12 80 19 66 21 11 39 55 58 33 69
REMARK Flexibility Score: inf
ROOT
ATOM      1  C   UNL     1       6.321  -1.049   0.626  1.00  0.00     0.117 C 
ENDROOT
BRANCH   1   2
ATOM      2  N   UNL     1       5.980  -2.291  -0.047  1.00  0.00    -0.355 N 
ATOM      3  C   UNL     1       4.921  -2.639  -0.830  1.00  0.00     0.228 C 
ATOM      4  O   UNL     1       4.819  -3.828  -1.143  1.00  0.00    -0.274 OA
ATOM      5  H   UNL     1       6.634  -3.014   0.087  1.00  0.00     0.163 HD
BRANCH   3   6
ATOM      6  C   UNL     1       3.851  -1.633  -1.251  1.00  0.00     0.127 C 
ATOM      7  O   UNL     1       1.575   0.379   0.880  1.00  0.00    -0.275 OA
ATOM      8  C   UNL     1       2.472   0.073   0.097  1.00  0.00     0.226 C 
ATOM      9  C   UNL     1       2.931  -1.357  -0.056  1.00  0.00     0.119 C 
ATOM     10  N   UNL     1       3.139   1.026  -0.607  1.00  0.00    -0.310 N 
ATOM     11  C   UNL     1       4.107   0.819  -1.536  1.00  0.00     0.146 A 
ATOM     12  H   UNL     1       2.896   1.963  -0.424  1.00  0.00     0.171 HD
ATOM     13  C   UNL     1       4.451  -0.421  -1.888  1.00  0.00     0.073 A 
ATOM     14  N   UNL     1       4.659   1.956  -2.021  1.00  0.00    -0.196 NA
ATOM     15  C   UNL     1       5.489  -0.533  -2.929  1.00  0.00     0.258 A 
ATOM     16  C   UNL     1       5.593   1.867  -2.917  1.00  0.00     0.209 A 
ATOM     17  N   UNL     1       6.008   0.648  -3.374  1.00  0.00    -0.292 N 
ATOM     18  O   UNL     1       5.876  -1.608  -3.367  1.00  0.00    -0.269 OA
ATOM     19  H   UNL     1       6.715   0.620  -4.058  1.00  0.00     0.173 HD
BRANCH  16  20
ATOM     20  N   UNL     1       6.197   2.964  -3.475  1.00  0.00    -0.326 N 
ATOM     21  H   UNL     1       6.779   2.832  -4.258  1.00  0.00     0.170 HD
BRANCH  20  22
ATOM     22  C   UNL     1       6.024   4.268  -2.981  1.00  0.00     0.041 A 
ATOM     23  C   UNL     1       5.537   5.276  -3.817  1.00  0.00     0.030 A 
ATOM     24  C   UNL     1       6.195   4.548  -1.619  1.00  0.00     0.030 A 
ATOM     25  C   UNL     1       5.208   6.532  -3.296  1.00  0.00     0.049 A 
ATOM     26  C   UNL     1       5.884   5.804  -1.099  1.00  0.00     0.049 A 
ATOM     27  C   UNL     1       5.382   6.802  -1.936  1.00  0.00     0.127 A 
BRANCH  27  28
ATOM     28  O   UNL     1       4.987   8.057  -1.519  1.00  0.00    -0.457 OA
BRANCH  28  29
ATOM     29  C   UNL     1       5.351   8.438  -0.251  1.00  0.00     0.127 A 
ATOM     30  C   UNL     1       4.388   8.436   0.758  1.00  0.00     0.047 A 
ATOM     31  C   UNL     1       6.663   8.835   0.012  1.00  0.00     0.047 A 
ATOM     32  C   UNL     1       4.757   8.782   2.057  1.00  0.00     0.004 A 
ATOM     33  C   UNL     1       7.028   9.177   1.313  1.00  0.00     0.004 A 
ATOM     34  C   UNL     1       6.077   9.143   2.335  1.00  0.00     0.000 A 
ENDBRANCH  28  29
ENDBRANCH  27  28
ENDBRANCH  20  22
ENDBRANCH  16  20
ENDBRANCH   3   6
ENDBRANCH   1   2
BRANCH   1  35
ATOM     35  C   UNL     1       6.314  -1.208   2.140  1.00  0.00     0.042 C 
BRANCH  35  36
ATOM     36  C   UNL     1       7.358  -2.192   2.649  1.00  0.00     0.118 C 
BRANCH  36  37
ATOM     37  N   UNL     1       8.715  -1.686   2.493  1.00  0.00    -0.352 N 
ATOM     38  C   UNL     1       9.597  -1.268   3.458  1.00  0.00     0.251 C 
ATOM     39  H   UNL     1       9.045  -1.637   1.566  1.00  0.00     0.163 HD
ATOM     40  O   UNL     1      10.627  -0.676   3.148  1.00  0.00    -0.269 OA
BRANCH  38  41
ATOM     41  C   UNL     1       9.287  -1.519   4.878  1.00  0.00     0.039 A 
ATOM     42  C   UNL     1       9.376  -0.466   5.790  1.00  0.00     0.014 A 
ATOM     43  C   UNL     1       8.900  -2.795   5.300  1.00  0.00     0.014 A 
ATOM     44  C   UNL     1       9.015  -0.679   7.121  1.00  0.00     0.010 A 
ATOM     45  C   UNL     1       8.475  -2.988   6.610  1.00  0.00     0.010 A 
ATOM     46  C   UNL     1       8.538  -1.935   7.532  1.00  0.00    -0.014 A 
BRANCH  46  47
ATOM     47  C   UNL     1       8.138  -2.174   8.937  1.00  0.00     0.031 A 
ATOM     48  C   UNL     1       8.967  -3.078   9.803  1.00  0.00     0.074 A 
ATOM     49  C   UNL     1       7.019  -1.605   9.423  1.00  0.00     0.049 A 
ATOM     50  N   UNL     1       8.776  -3.422  11.050  1.00  0.00    -0.248 NA
ATOM     51  C   UNL     1      10.156  -3.688   9.185  1.00  0.00     0.031 C 
ATOM     52  C   UNL     1       6.118  -0.729   8.672  1.00  0.00     0.029 A 
ATOM     53  N   UNL     1       6.452  -1.677  10.671  1.00  0.00    -0.354 N 
ATOM     54  C   UNL     1       9.817  -4.285  11.363  1.00  0.00     0.074 A 
ATOM     55  C   UNL     1      10.608  -4.456  10.166  1.00  0.00     0.031 C 
ATOM     56  C   UNL     1       5.130  -0.317   9.484  1.00  0.00     0.029 A 
ATOM     57  C   UNL     1       5.313  -0.921  10.802  1.00  0.00     0.049 A 
ATOM     58  H   UNL     1       6.825  -2.220  11.402  1.00  0.00     0.167 HD
ATOM     59  C   UNL     1      10.104  -4.862  12.551  1.00  0.00     0.031 A 
ATOM     60  C   UNL     1       4.510  -0.729  11.865  1.00  0.00     0.031 A 
ATOM     61  C   UNL     1       9.332  -4.679  13.747  1.00  0.00     0.049 A 
ATOM     62  C   UNL     1       4.833  -1.405  13.167  1.00  0.00     0.074 A 
ATOM     63  C   UNL     1       9.575  -5.187  15.010  1.00  0.00     0.029 A 
ATOM     64  N   UNL     1       8.172  -3.926  13.828  1.00  0.00    -0.354 N 
ATOM     65  N   UNL     1       5.846  -2.183  13.459  1.00  0.00    -0.248 NA
ATOM     66  C   UNL     1       3.908  -1.175  14.287  1.00  0.00     0.031 C 
ATOM     67  C   UNL     1       8.539  -4.771  15.850  1.00  0.00     0.029 A 
ATOM     68  C   UNL     1       7.676  -3.972  15.117  1.00  0.00     0.049 A 
ATOM     69  H   UNL     1       7.763  -3.434  13.080  1.00  0.00     0.167 HD
ATOM     70  C   UNL     1       5.692  -2.522  14.796  1.00  0.00     0.074 A 
ATOM     71  C   UNL     1       4.491  -1.861  15.263  1.00  0.00     0.031 C 
ATOM     72  C   UNL     1       6.481  -3.308  15.566  1.00  0.00     0.031 A 
BRANCH  59  73
ATOM     73  C   UNL     1      11.322  -5.733  12.626  1.00  0.00    -0.014 A 
ATOM     74  C   UNL     1      12.605  -5.166  12.660  1.00  0.00     0.009 A 
ATOM     75  C   UNL     1      11.184  -7.125  12.739  1.00  0.00     0.009 A 
ATOM     76  C   UNL     1      13.731  -5.979  12.793  1.00  0.00     0.001 A 
ATOM     77  C   UNL     1      12.311  -7.933  12.892  1.00  0.00     0.001 A 
ATOM     78  C   UNL     1      13.583  -7.360  12.916  1.00  0.00     0.000 A 
ENDBRANCH  59  73
BRANCH  60  79
ATOM     79  C   UNL     1       3.342   0.179  11.744  1.00  0.00    -0.014 A 
ATOM     80  C   UNL     1       3.395   1.470  12.290  1.00  0.00     0.009 A 
ATOM     81  C   UNL     1       2.193  -0.219  11.043  1.00  0.00     0.009 A 
ATOM     82  C   UNL     1       2.316   2.345  12.141  1.00  0.00     0.001 A 
ATOM     83  C   UNL     1       1.124   0.664  10.881  1.00  0.00     0.001 A 
ATOM     84  C   UNL     1       1.185   1.944  11.431  1.00  0.00     0.000 A 
ENDBRANCH  60  79
BRANCH  72  85
ATOM     85  C   UNL     1       6.096  -3.506  17.001  1.00  0.00    -0.014 A 
ATOM     86  C   UNL     1       5.099  -4.426  17.354  1.00  0.00     0.009 A 
ATOM     87  C   UNL     1       6.835  -2.871  18.012  1.00  0.00     0.009 A 
ATOM     88  C   UNL     1       4.851  -4.711  18.697  1.00  0.00     0.001 A 
ATOM     89  C   UNL     1       6.596  -3.172  19.354  1.00  0.00     0.001 A 
ATOM     90  C   UNL     1       5.606  -4.093  19.695  1.00  0.00     0.000 A 
ENDBRANCH  72  85
ENDBRANCH  46  47
ENDBRANCH  38  41
ENDBRANCH  36  37
ENDBRANCH  35  36
ENDBRANCH   1  35
TORSDOF 14
