REMARK SMILES CN1C(=O)C[C@@H](C(=O)NCCCNC(=O)c2ccc(-c3c4nc(c(-c5ccccc5)c5ccc([nH]5)c(-c5ccccc5)c5nc(c(-c6ccccc6)c6ccc3[nH]6)C=C5)C=C4)cc2)C12CCN(c1ccc(Cl)cn1)CC2
REMARK SMILES IDX 11 1 10 2 9 3 7 4 8 5 6 7 1 8 2 9 3 10 64 11 4 12 5 13 65 14
REMARK SMILES IDX 76 15 66 16 75 17 67 18 68 19 69 20 74 21 70 22 73 23 71 24
REMARK SMILES IDX 72 25 12 26 13 27 14 28 15 30 16 31 17 32 63 33 18 34 62 35
REMARK SMILES IDX 19 36 20 37 21 38 56 39 22 40 61 41 55 42 57 43 23 44 60 45
REMARK SMILES IDX 54 46 53 47 24 49 46 50 31 51 45 52 32 53 35 54 44 55 58 56
REMARK SMILES IDX 33 57 34 58 43 60 59 61 36 62 25 63 26 64 30 65 27 66 29 67
REMARK SMILES IDX 28 68 47 69 48 70 52 71 49 72 51 73 50 74 37 75 38 76 42 77
REMARK SMILES IDX 39 78 41 79 40 80
REMARK H PARENT 9 6 13 29 57 48 35 59
REMARK Flexibility Score: inf
ROOT
ATOM      1  C   UNL     1      -1.924   1.856   1.598  1.00  0.00     0.042 C 
ENDROOT
BRANCH   1   2
ATOM      2  C   UNL     1      -1.335   1.333   2.905  1.00  0.00     0.117 C 
BRANCH   2   3
ATOM      3  N   UNL     1      -2.027   0.164   3.425  1.00  0.00    -0.356 N 
ATOM      4  C   UNL     1      -1.703  -1.144   3.553  1.00  0.00     0.226 C 
ATOM      5  O   UNL     1      -2.565  -1.858   4.080  1.00  0.00    -0.275 OA
ATOM      6  H   UNL     1      -2.930   0.369   3.757  1.00  0.00     0.163 HD
BRANCH   4   7
ATOM      7  C   UNL     1      -0.412  -1.795   3.065  1.00  0.00     0.113 C 
ATOM      8  C   UNL     1       1.090  -0.242   0.013  1.00  0.00     0.147 C 
ATOM      9  N   UNL     1       0.776  -0.805   1.312  1.00  0.00    -0.339 N 
ATOM     10  C   UNL     1       1.458  -0.432   2.460  1.00  0.00     0.223 C 
ATOM     11  C   UNL     1      -0.187  -1.894   1.537  1.00  0.00     0.058 C 
ATOM     12  O   UNL     1       2.370   0.378   2.534  1.00  0.00    -0.275 OA
ATOM     13  C   UNL     1       0.853  -1.152   3.634  1.00  0.00     0.116 C 
ATOM     14  C   UNL     1      -1.474  -1.764   0.689  1.00  0.00     0.051 C 
ATOM     15  C   UNL     1       0.535  -3.238   1.190  1.00  0.00     0.051 C 
ATOM     16  C   UNL     1      -2.345  -3.012   0.747  1.00  0.00     0.120 C 
ATOM     17  C   UNL     1      -0.397  -4.456   1.174  1.00  0.00     0.120 C 
ATOM     18  N   UNL     1      -1.522  -4.125   0.321  1.00  0.00    -0.356 N 
BRANCH  18  19
ATOM     19  C   UNL     1      -2.020  -5.053  -0.564  1.00  0.00     0.128 A 
ATOM     20  C   UNL     1      -2.549  -4.628  -1.786  1.00  0.00     0.048 A 
ATOM     21  N   UNL     1      -1.941  -6.364  -0.260  1.00  0.00    -0.238 NA
ATOM     22  C   UNL     1      -3.013  -5.559  -2.714  1.00  0.00     0.026 A 
ATOM     23  C   UNL     1      -2.425  -7.255  -1.163  1.00  0.00     0.134 A 
ATOM     24  C   UNL     1      -2.958  -6.903  -2.391  1.00  0.00     0.059 A 
ATOM     25  Cl  UNL     1      -3.522  -8.090  -3.492  1.00  0.00    -0.083 Cl
ENDBRANCH  18  19
ENDBRANCH   4   7
ENDBRANCH   2   3
ENDBRANCH   1   2
BRANCH   1  26
ATOM     26  C   UNL     1      -3.363   2.334   1.731  1.00  0.00     0.118 C 
BRANCH  26  27
ATOM     27  N   UNL     1      -3.442   3.573   2.489  1.00  0.00    -0.352 N 
ATOM     28  C   UNL     1      -3.688   4.850   2.049  1.00  0.00     0.251 C 
ATOM     29  H   UNL     1      -3.297   3.483   3.459  1.00  0.00     0.163 HD
ATOM     30  O   UNL     1      -3.410   5.808   2.763  1.00  0.00    -0.269 OA
BRANCH  28  31
ATOM     31  C   UNL     1      -4.285   5.073   0.714  1.00  0.00     0.039 A 
ATOM     32  C   UNL     1      -3.826   6.136  -0.069  1.00  0.00     0.014 A 
ATOM     33  C   UNL     1      -5.322   4.260   0.252  1.00  0.00     0.014 A 
ATOM     34  C   UNL     1      -4.373   6.347  -1.337  1.00  0.00     0.010 A 
ATOM     35  C   UNL     1      -5.800   4.414  -1.045  1.00  0.00     0.010 A 
ATOM     36  C   UNL     1      -5.342   5.469  -1.848  1.00  0.00    -0.014 A 
BRANCH  36  37
ATOM     37  C   UNL     1      -5.904   5.643  -3.212  1.00  0.00     0.031 A 
ATOM     38  C   UNL     1      -7.375   5.907  -3.394  1.00  0.00     0.074 A 
ATOM     39  C   UNL     1      -5.106   5.498  -4.287  1.00  0.00     0.049 A 
ATOM     40  N   UNL     1      -8.064   6.016  -4.502  1.00  0.00    -0.248 NA
ATOM     41  C   UNL     1      -8.185   6.036  -2.171  1.00  0.00     0.031 C 
ATOM     42  C   UNL     1      -3.672   5.205  -4.247  1.00  0.00     0.029 A 
ATOM     43  N   UNL     1      -5.391   5.572  -5.627  1.00  0.00    -0.354 N 
ATOM     44  C   UNL     1      -9.383   6.207  -4.109  1.00  0.00     0.074 A 
ATOM     45  C   UNL     1      -9.409   6.140  -2.666  1.00  0.00     0.031 C 
ATOM     46  C   UNL     1      -3.197   5.158  -5.502  1.00  0.00     0.029 A 
ATOM     47  C   UNL     1      -4.299   5.367  -6.435  1.00  0.00     0.049 A 
ATOM     48  H   UNL     1      -6.293   5.756  -5.977  1.00  0.00     0.167 HD
ATOM     49  C   UNL     1     -10.473   6.438  -4.879  1.00  0.00     0.031 A 
ATOM     50  C   UNL     1      -4.196   5.342  -7.777  1.00  0.00     0.031 A 
ATOM     51  C   UNL     1     -10.444   6.515  -6.315  1.00  0.00     0.049 A 
ATOM     52  C   UNL     1      -5.426   5.578  -8.610  1.00  0.00     0.074 A 
ATOM     53  C   UNL     1     -11.483   6.800  -7.184  1.00  0.00     0.029 A 
ATOM     54  N   UNL     1      -9.318   6.301  -7.094  1.00  0.00    -0.354 N 
ATOM     55  N   UNL     1      -6.653   5.823  -8.221  1.00  0.00    -0.248 NA
ATOM     56  C   UNL     1      -5.251   5.543 -10.069  1.00  0.00     0.031 C 
ATOM     57  C   UNL     1     -10.998   6.700  -8.491  1.00  0.00     0.029 A 
ATOM     58  C   UNL     1      -9.642   6.419  -8.434  1.00  0.00     0.049 A 
ATOM     59  H   UNL     1      -8.420   6.097  -6.745  1.00  0.00     0.167 HD
ATOM     60  C   UNL     1      -7.391   6.001  -9.385  1.00  0.00     0.074 A 
ATOM     61  C   UNL     1      -6.469   5.853 -10.492  1.00  0.00     0.031 C 
ATOM     62  C   UNL     1      -8.713   6.266  -9.524  1.00  0.00     0.031 A 
BRANCH  49  63
ATOM     63  C   UNL     1     -11.793   6.616  -4.178  1.00  0.00    -0.014 A 
ATOM     64  C   UNL     1     -12.052   7.744  -3.382  1.00  0.00     0.009 A 
ATOM     65  C   UNL     1     -12.805   5.657  -4.341  1.00  0.00     0.009 A 
ATOM     66  C   UNL     1     -13.279   7.886  -2.731  1.00  0.00     0.001 A 
ATOM     67  C   UNL     1     -14.043   5.818  -3.716  1.00  0.00     0.001 A 
ATOM     68  C   UNL     1     -14.275   6.926  -2.903  1.00  0.00     0.000 A 
ENDBRANCH  49  63
BRANCH  50  69
ATOM     69  C   UNL     1      -2.878   5.095  -8.420  1.00  0.00    -0.014 A 
ATOM     70  C   UNL     1      -2.225   6.119  -9.123  1.00  0.00     0.009 A 
ATOM     71  C   UNL     1      -2.269   3.833  -8.341  1.00  0.00     0.009 A 
ATOM     72  C   UNL     1      -1.005   5.876  -9.758  1.00  0.00     0.001 A 
ATOM     73  C   UNL     1      -1.033   3.602  -8.949  1.00  0.00     0.001 A 
ATOM     74  C   UNL     1      -0.407   4.620  -9.666  1.00  0.00     0.000 A 
ENDBRANCH  50  69
BRANCH  62  75
ATOM     75  C   UNL     1      -9.235   6.450 -10.922  1.00  0.00    -0.014 A 
ATOM     76  C   UNL     1      -9.357   5.367 -11.806  1.00  0.00     0.009 A 
ATOM     77  C   UNL     1      -9.654   7.722 -11.343  1.00  0.00     0.009 A 
ATOM     78  C   UNL     1      -9.855   5.562 -13.096  1.00  0.00     0.001 A 
ATOM     79  C   UNL     1     -10.183   7.908 -12.620  1.00  0.00     0.001 A 
ATOM     80  C   UNL     1     -10.274   6.830 -13.499  1.00  0.00     0.000 A 
ENDBRANCH  62  75
ENDBRANCH  36  37
ENDBRANCH  28  31
ENDBRANCH  26  27
ENDBRANCH   1  26
TORSDOF 11
