REMARK SMILES Cc1noc(C)c1CNc1cnc(C(=O)NCCCNC(=O)c2ccc(-c3c4nc(c(-c5ccccc5)c5ccc([nH]5)c(-c5ccccc5)c5nc(c(-c6ccccc6)c6ccc3[nH]6)C=C5)C=C4)cc2)cn1
REMARK SMILES IDX 17 1 16 2 14 3 15 4 13 6 10 7 11 8 72 9 12 10 71 11 9 12
REMARK SMILES IDX 8 14 7 15 1 16 2 17 3 18 4 19 5 20 6 21 18 22 19 23 20 24
REMARK SMILES IDX 21 25 22 27 23 28 24 29 70 30 25 31 69 32 26 33 27 34 28 35
REMARK SMILES IDX 63 36 29 37 68 38 62 39 64 40 30 41 67 42 61 43 60 44 31 46
REMARK SMILES IDX 53 47 38 48 52 49 39 50 42 51 51 52 65 53 40 54 41 55 50 57
REMARK SMILES IDX 66 58 43 59 32 60 33 61 37 62 34 63 36 64 35 65 54 66 55 67
REMARK SMILES IDX 59 68 56 69 58 70 57 71 44 72 45 73 49 74 46 75 48 76 47 77
REMARK H PARENT 16 5 9 13 20 26 64 45 42 56
REMARK Flexibility Score: inf
ROOT
ATOM      1  C   UNL     1      -4.342   7.570   1.504  1.00  0.00     0.118 C 
ENDROOT
BRANCH   1   2
ATOM      2  N   UNL     1      -5.274   7.160   0.467  1.00  0.00    -0.351 N 
ATOM      3  C   UNL     1      -5.122   6.281  -0.582  1.00  0.00     0.271 C 
ATOM      4  O   UNL     1      -6.088   6.108  -1.329  1.00  0.00    -0.267 OA
ATOM      5  H   UNL     1      -6.161   7.582   0.523  1.00  0.00     0.163 HD
BRANCH   3   6
ATOM      6  C   UNL     1      -3.866   5.517  -0.822  1.00  0.00     0.146 A 
ATOM      7  C   UNL     1      -1.721   3.896  -1.198  1.00  0.00     0.144 A 
ATOM      8  C   UNL     1      -1.703   4.970  -0.309  1.00  0.00     0.158 A 
ATOM      9  N   UNL     1      -2.808   3.669  -1.960  1.00  0.00    -0.235 NA
ATOM     10  N   UNL     1      -2.754   5.799  -0.104  1.00  0.00    -0.246 NA
ATOM     11  C   UNL     1      -3.877   4.486  -1.751  1.00  0.00     0.147 A 
BRANCH   7  12
ATOM     12  N   UNL     1      -0.695   2.992  -1.337  1.00  0.00    -0.365 N 
ATOM     13  H   UNL     1      -0.429   2.691  -2.236  1.00  0.00     0.162 HD
BRANCH  12  14
ATOM     14  C   UNL     1       0.000   2.478  -0.172  1.00  0.00     0.156 C 
BRANCH  14  15
ATOM     15  C   UNL     1       0.038   0.995  -0.072  1.00  0.00     0.037 A 
ATOM     16  C   UNL     1      -2.511   0.405  -0.005  1.00  0.00     0.071 C 
ATOM     17  C   UNL     1      -1.061   0.094   0.005  1.00  0.00     0.086 A 
ATOM     18  N   UNL     1      -0.646  -1.175   0.096  1.00  0.00    -0.085 NA
ATOM     19  O   UNL     1       0.734  -1.123   0.082  1.00  0.00    -0.361 OA
ATOM     20  C   UNL     1       1.140   0.169  -0.015  1.00  0.00     0.138 A 
ATOM     21  C   UNL     1       2.596   0.400  -0.029  1.00  0.00     0.091 C 
ENDBRANCH  14  15
ENDBRANCH  12  14
ENDBRANCH   7  12
ENDBRANCH   3   6
ENDBRANCH   1   2
BRANCH   1  22
ATOM     22  C   UNL     1      -3.683   8.903   1.168  1.00  0.00     0.042 C 
BRANCH  22  23
ATOM     23  C   UNL     1      -4.640  10.082   1.317  1.00  0.00     0.118 C 
BRANCH  23  24
ATOM     24  N   UNL     1      -5.066  10.276   2.701  1.00  0.00    -0.352 N 
ATOM     25  C   UNL     1      -4.907  11.356   3.529  1.00  0.00     0.251 C 
ATOM     26  H   UNL     1      -5.541   9.512   3.101  1.00  0.00     0.163 HD
ATOM     27  O   UNL     1      -5.136  11.249   4.733  1.00  0.00    -0.269 OA
BRANCH  25  28
ATOM     28  C   UNL     1      -4.454  12.646   2.978  1.00  0.00     0.039 A 
ATOM     29  C   UNL     1      -3.502  13.395   3.675  1.00  0.00     0.014 A 
ATOM     30  C   UNL     1      -4.987  13.123   1.778  1.00  0.00     0.014 A 
ATOM     31  C   UNL     1      -3.034  14.594   3.134  1.00  0.00     0.010 A 
ATOM     32  C   UNL     1      -4.461  14.271   1.202  1.00  0.00     0.010 A 
ATOM     33  C   UNL     1      -3.487  15.023   1.877  1.00  0.00    -0.014 A 
BRANCH  33  34
ATOM     34  C   UNL     1      -2.994  16.269   1.242  1.00  0.00     0.031 A 
ATOM     35  C   UNL     1      -3.964  17.380   0.951  1.00  0.00     0.074 A 
ATOM     36  C   UNL     1      -1.714  16.358   0.833  1.00  0.00     0.049 A 
ATOM     37  N   UNL     1      -3.788  18.469   0.248  1.00  0.00    -0.248 NA
ATOM     38  C   UNL     1      -5.323  17.228   1.497  1.00  0.00     0.031 C 
ATOM     39  C   UNL     1      -0.680  15.343   1.042  1.00  0.00     0.029 A 
ATOM     40  N   UNL     1      -1.072  17.347   0.130  1.00  0.00    -0.354 N 
ATOM     41  C   UNL     1      -5.020  19.111   0.239  1.00  0.00     0.074 A 
ATOM     42  C   UNL     1      -5.944  18.270   0.967  1.00  0.00     0.031 C 
ATOM     43  C   UNL     1       0.468  15.767   0.490  1.00  0.00     0.029 A 
ATOM     44  C   UNL     1       0.239  17.054  -0.158  1.00  0.00     0.049 A 
ATOM     45  H   UNL     1      -1.509  18.187  -0.141  1.00  0.00     0.167 HD
ATOM     46  C   UNL     1      -5.349  20.302  -0.314  1.00  0.00     0.031 A 
ATOM     47  C   UNL     1       1.146  17.735  -0.884  1.00  0.00     0.031 A 
ATOM     48  C   UNL     1      -4.422  21.140  -1.025  1.00  0.00     0.049 A 
ATOM     49  C   UNL     1       0.749  19.041  -1.517  1.00  0.00     0.074 A 
ATOM     50  C   UNL     1      -4.642  22.387  -1.581  1.00  0.00     0.029 A 
ATOM     51  N   UNL     1      -3.099  20.814  -1.276  1.00  0.00    -0.354 N 
ATOM     52  N   UNL     1      -0.406  19.660  -1.479  1.00  0.00    -0.248 NA
ATOM     53  C   UNL     1       1.783  19.747  -2.287  1.00  0.00     0.031 C 
ATOM     54  C   UNL     1      -3.466  22.792  -2.218  1.00  0.00     0.029 A 
ATOM     55  C   UNL     1      -2.494  21.828  -1.997  1.00  0.00     0.049 A 
ATOM     56  H   UNL     1      -2.655  19.985  -0.984  1.00  0.00     0.167 HD
ATOM     57  C   UNL     1      -0.225  20.846  -2.179  1.00  0.00     0.074 A 
ATOM     58  C   UNL     1       1.150  20.860  -2.631  1.00  0.00     0.031 C 
ATOM     59  C   UNL     1      -1.117  21.837  -2.418  1.00  0.00     0.031 A 
BRANCH  46  60
ATOM     60  C   UNL     1      -6.776  20.759  -0.184  1.00  0.00    -0.014 A 
ATOM     61  C   UNL     1      -7.313  21.132   1.059  1.00  0.00     0.009 A 
ATOM     62  C   UNL     1      -7.585  20.849  -1.327  1.00  0.00     0.009 A 
ATOM     63  C   UNL     1      -8.644  21.544   1.159  1.00  0.00     0.001 A 
ATOM     64  C   UNL     1      -8.904  21.294  -1.229  1.00  0.00     0.001 A 
ATOM     65  C   UNL     1      -9.436  21.631   0.015  1.00  0.00     0.000 A 
ENDBRANCH  46  60
BRANCH  47  66
ATOM     66  C   UNL     1       2.523  17.198  -1.052  1.00  0.00    -0.014 A 
ATOM     67  C   UNL     1       3.614  17.838  -0.442  1.00  0.00     0.009 A 
ATOM     68  C   UNL     1       2.758  16.052  -1.827  1.00  0.00     0.009 A 
ATOM     69  C   UNL     1       4.913  17.359  -0.631  1.00  0.00     0.001 A 
ATOM     70  C   UNL     1       4.054  15.556  -1.987  1.00  0.00     0.001 A 
ATOM     71  C   UNL     1       5.131  16.216  -1.399  1.00  0.00     0.000 A 
ENDBRANCH  47  66
BRANCH  59  72
ATOM     72  C   UNL     1      -0.627  23.060  -3.140  1.00  0.00    -0.014 A 
ATOM     73  C   UNL     1      -0.357  23.046  -4.516  1.00  0.00     0.009 A 
ATOM     74  C   UNL     1      -0.522  24.272  -2.437  1.00  0.00     0.009 A 
ATOM     75  C   UNL     1       0.027  24.219  -5.169  1.00  0.00     0.001 A 
ATOM     76  C   UNL     1      -0.168  25.448  -3.098  1.00  0.00     0.001 A 
ATOM     77  C   UNL     1       0.112  25.419  -4.463  1.00  0.00     0.000 A 
ENDBRANCH  59  72
ENDBRANCH  33  34
ENDBRANCH  25  28
ENDBRANCH  23  24
ENDBRANCH  22  23
ENDBRANCH   1  22
TORSDOF 13
