REMARK SMILES Nc1cc(C(=O)NCCCNC(=O)c2ccc(-c3c4nc(c(-c5ccccc5)c5ccc([nH]5)c(-c5ccccc5)c5nc(c(-c6ccccc6)c6ccc3[nH]6)C=C5)C=C4)cc2)ccc1N1CC2(CCOCC2)C1
REMARK SMILES IDX 9 1 8 2 7 3 5 4 6 5 4 7 2 8 3 9 64 10 63 11 62 12 1 13 65 16
REMARK SMILES IDX 66 17 73 18 67 19 68 20 72 21 69 22 71 23 70 24 10 25 11 26
REMARK SMILES IDX 12 27 13 29 14 30 15 31 61 32 16 33 60 34 17 35 18 36 19 37
REMARK SMILES IDX 54 38 20 39 59 40 53 41 55 42 21 43 58 44 52 45 51 46 22 48
REMARK SMILES IDX 44 49 29 50 43 51 30 52 33 53 42 54 56 55 31 56 32 57 41 59
REMARK SMILES IDX 57 60 34 61 23 62 24 63 28 64 25 65 27 66 26 67 45 68 46 69
REMARK SMILES IDX 50 70 47 71 49 72 48 73 35 74 36 75 40 76 37 77 39 78 38 79
REMARK H PARENT 7 6 1 14 1 15 11 28 55 47 33 58
REMARK Flexibility Score: inf
ROOT
ATOM      1  C   UNL     1      -5.063  -1.111  -0.616  1.00  0.00     0.042 C 
ENDROOT
BRANCH   1   2
ATOM      2  C   UNL     1      -4.205  -1.493   0.589  1.00  0.00     0.118 C 
BRANCH   2   3
ATOM      3  N   UNL     1      -3.178  -2.441   0.207  1.00  0.00    -0.352 N 
ATOM      4  C   UNL     1      -1.869  -2.308  -0.167  1.00  0.00     0.251 C 
ATOM      5  O   UNL     1      -1.278  -3.350  -0.460  1.00  0.00    -0.269 OA
ATOM      6  H   UNL     1      -3.487  -3.375   0.219  1.00  0.00     0.163 HD
BRANCH   4   7
ATOM      7  C   UNL     1      -1.118  -1.018  -0.195  1.00  0.00     0.041 A 
ATOM      8  C   UNL     1       1.111  -0.003  -0.130  1.00  0.00     0.056 A 
ATOM      9  C   UNL     1       0.280  -1.128  -0.133  1.00  0.00     0.041 A 
ATOM     10  C   UNL     1       0.533   1.284  -0.128  1.00  0.00     0.060 A 
ATOM     11  C   UNL     1      -0.858   1.398  -0.209  1.00  0.00     0.029 A 
ATOM     12  C   UNL     1      -1.674   0.259  -0.282  1.00  0.00     0.016 A 
BRANCH   8  13
ATOM     13  N   UNL     1       2.480  -0.190   0.057  1.00  0.00    -0.397 N 
ATOM     14  H   UNL     1       2.858  -1.099   0.051  1.00  0.00     0.156 HD
ATOM     15  H   UNL     1       3.068   0.587   0.196  1.00  0.00     0.156 HD
ENDBRANCH   8  13
BRANCH  10  16
ATOM     16  N   UNL     1       1.337   2.425  -0.012  1.00  0.00    -0.369 N 
ATOM     17  C   UNL     1       2.307   2.987  -0.890  1.00  0.00     0.125 C 
ATOM     18  C   UNL     1       1.236   3.589   0.803  1.00  0.00     0.125 C 
ATOM     19  C   UNL     1       2.655   3.947   0.281  1.00  0.00     0.010 C 
ATOM     20  C   UNL     1       2.895   5.410  -0.079  1.00  0.00     0.039 C 
ATOM     21  C   UNL     1       3.792   3.440   1.188  1.00  0.00     0.039 C 
ATOM     22  C   UNL     1       4.279   5.540  -0.707  1.00  0.00     0.161 C 
ATOM     23  C   UNL     1       5.122   3.670   0.482  1.00  0.00     0.161 C 
ATOM     24  O   UNL     1       5.287   5.058   0.187  1.00  0.00    -0.381 OA
ENDBRANCH  10  16
ENDBRANCH   4   7
ENDBRANCH   2   3
ENDBRANCH   1   2
BRANCH   1  25
ATOM     25  C   UNL     1      -5.999  -2.233  -1.066  1.00  0.00     0.118 C 
BRANCH  25  26
ATOM     26  N   UNL     1      -7.060  -2.473  -0.097  1.00  0.00    -0.352 N 
ATOM     27  C   UNL     1      -8.421  -2.385  -0.236  1.00  0.00     0.251 C 
ATOM     28  H   UNL     1      -6.751  -2.741   0.798  1.00  0.00     0.163 HD
ATOM     29  O   UNL     1      -9.133  -2.388   0.764  1.00  0.00    -0.269 OA
BRANCH  27  30
ATOM     30  C   UNL     1      -9.042  -2.284  -1.575  1.00  0.00     0.039 A 
ATOM     31  C   UNL     1     -10.139  -1.434  -1.744  1.00  0.00     0.014 A 
ATOM     32  C   UNL     1      -8.595  -3.068  -2.642  1.00  0.00     0.014 A 
ATOM     33  C   UNL     1     -10.759  -1.336  -2.991  1.00  0.00     0.010 A 
ATOM     34  C   UNL     1      -9.174  -2.924  -3.901  1.00  0.00     0.010 A 
ATOM     35  C   UNL     1     -10.266  -2.062  -4.086  1.00  0.00    -0.014 A 
BRANCH  35  36
ATOM     36  C   UNL     1     -10.882  -1.940  -5.430  1.00  0.00     0.031 A 
ATOM     37  C   UNL     1     -11.574  -3.118  -6.058  1.00  0.00     0.074 A 
ATOM     38  C   UNL     1     -10.766  -0.784  -6.112  1.00  0.00     0.049 A 
ATOM     39  N   UNL     1     -12.108  -3.224  -7.249  1.00  0.00    -0.248 NA
ATOM     40  C   UNL     1     -11.658  -4.345  -5.250  1.00  0.00     0.031 C 
ATOM     41  C   UNL     1     -10.093   0.423  -5.626  1.00  0.00     0.029 A 
ATOM     42  N   UNL     1     -11.205  -0.438  -7.365  1.00  0.00    -0.354 N 
ATOM     43  C   UNL     1     -12.571  -4.530  -7.340  1.00  0.00     0.074 A 
ATOM     44  C   UNL     1     -12.219  -5.191  -6.102  1.00  0.00     0.031 C 
ATOM     45  C   UNL     1     -10.185   1.383  -6.560  1.00  0.00     0.029 A 
ATOM     46  C   UNL     1     -10.885   0.849  -7.723  1.00  0.00     0.049 A 
ATOM     47  H   UNL     1     -11.701  -1.054  -7.951  1.00  0.00     0.167 HD
ATOM     48  C   UNL     1     -13.241  -5.124  -8.357  1.00  0.00     0.031 A 
ATOM     49  C   UNL     1     -11.123   1.521  -8.865  1.00  0.00     0.031 A 
ATOM     50  C   UNL     1     -13.603  -4.464  -9.583  1.00  0.00     0.049 A 
ATOM     51  C   UNL     1     -11.859   0.837  -9.982  1.00  0.00     0.074 A 
ATOM     52  C   UNL     1     -14.326  -4.965 -10.651  1.00  0.00     0.029 A 
ATOM     53  N   UNL     1     -13.266  -3.158  -9.903  1.00  0.00    -0.354 N 
ATOM     54  N   UNL     1     -12.337  -0.382 -10.031  1.00  0.00    -0.248 NA
ATOM     55  C   UNL     1     -12.097   1.628 -11.197  1.00  0.00     0.031 C 
ATOM     56  C   UNL     1     -14.392  -3.974 -11.637  1.00  0.00     0.029 A 
ATOM     57  C   UNL     1     -13.751  -2.841 -11.161  1.00  0.00     0.049 A 
ATOM     58  H   UNL     1     -12.758  -2.547  -9.323  1.00  0.00     0.167 HD
ATOM     59  C   UNL     1     -12.954  -0.497 -11.269  1.00  0.00     0.074 A 
ATOM     60  C   UNL     1     -12.802   0.781 -11.934  1.00  0.00     0.031 C 
ATOM     61  C   UNL     1     -13.591  -1.565 -11.807  1.00  0.00     0.031 A 
BRANCH  48  62
ATOM     62  C   UNL     1     -13.621  -6.568  -8.184  1.00  0.00    -0.014 A 
ATOM     63  C   UNL     1     -14.626  -6.953  -7.282  1.00  0.00     0.009 A 
ATOM     64  C   UNL     1     -12.989  -7.555  -8.956  1.00  0.00     0.009 A 
ATOM     65  C   UNL     1     -14.963  -8.299  -7.130  1.00  0.00     0.001 A 
ATOM     66  C   UNL     1     -13.347  -8.898  -8.822  1.00  0.00     0.001 A 
ATOM     67  C   UNL     1     -14.327  -9.270  -7.902  1.00  0.00     0.000 A 
ENDBRANCH  48  62
BRANCH  49  68
ATOM     68  C   UNL     1     -10.676   2.931  -9.003  1.00  0.00    -0.014 A 
ATOM     69  C   UNL     1     -11.612   3.976  -8.993  1.00  0.00     0.009 A 
ATOM     70  C   UNL     1      -9.314   3.239  -9.144  1.00  0.00     0.009 A 
ATOM     71  C   UNL     1     -11.196   5.300  -9.147  1.00  0.00     0.001 A 
ATOM     72  C   UNL     1      -8.899   4.566  -9.271  1.00  0.00     0.001 A 
ATOM     73  C   UNL     1      -9.840   5.595  -9.281  1.00  0.00     0.000 A 
ENDBRANCH  49  68
BRANCH  61  74
ATOM     74  C   UNL     1     -14.200  -1.385 -13.168  1.00  0.00    -0.014 A 
ATOM     75  C   UNL     1     -13.402  -1.324 -14.321  1.00  0.00     0.009 A 
ATOM     76  C   UNL     1     -15.596  -1.311 -13.299  1.00  0.00     0.009 A 
ATOM     77  C   UNL     1     -13.991  -1.163 -15.576  1.00  0.00     0.001 A 
ATOM     78  C   UNL     1     -16.182  -1.177 -14.558  1.00  0.00     0.001 A 
ATOM     79  C   UNL     1     -15.379  -1.094 -15.694  1.00  0.00     0.000 A 
ENDBRANCH  61  74
ENDBRANCH  35  36
ENDBRANCH  27  30
ENDBRANCH  25  26
ENDBRANCH   1  25
TORSDOF 12
