REMARK SMILES O=C(NCCCNC(=O)c1ccsc1NC(=O)c1cc2c(F)cccc2s1)c1ccc(-c2c3nc(c(-c4ccccc4)c4ccc([nH]4)c(-c4ccccc4)c4nc(c(-c5ccccc5)c5ccc2[nH]5)C=C4)C=C3)cc1
REMARK SMILES IDX 5 1 4 2 3 3 1 4 2 5 28 7 29 8 75 9 30 10 74 11 31 12 32 13
REMARK SMILES IDX 33 14 68 15 34 16 73 17 67 18 69 19 35 20 72 21 66 22 65 23
REMARK SMILES IDX 36 25 58 26 43 27 57 28 44 29 47 30 56 31 70 32 45 33 46 34
REMARK SMILES IDX 55 36 71 37 48 38 37 39 38 40 42 41 39 42 41 43 40 44 59 45
REMARK SMILES IDX 60 46 64 47 61 48 63 49 62 50 49 51 50 52 54 53 51 54 53 55
REMARK SMILES IDX 52 56 6 57 7 58 8 59 9 61 10 62 11 63 14 64 12 65 13 66
REMARK SMILES IDX 15 67 16 68 17 70 18 71 19 72 27 73 20 74 26 75 21 76 25 77
REMARK SMILES IDX 22 78 23 79 24 80
REMARK H PARENT 3 6 69 24 47 35 7 60 15 69
REMARK Flexibility Score: inf
ROOT
ATOM      1  C   UNL     1       5.018   2.190   0.504  1.00  0.00     0.042 C 
ENDROOT
BRANCH   1   2
ATOM      2  C   UNL     1       4.764   0.775   1.016  1.00  0.00     0.118 C 
BRANCH   2   3
ATOM      3  N   UNL     1       3.368   0.404   1.157  1.00  0.00    -0.352 N 
ATOM      4  O   UNL     1       1.353  -0.444   0.796  1.00  0.00    -0.269 OA
ATOM      5  C   UNL     1       2.397  -0.023   0.292  1.00  0.00     0.251 C 
ATOM      6  H   UNL     1       3.047   0.476   2.085  1.00  0.00     0.163 HD
BRANCH   5   7
ATOM      7  C   UNL     1       2.478   0.093  -1.186  1.00  0.00     0.039 A 
ATOM      8  C   UNL     1       3.652   0.257  -1.919  1.00  0.00     0.014 A 
ATOM      9  C   UNL     1       1.247   0.089  -1.870  1.00  0.00     0.014 A 
ATOM     10  C   UNL     1       3.592   0.564  -3.273  1.00  0.00     0.010 A 
ATOM     11  C   UNL     1       1.181   0.368  -3.229  1.00  0.00     0.010 A 
ATOM     12  C   UNL     1       2.354   0.657  -3.915  1.00  0.00    -0.014 A 
BRANCH  12  13
ATOM     13  C   UNL     1       2.354   0.934  -5.344  1.00  0.00     0.031 A 
ATOM     14  C   UNL     1       2.914  -0.153  -6.192  1.00  0.00     0.074 A 
ATOM     15  C   UNL     1       1.811   2.035  -5.897  1.00  0.00     0.049 A 
ATOM     16  N   UNL     1       3.962  -0.114  -6.949  1.00  0.00    -0.248 NA
ATOM     17  C   UNL     1       2.274  -1.476  -6.115  1.00  0.00     0.031 C 
ATOM     18  C   UNL     1       0.975   3.057  -5.265  1.00  0.00     0.029 A 
ATOM     19  N   UNL     1       1.827   2.414  -7.205  1.00  0.00    -0.354 N 
ATOM     20  C   UNL     1       4.040  -1.361  -7.562  1.00  0.00     0.074 A 
ATOM     21  C   UNL     1       3.045  -2.193  -6.932  1.00  0.00     0.031 C 
ATOM     22  C   UNL     1       0.386   3.806  -6.227  1.00  0.00     0.029 A 
ATOM     23  C   UNL     1       0.911   3.408  -7.523  1.00  0.00     0.049 A 
ATOM     24  H   UNL     1       2.436   2.017  -7.869  1.00  0.00     0.167 HD
ATOM     25  C   UNL     1       4.791  -1.581  -8.676  1.00  0.00     0.031 A 
ATOM     26  C   UNL     1       0.574   3.812  -8.773  1.00  0.00     0.031 A 
ATOM     27  C   UNL     1       5.757  -0.544  -8.900  1.00  0.00     0.049 A 
ATOM     28  C   UNL     1       1.672   3.406  -9.680  1.00  0.00     0.074 A 
ATOM     29  C   UNL     1       6.857  -0.067  -8.217  1.00  0.00     0.029 A 
ATOM     30  N   UNL     1       5.448   0.413  -9.834  1.00  0.00    -0.354 N 
ATOM     31  N   UNL     1       2.867   3.919  -9.646  1.00  0.00    -0.248 NA
ATOM     32  C   UNL     1       1.554   2.137 -10.381  1.00  0.00     0.031 C 
ATOM     33  C   UNL     1       6.847   1.339  -8.445  1.00  0.00     0.029 A 
ATOM     34  C   UNL     1       5.767   1.625  -9.283  1.00  0.00     0.049 A 
ATOM     35  H   UNL     1       5.069   0.258 -10.730  1.00  0.00     0.167 HD
ATOM     36  C   UNL     1       3.714   2.863  -9.944  1.00  0.00     0.074 A 
ATOM     37  C   UNL     1       2.847   1.822 -10.490  1.00  0.00     0.031 C 
ATOM     38  C   UNL     1       4.991   2.829  -9.466  1.00  0.00     0.031 A 
BRANCH  25  39
ATOM     39  C   UNL     1       4.400  -2.550  -9.760  1.00  0.00    -0.014 A 
ATOM     40  C   UNL     1       5.299  -2.801 -10.812  1.00  0.00     0.009 A 
ATOM     41  C   UNL     1       3.078  -3.001  -9.931  1.00  0.00     0.009 A 
ATOM     42  C   UNL     1       4.879  -3.423 -11.994  1.00  0.00     0.001 A 
ATOM     43  C   UNL     1       2.665  -3.658 -11.093  1.00  0.00     0.001 A 
ATOM     44  C   UNL     1       3.561  -3.846 -12.135  1.00  0.00     0.000 A 
ENDBRANCH  25  39
BRANCH  26  45
ATOM     45  C   UNL     1      -0.749   4.225  -9.295  1.00  0.00    -0.014 A 
ATOM     46  C   UNL     1      -0.860   4.763 -10.589  1.00  0.00     0.009 A 
ATOM     47  C   UNL     1      -1.932   3.812  -8.658  1.00  0.00     0.009 A 
ATOM     48  C   UNL     1      -2.098   4.821 -11.245  1.00  0.00     0.001 A 
ATOM     49  C   UNL     1      -3.169   3.879  -9.308  1.00  0.00     0.001 A 
ATOM     50  C   UNL     1      -3.248   4.361 -10.610  1.00  0.00     0.000 A 
ENDBRANCH  26  45
BRANCH  38  51
ATOM     51  C   UNL     1       5.533   4.069  -8.805  1.00  0.00    -0.014 A 
ATOM     52  C   UNL     1       5.029   4.556  -7.586  1.00  0.00     0.009 A 
ATOM     53  C   UNL     1       6.707   4.637  -9.321  1.00  0.00     0.009 A 
ATOM     54  C   UNL     1       5.686   5.587  -6.904  1.00  0.00     0.001 A 
ATOM     55  C   UNL     1       7.370   5.654  -8.632  1.00  0.00     0.001 A 
ATOM     56  C   UNL     1       6.861   6.127  -7.423  1.00  0.00     0.000 A 
ENDBRANCH  38  51
ENDBRANCH  12  13
ENDBRANCH   5   7
ENDBRANCH   2   3
ENDBRANCH   1   2
BRANCH   1  57
ATOM     57  C   UNL     1       4.430   3.290   1.382  1.00  0.00     0.118 C 
BRANCH  57  58
ATOM     58  N   UNL     1       4.976   3.284   2.738  1.00  0.00    -0.352 N 
ATOM     59  C   UNL     1       5.897   4.110   3.314  1.00  0.00     0.254 C 
ATOM     60  H   UNL     1       4.626   2.575   3.325  1.00  0.00     0.163 HD
ATOM     61  O   UNL     1       6.444   3.757   4.381  1.00  0.00    -0.269 OA
BRANCH  59  62
ATOM     62  C   UNL     1       6.249   5.347   2.655  1.00  0.00     0.074 A 
ATOM     63  C   UNL     1       5.301   6.260   2.053  1.00  0.00     0.028 A 
ATOM     64  C   UNL     1       7.536   5.871   2.598  1.00  0.00     0.108 A 
ATOM     65  C   UNL     1       5.914   7.242   1.319  1.00  0.00     0.068 A 
ATOM     66  S   UNL     1       7.591   7.066   1.398  1.00  0.00    -0.126 S 
BRANCH  64  67
ATOM     67  N   UNL     1       8.681   5.412   3.247  1.00  0.00    -0.312 N 
ATOM     68  C   UNL     1       9.945   5.970   3.445  1.00  0.00     0.266 C 
ATOM     69  H   UNL     1       8.579   4.516   3.643  1.00  0.00     0.171 HD
ATOM     70  O   UNL     1      10.808   5.258   3.968  1.00  0.00    -0.268 OA
BRANCH  68  71
ATOM     71  C   UNL     1      10.175   7.368   3.174  1.00  0.00     0.094 A 
ATOM     72  C   UNL     1       9.982   8.469   3.991  1.00  0.00     0.037 A 
ATOM     73  S   UNL     1      10.816   7.893   1.672  1.00  0.00    -0.130 S 
ATOM     74  C   UNL     1       9.680   9.624   3.184  1.00  0.00     0.029 A 
ATOM     75  C   UNL     1       9.860   9.333   1.829  1.00  0.00     0.038 A 
ATOM     76  C   UNL     1       9.047  10.837   3.515  1.00  0.00     0.131 A 
ATOM     77  C   UNL     1       9.235  10.083   0.818  1.00  0.00     0.020 A 
ATOM     78  F   UNL     1       8.953  11.231   4.793  1.00  0.00    -0.206 F 
ATOM     79  C   UNL     1       8.347  11.540   2.535  1.00  0.00     0.040 A 
ATOM     80  C   UNL     1       8.386  11.121   1.209  1.00  0.00     0.005 A 
ENDBRANCH  68  71
ENDBRANCH  64  67
ENDBRANCH  59  62
ENDBRANCH  57  58
ENDBRANCH   1  57
TORSDOF 12
