REMARK SMILES CC(=O)Nc1ccc(/C=C2/CCc3oc(C(=O)NCCCNC(=O)c4ccc(-c5c6nc(c(-c7ccccc7)c7ccc([nH]7)c(-c7ccccc7)c7nc(c(-c8ccccc8)c8ccc5[nH]8)C=C7)C=C6)cc4)c(C)c3C2=O)cc1
REMARK SMILES IDX 20 1 19 2 18 3 16 4 17 5 15 7 9 8 10 9 11 10 76 11 12 12
REMARK SMILES IDX 75 13 77 14 13 15 73 16 14 17 74 18 8 19 5 20 6 21 79 22
REMARK SMILES IDX 7 23 78 24 4 25 1 26 2 27 3 28 21 30 22 31 23 32 24 34 25 35
REMARK SMILES IDX 26 36 72 37 27 38 71 39 28 40 29 41 30 42 65 43 31 44 70 45
REMARK SMILES IDX 64 46 66 47 32 48 69 49 63 50 62 51 33 53 55 54 40 55 54 56
REMARK SMILES IDX 41 57 44 58 53 59 67 60 42 61 43 62 52 64 68 65 45 66 34 67
REMARK SMILES IDX 35 68 39 69 36 70 38 71 37 72 56 73 57 74 61 75 58 76 60 77
REMARK SMILES IDX 59 78 46 79 47 80 51 81 48 82 50 83 49 84
REMARK H PARENT 18 6 4 29 22 33 66 52 44 63
REMARK Flexibility Score: inf
ROOT
ATOM      1  C   UNL     1       4.667  11.370   6.702  1.00  0.00     0.042 C 
ENDROOT
BRANCH   1   2
ATOM      2  C   UNL     1       3.236  10.849   6.526  1.00  0.00     0.118 C 
BRANCH   2   3
ATOM      3  N   UNL     1       2.458  11.639   5.578  1.00  0.00    -0.349 N 
ATOM      4  C   UNL     1       2.192  11.441   4.236  1.00  0.00     0.287 C 
ATOM      5  O   UNL     1       1.415  12.243   3.715  1.00  0.00    -0.266 OA
ATOM      6  H   UNL     1       2.054  12.452   5.958  1.00  0.00     0.163 HD
BRANCH   4   7
ATOM      7  C   UNL     1       2.799  10.334   3.512  1.00  0.00     0.195 A 
ATOM      8  C   UNL     1       4.477   5.278   1.197  1.00  0.00     0.016 C 
ATOM      9  C   UNL     1       4.601   6.587   1.498  1.00  0.00     0.001 C 
ATOM     10  C   UNL     1       5.738   7.033   2.419  1.00  0.00     0.048 C 
ATOM     11  C   UNL     1       3.691   7.713   1.045  1.00  0.00     0.192 C 
ATOM     12  C   UNL     1       5.191   7.678   3.698  1.00  0.00     0.081 C 
ATOM     13  C   UNL     1       3.453   8.681   2.108  1.00  0.00     0.067 A 
ATOM     14  O   UNL     1       3.258   7.830  -0.088  1.00  0.00    -0.289 OA
ATOM     15  C   UNL     1       4.153   8.638   3.286  1.00  0.00     0.116 A 
ATOM     16  C   UNL     1       2.570   9.804   2.236  1.00  0.00     0.012 A 
ATOM     17  O   UNL     1       3.807   9.630   4.114  1.00  0.00    -0.455 OA
ATOM     18  C   UNL     1       1.595  10.259   1.207  1.00  0.00     0.049 C 
BRANCH   8  19
ATOM     19  C   UNL     1       3.503   4.467   0.442  1.00  0.00    -0.025 A 
ATOM     20  C   UNL     1       1.720   2.690  -0.872  1.00  0.00     0.041 A 
ATOM     21  C   UNL     1       1.438   4.052  -0.783  1.00  0.00     0.027 A 
ATOM     22  C   UNL     1       2.916   2.219  -0.341  1.00  0.00     0.027 A 
ATOM     23  C   UNL     1       2.302   4.923  -0.101  1.00  0.00     0.010 A 
ATOM     24  C   UNL     1       3.796   3.099   0.300  1.00  0.00     0.010 A 
BRANCH  20  25
ATOM     25  N   UNL     1       0.799   1.877  -1.547  1.00  0.00    -0.326 N 
ATOM     26  C   UNL     1       0.976  -0.195  -0.182  1.00  0.00     0.114 C 
ATOM     27  C   UNL     1       0.514   0.547  -1.409  1.00  0.00     0.221 C 
ATOM     28  O   UNL     1      -0.190  -0.008  -2.254  1.00  0.00    -0.275 OA
ATOM     29  H   UNL     1       0.270   2.340  -2.235  1.00  0.00     0.169 HD
ENDBRANCH  20  25
ENDBRANCH   8  19
ENDBRANCH   4   7
ENDBRANCH   2   3
ENDBRANCH   1   2
BRANCH   1  30
ATOM     30  C   UNL     1       4.719  12.556   7.656  1.00  0.00     0.118 C 
BRANCH  30  31
ATOM     31  N   UNL     1       4.422  12.180   9.044  1.00  0.00    -0.352 N 
ATOM     32  C   UNL     1       4.318  12.984  10.163  1.00  0.00     0.251 C 
ATOM     33  H   UNL     1       4.277  11.218   9.199  1.00  0.00     0.163 HD
ATOM     34  O   UNL     1       4.376  12.502  11.288  1.00  0.00    -0.269 OA
BRANCH  32  35
ATOM     35  C   UNL     1       4.147  14.435   9.985  1.00  0.00     0.039 A 
ATOM     36  C   UNL     1       4.807  15.354  10.806  1.00  0.00     0.014 A 
ATOM     37  C   UNL     1       3.337  14.871   8.944  1.00  0.00     0.014 A 
ATOM     38  C   UNL     1       4.719  16.711  10.500  1.00  0.00     0.010 A 
ATOM     39  C   UNL     1       3.402  16.177   8.536  1.00  0.00     0.010 A 
ATOM     40  C   UNL     1       4.036  17.114   9.342  1.00  0.00    -0.014 A 
BRANCH  40  41
ATOM     41  C   UNL     1       4.062  18.503   8.895  1.00  0.00     0.031 A 
ATOM     42  C   UNL     1       5.420  19.092   8.755  1.00  0.00     0.074 A 
ATOM     43  C   UNL     1       2.975  19.145   8.413  1.00  0.00     0.049 A 
ATOM     44  N   UNL     1       5.928  20.068   9.430  1.00  0.00    -0.248 NA
ATOM     45  C   UNL     1       6.365  18.451   7.825  1.00  0.00     0.031 C 
ATOM     46  C   UNL     1       1.628  18.608   8.173  1.00  0.00     0.029 A 
ATOM     47  N   UNL     1       2.884  20.404   7.906  1.00  0.00    -0.354 N 
ATOM     48  C   UNL     1       7.188  20.296   8.888  1.00  0.00     0.074 A 
ATOM     49  C   UNL     1       7.468  19.175   8.026  1.00  0.00     0.031 C 
ATOM     50  C   UNL     1       0.949  19.437   7.349  1.00  0.00     0.029 A 
ATOM     51  C   UNL     1       1.734  20.642   7.164  1.00  0.00     0.049 A 
ATOM     52  H   UNL     1       3.576  21.090   8.052  1.00  0.00     0.167 HD
ATOM     53  C   UNL     1       7.802  21.507   8.998  1.00  0.00     0.031 A 
ATOM     54  C   UNL     1       1.451  21.744   6.430  1.00  0.00     0.031 A 
ATOM     55  C   UNL     1       7.185  22.332  10.004  1.00  0.00     0.049 A 
ATOM     56  C   UNL     1       2.326  22.833   6.915  1.00  0.00     0.074 A 
ATOM     57  C   UNL     1       6.951  22.201  11.359  1.00  0.00     0.029 A 
ATOM     58  N   UNL     1       6.330  23.318   9.571  1.00  0.00    -0.354 N 
ATOM     59  N   UNL     1       2.219  23.366   8.098  1.00  0.00    -0.248 NA
ATOM     60  C   UNL     1       3.604  23.034   6.253  1.00  0.00     0.031 C 
ATOM     61  C   UNL     1       5.645  22.740  11.558  1.00  0.00     0.029 A 
ATOM     62  C   UNL     1       5.193  23.239  10.335  1.00  0.00     0.049 A 
ATOM     63  H   UNL     1       6.501  23.962   8.847  1.00  0.00     0.167 HD
ATOM     64  C   UNL     1       3.527  23.562   8.513  1.00  0.00     0.074 A 
ATOM     65  C   UNL     1       4.328  23.453   7.295  1.00  0.00     0.031 C 
ATOM     66  C   UNL     1       3.861  23.509   9.837  1.00  0.00     0.031 A 
BRANCH  53  67
ATOM     67  C   UNL     1       8.688  22.083   7.922  1.00  0.00    -0.014 A 
ATOM     68  C   UNL     1       9.358  23.295   8.164  1.00  0.00     0.009 A 
ATOM     69  C   UNL     1       8.671  21.624   6.590  1.00  0.00     0.009 A 
ATOM     70  C   UNL     1       9.931  24.030   7.118  1.00  0.00     0.001 A 
ATOM     71  C   UNL     1       9.279  22.334   5.551  1.00  0.00     0.001 A 
ATOM     72  C   UNL     1       9.888  23.551   5.812  1.00  0.00     0.000 A 
ENDBRANCH  53  67
BRANCH  54  73
ATOM     73  C   UNL     1       0.653  21.870   5.195  1.00  0.00    -0.014 A 
ATOM     74  C   UNL     1       0.176  23.121   4.776  1.00  0.00     0.009 A 
ATOM     75  C   UNL     1       0.601  20.806   4.276  1.00  0.00     0.009 A 
ATOM     76  C   UNL     1      -0.288  23.313   3.467  1.00  0.00     0.001 A 
ATOM     77  C   UNL     1       0.136  20.997   2.970  1.00  0.00     0.001 A 
ATOM     78  C   UNL     1      -0.291  22.256   2.561  1.00  0.00     0.000 A 
ENDBRANCH  54  73
BRANCH  66  79
ATOM     79  C   UNL     1       2.736  23.470  10.847  1.00  0.00    -0.014 A 
ATOM     80  C   UNL     1       1.760  22.456  10.880  1.00  0.00     0.009 A 
ATOM     81  C   UNL     1       2.739  24.415  11.883  1.00  0.00     0.009 A 
ATOM     82  C   UNL     1       0.796  22.416  11.895  1.00  0.00     0.001 A 
ATOM     83  C   UNL     1       1.793  24.362  12.909  1.00  0.00     0.001 A 
ATOM     84  C   UNL     1       0.816  23.369  12.911  1.00  0.00     0.000 A 
ENDBRANCH  66  79
ENDBRANCH  40  41
ENDBRANCH  32  35
ENDBRANCH  30  31
ENDBRANCH   1  30
TORSDOF 12
