REMARK SMILES Cc1ccc(NC(=O)C[N@H+]2CCC[C@@H](C(=O)NCCCNC(=O)c3ccc(-c4c5nc(c(-c6ccccc6)c6ccc([nH]6)c(-c6ccccc6)c6nc(c(-c7ccccc7)c7ccc4[nH]7)C=C6)C=C5)cc3)C2)cc1F
REMARK SMILES IDX 18 1 17 2 15 3 16 4 14 6 10 7 11 8 72 9 12 11 13 12 9 13
REMARK SMILES IDX 7 14 6 15 8 17 5 18 1 19 2 20 3 21 74 22 4 23 73 24 75 25
REMARK SMILES IDX 19 26 20 27 21 28 22 29 23 31 24 32 25 33 71 34 26 35 70 36
REMARK SMILES IDX 27 37 28 38 29 39 64 40 30 41 69 42 63 43 65 44 31 45 68 46
REMARK SMILES IDX 62 47 61 48 32 50 54 51 39 52 53 53 40 54 43 55 52 56 66 57
REMARK SMILES IDX 41 58 42 59 51 61 67 62 44 63 33 64 34 65 38 66 35 67 37 68
REMARK SMILES IDX 36 69 55 70 56 71 60 72 57 73 59 74 58 75 45 76 46 77 50 78
REMARK SMILES IDX 47 79 49 80 48 81
REMARK H PARENT 17 5 10 10 6 16 21 30 65 49 43 60
REMARK Flexibility Score: inf
ROOT
ATOM      1  C   UNL     1      -0.121   0.902  -1.953  1.00  0.00     0.117 C 
ENDROOT
BRANCH   1   2
ATOM      2  N   UNL     1      -0.865   0.749  -3.192  1.00  0.00    -0.356 N 
ATOM      3  C   UNL     1      -1.207  -0.398  -3.858  1.00  0.00     0.228 C 
ATOM      4  O   UNL     1      -1.918  -0.293  -4.857  1.00  0.00    -0.275 OA
ATOM      5  H   UNL     1      -1.165   1.587  -3.612  1.00  0.00     0.163 HD
BRANCH   3   6
ATOM      6  C   UNL     1      -0.713  -1.743  -3.339  1.00  0.00     0.133 C 
ATOM      7  N   UNL     1      -1.034  -3.432  -1.552  1.00  0.00    -0.326 N 
ATOM      8  C   UNL     1      -1.054  -4.517  -2.554  1.00  0.00     0.262 C 
ATOM      9  C   UNL     1      -1.564  -2.190  -2.140  1.00  0.00     0.276 C 
ATOM     10  H   UNL     1      -0.081  -3.196  -1.276  1.00  0.00     0.348 HD
ATOM     11  C   UNL     1      -0.284  -4.153  -3.826  1.00  0.00     0.062 C 
ATOM     12  C   UNL     1      -0.759  -2.829  -4.416  1.00  0.00     0.025 C 
BRANCH   7  13
ATOM     13  C   UNL     1      -1.690  -3.894  -0.296  1.00  0.00     0.363 C 
BRANCH  13  14
ATOM     14  C   UNL     1      -2.825  -3.034   0.247  1.00  0.00     0.279 C 
ATOM     15  N   UNL     1      -2.651  -1.839   0.880  1.00  0.00    -0.321 N 
ATOM     16  H   UNL     1      -3.501  -1.443   1.179  1.00  0.00     0.170 HD
ATOM     17  O   UNL     1      -3.997  -3.407   0.094  1.00  0.00    -0.268 OA
BRANCH  15  18
ATOM     18  C   UNL     1      -1.541  -1.040   1.206  1.00  0.00     0.044 A 
ATOM     19  C   UNL     1       1.651   1.778   1.962  1.00  0.00     0.047 C 
ATOM     20  C   UNL     1       0.530   0.813   1.736  1.00  0.00    -0.015 A 
ATOM     21  C   UNL     1      -0.804   1.214   1.800  1.00  0.00     0.008 A 
ATOM     22  C   UNL     1       0.806  -0.519   1.432  1.00  0.00     0.128 A 
ATOM     23  C   UNL     1      -1.826   0.292   1.550  1.00  0.00     0.026 A 
ATOM     24  C   UNL     1      -0.209  -1.440   1.168  1.00  0.00     0.065 A 
ATOM     25  F   UNL     1       2.080  -0.932   1.363  1.00  0.00    -0.207 F 
ENDBRANCH  15  18
ENDBRANCH  13  14
ENDBRANCH   7  13
ENDBRANCH   3   6
ENDBRANCH   1   2
BRANCH   1  26
ATOM     26  C   UNL     1       1.005   1.924  -2.050  1.00  0.00     0.042 C 
BRANCH  26  27
ATOM     27  C   UNL     1       0.553   3.382  -2.062  1.00  0.00     0.118 C 
BRANCH  27  28
ATOM     28  N   UNL     1      -0.121   3.807  -0.838  1.00  0.00    -0.352 N 
ATOM     29  C   UNL     1       0.232   4.688   0.157  1.00  0.00     0.251 C 
ATOM     30  H   UNL     1      -0.997   3.379  -0.698  1.00  0.00     0.163 HD
ATOM     31  O   UNL     1      -0.491   4.785   1.148  1.00  0.00    -0.269 OA
BRANCH  29  32
ATOM     32  C   UNL     1       1.484   5.478   0.097  1.00  0.00     0.039 A 
ATOM     33  C   UNL     1       2.229   5.652   1.272  1.00  0.00     0.014 A 
ATOM     34  C   UNL     1       1.929   6.063  -1.086  1.00  0.00     0.014 A 
ATOM     35  C   UNL     1       3.471   6.297   1.231  1.00  0.00     0.010 A 
ATOM     36  C   UNL     1       3.200   6.632  -1.145  1.00  0.00     0.010 A 
ATOM     37  C   UNL     1       3.996   6.734   0.007  1.00  0.00    -0.014 A 
BRANCH  37  38
ATOM     38  C   UNL     1       5.380   7.261  -0.126  1.00  0.00     0.031 A 
ATOM     39  C   UNL     1       5.611   8.649  -0.653  1.00  0.00     0.074 A 
ATOM     40  C   UNL     1       6.431   6.444   0.092  1.00  0.00     0.049 A 
ATOM     41  N   UNL     1       6.724   9.206  -1.060  1.00  0.00    -0.248 NA
ATOM     42  C   UNL     1       4.427   9.516  -0.766  1.00  0.00     0.031 C 
ATOM     43  C   UNL     1       6.352   5.069   0.590  1.00  0.00     0.029 A 
ATOM     44  N   UNL     1       7.775   6.645  -0.111  1.00  0.00    -0.354 N 
ATOM     45  C   UNL     1       6.370  10.471  -1.510  1.00  0.00     0.074 A 
ATOM     46  C   UNL     1       4.936  10.589  -1.355  1.00  0.00     0.031 C 
ATOM     47  C   UNL     1       7.589   4.552   0.654  1.00  0.00     0.029 A 
ATOM     48  C   UNL     1       8.542   5.534   0.147  1.00  0.00     0.049 A 
ATOM     49  H   UNL     1       8.152   7.503  -0.413  1.00  0.00     0.167 HD
ATOM     50  C   UNL     1       7.167  11.449  -2.003  1.00  0.00     0.031 A 
ATOM     51  C   UNL     1       9.857   5.312  -0.038  1.00  0.00     0.031 A 
ATOM     52  C   UNL     1       8.595  11.339  -2.143  1.00  0.00     0.049 A 
ATOM     53  C   UNL     1      10.714   6.397  -0.627  1.00  0.00     0.074 A 
ATOM     54  C   UNL     1       9.495  12.299  -2.572  1.00  0.00     0.029 A 
ATOM     55  N   UNL     1       9.330  10.198  -1.860  1.00  0.00    -0.354 N 
ATOM     56  N   UNL     1      10.372   7.604  -1.006  1.00  0.00    -0.248 NA
ATOM     57  C   UNL     1      12.138   6.086  -0.818  1.00  0.00     0.031 C 
ATOM     58  C   UNL     1      10.769  11.722  -2.599  1.00  0.00     0.029 A 
ATOM     59  C   UNL     1      10.668  10.421  -2.136  1.00  0.00     0.049 A 
ATOM     60  H   UNL     1       8.956   9.356  -1.515  1.00  0.00     0.167 HD
ATOM     61  C   UNL     1      11.540   8.203  -1.461  1.00  0.00     0.074 A 
ATOM     62  C   UNL     1      12.602   7.233  -1.296  1.00  0.00     0.031 C 
ATOM     63  C   UNL     1      11.715   9.446  -1.970  1.00  0.00     0.031 A 
BRANCH  50  64
ATOM     64  C   UNL     1       6.507  12.725  -2.447  1.00  0.00    -0.014 A 
ATOM     65  C   UNL     1       5.959  13.624  -1.518  1.00  0.00     0.009 A 
ATOM     66  C   UNL     1       6.469  13.052  -3.812  1.00  0.00     0.009 A 
ATOM     67  C   UNL     1       5.354  14.806  -1.950  1.00  0.00     0.001 A 
ATOM     68  C   UNL     1       5.889  14.247  -4.239  1.00  0.00     0.001 A 
ATOM     69  C   UNL     1       5.323  15.118  -3.309  1.00  0.00     0.000 A 
ENDBRANCH  50  64
BRANCH  51  70
ATOM     70  C   UNL     1      10.447   3.995   0.320  1.00  0.00    -0.014 A 
ATOM     71  C   UNL     1      11.304   3.880   1.426  1.00  0.00     0.009 A 
ATOM     72  C   UNL     1      10.164   2.850  -0.441  1.00  0.00     0.009 A 
ATOM     73  C   UNL     1      11.881   2.650   1.749  1.00  0.00     0.001 A 
ATOM     74  C   UNL     1      10.720   1.616  -0.098  1.00  0.00     0.001 A 
ATOM     75  C   UNL     1      11.585   1.518   0.991  1.00  0.00     0.000 A 
ENDBRANCH  51  70
BRANCH  63  76
ATOM     76  C   UNL     1      13.110   9.840  -2.363  1.00  0.00    -0.014 A 
ATOM     77  C   UNL     1      13.707   9.333  -3.527  1.00  0.00     0.009 A 
ATOM     78  C   UNL     1      13.813  10.776  -1.588  1.00  0.00     0.009 A 
ATOM     79  C   UNL     1      14.991   9.739  -3.894  1.00  0.00     0.001 A 
ATOM     80  C   UNL     1      15.085  11.200  -1.972  1.00  0.00     0.001 A 
ATOM     81  C   UNL     1      15.676  10.676  -3.122  1.00  0.00     0.000 A 
ENDBRANCH  63  76
ENDBRANCH  37  38
ENDBRANCH  29  32
ENDBRANCH  27  28
ENDBRANCH  26  27
ENDBRANCH   1  26
TORSDOF 13
