REMARK SMILES O=C(NCCCNC(=O)[C@@H]1CN(C(=O)C[NH+]2CCOCC2)C[C@H]1c1ccc2c(c1)OCO2)c1ccc(-c2c3nc(c(-c4ccccc4)c4ccc([nH]4)c(-c4ccccc4)c4nc(c(-c5ccccc5)c5ccc2[nH]5)C=C4)C=C3)cc1
REMARK SMILES IDX 5 1 4 2 3 3 1 4 2 5 33 7 34 8 80 9 35 10 79 11 36 12 37 13
REMARK SMILES IDX 38 14 73 15 39 16 78 17 72 18 74 19 40 20 77 21 71 22 70 23
REMARK SMILES IDX 41 25 63 26 48 27 62 28 49 29 52 30 61 31 75 32 50 33 51 34
REMARK SMILES IDX 60 36 76 37 53 38 42 39 43 40 47 41 44 42 46 43 45 44 64 45
REMARK SMILES IDX 65 46 69 47 66 48 68 49 67 50 54 51 55 52 59 53 56 54 58 55
REMARK SMILES IDX 57 56 6 57 7 58 8 59 9 61 10 62 11 63 23 64 12 65 22 66
REMARK SMILES IDX 24 67 25 68 29 69 26 70 28 71 27 72 30 73 32 74 31 75 13 76
REMARK SMILES IDX 14 77 15 78 16 79 17 80 21 81 18 83 20 84 19 85
REMARK H PARENT 3 6 74 24 52 35 7 60 16 82
REMARK Flexibility Score: inf
ROOT
ATOM      1  C   UNL     1       4.682  -2.164   0.778  1.00  0.00     0.042 C 
ENDROOT
BRANCH   1   2
ATOM      2  C   UNL     1       4.390  -1.175  -0.339  1.00  0.00     0.118 C 
BRANCH   2   3
ATOM      3  N   UNL     1       2.963  -0.922  -0.494  1.00  0.00    -0.352 N 
ATOM      4  O   UNL     1       0.996   0.116  -0.133  1.00  0.00    -0.269 OA
ATOM      5  C   UNL     1       2.217   0.178  -0.143  1.00  0.00     0.251 C 
ATOM      6  H   UNL     1       2.455  -1.652  -0.916  1.00  0.00     0.163 HD
BRANCH   5   7
ATOM      7  C   UNL     1       2.903   1.428   0.240  1.00  0.00     0.039 A 
ATOM      8  C   UNL     1       4.021   1.862  -0.472  1.00  0.00     0.014 A 
ATOM      9  C   UNL     1       2.421   2.175   1.317  1.00  0.00     0.014 A 
ATOM     10  C   UNL     1       4.768   2.927   0.004  1.00  0.00     0.010 A 
ATOM     11  C   UNL     1       3.106   3.324   1.719  1.00  0.00     0.010 A 
ATOM     12  C   UNL     1       4.306   3.687   1.089  1.00  0.00    -0.014 A 
BRANCH  12  13
ATOM     13  C   UNL     1       5.068   4.892   1.495  1.00  0.00     0.031 A 
ATOM     14  C   UNL     1       5.684   5.003   2.860  1.00  0.00     0.074 A 
ATOM     15  C   UNL     1       5.225   5.883   0.596  1.00  0.00     0.049 A 
ATOM     16  N   UNL     1       6.405   5.976   3.359  1.00  0.00    -0.248 NA
ATOM     17  C   UNL     1       5.459   3.885   3.789  1.00  0.00     0.031 C 
ATOM     18  C   UNL     1       4.677   5.883  -0.764  1.00  0.00     0.029 A 
ATOM     19  N   UNL     1       5.913   7.065   0.676  1.00  0.00    -0.354 N 
ATOM     20  C   UNL     1       6.694   5.603   4.665  1.00  0.00     0.074 A 
ATOM     21  C   UNL     1       6.050   4.326   4.890  1.00  0.00     0.031 C 
ATOM     22  C   UNL     1       5.103   6.977  -1.409  1.00  0.00     0.029 A 
ATOM     23  C   UNL     1       5.883   7.792  -0.488  1.00  0.00     0.049 A 
ATOM     24  H   UNL     1       6.382   7.363   1.488  1.00  0.00     0.167 HD
ATOM     25  C   UNL     1       7.430   6.265   5.591  1.00  0.00     0.031 A 
ATOM     26  C   UNL     1       6.408   8.994  -0.781  1.00  0.00     0.031 A 
ATOM     27  C   UNL     1       8.059   7.541   5.362  1.00  0.00     0.049 A 
ATOM     28  C   UNL     1       7.174   9.728   0.278  1.00  0.00     0.074 A 
ATOM     29  C   UNL     1       8.851   8.280   6.223  1.00  0.00     0.029 A 
ATOM     30  N   UNL     1       7.955   8.274   4.188  1.00  0.00    -0.354 N 
ATOM     31  N   UNL     1       7.466   9.347   1.497  1.00  0.00    -0.248 NA
ATOM     32  C   UNL     1       7.681  11.057  -0.082  1.00  0.00     0.031 C 
ATOM     33  C   UNL     1       9.171   9.488   5.595  1.00  0.00     0.029 A 
ATOM     34  C   UNL     1       8.642   9.471   4.314  1.00  0.00     0.049 A 
ATOM     35  H   UNL     1       7.467   7.985   3.383  1.00  0.00     0.167 HD
ATOM     36  C   UNL     1       8.216  10.379   2.044  1.00  0.00     0.074 A 
ATOM     37  C   UNL     1       8.344  11.392   1.016  1.00  0.00     0.031 C 
ATOM     38  C   UNL     1       8.753  10.475   3.285  1.00  0.00     0.031 A 
BRANCH  25  39
ATOM     39  C   UNL     1       7.551   5.638   6.955  1.00  0.00    -0.014 A 
ATOM     40  C   UNL     1       8.278   4.455   7.163  1.00  0.00     0.009 A 
ATOM     41  C   UNL     1       6.935   6.253   8.057  1.00  0.00     0.009 A 
ATOM     42  C   UNL     1       8.344   3.877   8.434  1.00  0.00     0.001 A 
ATOM     43  C   UNL     1       7.030   5.692   9.332  1.00  0.00     0.001 A 
ATOM     44  C   UNL     1       7.723   4.497   9.517  1.00  0.00     0.000 A 
ENDBRANCH  25  39
BRANCH  26  45
ATOM     45  C   UNL     1       6.219   9.568  -2.138  1.00  0.00    -0.014 A 
ATOM     46  C   UNL     1       7.303   9.685  -3.019  1.00  0.00     0.009 A 
ATOM     47  C   UNL     1       4.945   9.972  -2.570  1.00  0.00     0.009 A 
ATOM     48  C   UNL     1       7.119  10.211  -4.299  1.00  0.00     0.001 A 
ATOM     49  C   UNL     1       4.758  10.466  -3.862  1.00  0.00     0.001 A 
ATOM     50  C   UNL     1       5.846  10.593  -4.722  1.00  0.00     0.000 A 
ENDBRANCH  26  45
BRANCH  38  51
ATOM     51  C   UNL     1       9.567  11.704   3.581  1.00  0.00    -0.014 A 
ATOM     52  C   UNL     1       8.967  12.965   3.725  1.00  0.00     0.009 A 
ATOM     53  C   UNL     1      10.957  11.589   3.740  1.00  0.00     0.009 A 
ATOM     54  C   UNL     1       9.750  14.092   3.983  1.00  0.00     0.001 A 
ATOM     55  C   UNL     1      11.732  12.712   4.032  1.00  0.00     0.001 A 
ATOM     56  C   UNL     1      11.130  13.964   4.141  1.00  0.00     0.000 A 
ENDBRANCH  38  51
ENDBRANCH  12  13
ENDBRANCH   5   7
ENDBRANCH   2   3
ENDBRANCH   1   2
BRANCH   1  57
ATOM     57  C   UNL     1       4.080  -3.534   0.522  1.00  0.00     0.117 C 
BRANCH  57  58
ATOM     58  N   UNL     1       4.654  -4.146  -0.662  1.00  0.00    -0.356 N 
ATOM     59  C   UNL     1       5.255  -5.354  -0.808  1.00  0.00     0.225 C 
ATOM     60  H   UNL     1       4.599  -3.604  -1.482  1.00  0.00     0.163 HD
ATOM     61  O   UNL     1       5.629  -5.683  -1.933  1.00  0.00    -0.275 OA
BRANCH  59  62
ATOM     62  C   UNL     1       5.472  -6.226   0.404  1.00  0.00     0.107 C 
ATOM     63  C   UNL     1       6.944  -6.188   0.729  1.00  0.00     0.133 C 
ATOM     64  C   UNL     1       5.155  -7.713   0.145  1.00  0.00     0.053 C 
ATOM     65  N   UNL     1       7.229  -7.459   1.345  1.00  0.00    -0.336 N 
ATOM     66  C   UNL     1       6.165  -8.420   1.079  1.00  0.00     0.129 C 
BRANCH  64  67
ATOM     67  C   UNL     1       3.661  -7.922   0.377  1.00  0.00    -0.038 A 
ATOM     68  C   UNL     1       2.742  -7.221  -0.454  1.00  0.00     0.008 A 
ATOM     69  C   UNL     1       3.152  -8.665   1.451  1.00  0.00     0.054 A 
ATOM     70  C   UNL     1       1.378  -7.153  -0.155  1.00  0.00     0.051 A 
ATOM     71  C   UNL     1       1.798  -8.590   1.716  1.00  0.00     0.166 A 
ATOM     72  C   UNL     1       0.941  -7.837   0.952  1.00  0.00     0.165 A 
ATOM     73  O   UNL     1       1.168  -9.193   2.759  1.00  0.00    -0.454 OA
ATOM     74  O   UNL     1      -0.332  -7.854   1.425  1.00  0.00    -0.454 OA
ATOM     75  C   UNL     1      -0.178  -8.707   2.579  1.00  0.00     0.468 C 
ENDBRANCH  64  67
BRANCH  65  76
ATOM     76  C   UNL     1       8.351  -7.806   2.071  1.00  0.00     0.277 C 
ATOM     77  O   UNL     1       8.474  -8.941   2.537  1.00  0.00    -0.268 OA
BRANCH  76  78
ATOM     78  C   UNL     1       9.440  -6.738   2.280  1.00  0.00     0.363 C 
BRANCH  78  79
ATOM     79  N   UNL     1      10.638  -6.834   1.420  1.00  0.00    -0.323 N 
ATOM     80  C   UNL     1      11.019  -5.557   0.793  1.00  0.00     0.291 C 
ATOM     81  C   UNL     1      10.684  -7.899   0.410  1.00  0.00     0.291 C 
ATOM     82  H   UNL     1      11.325  -7.106   2.122  1.00  0.00     0.348 HD
ATOM     83  C   UNL     1      10.235  -5.242  -0.487  1.00  0.00     0.221 C 
ATOM     84  C   UNL     1       9.932  -7.578  -0.891  1.00  0.00     0.221 C 
ATOM     85  O   UNL     1      10.302  -6.306  -1.440  1.00  0.00    -0.370 OA
ENDBRANCH  78  79
ENDBRANCH  76  78
ENDBRANCH  65  76
ENDBRANCH  59  62
ENDBRANCH  57  58
ENDBRANCH   1  57
TORSDOF 14
