REMARK SMILES Cc1cc(O[C@@H]2C[C@H](C)C[C@H](C)C2)cc(C(=O)NCCCNC(=O)c2ccc(-c3c4nc(c(-c5ccccc5)c5ccc([nH]5)c(-c5ccccc5)c5nc(c(-c6ccccc6)c6ccc3[nH]6)C=C5)C=C4)cc2)c1N
REMARK SMILES IDX 20 1 19 2 18 3 16 4 17 5 15 7 1 8 2 9 3 10 73 11 4 12 14 13
REMARK SMILES IDX 74 14 5 17 6 18 13 19 7 20 11 21 8 22 12 23 10 24 9 25 21 26
REMARK SMILES IDX 22 27 23 28 24 30 25 31 26 32 72 33 27 34 71 35 28 36 29 37
REMARK SMILES IDX 30 38 65 39 31 40 70 41 64 42 66 43 32 44 69 45 63 46 62 47
REMARK SMILES IDX 33 49 55 50 40 51 54 52 41 53 44 54 53 55 67 56 42 57 43 58
REMARK SMILES IDX 52 60 68 61 45 62 34 63 35 64 39 65 36 66 38 67 37 68 56 69
REMARK SMILES IDX 57 70 61 71 58 72 60 73 59 74 46 75 47 76 51 77 48 78 50 79
REMARK SMILES IDX 49 80
REMARK H PARENT 18 6 74 15 74 16 22 29 66 48 44 59
REMARK Flexibility Score: inf
ROOT
ATOM      1  C   UNL     1      -4.109  -3.513  -0.638  1.00  0.00     0.042 C 
ENDROOT
BRANCH   1   2
ATOM      2  C   UNL     1      -3.255  -3.412   0.623  1.00  0.00     0.118 C 
BRANCH   2   3
ATOM      3  N   UNL     1      -1.879  -3.713   0.296  1.00  0.00    -0.352 N 
ATOM      4  C   UNL     1      -0.740  -2.970   0.170  1.00  0.00     0.253 C 
ATOM      5  O   UNL     1       0.249  -3.607  -0.207  1.00  0.00    -0.269 OA
ATOM      6  H   UNL     1      -1.729  -4.671   0.126  1.00  0.00     0.163 HD
BRANCH   4   7
ATOM      7  C   UNL     1      -0.627  -1.519   0.535  1.00  0.00     0.066 A 
ATOM      8  C   UNL     1       2.096   1.085   1.145  1.00  0.00     0.047 C 
ATOM      9  C   UNL     1       0.783   0.344   1.215  1.00  0.00    -0.024 A 
ATOM     10  C   UNL     1      -0.366   1.058   1.579  1.00  0.00     0.052 A 
ATOM     11  C   UNL     1       0.668  -0.974   0.733  1.00  0.00     0.048 A 
ATOM     12  C   UNL     1      -1.567   0.678   1.012  1.00  0.00     0.120 A 
ATOM     13  C   UNL     1      -1.723  -0.641   0.579  1.00  0.00     0.062 A 
BRANCH  11  14
ATOM     14  N   UNL     1       1.812  -1.624   0.263  1.00  0.00    -0.398 N 
ATOM     15  H   UNL     1       2.701  -1.227   0.412  1.00  0.00     0.156 HD
ATOM     16  H   UNL     1       1.730  -2.479  -0.218  1.00  0.00     0.156 HD
ENDBRANCH  11  14
BRANCH  12  17
ATOM     17  O   UNL     1      -2.567   1.560   0.668  1.00  0.00    -0.490 OA
BRANCH  17  18
ATOM     18  C   UNL     1      -2.218   2.897   0.183  1.00  0.00     0.173 C 
ATOM     19  C   UNL     1      -0.818   3.131  -0.373  1.00  0.00     0.048 C 
ATOM     20  C   UNL     1      -3.244   3.351  -0.914  1.00  0.00     0.048 C 
ATOM     21  C   UNL     1      -0.605   2.526  -1.763  1.00  0.00    -0.010 C 
ATOM     22  C   UNL     1      -2.710   3.800  -2.339  1.00  0.00    -0.010 C 
ATOM     23  C   UNL     1      -1.194   1.149  -2.093  1.00  0.00     0.008 C 
ATOM     24  C   UNL     1      -1.224   3.551  -2.683  1.00  0.00     0.007 C 
ATOM     25  C   UNL     1      -3.589   3.246  -3.473  1.00  0.00     0.008 C 
ENDBRANCH  17  18
ENDBRANCH  12  17
ENDBRANCH   4   7
ENDBRANCH   2   3
ENDBRANCH   1   2
BRANCH   1  26
ATOM     26  C   UNL     1      -4.360  -4.967  -1.033  1.00  0.00     0.118 C 
BRANCH  26  27
ATOM     27  N   UNL     1      -5.127  -5.668  -0.005  1.00  0.00    -0.352 N 
ATOM     28  C   UNL     1      -6.399  -6.160  -0.059  1.00  0.00     0.251 C 
ATOM     29  H   UNL     1      -4.658  -5.805   0.850  1.00  0.00     0.163 HD
ATOM     30  O   UNL     1      -7.012  -6.411   0.984  1.00  0.00    -0.269 OA
BRANCH  28  31
ATOM     31  C   UNL     1      -7.028  -6.406  -1.364  1.00  0.00     0.039 A 
ATOM     32  C   UNL     1      -8.379  -6.107  -1.547  1.00  0.00     0.014 A 
ATOM     33  C   UNL     1      -6.274  -6.958  -2.403  1.00  0.00     0.014 A 
ATOM     34  C   UNL     1      -8.962  -6.316  -2.795  1.00  0.00     0.010 A 
ATOM     35  C   UNL     1      -6.829  -7.075  -3.667  1.00  0.00     0.010 A 
ATOM     36  C   UNL     1      -8.182  -6.771  -3.871  1.00  0.00    -0.014 A 
BRANCH  36  37
ATOM     37  C   UNL     1      -8.757  -6.955  -5.222  1.00  0.00     0.031 A 
ATOM     38  C   UNL     1      -8.769  -8.322  -5.847  1.00  0.00     0.074 A 
ATOM     39  C   UNL     1      -9.188  -5.881  -5.909  1.00  0.00     0.049 A 
ATOM     40  N   UNL     1      -9.139  -8.674  -7.051  1.00  0.00    -0.248 NA
ATOM     41  C   UNL     1      -8.265  -9.435  -5.024  1.00  0.00     0.031 C 
ATOM     42  C   UNL     1      -9.181  -4.500  -5.419  1.00  0.00     0.029 A 
ATOM     43  N   UNL     1      -9.706  -5.782  -7.174  1.00  0.00    -0.354 N 
ATOM     44  C   UNL     1      -8.891 -10.038  -7.135  1.00  0.00     0.074 A 
ATOM     45  C   UNL     1      -8.287 -10.440  -5.885  1.00  0.00     0.031 C 
ATOM     46  C   UNL     1      -9.699  -3.697  -6.362  1.00  0.00     0.029 A 
ATOM     47  C   UNL     1     -10.027  -4.496  -7.537  1.00  0.00     0.049 A 
ATOM     48  H   UNL     1      -9.835  -6.557  -7.766  1.00  0.00     0.167 HD
ATOM     49  C   UNL     1      -9.163 -10.884  -8.156  1.00  0.00     0.031 A 
ATOM     50  C   UNL     1     -10.520  -4.016  -8.693  1.00  0.00     0.031 A 
ATOM     51  C   UNL     1      -9.777 -10.477  -9.390  1.00  0.00     0.049 A 
ATOM     52  C   UNL     1     -10.803  -4.975  -9.815  1.00  0.00     0.074 A 
ATOM     53  C   UNL     1     -10.153 -11.262 -10.465  1.00  0.00     0.029 A 
ATOM     54  N   UNL     1     -10.102  -9.169  -9.713  1.00  0.00    -0.354 N 
ATOM     55  N   UNL     1     -10.631  -6.275  -9.854  1.00  0.00    -0.248 NA
ATOM     56  C   UNL     1     -11.358  -4.402 -11.048  1.00  0.00     0.031 C 
ATOM     57  C   UNL     1     -10.653 -10.421 -11.463  1.00  0.00     0.029 A 
ATOM     58  C   UNL     1     -10.650  -9.120 -10.983  1.00  0.00     0.049 A 
ATOM     59  H   UNL     1      -9.964  -8.390  -9.127  1.00  0.00     0.167 HD
ATOM     60  C   UNL     1     -11.083  -6.679 -11.103  1.00  0.00     0.074 A 
ATOM     61  C   UNL     1     -11.552  -5.489 -11.783  1.00  0.00     0.031 C 
ATOM     62  C   UNL     1     -11.110  -7.924 -11.639  1.00  0.00     0.031 A 
BRANCH  49  63
ATOM     63  C   UNL     1      -8.790 -12.331  -7.979  1.00  0.00    -0.014 A 
ATOM     64  C   UNL     1      -9.458 -13.150  -7.054  1.00  0.00     0.009 A 
ATOM     65  C   UNL     1      -7.776 -12.891  -8.771  1.00  0.00     0.009 A 
ATOM     66  C   UNL     1      -9.093 -14.489  -6.900  1.00  0.00     0.001 A 
ATOM     67  C   UNL     1      -7.436 -14.239  -8.638  1.00  0.00     0.001 A 
ATOM     68  C   UNL     1      -8.087 -15.034  -7.696  1.00  0.00     0.000 A 
ENDBRANCH  49  63
BRANCH  50  69
ATOM     69  C   UNL     1     -10.786  -2.562  -8.842  1.00  0.00    -0.014 A 
ATOM     70  C   UNL     1     -12.103  -2.083  -8.926  1.00  0.00     0.009 A 
ATOM     71  C   UNL     1      -9.727  -1.642  -8.899  1.00  0.00     0.009 A 
ATOM     72  C   UNL     1     -12.351  -0.719  -9.094  1.00  0.00     0.001 A 
ATOM     73  C   UNL     1      -9.979  -0.276  -9.035  1.00  0.00     0.001 A 
ATOM     74  C   UNL     1     -11.290   0.184  -9.143  1.00  0.00     0.000 A 
ENDBRANCH  50  69
BRANCH  62  75
ATOM     75  C   UNL     1     -11.701  -8.067 -13.013  1.00  0.00    -0.014 A 
ATOM     76  C   UNL     1     -11.027  -7.598 -14.151  1.00  0.00     0.009 A 
ATOM     77  C   UNL     1     -12.927  -8.733 -13.172  1.00  0.00     0.009 A 
ATOM     78  C   UNL     1     -11.587  -7.765 -15.419  1.00  0.00     0.001 A 
ATOM     79  C   UNL     1     -13.467  -8.928 -14.443  1.00  0.00     0.001 A 
ATOM     80  C   UNL     1     -12.802  -8.436 -15.565  1.00  0.00     0.000 A 
ENDBRANCH  62  75
ENDBRANCH  36  37
ENDBRANCH  28  31
ENDBRANCH  26  27
ENDBRANCH   1  26
TORSDOF 13
