REMARK SMILES C[C@H]1CCC[C@H](S[C@@H]2CCC[C@]([NH3+])(C(=O)NCCCNC(=O)c3ccc(-c4c5nc(c(-c6ccccc6)c6ccc([nH]6)c(-c6ccccc6)c6nc(c(-c7ccccc7)c7ccc4[nH]7)C=C6)C=C5)cc3)C2)C1
REMARK SMILES IDX 18 1 17 2 16 3 14 4 15 5 12 7 8 8 9 9 71 10 10 11 11 12 7 13
REMARK SMILES IDX 6 14 1 15 2 16 3 17 72 18 4 19 5 20 13 21 19 25 20 26 21 27
REMARK SMILES IDX 22 29 23 30 24 31 70 32 25 33 69 34 26 35 27 36 28 37 63 38
REMARK SMILES IDX 29 39 68 40 62 41 64 42 30 43 67 44 61 45 60 46 31 48 53 49
REMARK SMILES IDX 38 50 52 51 39 52 42 53 51 54 65 55 40 56 41 57 50 59 66 60
REMARK SMILES IDX 43 61 32 62 33 63 37 64 34 65 36 66 35 67 54 68 55 69 59 70
REMARK SMILES IDX 56 71 58 72 57 73 44 74 45 75 49 76 46 77 48 78 47 79
REMARK H PARENT 16 6 13 22 13 23 13 24 20 28 64 47 42 58
REMARK Flexibility Score: inf
ROOT
ATOM      1  C   UNL     1       4.598   3.991   4.788  1.00  0.00     0.042 C 
ENDROOT
BRANCH   1   2
ATOM      2  C   UNL     1       3.619   4.039   3.625  1.00  0.00     0.118 C 
BRANCH   2   3
ATOM      3  N   UNL     1       3.708   2.848   2.810  1.00  0.00    -0.351 N 
ATOM      4  C   UNL     1       2.866   1.800   2.627  1.00  0.00     0.281 C 
ATOM      5  O   UNL     1       3.346   0.853   1.995  1.00  0.00    -0.268 OA
ATOM      6  H   UNL     1       4.539   2.785   2.286  1.00  0.00     0.163 HD
BRANCH   4   7
ATOM      7  C   UNL     1       1.418   1.754   3.228  1.00  0.00     0.175 C 
ATOM      8  C   UNL     1      -0.712   0.273   2.985  1.00  0.00     0.053 C 
ATOM      9  C   UNL     1      -1.600   1.517   2.864  1.00  0.00     0.015 C 
ATOM     10  C   UNL     1       0.730   0.520   2.615  1.00  0.00     0.093 C 
ATOM     11  C   UNL     1      -0.904   2.816   3.299  1.00  0.00     0.008 C 
ATOM     12  C   UNL     1       0.545   2.955   2.819  1.00  0.00     0.079 C 
BRANCH   8  13
ATOM     13  S   UNL     1      -1.384  -1.255   2.148  1.00  0.00    -0.155 SA
BRANCH  13  14
ATOM     14  C   UNL     1      -1.117  -1.212   0.290  1.00  0.00     0.047 C 
ATOM     15  C   UNL     1       2.476  -0.804  -1.339  1.00  0.00     0.007 C 
ATOM     16  C   UNL     1       1.208  -0.427  -0.574  1.00  0.00    -0.013 C 
ATOM     17  C   UNL     1       0.521   0.775  -1.237  1.00  0.00     0.003 C 
ATOM     18  C   UNL     1       0.255  -1.596  -0.316  1.00  0.00     0.017 C 
ATOM     19  C   UNL     1      -0.867   1.126  -0.704  1.00  0.00     0.001 C 
ATOM     20  C   UNL     1      -1.773  -0.074  -0.486  1.00  0.00     0.014 C 
ENDBRANCH  13  14
ENDBRANCH   8  13
BRANCH   7  21
ATOM     21  N   UNL     1       1.510   1.591   4.693  1.00  0.00    -0.345 N 
ATOM     22  H   UNL     1       1.966   2.409   5.098  1.00  0.00     0.345 HD
ATOM     23  H   UNL     1       2.054   0.756   4.909  1.00  0.00     0.345 HD
ATOM     24  H   UNL     1       0.572   1.496   5.084  1.00  0.00     0.345 HD
ENDBRANCH   7  21
ENDBRANCH   4   7
ENDBRANCH   2   3
ENDBRANCH   1   2
BRANCH   1  25
ATOM     25  C   UNL     1       6.056   3.961   4.353  1.00  0.00     0.118 C 
BRANCH  25  26
ATOM     26  N   UNL     1       6.449   5.171   3.642  1.00  0.00    -0.352 N 
ATOM     27  C   UNL     1       7.176   6.255   4.070  1.00  0.00     0.251 C 
ATOM     28  H   UNL     1       6.144   5.219   2.707  1.00  0.00     0.163 HD
ATOM     29  O   UNL     1       7.186   7.285   3.405  1.00  0.00    -0.269 OA
BRANCH  27  30
ATOM     30  C   UNL     1       7.930   6.188   5.339  1.00  0.00     0.039 A 
ATOM     31  C   UNL     1       7.941   7.297   6.187  1.00  0.00     0.014 A 
ATOM     32  C   UNL     1       8.636   5.035   5.686  1.00  0.00     0.014 A 
ATOM     33  C   UNL     1       8.601   7.220   7.415  1.00  0.00     0.010 A 
ATOM     34  C   UNL     1       9.193   4.920   6.953  1.00  0.00     0.010 A 
ATOM     35  C   UNL     1       9.197   6.016   7.826  1.00  0.00    -0.014 A 
BRANCH  35  36
ATOM     36  C   UNL     1       9.847   5.883   9.154  1.00  0.00     0.031 A 
ATOM     37  C   UNL     1      11.311   5.546   9.245  1.00  0.00     0.074 A 
ATOM     38  C   UNL     1       9.107   5.998  10.274  1.00  0.00     0.049 A 
ATOM     39  N   UNL     1      12.043   5.325  10.307  1.00  0.00    -0.248 NA
ATOM     40  C   UNL     1      12.043   5.407   7.974  1.00  0.00     0.031 C 
ATOM     41  C   UNL     1       7.669   6.277  10.319  1.00  0.00     0.029 A 
ATOM     42  N   UNL     1       9.464   5.891  11.594  1.00  0.00    -0.354 N 
ATOM     43  C   UNL     1      13.308   5.003   9.832  1.00  0.00     0.074 A 
ATOM     44  C   UNL     1      13.231   4.995   8.389  1.00  0.00     0.031 C 
ATOM     45  C   UNL     1       7.277   6.356  11.601  1.00  0.00     0.029 A 
ATOM     46  C   UNL     1       8.420   6.087  12.465  1.00  0.00     0.049 A 
ATOM     47  H   UNL     1      10.382   5.692  11.889  1.00  0.00     0.167 HD
ATOM     48  C   UNL     1      14.441   4.760  10.533  1.00  0.00     0.031 A 
ATOM     49  C   UNL     1       8.386   6.049  13.811  1.00  0.00     0.031 A 
ATOM     50  C   UNL     1      14.520   4.781  11.968  1.00  0.00     0.049 A 
ATOM     51  C   UNL     1       9.655   5.762  14.565  1.00  0.00     0.074 A 
ATOM     52  C   UNL     1      15.631   4.606  12.773  1.00  0.00     0.029 A 
ATOM     53  N   UNL     1      13.440   4.990  12.812  1.00  0.00    -0.354 N 
ATOM     54  N   UNL     1      10.859   5.532  14.101  1.00  0.00    -0.248 NA
ATOM     55  C   UNL     1       9.560   5.743  16.031  1.00  0.00     0.031 C 
ATOM     56  C   UNL     1      15.214   4.652  14.107  1.00  0.00     0.029 A 
ATOM     57  C   UNL     1      13.855   4.922  14.132  1.00  0.00     0.049 A 
ATOM     58  H   UNL     1      12.517   5.162  12.518  1.00  0.00     0.167 HD
ATOM     59  C   UNL     1      11.671   5.371  15.216  1.00  0.00     0.074 A 
ATOM     60  C   UNL     1      10.825   5.549  16.379  1.00  0.00     0.031 C 
ATOM     61  C   UNL     1      12.998   5.102  15.275  1.00  0.00     0.031 A 
BRANCH  48  62
ATOM     62  C   UNL     1      15.687   4.445   9.749  1.00  0.00    -0.014 A 
ATOM     63  C   UNL     1      16.320   5.422   8.964  1.00  0.00     0.009 A 
ATOM     64  C   UNL     1      16.253   3.163   9.822  1.00  0.00     0.009 A 
ATOM     65  C   UNL     1      17.471   5.110   8.236  1.00  0.00     0.001 A 
ATOM     66  C   UNL     1      17.422   2.863   9.120  1.00  0.00     0.001 A 
ATOM     67  C   UNL     1      18.024   3.833   8.320  1.00  0.00     0.000 A 
ENDBRANCH  48  62
BRANCH  49  68
ATOM     68  C   UNL     1       7.113   6.305  14.535  1.00  0.00    -0.014 A 
ATOM     69  C   UNL     1       6.949   7.473  15.296  1.00  0.00     0.009 A 
ATOM     70  C   UNL     1       6.059   5.380  14.479  1.00  0.00     0.009 A 
ATOM     71  C   UNL     1       5.769   7.693  16.011  1.00  0.00     0.001 A 
ATOM     72  C   UNL     1       4.868   5.618  15.168  1.00  0.00     0.001 A 
ATOM     73  C   UNL     1       4.728   6.768  15.943  1.00  0.00     0.000 A 
ENDBRANCH  49  68
BRANCH  61  74
ATOM     74  C   UNL     1      13.624   5.023  16.639  1.00  0.00    -0.014 A 
ATOM     75  C   UNL     1      13.362   3.949  17.504  1.00  0.00     0.009 A 
ATOM     76  C   UNL     1      14.522   6.022  17.047  1.00  0.00     0.009 A 
ATOM     77  C   UNL     1      13.959   3.898  18.765  1.00  0.00     0.001 A 
ATOM     78  C   UNL     1      15.143   5.951  18.294  1.00  0.00     0.001 A 
ATOM     79  C   UNL     1      14.852   4.895  19.157  1.00  0.00     0.000 A 
ENDBRANCH  61  74
ENDBRANCH  35  36
ENDBRANCH  27  30
ENDBRANCH  25  26
ENDBRANCH   1  25
TORSDOF 13
