REMARK SMILES C[C@]([NH3+])(C(=O)N1[C@@H](C(=O)NCCCNC(=O)c2ccc(-c3c4nc(c(-c5ccccc5)c5ccc([nH]5)c(-c5ccccc5)c5nc(c(-c6ccccc6)c6ccc3[nH]6)C=C5)C=C4)cc2)C[C@H]2CCCC[C@@H]21)C(F)(F)F
REMARK SMILES IDX 11 1 10 2 8 3 9 4 7 6 6 7 71 8 65 9 66 10 70 11 67 12 69 13
REMARK SMILES IDX 68 14 4 15 5 16 2 17 1 18 72 19 73 20 74 21 75 22 3 23 12 27
REMARK SMILES IDX 13 28 14 29 15 30 16 32 17 33 18 34 64 35 19 36 63 37 20 38
REMARK SMILES IDX 21 39 22 40 57 41 23 42 62 43 56 44 58 45 24 46 61 47 55 48
REMARK SMILES IDX 54 49 25 51 47 52 32 53 46 54 33 55 36 56 45 57 59 58 34 59
REMARK SMILES IDX 35 60 44 62 60 63 37 64 26 65 27 66 31 67 28 68 30 69 29 70
REMARK SMILES IDX 48 71 49 72 53 73 50 74 52 75 51 76 38 77 39 78 43 79 40 80
REMARK SMILES IDX 42 81 41 82
REMARK H PARENT 10 5 3 24 3 25 3 26 14 31 58 50 36 61
REMARK Flexibility Score: inf
ROOT
ATOM      1  C   UNL     1      -2.196   2.791   3.468  1.00  0.00     0.117 C 
ENDROOT
BRANCH   1   2
ATOM      2  N   UNL     1      -2.169   2.525   2.039  1.00  0.00    -0.354 N 
ATOM      3  C   UNL     1      -1.950   1.374   1.341  1.00  0.00     0.242 C 
ATOM      4  O   UNL     1      -1.938   1.484   0.111  1.00  0.00    -0.273 OA
ATOM      5  H   UNL     1      -2.339   3.314   1.476  1.00  0.00     0.163 HD
BRANCH   3   6
ATOM      6  C   UNL     1      -1.587   0.037   2.049  1.00  0.00     0.175 C 
ATOM      7  N   UNL     1      -1.831  -1.121   1.141  1.00  0.00    -0.322 N 
ATOM      8  C   UNL     1      -3.035  -1.825   1.565  1.00  0.00     0.089 C 
ATOM      9  C   UNL     1      -2.528  -0.230   3.243  1.00  0.00     0.041 C 
ATOM     10  C   UNL     1      -2.934  -1.673   3.079  1.00  0.00     0.014 C 
ATOM     11  C   UNL     1      -3.179  -3.318   1.266  1.00  0.00     0.025 C 
ATOM     12  C   UNL     1      -4.216  -2.087   3.772  1.00  0.00     0.006 C 
ATOM     13  C   UNL     1      -4.415  -3.887   1.984  1.00  0.00     0.002 C 
ATOM     14  C   UNL     1      -4.464  -3.567   3.483  1.00  0.00     0.000 C 
BRANCH   7  15
ATOM     15  C   UNL     1      -1.225  -1.404  -0.077  1.00  0.00     0.294 C 
ATOM     16  O   UNL     1      -1.908  -1.880  -0.987  1.00  0.00    -0.267 OA
BRANCH  15  17
ATOM     17  C   UNL     1       0.314  -1.257  -0.225  1.00  0.00     0.267 C 
ATOM     18  C   UNL     1       1.002  -2.052   0.898  1.00  0.00     0.100 C 
BRANCH  17  19
ATOM     19  C   UNL     1       0.697  -1.933  -1.579  1.00  0.00     0.453 C 
ATOM     20  F   UNL     1       0.194  -1.275  -2.649  1.00  0.00    -0.164 F 
ATOM     21  F   UNL     1       2.050  -1.939  -1.738  1.00  0.00    -0.164 F 
ATOM     22  F   UNL     1       0.311  -3.228  -1.649  1.00  0.00    -0.164 F 
ENDBRANCH  17  19
BRANCH  17  23
ATOM     23  N   UNL     1       0.755   0.174  -0.164  1.00  0.00    -0.337 N 
ATOM     24  H   UNL     1       0.300   0.702  -0.909  1.00  0.00     0.345 HD
ATOM     25  H   UNL     1       1.767   0.223  -0.283  1.00  0.00     0.345 HD
ATOM     26  H   UNL     1       0.499   0.571   0.740  1.00  0.00     0.345 HD
ENDBRANCH  17  23
ENDBRANCH  15  17
ENDBRANCH   7  15
ENDBRANCH   3   6
ENDBRANCH   1   2
BRANCH   1  27
ATOM     27  C   UNL     1      -1.379   4.011   3.858  1.00  0.00     0.042 C 
BRANCH  27  28
ATOM     28  C   UNL     1      -1.913   5.322   3.301  1.00  0.00     0.118 C 
BRANCH  28  29
ATOM     29  N   UNL     1      -3.173   5.731   3.911  1.00  0.00    -0.352 N 
ATOM     30  C   UNL     1      -3.440   6.691   4.859  1.00  0.00     0.251 C 
ATOM     31  H   UNL     1      -3.963   5.238   3.591  1.00  0.00     0.163 HD
ATOM     32  O   UNL     1      -4.558   6.755   5.362  1.00  0.00    -0.269 OA
BRANCH  30  33
ATOM     33  C   UNL     1      -2.378   7.616   5.312  1.00  0.00     0.039 A 
ATOM     34  C   UNL     1      -2.244   7.878   6.679  1.00  0.00     0.014 A 
ATOM     35  C   UNL     1      -1.504   8.211   4.402  1.00  0.00     0.014 A 
ATOM     36  C   UNL     1      -1.162   8.633   7.138  1.00  0.00     0.010 A 
ATOM     37  C   UNL     1      -0.374   8.877   4.864  1.00  0.00     0.010 A 
ATOM     38  C   UNL     1      -0.181   9.079   6.238  1.00  0.00    -0.014 A 
BRANCH  38  39
ATOM     39  C   UNL     1       1.079   9.713   6.704  1.00  0.00     0.031 A 
ATOM     40  C   UNL     1       1.431  11.110   6.273  1.00  0.00     0.074 A 
ATOM     41  C   UNL     1       1.958   8.988   7.424  1.00  0.00     0.049 A 
ATOM     42  N   UNL     1       2.541  11.776   6.465  1.00  0.00    -0.248 NA
ATOM     43  C   UNL     1       0.414  11.842   5.502  1.00  0.00     0.031 C 
ATOM     44  C   UNL     1       1.756   7.609   7.875  1.00  0.00     0.029 A 
ATOM     45  N   UNL     1       3.211   9.305   7.889  1.00  0.00    -0.354 N 
ATOM     46  C   UNL     1       2.363  12.995   5.823  1.00  0.00     0.074 A 
ATOM     47  C   UNL     1       1.059  12.959   5.198  1.00  0.00     0.031 C 
ATOM     48  C   UNL     1       2.834   7.208   8.567  1.00  0.00     0.029 A 
ATOM     49  C   UNL     1       3.825   8.277   8.562  1.00  0.00     0.049 A 
ATOM     50  H   UNL     1       3.629  10.186   7.753  1.00  0.00     0.167 HD
ATOM     51  C   UNL     1       3.204  14.055   5.771  1.00  0.00     0.031 A 
ATOM     52  C   UNL     1       5.058   8.192   9.098  1.00  0.00     0.031 A 
ATOM     53  C   UNL     1       4.497  14.094   6.399  1.00  0.00     0.049 A 
ATOM     54  C   UNL     1       5.988   9.366   8.989  1.00  0.00     0.074 A 
ATOM     55  C   UNL     1       5.393  15.147   6.462  1.00  0.00     0.029 A 
ATOM     56  N   UNL     1       5.083  13.029   7.066  1.00  0.00    -0.354 N 
ATOM     57  N   UNL     1       5.776  10.538   8.441  1.00  0.00    -0.248 NA
ATOM     58  C   UNL     1       7.329   9.205   9.569  1.00  0.00     0.031 C 
ATOM     59  C   UNL     1       6.546  14.701   7.115  1.00  0.00     0.029 A 
ATOM     60  C   UNL     1       6.345  13.387   7.508  1.00  0.00     0.049 A 
ATOM     61  H   UNL     1       4.664  12.149   7.205  1.00  0.00     0.167 HD
ATOM     62  C   UNL     1       6.949  11.259   8.624  1.00  0.00     0.074 A 
ATOM     63  C   UNL     1       7.861  10.400   9.352  1.00  0.00     0.031 C 
ATOM     64  C   UNL     1       7.244  12.519   8.223  1.00  0.00     0.031 A 
BRANCH  51  65
ATOM     65  C   UNL     1       2.753  15.262   4.996  1.00  0.00    -0.014 A 
ATOM     66  C   UNL     1       1.715  16.083   5.466  1.00  0.00     0.009 A 
ATOM     67  C   UNL     1       3.403  15.607   3.801  1.00  0.00     0.009 A 
ATOM     68  C   UNL     1       1.314  17.203   4.736  1.00  0.00     0.001 A 
ATOM     69  C   UNL     1       3.019  16.744   3.088  1.00  0.00     0.001 A 
ATOM     70  C   UNL     1       1.969  17.536   3.551  1.00  0.00     0.000 A 
ENDBRANCH  51  65
BRANCH  52  71
ATOM     71  C   UNL     1       5.491   6.942   9.776  1.00  0.00    -0.014 A 
ATOM     72  C   UNL     1       5.666   6.912  11.168  1.00  0.00     0.009 A 
ATOM     73  C   UNL     1       5.734   5.773   9.037  1.00  0.00     0.009 A 
ATOM     74  C   UNL     1       6.098   5.745  11.802  1.00  0.00     0.001 A 
ATOM     75  C   UNL     1       6.138   4.600   9.677  1.00  0.00     0.001 A 
ATOM     76  C   UNL     1       6.328   4.589  11.058  1.00  0.00     0.000 A 
ENDBRANCH  52  71
BRANCH  64  77
ATOM     77  C   UNL     1       8.604  13.051   8.571  1.00  0.00    -0.014 A 
ATOM     78  C   UNL     1       9.751  12.604   7.896  1.00  0.00     0.009 A 
ATOM     79  C   UNL     1       8.734  14.052   9.546  1.00  0.00     0.009 A 
ATOM     80  C   UNL     1      11.004  13.134   8.208  1.00  0.00     0.001 A 
ATOM     81  C   UNL     1       9.984  14.600   9.836  1.00  0.00     0.001 A 
ATOM     82  C   UNL     1      11.118  14.136   9.172  1.00  0.00     0.000 A 
ENDBRANCH  64  77
ENDBRANCH  38  39
ENDBRANCH  30  33
ENDBRANCH  28  29
ENDBRANCH  27  28
ENDBRANCH   1  27
TORSDOF 14
