REMARK SMILES N#Cc1cccnc1N1CC[NH+]([C@@H](C(=O)NCCCNC(=O)c2ccc(-c3c4nc(c(-c5ccccc5)c5ccc([nH]5)c(-c5ccccc5)c5nc(c(-c6ccccc6)c6ccc3[nH]6)C=C5)C=C4)cc2)c2c[nH]c3cc(CO)ccc23)CC1
REMARK SMILES IDX 17 1 16 2 14 3 15 4 13 6 12 7 9 8 10 9 83 10 11 11 82 12
REMARK SMILES IDX 8 14 3 15 4 16 5 17 7 18 6 19 2 20 1 21 71 22 72 23 81 24
REMARK SMILES IDX 73 25 74 26 80 27 75 29 79 30 76 31 77 32 78 33 18 35 19 36
REMARK SMILES IDX 20 37 21 38 22 40 23 41 24 42 70 43 25 44 69 45 26 46 27 47
REMARK SMILES IDX 28 48 63 49 29 50 68 51 62 52 64 53 30 54 67 55 61 56 60 57
REMARK SMILES IDX 31 59 53 60 38 61 52 62 39 63 42 64 51 65 65 66 40 67 41 68
REMARK SMILES IDX 50 70 66 71 43 72 32 73 33 74 37 75 34 76 36 77 35 78 54 79
REMARK SMILES IDX 55 80 59 81 56 82 58 83 57 84 44 85 45 86 49 87 46 88 48 89
REMARK SMILES IDX 47 90
REMARK H PARENT 16 5 12 13 73 28 78 34 20 39 64 58 42 69
REMARK Flexibility Score: inf
ROOT
ATOM      1  C   UNL     1       1.232  -4.463   2.982  1.00  0.00     0.118 C 
ENDROOT
BRANCH   1   2
ATOM      2  N   UNL     1      -0.001  -4.384   2.194  1.00  0.00    -0.351 N 
ATOM      3  C   UNL     1      -0.443  -4.752   0.942  1.00  0.00     0.283 C 
ATOM      4  O   UNL     1      -1.661  -4.577   0.806  1.00  0.00    -0.268 OA
ATOM      5  H   UNL     1      -0.717  -3.942   2.704  1.00  0.00     0.163 HD
BRANCH   3   6
ATOM      6  C   UNL     1       0.442  -5.385  -0.185  1.00  0.00     0.307 C 
BRANCH   6   7
ATOM      7  N   UNL     1       1.476  -4.487  -0.858  1.00  0.00    -0.318 N 
ATOM      8  N   UNL     1       0.715  -1.618  -0.922  1.00  0.00    -0.344 N 
ATOM      9  C   UNL     1       0.088  -2.601  -1.812  1.00  0.00     0.179 C 
ATOM     10  C   UNL     1       1.358  -2.189   0.269  1.00  0.00     0.179 C 
ATOM     11  C   UNL     1       1.099  -3.723  -2.068  1.00  0.00     0.284 C 
ATOM     12  C   UNL     1       2.155  -3.498  -0.019  1.00  0.00     0.284 C 
ATOM     13  H   UNL     1       2.082  -5.267  -1.112  1.00  0.00     0.349 HD
BRANCH   8  14
ATOM     14  C   UNL     1      -0.068  -0.488  -0.666  1.00  0.00     0.146 A 
ATOM     15  C   UNL     1       0.515   0.766  -0.462  1.00  0.00     0.095 A 
ATOM     16  C   UNL     1      -0.311   1.869  -0.225  1.00  0.00     0.025 A 
ATOM     17  C   UNL     1      -1.688   1.695  -0.144  1.00  0.00     0.022 A 
ATOM     18  N   UNL     1      -1.415  -0.648  -0.607  1.00  0.00    -0.238 NA
ATOM     19  C   UNL     1      -2.189   0.425  -0.338  1.00  0.00     0.113 A 
BRANCH  15  20
ATOM     20  C   UNL     1       1.941   0.943  -0.491  1.00  0.00     0.103 C 
ATOM     21  N   UNL     1       3.084   1.080  -0.456  1.00  0.00    -0.192 NA
ENDBRANCH  15  20
ENDBRANCH   8  14
ENDBRANCH   6   7
BRANCH   6  22
ATOM     22  C   UNL     1      -0.343  -6.140  -1.315  1.00  0.00     0.044 A 
ATOM     23  C   UNL     1       0.115  -7.248  -2.022  1.00  0.00     0.094 A 
ATOM     24  C   UNL     1      -1.419  -5.683  -2.163  1.00  0.00     0.009 A 
ATOM     25  N   UNL     1       0.035  -6.845  -3.343  1.00  0.00    -0.361 N 
ATOM     26  C   UNL     1      -0.913  -5.853  -3.456  1.00  0.00     0.046 A 
ATOM     27  C   UNL     1      -2.603  -4.940  -2.026  1.00  0.00     0.011 A 
ATOM     28  H   UNL     1       0.571  -7.209  -4.084  1.00  0.00     0.166 HD
ATOM     29  C   UNL     1      -1.270  -5.007  -4.518  1.00  0.00     0.032 A 
ATOM     30  C   UNL     1      -3.081  -4.209  -3.119  1.00  0.00     0.007 A 
ATOM     31  C   UNL     1      -2.325  -4.108  -4.293  1.00  0.00    -0.021 A 
BRANCH  31  32
ATOM     32  C   UNL     1      -2.614  -2.996  -5.271  1.00  0.00     0.191 C 
BRANCH  32  33
ATOM     33  O   UNL     1      -2.627  -1.724  -4.619  1.00  0.00    -0.392 OA
ATOM     34  H   UNL     1      -3.322  -1.715  -3.942  1.00  0.00     0.211 HD
ENDBRANCH  32  33
ENDBRANCH  31  32
ENDBRANCH   6  22
ENDBRANCH   3   6
ENDBRANCH   1   2
BRANCH   1  35
ATOM     35  C   UNL     1       1.929  -3.114   3.341  1.00  0.00     0.042 C 
BRANCH  35  36
ATOM     36  C   UNL     1       1.052  -1.865   3.575  1.00  0.00     0.118 C 
BRANCH  36  37
ATOM     37  N   UNL     1       1.115  -1.398   4.948  1.00  0.00    -0.352 N 
ATOM     38  C   UNL     1       1.401  -0.157   5.466  1.00  0.00     0.251 C 
ATOM     39  H   UNL     1       0.920  -2.087   5.624  1.00  0.00     0.163 HD
ATOM     40  O   UNL     1       1.596  -0.058   6.676  1.00  0.00    -0.269 OA
BRANCH  38  41
ATOM     41  C   UNL     1       1.474   1.075   4.633  1.00  0.00     0.039 A 
ATOM     42  C   UNL     1       2.470   2.018   4.929  1.00  0.00     0.014 A 
ATOM     43  C   UNL     1       0.494   1.402   3.695  1.00  0.00     0.014 A 
ATOM     44  C   UNL     1       2.503   3.260   4.275  1.00  0.00     0.010 A 
ATOM     45  C   UNL     1       0.538   2.643   3.036  1.00  0.00     0.010 A 
ATOM     46  C   UNL     1       1.544   3.588   3.306  1.00  0.00    -0.014 A 
BRANCH  46  47
ATOM     47  C   UNL     1       1.585   4.902   2.590  1.00  0.00     0.031 A 
ATOM     48  C   UNL     1       0.475   5.915   2.743  1.00  0.00     0.074 A 
ATOM     49  C   UNL     1       2.614   5.196   1.766  1.00  0.00     0.049 A 
ATOM     50  N   UNL     1       0.338   7.089   2.171  1.00  0.00    -0.248 NA
ATOM     51  C   UNL     1      -0.634   5.555   3.636  1.00  0.00     0.031 C 
ATOM     52  C   UNL     1       3.751   4.318   1.489  1.00  0.00     0.029 A 
ATOM     53  N   UNL     1       2.870   6.317   1.009  1.00  0.00    -0.354 N 
ATOM     54  C   UNL     1      -0.874   7.599   2.625  1.00  0.00     0.074 A 
ATOM     55  C   UNL     1      -1.454   6.585   3.481  1.00  0.00     0.031 C 
ATOM     56  C   UNL     1       4.596   4.943   0.653  1.00  0.00     0.029 A 
ATOM     57  C   UNL     1       4.046   6.247   0.297  1.00  0.00     0.049 A 
ATOM     58  H   UNL     1       2.269   7.096   0.979  1.00  0.00     0.167 HD
ATOM     59  C   UNL     1      -1.448   8.802   2.373  1.00  0.00     0.031 A 
ATOM     60  C   UNL     1       4.619   7.123  -0.554  1.00  0.00     0.031 A 
ATOM     61  C   UNL     1      -0.880   9.827   1.534  1.00  0.00     0.049 A 
ATOM     62  C   UNL     1       3.947   8.438  -0.843  1.00  0.00     0.074 A 
ATOM     63  C   UNL     1      -1.375  11.094   1.266  1.00  0.00     0.029 A 
ATOM     64  N   UNL     1       0.305   9.707   0.826  1.00  0.00    -0.354 N 
ATOM     65  N   UNL     1       2.829   8.921  -0.359  1.00  0.00    -0.248 NA
ATOM     66  C   UNL     1       4.625   9.334  -1.794  1.00  0.00     0.031 C 
ATOM     67  C   UNL     1      -0.520  11.717   0.351  1.00  0.00     0.029 A 
ATOM     68  C   UNL     1       0.541  10.864   0.099  1.00  0.00     0.049 A 
ATOM     69  H   UNL     1       0.892   8.918   0.837  1.00  0.00     0.167 HD
ATOM     70  C   UNL     1       2.686  10.184  -0.921  1.00  0.00     0.074 A 
ATOM     71  C   UNL     1       3.838  10.401  -1.770  1.00  0.00     0.031 C 
ATOM     72  C   UNL     1       1.687  11.083  -0.745  1.00  0.00     0.031 A 
BRANCH  59  73
ATOM     73  C   UNL     1      -2.786   9.080   3.009  1.00  0.00    -0.014 A 
ATOM     74  C   UNL     1      -2.908   9.283   4.393  1.00  0.00     0.009 A 
ATOM     75  C   UNL     1      -3.933   9.187   2.206  1.00  0.00     0.009 A 
ATOM     76  C   UNL     1      -4.156   9.544   4.963  1.00  0.00     0.001 A 
ATOM     77  C   UNL     1      -5.174   9.480   2.775  1.00  0.00     0.001 A 
ATOM     78  C   UNL     1      -5.287   9.646   4.154  1.00  0.00     0.000 A 
ENDBRANCH  59  73
BRANCH  60  79
ATOM     79  C   UNL     1       5.918   6.791  -1.203  1.00  0.00    -0.014 A 
ATOM     80  C   UNL     1       7.086   7.492  -0.862  1.00  0.00     0.009 A 
ATOM     81  C   UNL     1       5.992   5.787  -2.181  1.00  0.00     0.009 A 
ATOM     82  C   UNL     1       8.294   7.212  -1.505  1.00  0.00     0.001 A 
ATOM     83  C   UNL     1       7.208   5.487  -2.799  1.00  0.00     0.001 A 
ATOM     84  C   UNL     1       8.356   6.207  -2.469  1.00  0.00     0.000 A 
ENDBRANCH  60  79
BRANCH  72  85
ATOM     85  C   UNL     1       1.810  12.407  -1.450  1.00  0.00    -0.014 A 
ATOM     86  C   UNL     1       1.654  12.515  -2.841  1.00  0.00     0.009 A 
ATOM     87  C   UNL     1       2.047  13.572  -0.703  1.00  0.00     0.009 A 
ATOM     88  C   UNL     1       1.766  13.757  -3.471  1.00  0.00     0.001 A 
ATOM     89  C   UNL     1       2.129  14.816  -1.332  1.00  0.00     0.001 A 
ATOM     90  C   UNL     1       1.998  14.906  -2.716  1.00  0.00     0.000 A 
ENDBRANCH  72  85
ENDBRANCH  46  47
ENDBRANCH  38  41
ENDBRANCH  36  37
ENDBRANCH  35  36
ENDBRANCH   1  35
TORSDOF 16
