REMARK SMILES Nc1c(N2CCC(C(=O)NCCCNC(=O)c3ccc(-c4c5nc(c(-c6ccccc6)c6ccc([nH]6)c(-c6ccccc6)c6nc(c(-c7ccccc7)c7ccc4[nH]7)C=C6)C=C5)cc3)CC2)ncnc1N1CCN(c2ccccc2)CC1
REMARK SMILES IDX 11 1 10 2 8 3 9 4 7 6 4 7 5 8 66 9 6 10 65 11 3 12 2 13
REMARK SMILES IDX 70 14 67 15 69 16 68 17 1 18 71 21 72 22 82 23 73 24 81 25
REMARK SMILES IDX 74 26 75 27 76 28 80 29 77 30 79 31 78 32 12 33 13 34 14 35
REMARK SMILES IDX 15 36 16 38 17 39 18 40 64 41 19 42 63 43 20 44 21 45 22 46
REMARK SMILES IDX 57 47 23 48 62 49 56 50 58 51 24 52 61 53 55 54 54 55 25 57
REMARK SMILES IDX 47 58 32 59 46 60 33 61 36 62 45 63 59 64 34 65 35 66 44 68
REMARK SMILES IDX 60 69 37 70 26 71 27 72 31 73 28 74 30 75 29 76 48 77 49 78
REMARK SMILES IDX 53 79 50 80 52 81 51 82 38 83 39 84 43 85 40 86 42 87 41 88
REMARK H PARENT 10 5 1 19 1 20 14 37 58 56 36 67
REMARK Flexibility Score: inf
ROOT
ATOM      1  C   UNL     1      -2.781   4.609   2.692  1.00  0.00     0.117 C 
ENDROOT
BRANCH   1   2
ATOM      2  N   UNL     1      -3.255   4.047   3.950  1.00  0.00    -0.356 N 
ATOM      3  C   UNL     1      -3.232   2.771   4.424  1.00  0.00     0.223 C 
ATOM      4  O   UNL     1      -3.733   2.558   5.530  1.00  0.00    -0.275 OA
ATOM      5  H   UNL     1      -3.662   4.702   4.562  1.00  0.00     0.163 HD
BRANCH   3   6
ATOM      6  C   UNL     1      -2.594   1.642   3.635  1.00  0.00     0.082 C 
ATOM      7  N   UNL     1      -1.244   0.900   1.265  1.00  0.00    -0.355 N 
ATOM      8  C   UNL     1      -2.618   0.468   1.374  1.00  0.00     0.119 C 
ATOM      9  C   UNL     1      -0.431   0.975   2.465  1.00  0.00     0.119 C 
ATOM     10  C   UNL     1      -3.369   1.367   2.337  1.00  0.00     0.035 C 
ATOM     11  C   UNL     1      -1.085   1.882   3.491  1.00  0.00     0.035 C 
BRANCH   7  12
ATOM     12  C   UNL     1      -0.761   1.355   0.048  1.00  0.00     0.157 A 
ATOM     13  C   UNL     1       0.428   0.826  -0.469  1.00  0.00     0.118 A 
ATOM     14  C   UNL     1       0.900   1.385  -1.667  1.00  0.00     0.157 A 
ATOM     15  N   UNL     1      -1.440   2.326  -0.589  1.00  0.00    -0.217 NA
ATOM     16  N   UNL     1       0.278   2.408  -2.271  1.00  0.00    -0.217 NA
ATOM     17  C   UNL     1      -0.876   2.803  -1.712  1.00  0.00     0.226 A 
BRANCH  13  18
ATOM     18  N   UNL     1       1.084  -0.263   0.135  1.00  0.00    -0.393 N 
ATOM     19  H   UNL     1       0.738  -0.641   0.975  1.00  0.00     0.156 HD
ATOM     20  H   UNL     1       1.888  -0.647  -0.283  1.00  0.00     0.156 HD
ENDBRANCH  13  18
BRANCH  14  21
ATOM     21  N   UNL     1       2.060   0.886  -2.219  1.00  0.00    -0.351 N 
ATOM     22  C   UNL     1       3.128   1.775  -2.662  1.00  0.00     0.139 C 
ATOM     23  C   UNL     1       2.095  -0.478  -2.755  1.00  0.00     0.139 C 
ATOM     24  C   UNL     1       4.485   1.144  -2.249  1.00  0.00     0.138 C 
ATOM     25  C   UNL     1       3.442  -1.137  -2.393  1.00  0.00     0.138 C 
ATOM     26  N   UNL     1       4.565  -0.245  -2.734  1.00  0.00    -0.368 N 
BRANCH  26  27
ATOM     27  C   UNL     1       5.753  -0.793  -3.162  1.00  0.00     0.037 A 
ATOM     28  C   UNL     1       6.961  -0.596  -2.486  1.00  0.00     0.026 A 
ATOM     29  C   UNL     1       5.773  -1.559  -4.335  1.00  0.00     0.026 A 
ATOM     30  C   UNL     1       8.152  -1.147  -2.970  1.00  0.00     0.002 A 
ATOM     31  C   UNL     1       6.959  -2.095  -4.834  1.00  0.00     0.002 A 
ATOM     32  C   UNL     1       8.152  -1.890  -4.149  1.00  0.00     0.000 A 
ENDBRANCH  26  27
ENDBRANCH  14  21
ENDBRANCH   7  12
ENDBRANCH   3   6
ENDBRANCH   1   2
BRANCH   1  33
ATOM     33  C   UNL     1      -3.925   5.098   1.815  1.00  0.00     0.042 C 
BRANCH  33  34
ATOM     34  C   UNL     1      -4.715   6.242   2.431  1.00  0.00     0.118 C 
BRANCH  34  35
ATOM     35  N   UNL     1      -3.917   7.450   2.583  1.00  0.00    -0.352 N 
ATOM     36  C   UNL     1      -3.999   8.649   1.923  1.00  0.00     0.251 C 
ATOM     37  H   UNL     1      -3.209   7.399   3.266  1.00  0.00     0.163 HD
ATOM     38  O   UNL     1      -3.099   9.479   2.046  1.00  0.00    -0.269 OA
BRANCH  36  39
ATOM     39  C   UNL     1      -5.154   8.942   1.050  1.00  0.00     0.039 A 
ATOM     40  C   UNL     1      -4.931   9.565  -0.180  1.00  0.00     0.014 A 
ATOM     41  C   UNL     1      -6.454   8.620   1.446  1.00  0.00     0.014 A 
ATOM     42  C   UNL     1      -6.005   9.805  -1.038  1.00  0.00     0.010 A 
ATOM     43  C   UNL     1      -7.510   8.775   0.554  1.00  0.00     0.010 A 
ATOM     44  C   UNL     1      -7.298   9.379  -0.693  1.00  0.00    -0.014 A 
BRANCH  44  45
ATOM     45  C   UNL     1      -8.445   9.579  -1.613  1.00  0.00     0.031 A 
ATOM     46  C   UNL     1      -9.589  10.467  -1.206  1.00  0.00     0.074 A 
ATOM     47  C   UNL     1      -8.477   8.927  -2.793  1.00  0.00     0.049 A 
ATOM     48  N   UNL     1     -10.699  10.725  -1.851  1.00  0.00    -0.248 NA
ATOM     49  C   UNL     1      -9.487  11.138   0.101  1.00  0.00     0.031 C 
ATOM     50  C   UNL     1      -7.444   8.013  -3.286  1.00  0.00     0.029 A 
ATOM     51  N   UNL     1      -9.418   8.932  -3.792  1.00  0.00    -0.354 N 
ATOM     52  C   UNL     1     -11.425  11.574  -1.026  1.00  0.00     0.074 A 
ATOM     53  C   UNL     1     -10.659  11.751   0.187  1.00  0.00     0.031 C 
ATOM     54  C   UNL     1      -7.794   7.569  -4.504  1.00  0.00     0.029 A 
ATOM     55  C   UNL     1      -9.094   8.129  -4.860  1.00  0.00     0.049 A 
ATOM     56  H   UNL     1     -10.248   9.460  -3.749  1.00  0.00     0.167 HD
ATOM     57  C   UNL     1     -12.614  12.173  -1.268  1.00  0.00     0.031 A 
ATOM     58  C   UNL     1      -9.771   7.866  -5.995  1.00  0.00     0.031 A 
ATOM     59  C   UNL     1     -13.363  12.018  -2.485  1.00  0.00     0.049 A 
ATOM     60  C   UNL     1     -11.101   8.530  -6.224  1.00  0.00     0.074 A 
ATOM     61  C   UNL     1     -14.550  12.632  -2.842  1.00  0.00     0.029 A 
ATOM     62  N   UNL     1     -12.999  11.196  -3.538  1.00  0.00    -0.354 N 
ATOM     63  N   UNL     1     -11.740   9.384  -5.462  1.00  0.00    -0.248 NA
ATOM     64  C   UNL     1     -11.802   8.201  -7.475  1.00  0.00     0.031 C 
ATOM     65  C   UNL     1     -14.937  12.135  -4.088  1.00  0.00     0.029 A 
ATOM     66  C   UNL     1     -13.957  11.264  -4.535  1.00  0.00     0.049 A 
ATOM     67  H   UNL     1     -12.183  10.646  -3.573  1.00  0.00     0.167 HD
ATOM     68  C   UNL     1     -12.901   9.712  -6.150  1.00  0.00     0.074 A 
ATOM     69  C   UNL     1     -12.869   8.985  -7.401  1.00  0.00     0.031 C 
ATOM     70  C   UNL     1     -13.907  10.539  -5.777  1.00  0.00     0.031 A 
BRANCH  57  71
ATOM     71  C   UNL     1     -13.186  13.071  -0.209  1.00  0.00    -0.014 A 
ATOM     72  C   UNL     1     -12.637  14.338   0.038  1.00  0.00     0.009 A 
ATOM     73  C   UNL     1     -14.358  12.693   0.467  1.00  0.00     0.009 A 
ATOM     74  C   UNL     1     -13.248  15.208   0.944  1.00  0.00     0.001 A 
ATOM     75  C   UNL     1     -14.980  13.574   1.351  1.00  0.00     0.001 A 
ATOM     76  C   UNL     1     -14.424  14.830   1.590  1.00  0.00     0.000 A 
ENDBRANCH  57  71
BRANCH  58  77
ATOM     77  C   UNL     1      -9.207   6.930  -7.005  1.00  0.00    -0.014 A 
ATOM     78  C   UNL     1      -8.798   7.395  -8.264  1.00  0.00     0.009 A 
ATOM     79  C   UNL     1      -9.090   5.559  -6.721  1.00  0.00     0.009 A 
ATOM     80  C   UNL     1      -8.316   6.505  -9.227  1.00  0.00     0.001 A 
ATOM     81  C   UNL     1      -8.575   4.677  -7.673  1.00  0.00     0.001 A 
ATOM     82  C   UNL     1      -8.200   5.148  -8.929  1.00  0.00     0.000 A 
ENDBRANCH  58  77
BRANCH  70  83
ATOM     83  C   UNL     1     -15.049  10.727  -6.734  1.00  0.00    -0.014 A 
ATOM     84  C   UNL     1     -15.988   9.708  -6.953  1.00  0.00     0.009 A 
ATOM     85  C   UNL     1     -15.234  11.971  -7.360  1.00  0.00     0.009 A 
ATOM     86  C   UNL     1     -17.078   9.925  -7.798  1.00  0.00     0.001 A 
ATOM     87  C   UNL     1     -16.342  12.194  -8.178  1.00  0.00     0.001 A 
ATOM     88  C   UNL     1     -17.259  11.169  -8.401  1.00  0.00     0.000 A 
ENDBRANCH  70  83
ENDBRANCH  44  45
ENDBRANCH  36  39
ENDBRANCH  34  35
ENDBRANCH  33  34
ENDBRANCH   1  33
TORSDOF 14
