REMARK SMILES Cc1cccc(-c2noc(C[N@@H+](C)Cc3ncccc3C(=O)NCCCNC(=O)c3ccc(-c4c5nc(c(-c6ccccc6)c6ccc([nH]6)c(-c6ccccc6)c6nc(c(-c7ccccc7)c7ccc4[nH]7)C=C6)C=C5)cc3)n2)c1
REMARK SMILES IDX 21 1 22 2 23 3 20 5 15 6 16 7 17 8 19 9 18 10 14 11 12 12
REMARK SMILES IDX 13 13 11 15 10 16 7 17 8 18 78 19 9 20 6 21 1 22 2 23 3 24
REMARK SMILES IDX 79 25 4 26 5 27 24 28 25 29 26 30 27 31 28 32 29 34 30 35
REMARK SMILES IDX 31 36 77 37 32 38 76 39 33 40 34 41 35 42 70 43 36 44 75 45
REMARK SMILES IDX 69 46 71 47 37 48 74 49 68 50 67 51 38 53 60 54 45 55 59 56
REMARK SMILES IDX 46 57 49 58 58 59 72 60 47 61 48 62 57 64 73 65 50 66 39 67
REMARK SMILES IDX 40 68 44 69 41 70 43 71 42 72 61 73 62 74 66 75 63 76 65 77
REMARK SMILES IDX 64 78 51 79 52 80 56 81 53 82 55 83 54 84
REMARK H PARENT 23 4 12 14 27 33 71 52 49 63
REMARK Flexibility Score: inf
ROOT
ATOM      1  C   UNL     1      -3.609   2.292  -3.924  1.00  0.00     0.253 C 
ATOM      2  O   UNL     1      -4.016   2.154  -2.773  1.00  0.00    -0.269 OA
ATOM      3  N   UNL     1      -3.553   1.125  -4.656  1.00  0.00    -0.352 N 
ATOM      4  H   UNL     1      -3.832   0.334  -4.140  1.00  0.00     0.163 HD
ENDROOT
BRANCH   1   5
ATOM      5  C   UNL     1      -3.240   3.648  -4.453  1.00  0.00     0.067 A 
ATOM      6  C   UNL     1      -3.742   4.852  -3.920  1.00  0.00     0.107 A 
ATOM      7  N   UNL     1      -3.463   6.067  -4.500  1.00  0.00    -0.254 NA
ATOM      8  C   UNL     1      -2.616   6.130  -5.540  1.00  0.00     0.111 A 
ATOM      9  C   UNL     1      -2.318   3.785  -5.502  1.00  0.00     0.017 A 
ATOM     10  C   UNL     1      -2.001   5.021  -6.058  1.00  0.00     0.021 A 
BRANCH   6  11
ATOM     11  C   UNL     1      -4.626   4.973  -2.681  1.00  0.00     0.320 C 
BRANCH  11  12
ATOM     12  N   UNL     1      -4.204   5.945  -1.632  1.00  0.00    -0.325 N 
ATOM     13  C   UNL     1      -4.458   7.334  -2.003  1.00  0.00     0.333 C 
ATOM     14  H   UNL     1      -4.798   5.727  -0.832  1.00  0.00     0.348 HD
BRANCH  12  15
ATOM     15  C   UNL     1      -2.804   5.769  -1.191  1.00  0.00     0.364 C 
BRANCH  15  16
ATOM     16  C   UNL     1      -2.509   4.436  -0.586  1.00  0.00     0.282 A 
ATOM     17  C   UNL     1      -1.888   2.511  -0.044  1.00  0.00     0.202 A 
ATOM     18  N   UNL     1      -2.892   2.769   0.809  1.00  0.00    -0.057 NA
ATOM     19  N   UNL     1      -1.583   3.552  -0.896  1.00  0.00    -0.186 NA
ATOM     20  O   UNL     1      -3.305   4.048   0.451  1.00  0.00    -0.333 OA
BRANCH  17  21
ATOM     21  C   UNL     1      -1.165   1.250  -0.054  1.00  0.00     0.023 A 
ATOM     22  C   UNL     1       2.437  -0.008  -0.113  1.00  0.00     0.044 C 
ATOM     23  C   UNL     1       0.938   0.018  -0.082  1.00  0.00    -0.050 A 
ATOM     24  C   UNL     1       0.222  -1.183   0.024  1.00  0.00     0.003 A 
ATOM     25  C   UNL     1       0.235   1.231  -0.138  1.00  0.00     0.015 A 
ATOM     26  C   UNL     1      -1.171  -1.173   0.087  1.00  0.00     0.001 A 
ATOM     27  C   UNL     1      -1.861   0.038   0.054  1.00  0.00     0.012 A 
ENDBRANCH  17  21
ENDBRANCH  15  16
ENDBRANCH  12  15
ENDBRANCH  11  12
ENDBRANCH   6  11
ENDBRANCH   1   5
BRANCH   3  28
ATOM     28  C   UNL     1      -3.173   0.804  -6.025  1.00  0.00     0.118 C 
BRANCH  28  29
ATOM     29  C   UNL     1      -1.684   0.469  -6.127  1.00  0.00     0.042 C 
BRANCH  29  30
ATOM     30  C   UNL     1      -1.353  -0.984  -5.824  1.00  0.00     0.118 C 
BRANCH  30  31
ATOM     31  N   UNL     1      -1.136  -1.804  -7.013  1.00  0.00    -0.352 N 
ATOM     32  C   UNL     1      -0.835  -3.158  -7.082  1.00  0.00     0.251 C 
ATOM     33  H   UNL     1      -1.212  -1.337  -7.877  1.00  0.00     0.163 HD
ATOM     34  O   UNL     1      -0.709  -3.720  -8.152  1.00  0.00    -0.269 OA
BRANCH  32  35
ATOM     35  C   UNL     1      -0.808  -3.926  -5.815  1.00  0.00     0.039 A 
ATOM     36  C   UNL     1      -1.716  -4.980  -5.689  1.00  0.00     0.014 A 
ATOM     37  C   UNL     1      -0.143  -3.415  -4.703  1.00  0.00     0.014 A 
ATOM     38  C   UNL     1      -2.162  -5.331  -4.420  1.00  0.00     0.010 A 
ATOM     39  C   UNL     1      -0.661  -3.687  -3.452  1.00  0.00     0.010 A 
ATOM     40  C   UNL     1      -1.726  -4.586  -3.324  1.00  0.00    -0.014 A 
BRANCH  40  41
ATOM     41  C   UNL     1      -2.444  -4.575  -2.054  1.00  0.00     0.031 A 
ATOM     42  C   UNL     1      -1.879  -5.239  -0.866  1.00  0.00     0.074 A 
ATOM     43  C   UNL     1      -3.646  -3.964  -1.959  1.00  0.00     0.049 A 
ATOM     44  N   UNL     1      -2.588  -5.713   0.103  1.00  0.00    -0.248 NA
ATOM     45  C   UNL     1      -0.452  -5.490  -0.713  1.00  0.00     0.031 C 
ATOM     46  C   UNL     1      -4.394  -3.652  -0.745  1.00  0.00     0.029 A 
ATOM     47  N   UNL     1      -4.542  -3.694  -2.983  1.00  0.00    -0.354 N 
ATOM     48  C   UNL     1      -1.727  -6.051   1.119  1.00  0.00     0.074 A 
ATOM     49  C   UNL     1      -0.412  -5.999   0.522  1.00  0.00     0.031 C 
ATOM     50  C   UNL     1      -5.684  -3.458  -1.065  1.00  0.00     0.029 A 
ATOM     51  C   UNL     1      -5.841  -3.778  -2.474  1.00  0.00     0.049 A 
ATOM     52  H   UNL     1      -4.303  -3.479  -3.914  1.00  0.00     0.167 HD
ATOM     53  C   UNL     1      -2.209  -6.189   2.386  1.00  0.00     0.031 A 
ATOM     54  C   UNL     1      -6.740  -4.678  -2.969  1.00  0.00     0.031 A 
ATOM     55  C   UNL     1      -3.670  -6.093   2.431  1.00  0.00     0.049 A 
ATOM     56  C   UNL     1      -7.202  -5.703  -1.954  1.00  0.00     0.074 A 
ATOM     57  C   UNL     1      -4.538  -5.082   2.813  1.00  0.00     0.029 A 
ATOM     58  N   UNL     1      -4.442  -7.047   1.777  1.00  0.00    -0.354 N 
ATOM     59  N   UNL     1      -6.594  -5.940  -0.825  1.00  0.00    -0.248 NA
ATOM     60  C   UNL     1      -8.355  -6.578  -2.158  1.00  0.00     0.031 C 
ATOM     61  C   UNL     1      -5.832  -5.409   2.330  1.00  0.00     0.029 A 
ATOM     62  C   UNL     1      -5.754  -6.627   1.679  1.00  0.00     0.049 A 
ATOM     63  H   UNL     1      -4.100  -7.904   1.432  1.00  0.00     0.167 HD
ATOM     64  C   UNL     1      -7.219  -6.972  -0.173  1.00  0.00     0.074 A 
ATOM     65  C   UNL     1      -8.328  -7.325  -1.039  1.00  0.00     0.031 C 
ATOM     66  C   UNL     1      -6.751  -7.458   1.014  1.00  0.00     0.031 A 
BRANCH  53  67
ATOM     67  C   UNL     1      -1.337  -6.110   3.623  1.00  0.00    -0.014 A 
ATOM     68  C   UNL     1      -1.908  -5.720   4.850  1.00  0.00     0.009 A 
ATOM     69  C   UNL     1       0.051  -6.325   3.643  1.00  0.00     0.009 A 
ATOM     70  C   UNL     1      -1.130  -5.462   5.988  1.00  0.00     0.001 A 
ATOM     71  C   UNL     1       0.841  -6.040   4.765  1.00  0.00     0.001 A 
ATOM     72  C   UNL     1       0.251  -5.594   5.937  1.00  0.00     0.000 A 
ENDBRANCH  53  67
BRANCH  54  73
ATOM     73  C   UNL     1      -6.582  -4.955  -4.422  1.00  0.00    -0.014 A 
ATOM     74  C   UNL     1      -6.894  -3.931  -5.336  1.00  0.00     0.009 A 
ATOM     75  C   UNL     1      -5.820  -6.044  -4.869  1.00  0.00     0.009 A 
ATOM     76  C   UNL     1      -6.367  -3.941  -6.631  1.00  0.00     0.001 A 
ATOM     77  C   UNL     1      -5.299  -6.054  -6.170  1.00  0.00     0.001 A 
ATOM     78  C   UNL     1      -5.545  -4.989  -7.037  1.00  0.00     0.000 A 
ENDBRANCH  54  73
BRANCH  66  79
ATOM     79  C   UNL     1      -7.215  -8.717   1.708  1.00  0.00    -0.014 A 
ATOM     80  C   UNL     1      -7.874  -9.779   1.074  1.00  0.00     0.009 A 
ATOM     81  C   UNL     1      -6.859  -8.918   3.062  1.00  0.00     0.009 A 
ATOM     82  C   UNL     1      -8.202 -10.955   1.765  1.00  0.00     0.001 A 
ATOM     83  C   UNL     1      -7.143 -10.105   3.742  1.00  0.00     0.001 A 
ATOM     84  C   UNL     1      -7.827 -11.122   3.095  1.00  0.00     0.000 A 
ENDBRANCH  66  79
ENDBRANCH  40  41
ENDBRANCH  32  35
ENDBRANCH  30  31
ENDBRANCH  29  30
ENDBRANCH  28  29
ENDBRANCH   3  28
TORSDOF 15
