REMARK SMILES Cc1nc2nc(CNC(=O)OC(C)(C)C)nn2c(C)c1CCC(=O)NCCCNC(=O)c1ccc(-c2c3nc(c(-c4ccccc4)c4ccc([nH]4)c(-c4ccccc4)c4nc(c(-c5ccccc5)c5ccc2[nH]5)C=C4)C=C3)cc1
REMARK SMILES IDX 23 1 24 2 25 3 22 5 21 6 20 7 1 8 2 9 3 10 4 11 18 12 5 13
REMARK SMILES IDX 17 14 19 15 6 16 16 17 7 18 8 19 9 20 10 22 11 23 12 24
REMARK SMILES IDX 13 25 14 26 15 27 26 28 27 29 28 30 29 31 30 32 31 34 32 35
REMARK SMILES IDX 33 36 79 37 34 38 78 39 35 40 36 41 37 42 72 43 38 44 77 45
REMARK SMILES IDX 71 46 73 47 39 48 76 49 70 50 69 51 40 53 62 54 47 55 61 56
REMARK SMILES IDX 48 57 51 58 60 59 74 60 49 61 50 62 59 64 75 65 52 66 41 67
REMARK SMILES IDX 42 68 46 69 43 70 45 71 44 72 63 73 64 74 68 75 65 76 67 77
REMARK SMILES IDX 66 78 53 79 54 80 58 81 55 82 57 83 56 84
REMARK H PARENT 25 4 8 21 29 33 73 52 51 63
REMARK Flexibility Score: inf
ROOT
ATOM      1  C   UNL     1      -2.417  -1.616  -3.000  1.00  0.00     0.220 C 
ATOM      2  O   UNL     1      -2.517  -2.616  -3.720  1.00  0.00    -0.275 OA
ATOM      3  N   UNL     1      -3.010  -0.455  -3.429  1.00  0.00    -0.356 N 
ATOM      4  H   UNL     1      -3.341  -0.526  -4.353  1.00  0.00     0.163 HD
ENDROOT
BRANCH   1   5
ATOM      5  C   UNL     1      -1.591  -1.711  -1.724  1.00  0.00     0.105 C 
BRANCH   5   6
ATOM      6  C   UNL     1      -0.104  -2.062  -2.018  1.00  0.00     0.049 C 
BRANCH   6   7
ATOM      7  C   UNL     1       0.474  -1.022  -2.939  1.00  0.00    -0.005 A 
ATOM      8  C   UNL     1       1.099   0.486  -0.865  1.00  0.00     0.067 C 
ATOM      9  C   UNL     1       0.834   0.332  -2.362  1.00  0.00     0.046 A 
ATOM     10  N   UNL     1       0.967   1.390  -3.105  1.00  0.00    -0.216 NA
ATOM     11  C   UNL     1       0.466   1.276  -4.375  1.00  0.00     0.252 A 
ATOM     12  C   UNL     1       0.419  -1.107  -4.301  1.00  0.00     0.048 A 
ATOM     13  N   UNL     1      -0.203   2.186  -5.025  1.00  0.00    -0.192 NA
ATOM     14  N   UNL     1       0.203   0.086  -5.018  1.00  0.00    -0.201 N 
ATOM     15  C   UNL     1       0.361  -2.367  -5.093  1.00  0.00     0.067 C 
ATOM     16  C   UNL     1      -0.857   1.665  -6.098  1.00  0.00     0.172 A 
ATOM     17  N   UNL     1      -0.554   0.341  -6.196  1.00  0.00    -0.148 NA
BRANCH  16  18
ATOM     18  C   UNL     1      -1.732   2.602  -7.136  1.00  0.00     0.199 C 
BRANCH  18  19
ATOM     19  N   UNL     1      -2.361   4.070  -6.857  1.00  0.00    -0.314 N 
ATOM     20  C   UNL     1      -2.283   5.487  -6.893  1.00  0.00     0.408 C 
ATOM     21  H   UNL     1      -3.244   3.885  -6.463  1.00  0.00     0.167 HD
ATOM     22  O   UNL     1      -3.316   6.096  -6.658  1.00  0.00    -0.225 OA
BRANCH  20  23
ATOM     23  O   UNL     1      -1.124   6.163  -7.170  1.00  0.00    -0.444 OA
BRANCH  23  24
ATOM     24  C   UNL     1      -0.816   7.648  -7.190  1.00  0.00     0.106 C 
ATOM     25  C   UNL     1      -1.639   8.394  -8.245  1.00  0.00     0.056 C 
ATOM     26  C   UNL     1      -0.960   8.313  -5.816  1.00  0.00     0.056 C 
ATOM     27  C   UNL     1       0.681   7.874  -7.598  1.00  0.00     0.056 C 
ENDBRANCH  23  24
ENDBRANCH  20  23
ENDBRANCH  18  19
ENDBRANCH  16  18
ENDBRANCH   6   7
ENDBRANCH   5   6
ENDBRANCH   1   5
BRANCH   3  28
ATOM     28  C   UNL     1      -3.277   0.899  -2.831  1.00  0.00     0.117 C 
BRANCH  28  29
ATOM     29  C   UNL     1      -2.152   1.971  -3.046  1.00  0.00     0.042 C 
BRANCH  29  30
ATOM     30  C   UNL     1      -2.281   3.264  -3.992  1.00  0.00     0.118 C 
BRANCH  30  31
ATOM     31  N   UNL     1      -0.994   4.291  -4.266  1.00  0.00    -0.352 N 
ATOM     32  C   UNL     1       0.183   4.654  -5.117  1.00  0.00     0.251 C 
ATOM     33  H   UNL     1      -1.021   4.959  -3.542  1.00  0.00     0.163 HD
ATOM     34  O   UNL     1       0.782   5.668  -4.721  1.00  0.00    -0.269 OA
BRANCH  32  35
ATOM     35  C   UNL     1       0.831   4.017  -6.469  1.00  0.00     0.039 A 
ATOM     36  C   UNL     1       0.697   4.524  -7.763  1.00  0.00     0.014 A 
ATOM     37  C   UNL     1       1.690   2.921  -6.512  1.00  0.00     0.014 A 
ATOM     38  C   UNL     1       0.731   3.742  -8.931  1.00  0.00     0.010 A 
ATOM     39  C   UNL     1       1.709   2.058  -7.655  1.00  0.00     0.010 A 
ATOM     40  C   UNL     1       1.063   2.404  -8.845  1.00  0.00    -0.014 A 
BRANCH  40  41
ATOM     41  C   UNL     1       1.108   1.641 -10.112  1.00  0.00     0.031 A 
ATOM     42  C   UNL     1       2.361   1.979 -10.813  1.00  0.00     0.074 A 
ATOM     43  C   UNL     1       0.312   0.734 -10.730  1.00  0.00     0.049 A 
ATOM     44  N   UNL     1       2.509   2.796 -11.801  1.00  0.00    -0.248 NA
ATOM     45  C   UNL     1       3.597   1.515 -10.176  1.00  0.00     0.031 C 
ATOM     46  C   UNL     1      -0.847  -0.013 -10.242  1.00  0.00     0.029 A 
ATOM     47  N   UNL     1       0.470   0.225 -12.006  1.00  0.00    -0.354 N 
ATOM     48  C   UNL     1       3.877   2.865 -11.984  1.00  0.00     0.074 A 
ATOM     49  C   UNL     1       4.484   2.261 -10.823  1.00  0.00     0.031 C 
ATOM     50  C   UNL     1      -1.133  -1.023 -11.109  1.00  0.00     0.029 A 
ATOM     51  C   UNL     1      -0.269  -0.921 -12.279  1.00  0.00     0.049 A 
ATOM     52  H   UNL     1       1.062   0.644 -12.672  1.00  0.00     0.167 HD
ATOM     53  C   UNL     1       4.443   3.168 -13.178  1.00  0.00     0.031 A 
ATOM     54  C   UNL     1      -0.129  -1.740 -13.357  1.00  0.00     0.031 A 
ATOM     55  C   UNL     1       3.519   3.754 -14.110  1.00  0.00     0.049 A 
ATOM     56  C   UNL     1       0.555  -0.987 -14.430  1.00  0.00     0.074 A 
ATOM     57  C   UNL     1       2.705   4.870 -14.114  1.00  0.00     0.029 A 
ATOM     58  N   UNL     1       3.074   2.962 -15.140  1.00  0.00    -0.354 N 
ATOM     59  N   UNL     1      -0.007  -0.065 -15.152  1.00  0.00    -0.248 NA
ATOM     60  C   UNL     1       2.003  -1.070 -14.540  1.00  0.00     0.031 C 
ATOM     61  C   UNL     1       1.549   4.497 -14.860  1.00  0.00     0.029 A 
ATOM     62  C   UNL     1       1.727   3.179 -15.280  1.00  0.00     0.049 A 
ATOM     63  H   UNL     1       3.623   2.348 -15.681  1.00  0.00     0.167 HD
ATOM     64  C   UNL     1       1.018   0.816 -15.450  1.00  0.00     0.074 A 
ATOM     65  C   UNL     1       2.244   0.078 -15.176  1.00  0.00     0.031 C 
ATOM     66  C   UNL     1       0.768   2.148 -15.611  1.00  0.00     0.031 A 
BRANCH  53  67
ATOM     67  C   UNL     1       5.753   2.554 -13.584  1.00  0.00    -0.014 A 
ATOM     68  C   UNL     1       6.434   3.058 -14.696  1.00  0.00     0.009 A 
ATOM     69  C   UNL     1       6.235   1.347 -13.031  1.00  0.00     0.009 A 
ATOM     70  C   UNL     1       7.538   2.379 -15.227  1.00  0.00     0.001 A 
ATOM     71  C   UNL     1       7.368   0.701 -13.517  1.00  0.00     0.001 A 
ATOM     72  C   UNL     1       8.008   1.209 -14.633  1.00  0.00     0.000 A 
ENDBRANCH  53  67
BRANCH  54  73
ATOM     73  C   UNL     1      -0.346  -3.201 -13.533  1.00  0.00    -0.014 A 
ATOM     74  C   UNL     1      -0.366  -3.770 -14.824  1.00  0.00     0.009 A 
ATOM     75  C   UNL     1      -0.201  -4.075 -12.445  1.00  0.00     0.009 A 
ATOM     76  C   UNL     1      -0.175  -5.146 -15.020  1.00  0.00     0.001 A 
ATOM     77  C   UNL     1      -0.019  -5.452 -12.641  1.00  0.00     0.001 A 
ATOM     78  C   UNL     1       0.018  -5.984 -13.927  1.00  0.00     0.000 A 
ENDBRANCH  54  73
BRANCH  66  79
ATOM     79  C   UNL     1      -0.661   2.581 -15.834  1.00  0.00    -0.014 A 
ATOM     80  C   UNL     1      -1.707   2.282 -14.943  1.00  0.00     0.009 A 
ATOM     81  C   UNL     1      -0.941   3.419 -16.924  1.00  0.00     0.009 A 
ATOM     82  C   UNL     1      -2.998   2.773 -15.158  1.00  0.00     0.001 A 
ATOM     83  C   UNL     1      -2.225   3.933 -17.125  1.00  0.00     0.001 A 
ATOM     84  C   UNL     1      -3.255   3.604 -16.246  1.00  0.00     0.000 A 
ENDBRANCH  66  79
ENDBRANCH  40  41
ENDBRANCH  32  35
ENDBRANCH  30  31
ENDBRANCH  29  30
ENDBRANCH  28  29
ENDBRANCH   3  28
TORSDOF 16
