REMARK SMILES O=C(NCCCNC(=O)c1cc(S(=O)(=O)Nc2cccc(Cl)c2)ccc1O)c1ccc(-c2c3nc(c(-c4ccccc4)c4ccc([nH]4)c(-c4ccccc4)c4nc(c(-c5ccccc5)c5ccc2[nH]5)C=C4)C=C3)cc1
REMARK SMILES IDX 5 1 4 2 3 3 1 4 2 5 28 7 29 8 75 9 30 10 74 11 31 12 32 13
REMARK SMILES IDX 33 14 68 15 34 16 73 17 67 18 69 19 35 20 72 21 66 22 65 23
REMARK SMILES IDX 36 25 58 26 43 27 57 28 44 29 47 30 56 31 70 32 45 33 46 34
REMARK SMILES IDX 55 36 71 37 48 38 37 39 38 40 42 41 39 42 41 43 40 44 59 45
REMARK SMILES IDX 60 46 64 47 61 48 63 49 62 50 49 51 50 52 54 53 51 54 53 55
REMARK SMILES IDX 52 56 6 57 7 58 8 59 9 61 10 62 11 63 26 64 12 65 25 66
REMARK SMILES IDX 24 67 27 68 13 70 14 71 15 72 16 73 17 75 18 76 23 77 19 78
REMARK SMILES IDX 21 79 20 80 22 81
REMARK H PARENT 3 6 69 24 47 35 7 60 27 69 16 74
REMARK Flexibility Score: inf
ROOT
ATOM      1  C   UNL     1       4.950   0.541  -2.377  1.00  0.00     0.042 C 
ENDROOT
BRANCH   1   2
ATOM      2  C   UNL     1       4.555   1.063  -1.011  1.00  0.00     0.118 C 
BRANCH   2   3
ATOM      3  N   UNL     1       3.124   0.929  -0.747  1.00  0.00    -0.352 N 
ATOM      4  O   UNL     1       1.219   0.025   0.049  1.00  0.00    -0.269 OA
ATOM      5  C   UNL     1       2.443   0.100   0.113  1.00  0.00     0.251 C 
ATOM      6  H   UNL     1       2.553   1.535  -1.272  1.00  0.00     0.163 HD
BRANCH   5   7
ATOM      7  C   UNL     1       3.181  -0.723   1.095  1.00  0.00     0.039 A 
ATOM      8  C   UNL     1       4.304  -0.211   1.737  1.00  0.00     0.014 A 
ATOM      9  C   UNL     1       2.750  -2.022   1.383  1.00  0.00     0.014 A 
ATOM     10  C   UNL     1       5.119  -1.052   2.474  1.00  0.00     0.010 A 
ATOM     11  C   UNL     1       3.493  -2.826   2.256  1.00  0.00     0.010 A 
ATOM     12  C   UNL     1       4.709  -2.361   2.777  1.00  0.00    -0.014 A 
BRANCH  12  13
ATOM     13  C   UNL     1       5.551  -3.154   3.708  1.00  0.00     0.031 A 
ATOM     14  C   UNL     1       6.203  -4.441   3.288  1.00  0.00     0.074 A 
ATOM     15  C   UNL     1       5.795  -2.637   4.930  1.00  0.00     0.049 A 
ATOM     16  N   UNL     1       7.050  -5.184   3.958  1.00  0.00    -0.248 NA
ATOM     17  C   UNL     1       5.863  -4.971   1.959  1.00  0.00     0.031 C 
ATOM     18  C   UNL     1       5.204  -1.400   5.455  1.00  0.00     0.029 A 
ATOM     19  N   UNL     1       6.640  -3.046   5.928  1.00  0.00    -0.354 N 
ATOM     20  C   UNL     1       7.333  -6.271   3.142  1.00  0.00     0.074 A 
ATOM     21  C   UNL     1       6.545  -6.110   1.938  1.00  0.00     0.031 C 
ATOM     22  C   UNL     1       5.770  -1.105   6.632  1.00  0.00     0.029 A 
ATOM     23  C   UNL     1       6.696  -2.172   6.987  1.00  0.00     0.049 A 
ATOM     24  H   UNL     1       7.155  -3.884   5.891  1.00  0.00     0.167 HD
ATOM     25  C   UNL     1       8.177  -7.306   3.373  1.00  0.00     0.031 A 
ATOM     26  C   UNL     1       7.404  -2.222   8.129  1.00  0.00     0.031 A 
ATOM     27  C   UNL     1       8.956  -7.465   4.574  1.00  0.00     0.049 A 
ATOM     28  C   UNL     1       8.318  -3.386   8.360  1.00  0.00     0.074 A 
ATOM     29  C   UNL     1       9.841  -8.480   4.901  1.00  0.00     0.029 A 
ATOM     30  N   UNL     1       8.947  -6.585   5.646  1.00  0.00    -0.354 N 
ATOM     31  N   UNL     1       8.580  -4.397   7.568  1.00  0.00    -0.248 NA
ATOM     32  C   UNL     1       9.031  -3.416   9.642  1.00  0.00     0.031 C 
ATOM     33  C   UNL     1      10.331  -8.237   6.189  1.00  0.00     0.029 A 
ATOM     34  C   UNL     1       9.796  -7.042   6.641  1.00  0.00     0.049 A 
ATOM     35  H   UNL     1       8.415  -5.758   5.693  1.00  0.00     0.167 HD
ATOM     36  C   UNL     1       9.492  -5.184   8.255  1.00  0.00     0.074 A 
ATOM     37  C   UNL     1       9.767  -4.510   9.508  1.00  0.00     0.031 C 
ATOM     38  C   UNL     1      10.043  -6.366   7.888  1.00  0.00     0.031 A 
BRANCH  25  39
ATOM     39  C   UNL     1       8.293  -8.364   2.309  1.00  0.00    -0.014 A 
ATOM     40  C   UNL     1       8.965  -8.113   1.102  1.00  0.00     0.009 A 
ATOM     41  C   UNL     1       7.775  -9.648   2.542  1.00  0.00     0.009 A 
ATOM     42  C   UNL     1       9.095  -9.119   0.141  1.00  0.00     0.001 A 
ATOM     43  C   UNL     1       7.928 -10.659   1.590  1.00  0.00     0.001 A 
ATOM     44  C   UNL     1       8.582 -10.392   0.389  1.00  0.00     0.000 A 
ENDBRANCH  25  39
BRANCH  26  45
ATOM     45  C   UNL     1       7.242  -1.153   9.148  1.00  0.00    -0.014 A 
ATOM     46  C   UNL     1       8.293  -0.274   9.448  1.00  0.00     0.009 A 
ATOM     47  C   UNL     1       6.020  -1.006   9.825  1.00  0.00     0.009 A 
ATOM     48  C   UNL     1       8.130   0.712  10.424  1.00  0.00     0.001 A 
ATOM     49  C   UNL     1       5.848   0.004  10.772  1.00  0.00     0.001 A 
ATOM     50  C   UNL     1       6.908   0.854  11.079  1.00  0.00     0.000 A 
ENDBRANCH  26  45
BRANCH  38  51
ATOM     51  C   UNL     1      11.007  -6.986   8.859  1.00  0.00    -0.014 A 
ATOM     52  C   UNL     1      10.562  -7.544  10.068  1.00  0.00     0.009 A 
ATOM     53  C   UNL     1      12.378  -7.008   8.561  1.00  0.00     0.009 A 
ATOM     54  C   UNL     1      11.477  -8.068  10.982  1.00  0.00     0.001 A 
ATOM     55  C   UNL     1      13.287  -7.561   9.463  1.00  0.00     0.001 A 
ATOM     56  C   UNL     1      12.838  -8.078  10.678  1.00  0.00     0.000 A 
ENDBRANCH  38  51
ENDBRANCH  12  13
ENDBRANCH   5   7
ENDBRANCH   2   3
ENDBRANCH   1   2
BRANCH   1  57
ATOM     57  C   UNL     1       4.383   1.368  -3.511  1.00  0.00     0.118 C 
BRANCH  57  58
ATOM     58  N   UNL     1       4.956   2.708  -3.591  1.00  0.00    -0.352 N 
ATOM     59  C   UNL     1       5.729   3.271  -4.583  1.00  0.00     0.255 C 
ATOM     60  H   UNL     1       4.762   3.295  -2.824  1.00  0.00     0.163 HD
ATOM     61  O   UNL     1       6.184   4.403  -4.448  1.00  0.00    -0.269 OA
BRANCH  59  62
ATOM     62  C   UNL     1       6.109   2.452  -5.753  1.00  0.00     0.082 A 
ATOM     63  C   UNL     1       7.471   2.307  -6.035  1.00  0.00     0.040 A 
ATOM     64  C   UNL     1       5.168   1.731  -6.489  1.00  0.00     0.128 A 
ATOM     65  C   UNL     1       7.891   1.294  -6.906  1.00  0.00     0.088 A 
ATOM     66  C   UNL     1       5.585   0.653  -7.256  1.00  0.00     0.048 A 
ATOM     67  C   UNL     1       6.949   0.387  -7.383  1.00  0.00     0.026 A 
BRANCH  64  68
ATOM     68  O   UNL     1       3.836   2.019  -6.385  1.00  0.00    -0.507 OA
ATOM     69  H   UNL     1       3.553   2.746  -5.867  1.00  0.00     0.293 HD
ENDBRANCH  64  68
BRANCH  65  70
ATOM     70  S   UNL     1       9.615   1.271  -7.340  1.00  0.00     0.261 S 
ATOM     71  O   UNL     1      10.003   2.650  -7.551  1.00  0.00    -0.201 OA
ATOM     72  O   UNL     1      10.268   0.466  -6.327  1.00  0.00    -0.201 OA
BRANCH  70  73
ATOM     73  N   UNL     1       9.950   0.476  -8.800  1.00  0.00    -0.280 N 
ATOM     74  H   UNL     1      10.889   0.411  -9.088  1.00  0.00     0.180 HD
BRANCH  73  75
ATOM     75  C   UNL     1       8.952  -0.101  -9.632  1.00  0.00     0.050 A 
ATOM     76  C   UNL     1       7.989   0.684 -10.268  1.00  0.00     0.027 A 
ATOM     77  C   UNL     1       8.909  -1.495  -9.744  1.00  0.00     0.047 A 
ATOM     78  C   UNL     1       6.933   0.069 -10.949  1.00  0.00     0.004 A 
ATOM     79  C   UNL     1       7.861  -2.100 -10.435  1.00  0.00     0.043 A 
ATOM     80  C   UNL     1       6.862  -1.325 -11.021  1.00  0.00     0.020 A 
ATOM     81  Cl  UNL     1       7.774  -3.816 -10.517  1.00  0.00    -0.084 Cl
ENDBRANCH  73  75
ENDBRANCH  70  73
ENDBRANCH  65  70
ENDBRANCH  59  62
ENDBRANCH  57  58
ENDBRANCH   1  57
TORSDOF 14
