REMARK SMILES NC(=O)CC[C@H](NC(=O)CC1CC1)C(=O)NCCCNC(=O)c1ccc(-c2c3nc(c(-c4ccccc4)c4ccc([nH]4)c(-c4ccccc4)c4nc(c(-c5ccccc5)c5ccc2[nH]5)C=C4)C=C3)cc1
REMARK SMILES IDX 17 1 16 2 14 3 15 4 6 6 5 7 4 8 2 9 1 10 3 13 7 14 8 15 9 17
REMARK SMILES IDX 10 18 11 19 12 20 13 21 18 22 19 23 20 24 21 25 22 27 23 28
REMARK SMILES IDX 24 29 70 30 25 31 69 32 26 33 27 34 28 35 63 36 29 37 68 38
REMARK SMILES IDX 62 39 64 40 30 41 67 42 61 43 60 44 31 46 53 47 38 48 52 49
REMARK SMILES IDX 39 50 42 51 51 52 65 53 40 54 41 55 50 57 66 58 43 59 32 60
REMARK SMILES IDX 33 61 37 62 34 63 36 64 35 65 54 66 55 67 59 68 56 69 58 70
REMARK SMILES IDX 57 71 44 72 45 73 49 74 46 75 48 76 47 77
REMARK H PARENT 16 5 1 11 1 12 7 16 20 26 64 45 42 56
REMARK Flexibility Score: inf
ROOT
ATOM      1  C   UNL     1       4.986  -3.988  -1.080  1.00  0.00     0.117 C 
ENDROOT
BRANCH   1   2
ATOM      2  N   UNL     1       4.906  -2.886  -2.009  1.00  0.00    -0.354 N 
ATOM      3  C   UNL     1       4.209  -1.725  -1.869  1.00  0.00     0.242 C 
ATOM      4  O   UNL     1       4.652  -0.734  -2.458  1.00  0.00    -0.273 OA
ATOM      5  H   UNL     1       5.418  -2.986  -2.844  1.00  0.00     0.163 HD
BRANCH   3   6
ATOM      6  C   UNL     1       2.967  -1.598  -0.951  1.00  0.00     0.171 C 
BRANCH   6   7
ATOM      7  C   UNL     1       3.423  -1.494   0.537  1.00  0.00     0.045 C 
BRANCH   7   8
ATOM      8  C   UNL     1       2.658  -2.286   1.617  1.00  0.00     0.102 C 
BRANCH   8   9
ATOM      9  C   UNL     1       2.947  -3.776   1.663  1.00  0.00     0.217 C 
ATOM     10  N   UNL     1       2.090  -4.606   1.007  1.00  0.00    -0.370 N 
ATOM     11  H   UNL     1       2.244  -5.578   1.014  1.00  0.00     0.159 HD
ATOM     12  H   UNL     1       1.316  -4.234   0.525  1.00  0.00     0.159 HD
ATOM     13  O   UNL     1       3.932  -4.241   2.229  1.00  0.00    -0.275 OA
ENDBRANCH   8   9
ENDBRANCH   7   8
ENDBRANCH   6   7
BRANCH   6  14
ATOM     14  N   UNL     1       1.890  -2.571  -1.132  1.00  0.00    -0.344 N 
ATOM     15  C   UNL     1       1.188  -2.974  -2.220  1.00  0.00     0.220 C 
ATOM     16  H   UNL     1       1.622  -3.022  -0.300  1.00  0.00     0.164 HD
ATOM     17  O   UNL     1       0.107  -3.520  -1.978  1.00  0.00    -0.275 OA
BRANCH  15  18
ATOM     18  C   UNL     1       1.726  -2.897  -3.630  1.00  0.00     0.103 C 
BRANCH  18  19
ATOM     19  C   UNL     1       1.970  -1.520  -4.164  1.00  0.00    -0.002 C 
ATOM     20  C   UNL     1       1.193  -0.997  -5.347  1.00  0.00     0.004 C 
ATOM     21  C   UNL     1       0.963  -0.414  -3.982  1.00  0.00     0.004 C 
ENDBRANCH  18  19
ENDBRANCH  15  18
ENDBRANCH   6  14
ENDBRANCH   3   6
ENDBRANCH   1   2
BRANCH   1  22
ATOM     22  C   UNL     1       4.397  -5.284  -1.598  1.00  0.00     0.042 C 
BRANCH  22  23
ATOM     23  C   UNL     1       5.201  -5.888  -2.737  1.00  0.00     0.118 C 
BRANCH  23  24
ATOM     24  N   UNL     1       6.564  -6.226  -2.340  1.00  0.00    -0.352 N 
ATOM     25  C   UNL     1       7.179  -7.448  -2.230  1.00  0.00     0.251 C 
ATOM     26  H   UNL     1       7.132  -5.455  -2.114  1.00  0.00     0.163 HD
ATOM     27  O   UNL     1       8.267  -7.540  -1.672  1.00  0.00    -0.269 OA
BRANCH  25  28
ATOM     28  C   UNL     1       6.528  -8.652  -2.781  1.00  0.00     0.039 A 
ATOM     29  C   UNL     1       6.579  -9.850  -2.063  1.00  0.00     0.014 A 
ATOM     30  C   UNL     1       5.885  -8.601  -4.019  1.00  0.00     0.014 A 
ATOM     31  C   UNL     1       5.928 -10.981  -2.560  1.00  0.00     0.010 A 
ATOM     32  C   UNL     1       5.154  -9.693  -4.461  1.00  0.00     0.010 A 
ATOM     33  C   UNL     1       5.183 -10.900  -3.747  1.00  0.00    -0.014 A 
BRANCH  33  34
ATOM     34  C   UNL     1       4.459 -12.066  -4.307  1.00  0.00     0.031 A 
ATOM     35  C   UNL     1       4.837 -12.582  -5.670  1.00  0.00     0.074 A 
ATOM     36  C   UNL     1       3.412 -12.593  -3.646  1.00  0.00     0.049 A 
ATOM     37  N   UNL     1       4.237 -13.477  -6.411  1.00  0.00    -0.248 NA
ATOM     38  C   UNL     1       6.027 -11.980  -6.298  1.00  0.00     0.031 C 
ATOM     39  C   UNL     1       2.932 -12.165  -2.330  1.00  0.00     0.029 A 
ATOM     40  N   UNL     1       2.547 -13.597  -4.005  1.00  0.00    -0.354 N 
ATOM     41  C   UNL     1       4.955 -13.519  -7.600  1.00  0.00     0.074 A 
ATOM     42  C   UNL     1       5.999 -12.524  -7.504  1.00  0.00     0.031 C 
ATOM     43  C   UNL     1       1.872 -12.915  -1.985  1.00  0.00     0.029 A 
ATOM     44  C   UNL     1       1.566 -13.837  -3.074  1.00  0.00     0.049 A 
ATOM     45  H   UNL     1       2.623 -14.096  -4.850  1.00  0.00     0.167 HD
ATOM     46  C   UNL     1       4.773 -14.327  -8.670  1.00  0.00     0.031 A 
ATOM     47  C   UNL     1       0.528 -14.694  -3.103  1.00  0.00     0.031 A 
ATOM     48  C   UNL     1       3.748 -15.331  -8.752  1.00  0.00     0.049 A 
ATOM     49  C   UNL     1       0.337 -15.572  -4.310  1.00  0.00     0.074 A 
ATOM     50  C   UNL     1       3.511 -16.240  -9.767  1.00  0.00     0.029 A 
ATOM     51  N   UNL     1       2.791 -15.559  -7.774  1.00  0.00    -0.354 N 
ATOM     52  N   UNL     1       1.053 -15.636  -5.406  1.00  0.00    -0.248 NA
ATOM     53  C   UNL     1      -0.801 -16.502  -4.279  1.00  0.00     0.031 C 
ATOM     54  C   UNL     1       2.378 -16.985  -9.427  1.00  0.00     0.029 A 
ATOM     55  C   UNL     1       1.950 -16.583  -8.171  1.00  0.00     0.049 A 
ATOM     56  H   UNL     1       2.720 -15.065  -6.926  1.00  0.00     0.167 HD
ATOM     57  C   UNL     1       0.480 -16.641  -6.175  1.00  0.00     0.074 A 
ATOM     58  C   UNL     1      -0.641 -17.160  -5.419  1.00  0.00     0.031 C 
ATOM     59  C   UNL     1       0.852 -17.098  -7.395  1.00  0.00     0.031 A 
BRANCH  46  60
ATOM     60  C   UNL     1       5.701 -14.150  -9.840  1.00  0.00    -0.014 A 
ATOM     61  C   UNL     1       7.061 -14.488  -9.752  1.00  0.00     0.009 A 
ATOM     62  C   UNL     1       5.202 -13.663 -11.058  1.00  0.00     0.009 A 
ATOM     63  C   UNL     1       7.910 -14.303 -10.845  1.00  0.00     0.001 A 
ATOM     64  C   UNL     1       6.045 -13.511 -12.160  1.00  0.00     0.001 A 
ATOM     65  C   UNL     1       7.400 -13.819 -12.050  1.00  0.00     0.000 A 
ENDBRANCH  46  60
BRANCH  47  66
ATOM     66  C   UNL     1      -0.406 -14.775  -1.949  1.00  0.00    -0.014 A 
ATOM     67  C   UNL     1      -0.422 -15.912  -1.127  1.00  0.00     0.009 A 
ATOM     68  C   UNL     1      -1.289 -13.721  -1.665  1.00  0.00     0.009 A 
ATOM     69  C   UNL     1      -1.324 -16.007  -0.065  1.00  0.00     0.001 A 
ATOM     70  C   UNL     1      -2.168 -13.806  -0.583  1.00  0.00     0.001 A 
ATOM     71  C   UNL     1      -2.193 -14.952   0.209  1.00  0.00     0.000 A 
ENDBRANCH  47  66
BRANCH  59  72
ATOM     72  C   UNL     1       0.088 -18.258  -7.967  1.00  0.00    -0.014 A 
ATOM     73  C   UNL     1      -1.213 -18.105  -8.469  1.00  0.00     0.009 A 
ATOM     74  C   UNL     1       0.717 -19.509  -8.070  1.00  0.00     0.009 A 
ATOM     75  C   UNL     1      -1.876 -19.192  -9.043  1.00  0.00     0.001 A 
ATOM     76  C   UNL     1       0.063 -20.584  -8.672  1.00  0.00     0.001 A 
ATOM     77  C   UNL     1      -1.236 -20.426  -9.152  1.00  0.00     0.000 A 
ENDBRANCH  59  72
ENDBRANCH  33  34
ENDBRANCH  25  28
ENDBRANCH  23  24
ENDBRANCH  22  23
ENDBRANCH   1  22
TORSDOF 16
