REMARK SMILES O=C1NC(=S)S/C1=C\c1ccc(OCc2cn(-c3ccc(C(=O)NCCCNC(=O)c4ccc(-c5c6nc(c(-c7ccccc7)c7ccc([nH]7)c(-c7ccccc7)c7nc(c(-c8ccccc8)c8ccc5[nH]8)C=C7)C=C6)cc4)cc3)nn2)cc1
REMARK SMILES IDX 22 1 23 2 24 3 21 5 18 6 19 7 80 8 20 9 79 10 17 11 15 12
REMARK SMILES IDX 16 13 82 14 81 15 14 16 13 17 12 18 9 19 10 20 84 21 11 22
REMARK SMILES IDX 83 23 8 24 1 25 2 26 3 27 7 28 4 29 6 31 5 32 25 33 26 34
REMARK SMILES IDX 27 35 28 36 29 37 30 39 31 40 32 41 78 42 33 43 77 44 34 45
REMARK SMILES IDX 35 46 36 47 71 48 37 49 76 50 70 51 72 52 38 53 75 54 69 55
REMARK SMILES IDX 68 56 39 58 61 59 46 60 60 61 47 62 50 63 59 64 73 65 48 66
REMARK SMILES IDX 49 67 58 69 74 70 51 71 40 72 41 73 45 74 42 75 44 76 43 77
REMARK SMILES IDX 62 78 63 79 67 80 64 81 66 82 65 83 52 84 53 85 57 86 54 87
REMARK SMILES IDX 56 88 55 89
REMARK H PARENT 24 4 3 30 28 38 72 57 50 68
REMARK Flexibility Score: inf
ROOT
ATOM      1  C   UNL     1       6.476   9.115  -1.014  1.00  0.00     0.251 C 
ATOM      2  O   UNL     1       7.347   8.584  -1.702  1.00  0.00    -0.269 OA
ATOM      3  N   UNL     1       6.829  10.207  -0.257  1.00  0.00    -0.352 N 
ATOM      4  H   UNL     1       7.786  10.436  -0.301  1.00  0.00     0.163 HD
ENDROOT
BRANCH   1   5
ATOM      5  C   UNL     1       5.078   8.599  -1.073  1.00  0.00     0.039 A 
ATOM      6  C   UNL     1       2.419   7.781  -1.376  1.00  0.00     0.066 A 
ATOM      7  C   UNL     1       3.364   7.447  -2.354  1.00  0.00     0.029 A 
ATOM      8  C   UNL     1       2.808   8.444  -0.219  1.00  0.00     0.029 A 
ATOM      9  C   UNL     1       4.684   7.887  -2.214  1.00  0.00     0.016 A 
ATOM     10  C   UNL     1       4.143   8.787  -0.053  1.00  0.00     0.016 A 
BRANCH   6  11
ATOM     11  N   UNL     1       1.070   7.428  -1.536  1.00  0.00    -0.220 N 
ATOM     12  C   UNL     1      -1.098   7.271  -1.399  1.00  0.00     0.120 A 
ATOM     13  C   UNL     1      -0.037   8.060  -1.017  1.00  0.00     0.144 A 
ATOM     14  N   UNL     1      -0.614   6.242  -2.166  1.00  0.00    -0.131 NA
ATOM     15  N   UNL     1       0.696   6.369  -2.275  1.00  0.00    -0.062 NA
BRANCH  12  16
ATOM     16  C   UNL     1      -2.568   7.454  -1.201  1.00  0.00     0.289 C 
BRANCH  16  17
ATOM     17  O   UNL     1      -3.150   6.714  -0.113  1.00  0.00    -0.487 OA
BRANCH  17  18
ATOM     18  C   UNL     1      -3.172   5.348  -0.191  1.00  0.00     0.119 A 
ATOM     19  C   UNL     1      -2.931   2.557  -0.005  1.00  0.00    -0.024 A 
ATOM     20  C   UNL     1      -3.384   3.295   1.090  1.00  0.00     0.012 A 
ATOM     21  C   UNL     1      -2.704   3.209  -1.218  1.00  0.00     0.012 A 
ATOM     22  C   UNL     1      -3.495   4.687   0.997  1.00  0.00     0.047 A 
ATOM     23  C   UNL     1      -2.862   4.591  -1.317  1.00  0.00     0.047 A 
BRANCH  19  24
ATOM     24  C   UNL     1      -2.682   1.118   0.100  1.00  0.00     0.029 C 
ATOM     25  O   UNL     1      -2.187  -1.746   0.144  1.00  0.00    -0.268 OA
ATOM     26  C   UNL     1      -1.294  -0.929   0.108  1.00  0.00     0.263 C 
ATOM     27  N   UNL     1       0.043  -1.230   0.061  1.00  0.00    -0.307 N 
ATOM     28  C   UNL     1      -1.468   0.551   0.091  1.00  0.00     0.080 C 
ATOM     29  C   UNL     1       0.934  -0.202   0.022  1.00  0.00     0.145 C 
ATOM     30  H   UNL     1       0.350  -2.165   0.055  1.00  0.00     0.171 HD
ATOM     31  S   UNL     1       0.078   1.322   0.037  1.00  0.00    -0.055 SA
ATOM     32  S   UNL     1       2.575  -0.415  -0.029  1.00  0.00    -0.052 S 
ENDBRANCH  19  24
ENDBRANCH  17  18
ENDBRANCH  16  17
ENDBRANCH  12  16
ENDBRANCH   6  11
ENDBRANCH   1   5
BRANCH   3  33
ATOM     33  C   UNL     1       6.045  11.087   0.600  1.00  0.00     0.118 C 
BRANCH  33  34
ATOM     34  C   UNL     1       6.037  10.605   2.061  1.00  0.00     0.042 C 
BRANCH  34  35
ATOM     35  C   UNL     1       7.253  11.091   2.816  1.00  0.00     0.118 C 
BRANCH  35  36
ATOM     36  N   UNL     1       7.224  12.542   3.054  1.00  0.00    -0.352 N 
ATOM     37  C   UNL     1       8.170  13.360   3.656  1.00  0.00     0.251 C 
ATOM     38  H   UNL     1       6.412  13.002   2.740  1.00  0.00     0.163 HD
ATOM     39  O   UNL     1       7.867  14.467   4.077  1.00  0.00    -0.269 OA
BRANCH  37  40
ATOM     40  C   UNL     1       9.557  12.878   3.766  1.00  0.00     0.039 A 
ATOM     41  C   UNL     1      10.426  13.185   4.819  1.00  0.00     0.014 A 
ATOM     42  C   UNL     1       9.970  12.019   2.776  1.00  0.00     0.014 A 
ATOM     43  C   UNL     1      11.700  12.613   4.804  1.00  0.00     0.010 A 
ATOM     44  C   UNL     1      10.891  11.105   3.143  1.00  0.00     0.010 A 
ATOM     45  C   UNL     1      11.933  11.585   3.894  1.00  0.00    -0.014 A 
BRANCH  45  46
ATOM     46  C   UNL     1      13.185  10.890   3.680  1.00  0.00     0.031 A 
ATOM     47  C   UNL     1      13.560   9.980   4.780  1.00  0.00     0.074 A 
ATOM     48  C   UNL     1      13.753  10.831   2.451  1.00  0.00     0.049 A 
ATOM     49  N   UNL     1      14.517  10.141   5.626  1.00  0.00    -0.248 NA
ATOM     50  C   UNL     1      12.663   8.855   5.093  1.00  0.00     0.031 C 
ATOM     51  C   UNL     1      13.269  11.374   1.170  1.00  0.00     0.029 A 
ATOM     52  N   UNL     1      14.852  10.137   2.063  1.00  0.00    -0.354 N 
ATOM     53  C   UNL     1      14.467   9.036   6.466  1.00  0.00     0.074 A 
ATOM     54  C   UNL     1      13.188   8.417   6.238  1.00  0.00     0.031 C 
ATOM     55  C   UNL     1      13.933  10.787   0.145  1.00  0.00     0.029 A 
ATOM     56  C   UNL     1      14.982   9.947   0.693  1.00  0.00     0.049 A 
ATOM     57  H   UNL     1      15.512   9.792   2.708  1.00  0.00     0.167 HD
ATOM     58  C   UNL     1      15.583   8.572   7.091  1.00  0.00     0.031 A 
ATOM     59  C   UNL     1      15.856   9.106   0.080  1.00  0.00     0.031 A 
ATOM     60  C   UNL     1      16.687   9.487   6.928  1.00  0.00     0.049 A 
ATOM     61  C   UNL     1      16.921   8.795   1.071  1.00  0.00     0.074 A 
ATOM     62  C   UNL     1      16.913  10.798   7.296  1.00  0.00     0.029 A 
ATOM     63  N   UNL     1      17.566   9.219   5.902  1.00  0.00    -0.354 N 
ATOM     64  N   UNL     1      17.748   9.693   1.529  1.00  0.00    -0.248 NA
ATOM     65  C   UNL     1      16.728   7.634   1.931  1.00  0.00     0.031 C 
ATOM     66  C   UNL     1      17.548  11.386   6.162  1.00  0.00     0.029 A 
ATOM     67  C   UNL     1      17.766  10.388   5.209  1.00  0.00     0.049 A 
ATOM     68  H   UNL     1      17.977   8.347   5.701  1.00  0.00     0.167 HD
ATOM     69  C   UNL     1      17.823   9.446   2.894  1.00  0.00     0.074 A 
ATOM     70  C   UNL     1      17.248   8.110   3.069  1.00  0.00     0.031 C 
ATOM     71  C   UNL     1      18.046  10.457   3.789  1.00  0.00     0.031 A 
BRANCH  58  72
ATOM     72  C   UNL     1      15.800   7.141   7.503  1.00  0.00    -0.014 A 
ATOM     73  C   UNL     1      16.978   6.821   8.200  1.00  0.00     0.009 A 
ATOM     74  C   UNL     1      15.034   6.060   7.027  1.00  0.00     0.009 A 
ATOM     75  C   UNL     1      17.402   5.496   8.346  1.00  0.00     0.001 A 
ATOM     76  C   UNL     1      15.433   4.733   7.206  1.00  0.00     0.001 A 
ATOM     77  C   UNL     1      16.634   4.453   7.841  1.00  0.00     0.000 A 
ENDBRANCH  58  72
BRANCH  59  78
ATOM     78  C   UNL     1      15.646   8.307  -1.154  1.00  0.00    -0.014 A 
ATOM     79  C   UNL     1      16.718   7.676  -1.808  1.00  0.00     0.009 A 
ATOM     80  C   UNL     1      14.344   7.941  -1.548  1.00  0.00     0.009 A 
ATOM     81  C   UNL     1      16.492   6.693  -2.786  1.00  0.00     0.001 A 
ATOM     82  C   UNL     1      14.118   6.963  -2.524  1.00  0.00     0.001 A 
ATOM     83  C   UNL     1      15.193   6.327  -3.133  1.00  0.00     0.000 A 
ENDBRANCH  59  78
BRANCH  71  84
ATOM     84  C   UNL     1      18.371  11.832   3.244  1.00  0.00    -0.014 A 
ATOM     85  C   UNL     1      17.487  12.572   2.435  1.00  0.00     0.009 A 
ATOM     86  C   UNL     1      19.522  12.477   3.717  1.00  0.00     0.009 A 
ATOM     87  C   UNL     1      17.760  13.902   2.094  1.00  0.00     0.001 A 
ATOM     88  C   UNL     1      19.785  13.811   3.395  1.00  0.00     0.001 A 
ATOM     89  C   UNL     1      18.907  14.523   2.580  1.00  0.00     0.000 A 
ENDBRANCH  71  84
ENDBRANCH  45  46
ENDBRANCH  37  40
ENDBRANCH  35  36
ENDBRANCH  34  35
ENDBRANCH  33  34
ENDBRANCH   3  33
TORSDOF 15
