REMARK SMILES CCCCCCNC(=O)Oc1cccc(-c2ccc([C@H](C)C(=O)NCCCNC(=O)c3ccc(-c4c5nc(c(-c6ccccc6)c6ccc([nH]6)c(-c6ccccc6)c6nc(c(-c7ccccc7)c7ccc4[nH]7)C=C6)C=C5)cc3)cc2F)c1
REMARK SMILES IDX 16 1 17 2 18 3 19 4 79 5 80 6 81 7 15 8 11 9 12 10 82 11
REMARK SMILES IDX 13 12 14 13 10 14 8 15 7 16 9 18 6 19 5 20 4 21 3 22 2 23
REMARK SMILES IDX 1 24 20 25 21 26 22 27 23 28 24 29 25 31 26 32 27 33 28 34
REMARK SMILES IDX 29 35 30 37 31 38 32 39 78 40 33 41 77 42 34 43 35 44 36 45
REMARK SMILES IDX 71 46 37 47 76 48 70 49 72 50 38 51 75 52 69 53 68 54 39 56
REMARK SMILES IDX 61 57 46 58 60 59 47 60 50 61 59 62 73 63 48 64 49 65 58 67
REMARK SMILES IDX 74 68 51 69 40 70 41 71 45 72 42 73 44 74 43 75 62 76 63 77
REMARK SMILES IDX 67 78 64 79 66 80 65 81 52 82 53 83 57 84 54 85 56 86 55 87
REMARK H PARENT 7 17 24 30 28 36 72 55 50 66
REMARK Flexibility Score: inf
ROOT
ATOM      1  C   UNL     1      -8.531   8.550 -13.130  1.00  0.00     0.018 A 
ATOM      2  C   UNL     1      -8.454   8.009 -11.838  1.00  0.00     0.012 A 
ATOM      3  C   UNL     1      -7.260   7.466 -11.348  1.00  0.00     0.005 A 
ATOM      4  C   UNL     1      -6.092   7.476 -12.126  1.00  0.00    -0.033 A 
ATOM      5  C   UNL     1      -6.182   7.975 -13.437  1.00  0.00     0.044 A 
ATOM      6  C   UNL     1      -7.377   8.507 -13.919  1.00  0.00     0.131 A 
ATOM      7  F   UNL     1      -7.390   8.999 -15.168  1.00  0.00    -0.206 F 
ENDROOT
BRANCH   1   8
ATOM      8  C   UNL     1      -9.795   9.092 -13.639  1.00  0.00    -0.012 A 
ATOM      9  C   UNL     1     -11.640   8.985 -15.208  1.00  0.00     0.133 A 
ATOM     10  C   UNL     1     -12.270  10.058 -14.584  1.00  0.00     0.047 A 
ATOM     11  C   UNL     1     -10.403   8.520 -14.765  1.00  0.00     0.056 A 
ATOM     12  C   UNL     1     -11.668  10.650 -13.476  1.00  0.00     0.004 A 
ATOM     13  C   UNL     1     -10.443  10.166 -13.004  1.00  0.00     0.009 A 
BRANCH   9  14
ATOM     14  O   UNL     1     -12.255   8.450 -16.349  1.00  0.00    -0.410 OA
BRANCH  14  15
ATOM     15  C   UNL     1     -12.449   7.079 -16.383  1.00  0.00     0.412 C 
ATOM     16  N   UNL     1     -12.993   6.638 -17.554  1.00  0.00    -0.321 N 
ATOM     17  H   UNL     1     -13.148   5.669 -17.632  1.00  0.00     0.167 HD
ATOM     18  O   UNL     1     -12.190   6.285 -15.478  1.00  0.00    -0.224 OA
BRANCH  16  19
ATOM     19  C   UNL     1     -13.367   7.449 -18.695  1.00  0.00     0.119 C 
BRANCH  19  20
ATOM     20  C   UNL     1     -12.605   7.045 -19.957  1.00  0.00     0.021 C 
BRANCH  20  21
ATOM     21  C   UNL     1     -12.892   5.623 -20.455  1.00  0.00     0.002 C 
BRANCH  21  22
ATOM     22  C   UNL     1     -14.360   5.319 -20.776  1.00  0.00    -0.000 C 
BRANCH  22  23
ATOM     23  C   UNL     1     -15.006   6.231 -21.822  1.00  0.00    -0.003 C 
ATOM     24  C   UNL     1     -14.349   6.136 -23.190  1.00  0.00     0.004 C 
ENDBRANCH  22  23
ENDBRANCH  21  22
ENDBRANCH  20  21
ENDBRANCH  19  20
ENDBRANCH  16  19
ENDBRANCH  14  15
ENDBRANCH   9  14
ENDBRANCH   1   8
BRANCH   4  25
ATOM     25  C   UNL     1      -4.743   6.993 -11.602  1.00  0.00     0.105 C 
ATOM     26  C   UNL     1      -4.652   6.667 -10.107  1.00  0.00     0.023 C 
BRANCH  25  27
ATOM     27  C   UNL     1      -3.586   7.926 -11.978  1.00  0.00     0.227 C 
ATOM     28  O   UNL     1      -2.638   7.517 -12.653  1.00  0.00    -0.274 OA
ATOM     29  N   UNL     1      -3.554   9.225 -11.568  1.00  0.00    -0.356 N 
ATOM     30  H   UNL     1      -2.746   9.722 -11.831  1.00  0.00     0.163 HD
BRANCH  29  31
ATOM     31  C   UNL     1      -4.521   9.992 -10.805  1.00  0.00     0.117 C 
BRANCH  31  32
ATOM     32  C   UNL     1      -4.001  10.362  -9.424  1.00  0.00     0.042 C 
BRANCH  32  33
ATOM     33  C   UNL     1      -2.771  11.259  -9.447  1.00  0.00     0.118 C 
BRANCH  33  34
ATOM     34  N   UNL     1      -3.030  12.556 -10.057  1.00  0.00    -0.352 N 
ATOM     35  C   UNL     1      -2.941  13.819  -9.530  1.00  0.00     0.251 C 
ATOM     36  H   UNL     1      -3.314  12.520 -10.999  1.00  0.00     0.163 HD
ATOM     37  O   UNL     1      -3.376  14.775 -10.165  1.00  0.00    -0.269 OA
BRANCH  35  38
ATOM     38  C   UNL     1      -2.347  14.037  -8.193  1.00  0.00     0.039 A 
ATOM     39  C   UNL     1      -2.951  14.957  -7.331  1.00  0.00     0.014 A 
ATOM     40  C   UNL     1      -1.191  13.362  -7.793  1.00  0.00     0.014 A 
ATOM     41  C   UNL     1      -2.437  15.146  -6.046  1.00  0.00     0.010 A 
ATOM     42  C   UNL     1      -0.732  13.486  -6.485  1.00  0.00     0.010 A 
ATOM     43  C   UNL     1      -1.347  14.383  -5.599  1.00  0.00    -0.014 A 
BRANCH  43  44
ATOM     44  C   UNL     1      -0.834  14.509  -4.211  1.00  0.00     0.031 A 
ATOM     45  C   UNL     1       0.568  14.993  -3.961  1.00  0.00     0.074 A 
ATOM     46  C   UNL     1      -1.608  14.124  -3.178  1.00  0.00     0.049 A 
ATOM     47  N   UNL     1       1.212  15.106  -2.827  1.00  0.00    -0.248 NA
ATOM     48  C   UNL     1       1.360  15.375  -5.142  1.00  0.00     0.031 C 
ATOM     49  C   UNL     1      -2.971  13.598  -3.286  1.00  0.00     0.029 A 
ATOM     50  N   UNL     1      -1.354  14.110  -1.829  1.00  0.00    -0.354 N 
ATOM     51  C   UNL     1       2.486  15.550  -3.159  1.00  0.00     0.074 A 
ATOM     52  C   UNL     1       2.540  15.640  -4.601  1.00  0.00     0.031 C 
ATOM     53  C   UNL     1      -3.441  13.338  -2.056  1.00  0.00     0.029 A 
ATOM     54  C   UNL     1      -2.402  13.638  -1.076  1.00  0.00     0.049 A 
ATOM     55  H   UNL     1      -0.502  14.409  -1.438  1.00  0.00     0.167 HD
ATOM     56  C   UNL     1       3.513  15.873  -2.337  1.00  0.00     0.031 A 
ATOM     57  C   UNL     1      -2.514  13.460   0.253  1.00  0.00     0.031 A 
ATOM     58  C   UNL     1       3.456  15.799  -0.902  1.00  0.00     0.049 A 
ATOM     59  C   UNL     1      -1.356  13.819   1.143  1.00  0.00     0.074 A 
ATOM     60  C   UNL     1       4.423  16.163   0.018  1.00  0.00     0.029 A 
ATOM     61  N   UNL     1       2.371  15.328  -0.179  1.00  0.00    -0.354 N 
ATOM     62  N   UNL     1      -0.183  14.303   0.817  1.00  0.00    -0.248 NA
ATOM     63  C   UNL     1      -1.545  13.616   2.586  1.00  0.00     0.031 C 
ATOM     64  C   UNL     1       3.943  15.864   1.298  1.00  0.00     0.029 A 
ATOM     65  C   UNL     1       2.655  15.368   1.175  1.00  0.00     0.049 A 
ATOM     66  H   UNL     1       1.525  15.012  -0.571  1.00  0.00     0.167 HD
ATOM     67  C   UNL     1       0.495  14.490   2.014  1.00  0.00     0.074 A 
ATOM     68  C   UNL     1      -0.404  14.082   3.074  1.00  0.00     0.031 C 
ATOM     69  C   UNL     1       1.750  14.959   2.218  1.00  0.00     0.031 A 
BRANCH  56  70
ATOM     70  C   UNL     1       4.795  16.331  -2.977  1.00  0.00    -0.014 A 
ATOM     71  C   UNL     1       4.884  17.578  -3.619  1.00  0.00     0.009 A 
ATOM     72  C   UNL     1       5.939  15.523  -2.905  1.00  0.00     0.009 A 
ATOM     73  C   UNL     1       6.083  17.987  -4.206  1.00  0.00     0.001 A 
ATOM     74  C   UNL     1       7.145  15.948  -3.466  1.00  0.00     0.001 A 
ATOM     75  C   UNL     1       7.213  17.175  -4.125  1.00  0.00     0.000 A 
ENDBRANCH  56  70
BRANCH  57  76
ATOM     76  C   UNL     1      -3.775  12.925   0.831  1.00  0.00    -0.014 A 
ATOM     77  C   UNL     1      -4.617  13.752   1.589  1.00  0.00     0.009 A 
ATOM     78  C   UNL     1      -4.138  11.584   0.635  1.00  0.00     0.009 A 
ATOM     79  C   UNL     1      -5.782  13.240   2.164  1.00  0.00     0.001 A 
ATOM     80  C   UNL     1      -5.319  11.082   1.186  1.00  0.00     0.001 A 
ATOM     81  C   UNL     1      -6.134  11.907   1.959  1.00  0.00     0.000 A 
ENDBRANCH  57  76
BRANCH  69  82
ATOM     82  C   UNL     1       2.211  15.091   3.642  1.00  0.00    -0.014 A 
ATOM     83  C   UNL     1       2.520  13.963   4.418  1.00  0.00     0.009 A 
ATOM     84  C   UNL     1       2.375  16.368   4.202  1.00  0.00     0.009 A 
ATOM     85  C   UNL     1       2.950  14.111   5.738  1.00  0.00     0.001 A 
ATOM     86  C   UNL     1       2.834  16.513   5.511  1.00  0.00     0.001 A 
ATOM     87  C   UNL     1       3.112  15.385   6.281  1.00  0.00     0.000 A 
ENDBRANCH  69  82
ENDBRANCH  43  44
ENDBRANCH  35  38
ENDBRANCH  33  34
ENDBRANCH  32  33
ENDBRANCH  31  32
ENDBRANCH  29  31
ENDBRANCH  25  27
ENDBRANCH   4  25
TORSDOF 19
