REMARK SMILES Cc1cc(C)n(-c2ccccc2NS(=O)(=O)c2cc(C)c(C(=O)NCCCNC(=O)c3ccc(-c4c5nc(c(-c6ccccc6)c6ccc([nH]6)c(-c6ccccc6)c6nc(c(-c7ccccc7)c7ccc4[nH]7)C=C6)C=C5)cc3)s2)n1
REMARK SMILES IDX 25 1 24 2 22 3 23 4 21 6 17 7 18 8 79 9 19 10 20 11 14 12
REMARK SMILES IDX 15 13 16 14 13 15 12 17 7 18 8 19 9 20 11 21 10 22 6 23 1 24
REMARK SMILES IDX 2 25 3 26 80 27 4 28 5 29 26 30 27 31 28 32 29 33 30 35
REMARK SMILES IDX 31 36 32 37 78 38 33 39 77 40 34 41 35 42 36 43 71 44 37 45
REMARK SMILES IDX 76 46 70 47 72 48 38 49 75 50 69 51 68 52 39 54 61 55 46 56
REMARK SMILES IDX 60 57 47 58 50 59 59 60 73 61 48 62 49 63 58 65 74 66 51 67
REMARK SMILES IDX 40 68 41 69 45 70 42 71 44 72 43 73 62 74 63 75 67 76 64 77
REMARK SMILES IDX 66 78 65 79 52 80 53 81 57 82 54 83 56 84 55 85
REMARK H PARENT 24 5 13 16 28 34 72 53 50 64
REMARK Flexibility Score: inf
ROOT
ATOM      1  C   UNL     1       6.553   8.725   1.363  1.00  0.00     0.118 C 
ENDROOT
BRANCH   1   2
ATOM      2  N   UNL     1       6.300   9.871   0.493  1.00  0.00    -0.351 N 
ATOM      3  C   UNL     1       5.739   9.996  -0.762  1.00  0.00     0.261 C 
ATOM      4  O   UNL     1       5.552  11.158  -1.135  1.00  0.00    -0.268 OA
ATOM      5  H   UNL     1       6.589  10.729   0.881  1.00  0.00     0.163 HD
BRANCH   3   6
ATOM      6  C   UNL     1       5.319   8.850  -1.564  1.00  0.00     0.096 A 
ATOM      7  C   UNL     1       4.726   6.554  -2.163  1.00  0.00     0.141 A 
ATOM      8  C   UNL     1       4.080   7.454  -2.987  1.00  0.00     0.038 A 
ATOM      9  S   UNL     1       6.062   7.315  -1.446  1.00  0.00    -0.116 S 
ATOM     10  C   UNL     1       4.366   8.815  -2.587  1.00  0.00    -0.026 A 
ATOM     11  C   UNL     1       3.620  10.001  -3.114  1.00  0.00     0.046 C 
BRANCH   7  12
ATOM     12  S   UNL     1       4.447   4.878  -1.658  1.00  0.00     0.271 S 
ATOM     13  O   UNL     1       4.784   4.833  -0.241  1.00  0.00    -0.200 OA
ATOM     14  O   UNL     1       5.151   4.077  -2.623  1.00  0.00    -0.200 OA
BRANCH  12  15
ATOM     15  N   UNL     1       2.824   4.507  -1.788  1.00  0.00    -0.277 N 
ATOM     16  H   UNL     1       2.593   3.692  -2.289  1.00  0.00     0.180 HD
BRANCH  15  17
ATOM     17  C   UNL     1       1.724   5.267  -1.235  1.00  0.00     0.075 A 
ATOM     18  C   UNL     1       0.434   4.722  -1.396  1.00  0.00     0.089 A 
ATOM     19  C   UNL     1      -0.710   5.532  -1.318  1.00  0.00     0.030 A 
ATOM     20  C   UNL     1      -0.579   6.893  -1.058  1.00  0.00     0.002 A 
ATOM     21  C   UNL     1       1.817   6.615  -0.884  1.00  0.00     0.029 A 
ATOM     22  C   UNL     1       0.680   7.428  -0.816  1.00  0.00     0.002 A 
BRANCH  18  23
ATOM     23  N   UNL     1       0.287   3.321  -1.550  1.00  0.00    -0.236 N 
ATOM     24  C   UNL     1       1.027   0.139  -0.157  1.00  0.00     0.069 C 
ATOM     25  C   UNL     1       0.528   1.285  -0.956  1.00  0.00     0.060 A 
ATOM     26  C   UNL     1      -0.511   1.299  -1.907  1.00  0.00     0.048 A 
ATOM     27  N   UNL     1       1.100   2.488  -0.844  1.00  0.00    -0.173 NA
ATOM     28  C   UNL     1      -0.602   2.608  -2.332  1.00  0.00     0.041 A 
ATOM     29  C   UNL     1      -1.371   3.194  -3.457  1.00  0.00     0.067 C 
ENDBRANCH  18  23
ENDBRANCH  15  17
ENDBRANCH  12  15
ENDBRANCH   7  12
ENDBRANCH   3   6
ENDBRANCH   1   2
BRANCH   1  30
ATOM     30  C   UNL     1       7.963   8.142   1.201  1.00  0.00     0.042 C 
BRANCH  30  31
ATOM     31  C   UNL     1       9.056   9.054   1.734  1.00  0.00     0.118 C 
BRANCH  31  32
ATOM     32  N   UNL     1       9.074   9.120   3.189  1.00  0.00    -0.352 N 
ATOM     33  C   UNL     1       9.872   9.903   3.995  1.00  0.00     0.251 C 
ATOM     34  H   UNL     1       8.437   8.532   3.655  1.00  0.00     0.163 HD
ATOM     35  O   UNL     1      10.030   9.614   5.176  1.00  0.00    -0.269 OA
BRANCH  33  36
ATOM     36  C   UNL     1      10.572  11.066   3.417  1.00  0.00     0.039 A 
ATOM     37  C   UNL     1      11.897  11.314   3.771  1.00  0.00     0.014 A 
ATOM     38  C   UNL     1       9.923  11.891   2.498  1.00  0.00     0.014 A 
ATOM     39  C   UNL     1      12.591  12.329   3.118  1.00  0.00     0.010 A 
ATOM     40  C   UNL     1      10.645  12.819   1.768  1.00  0.00     0.010 A 
ATOM     41  C   UNL     1      11.981  13.054   2.076  1.00  0.00    -0.014 A 
BRANCH  41  42
ATOM     42  C   UNL     1      12.811  13.946   1.259  1.00  0.00     0.031 A 
ATOM     43  C   UNL     1      14.139  13.390   0.876  1.00  0.00     0.074 A 
ATOM     44  C   UNL     1      12.455  15.137   0.732  1.00  0.00     0.049 A 
ATOM     45  N   UNL     1      15.289  13.751   1.340  1.00  0.00    -0.248 NA
ATOM     46  C   UNL     1      14.192  12.239  -0.037  1.00  0.00     0.031 C 
ATOM     47  C   UNL     1      11.142  15.783   0.706  1.00  0.00     0.029 A 
ATOM     48  N   UNL     1      13.231  16.003   0.013  1.00  0.00    -0.354 N 
ATOM     49  C   UNL     1      16.238  13.009   0.648  1.00  0.00     0.074 A 
ATOM     50  C   UNL     1      15.506  12.000  -0.080  1.00  0.00     0.031 C 
ATOM     51  C   UNL     1      11.159  16.806  -0.179  1.00  0.00     0.029 A 
ATOM     52  C   UNL     1      12.521  16.998  -0.643  1.00  0.00     0.049 A 
ATOM     53  H   UNL     1      14.212  15.927  -0.035  1.00  0.00     0.167 HD
ATOM     54  C   UNL     1      17.527  13.435   0.545  1.00  0.00     0.031 A 
ATOM     55  C   UNL     1      13.010  17.914  -1.512  1.00  0.00     0.031 A 
ATOM     56  C   UNL     1      17.836  14.462   1.511  1.00  0.00     0.049 A 
ATOM     57  C   UNL     1      14.460  18.049  -1.256  1.00  0.00     0.074 A 
ATOM     58  C   UNL     1      17.732  14.574   2.885  1.00  0.00     0.029 A 
ATOM     59  N   UNL     1      17.978  15.749   1.049  1.00  0.00    -0.354 N 
ATOM     60  N   UNL     1      14.953  18.612  -0.191  1.00  0.00    -0.248 NA
ATOM     61  C   UNL     1      15.385  17.217  -2.006  1.00  0.00     0.031 C 
ATOM     62  C   UNL     1      17.298  15.916   3.110  1.00  0.00     0.029 A 
ATOM     63  C   UNL     1      17.236  16.554   1.871  1.00  0.00     0.049 A 
ATOM     64  H   UNL     1      18.512  16.037   0.273  1.00  0.00     0.167 HD
ATOM     65  C   UNL     1      16.073  17.856   0.116  1.00  0.00     0.074 A 
ATOM     66  C   UNL     1      16.359  17.099  -1.101  1.00  0.00     0.031 C 
ATOM     67  C   UNL     1      16.490  17.702   1.408  1.00  0.00     0.031 A 
BRANCH  54  68
ATOM     68  C   UNL     1      18.359  13.249  -0.702  1.00  0.00    -0.014 A 
ATOM     69  C   UNL     1      19.685  13.723  -0.705  1.00  0.00     0.009 A 
ATOM     70  C   UNL     1      17.800  12.930  -1.953  1.00  0.00     0.009 A 
ATOM     71  C   UNL     1      20.368  13.968  -1.903  1.00  0.00     0.001 A 
ATOM     72  C   UNL     1      18.496  13.128  -3.148  1.00  0.00     0.001 A 
ATOM     73  C   UNL     1      19.767  13.683  -3.124  1.00  0.00     0.000 A 
ENDBRANCH  54  68
BRANCH  55  74
ATOM     74  C   UNL     1      12.352  18.569  -2.660  1.00  0.00    -0.014 A 
ATOM     75  C   UNL     1      12.928  19.699  -3.264  1.00  0.00     0.009 A 
ATOM     76  C   UNL     1      11.306  17.923  -3.342  1.00  0.00     0.009 A 
ATOM     77  C   UNL     1      12.509  20.131  -4.529  1.00  0.00     0.001 A 
ATOM     78  C   UNL     1      10.882  18.360  -4.601  1.00  0.00     0.001 A 
ATOM     79  C   UNL     1      11.498  19.452  -5.203  1.00  0.00     0.000 A 
ENDBRANCH  55  74
BRANCH  67  80
ATOM     80  C   UNL     1      15.922  18.613   2.468  1.00  0.00    -0.014 A 
ATOM     81  C   UNL     1      14.545  18.762   2.709  1.00  0.00     0.009 A 
ATOM     82  C   UNL     1      16.819  19.246   3.342  1.00  0.00     0.009 A 
ATOM     83  C   UNL     1      14.084  19.557   3.765  1.00  0.00     0.001 A 
ATOM     84  C   UNL     1      16.360  20.018   4.412  1.00  0.00     0.001 A 
ATOM     85  C   UNL     1      14.993  20.181   4.617  1.00  0.00     0.000 A 
ENDBRANCH  67  80
ENDBRANCH  41  42
ENDBRANCH  33  36
ENDBRANCH  31  32
ENDBRANCH  30  31
ENDBRANCH   1  30
TORSDOF 14
