REMARK SMILES C[C@H](NC(N)=O)C(=O)N[C@@H](CO)C(=O)NCCCNC(=O)c1ccc(-c2c3nc(c(-c4ccccc4)c4ccc([nH]4)c(-c4ccccc4)c4nc(c(-c5ccccc5)c5ccc2[nH]5)C=C4)C=C3)cc1
REMARK SMILES IDX 16 1 15 2 13 3 14 4 10 6 9 7 7 8 8 9 2 11 1 12 3 13 4 14
REMARK SMILES IDX 5 16 6 17 11 20 12 21 17 23 18 24 19 25 20 26 21 28 22 29
REMARK SMILES IDX 23 30 69 31 24 32 68 33 25 34 26 35 27 36 62 37 28 38 67 39
REMARK SMILES IDX 61 40 63 41 29 42 66 43 60 44 59 45 30 47 52 48 37 49 51 50
REMARK SMILES IDX 38 51 41 52 50 53 64 54 39 55 40 56 49 58 65 59 42 60 31 61
REMARK SMILES IDX 32 62 36 63 33 64 35 65 34 66 53 67 54 68 58 69 55 70 57 71
REMARK SMILES IDX 56 72 43 73 44 74 48 75 45 76 47 77 46 78
REMARK H PARENT 15 5 9 10 3 15 5 18 5 19 12 22 19 27 63 46 41 57
REMARK Flexibility Score: inf
ROOT
ATOM      1  C   UNL     1      -3.970  -1.142  -2.962  1.00  0.00     0.117 C 
ENDROOT
BRANCH   1   2
ATOM      2  N   UNL     1      -2.777  -0.898  -3.750  1.00  0.00    -0.354 N 
ATOM      3  C   UNL     1      -1.463  -0.898  -3.401  1.00  0.00     0.244 C 
ATOM      4  O   UNL     1      -0.639  -0.841  -4.322  1.00  0.00    -0.273 OA
ATOM      5  H   UNL     1      -2.947  -0.699  -4.699  1.00  0.00     0.163 HD
BRANCH   3   6
ATOM      6  C   UNL     1      -0.974  -1.031  -1.946  1.00  0.00     0.197 C 
BRANCH   6   7
ATOM      7  N   UNL     1      -1.534  -0.005  -1.066  1.00  0.00    -0.340 N 
ATOM      8  C   UNL     1      -0.954   1.116  -0.546  1.00  0.00     0.243 C 
ATOM      9  O   UNL     1      -1.727   2.009  -0.183  1.00  0.00    -0.273 OA
ATOM     10  H   UNL     1      -2.474  -0.146  -0.808  1.00  0.00     0.164 HD
BRANCH   8  11
ATOM     11  C   UNL     1       0.576   1.334  -0.541  1.00  0.00     0.170 C 
ATOM     12  C   UNL     1       1.100   1.731  -1.917  1.00  0.00     0.041 C 
BRANCH  11  13
ATOM     13  N   UNL     1       1.306   0.184  -0.008  1.00  0.00    -0.327 N 
ATOM     14  C   UNL     1       1.728   0.148   1.284  1.00  0.00     0.312 C 
ATOM     15  H   UNL     1       1.496  -0.580  -0.598  1.00  0.00     0.166 HD
ATOM     16  N   UNL     1       2.424  -0.970   1.586  1.00  0.00    -0.352 N 
ATOM     17  O   UNL     1       1.535   1.020   2.119  1.00  0.00    -0.249 OA
ATOM     18  H   UNL     1       2.568  -1.661   0.899  1.00  0.00     0.161 HD
ATOM     19  H   UNL     1       2.786  -1.095   2.493  1.00  0.00     0.161 HD
ENDBRANCH  11  13
ENDBRANCH   8  11
ENDBRANCH   6   7
BRANCH   6  20
ATOM     20  C   UNL     1      -1.103  -2.460  -1.403  1.00  0.00     0.191 C 
BRANCH  20  21
ATOM     21  O   UNL     1      -2.406  -2.793  -0.941  1.00  0.00    -0.394 OA
ATOM     22  H   UNL     1      -2.643  -2.216  -0.197  1.00  0.00     0.210 HD
ENDBRANCH  20  21
ENDBRANCH   6  20
ENDBRANCH   3   6
ENDBRANCH   1   2
BRANCH   1  23
ATOM     23  C   UNL     1      -4.992  -0.025  -3.094  1.00  0.00     0.042 C 
BRANCH  23  24
ATOM     24  C   UNL     1      -5.572   0.122  -4.493  1.00  0.00     0.118 C 
BRANCH  24  25
ATOM     25  N   UNL     1      -6.320  -1.053  -4.923  1.00  0.00    -0.352 N 
ATOM     26  C   UNL     1      -7.659  -1.207  -5.188  1.00  0.00     0.251 C 
ATOM     27  H   UNL     1      -5.779  -1.867  -5.042  1.00  0.00     0.163 HD
ATOM     28  O   UNL     1      -8.123  -2.331  -5.359  1.00  0.00    -0.269 OA
BRANCH  26  29
ATOM     29  C   UNL     1      -8.549  -0.028  -5.241  1.00  0.00     0.039 A 
ATOM     30  C   UNL     1      -9.816  -0.107  -4.658  1.00  0.00     0.014 A 
ATOM     31  C   UNL     1      -8.139   1.152  -5.864  1.00  0.00     0.014 A 
ATOM     32  C   UNL     1     -10.636   1.024  -4.630  1.00  0.00     0.010 A 
ATOM     33  C   UNL     1      -8.909   2.302  -5.741  1.00  0.00     0.010 A 
ATOM     34  C   UNL     1     -10.169   2.250  -5.130  1.00  0.00    -0.014 A 
BRANCH  34  35
ATOM     35  C   UNL     1     -10.983   3.489  -5.032  1.00  0.00     0.031 A 
ATOM     36  C   UNL     1     -11.403   4.217  -6.281  1.00  0.00     0.074 A 
ATOM     37  C   UNL     1     -11.283   3.997  -3.821  1.00  0.00     0.049 A 
ATOM     38  N   UNL     1     -12.052   5.347  -6.399  1.00  0.00    -0.248 NA
ATOM     39  C   UNL     1     -11.017   3.611  -7.567  1.00  0.00     0.031 C 
ATOM     40  C   UNL     1     -10.898   3.413  -2.534  1.00  0.00     0.029 A 
ATOM     41  N   UNL     1     -11.980   5.128  -3.475  1.00  0.00    -0.354 N 
ATOM     42  C   UNL     1     -12.134   5.594  -7.764  1.00  0.00     0.074 A 
ATOM     43  C   UNL     1     -11.418   4.531  -8.431  1.00  0.00     0.031 C 
ATOM     44  C   UNL     1     -11.392   4.170  -1.541  1.00  0.00     0.029 A 
ATOM     45  C   UNL     1     -12.085   5.317  -2.118  1.00  0.00     0.049 A 
ATOM     46  H   UNL     1     -12.368   5.746  -4.136  1.00  0.00     0.167 HD
ATOM     47  C   UNL     1     -12.768   6.603  -8.407  1.00  0.00     0.031 A 
ATOM     48  C   UNL     1     -12.665   6.308  -1.415  1.00  0.00     0.031 A 
ATOM     49  C   UNL     1     -13.489   7.655  -7.743  1.00  0.00     0.049 A 
ATOM     50  C   UNL     1     -13.345   7.428  -2.153  1.00  0.00     0.074 A 
ATOM     51  C   UNL     1     -14.212   8.692  -8.307  1.00  0.00     0.029 A 
ATOM     52  N   UNL     1     -13.575   7.806  -6.368  1.00  0.00    -0.354 N 
ATOM     53  N   UNL     1     -13.474   7.608  -3.445  1.00  0.00    -0.248 NA
ATOM     54  C   UNL     1     -13.969   8.476  -1.333  1.00  0.00     0.031 C 
ATOM     55  C   UNL     1     -14.686   9.505  -7.272  1.00  0.00     0.029 A 
ATOM     56  C   UNL     1     -14.317   8.935  -6.064  1.00  0.00     0.049 A 
ATOM     57  H   UNL     1     -13.169   7.201  -5.706  1.00  0.00     0.167 HD
ATOM     58  C   UNL     1     -14.221   8.770  -3.593  1.00  0.00     0.074 A 
ATOM     59  C   UNL     1     -14.530   9.242  -2.259  1.00  0.00     0.031 C 
ATOM     60  C   UNL     1     -14.617   9.390  -4.731  1.00  0.00     0.031 A 
BRANCH  47  61
ATOM     61  C   UNL     1     -12.704   6.616  -9.910  1.00  0.00    -0.014 A 
ATOM     62  C   UNL     1     -13.364   5.641 -10.678  1.00  0.00     0.009 A 
ATOM     63  C   UNL     1     -12.003   7.637 -10.571  1.00  0.00     0.009 A 
ATOM     64  C   UNL     1     -13.290   5.667 -12.072  1.00  0.00     0.001 A 
ATOM     65  C   UNL     1     -11.959   7.679 -11.966  1.00  0.00     0.001 A 
ATOM     66  C   UNL     1     -12.593   6.689 -12.714  1.00  0.00     0.000 A 
ENDBRANCH  47  61
BRANCH  48  67
ATOM     67  C   UNL     1     -12.642   6.284   0.072  1.00  0.00    -0.014 A 
ATOM     68  C   UNL     1     -13.824   6.078   0.801  1.00  0.00     0.009 A 
ATOM     69  C   UNL     1     -11.441   6.477   0.772  1.00  0.00     0.009 A 
ATOM     70  C   UNL     1     -13.808   6.100   2.198  1.00  0.00     0.001 A 
ATOM     71  C   UNL     1     -11.423   6.465   2.169  1.00  0.00     0.001 A 
ATOM     72  C   UNL     1     -12.608   6.288   2.880  1.00  0.00     0.000 A 
ENDBRANCH  48  67
BRANCH  60  73
ATOM     73  C   UNL     1     -15.467  10.622  -4.586  1.00  0.00    -0.014 A 
ATOM     74  C   UNL     1     -14.934  11.829  -4.107  1.00  0.00     0.009 A 
ATOM     75  C   UNL     1     -16.814  10.582  -4.978  1.00  0.00     0.009 A 
ATOM     76  C   UNL     1     -15.743  12.960  -3.991  1.00  0.00     0.001 A 
ATOM     77  C   UNL     1     -17.612  11.723  -4.893  1.00  0.00     0.001 A 
ATOM     78  C   UNL     1     -17.079  12.909  -4.389  1.00  0.00     0.000 A 
ENDBRANCH  60  73
ENDBRANCH  34  35
ENDBRANCH  26  29
ENDBRANCH  24  25
ENDBRANCH  23  24
ENDBRANCH   1  23
TORSDOF 15
