REMARK SMILES CCCN1CCC[C@@]2(CCN(c3ccc(C(=O)NCCCNC(=O)c4ccc(-c5c6nc(c(-c7ccccc7)c7ccc([nH]7)c(-c7ccccc7)c7nc(c(-c8ccccc8)c8ccc5[nH]8)C=C7)C=C6)cc4)cn3)C2)C1=O
REMARK SMILES IDX 19 1 18 2 16 3 17 4 15 6 12 7 13 8 74 9 14 10 73 11 11 12
REMARK SMILES IDX 4 13 5 14 76 15 6 16 8 17 77 18 7 19 9 20 75 21 10 22 3 23
REMARK SMILES IDX 2 24 1 25 20 26 21 27 22 28 23 29 24 31 25 32 26 33 72 34
REMARK SMILES IDX 27 35 71 36 28 37 29 38 30 39 65 40 31 41 70 42 64 43 66 44
REMARK SMILES IDX 32 45 69 46 63 47 62 48 33 50 55 51 40 52 54 53 41 54 44 55
REMARK SMILES IDX 53 56 67 57 42 58 43 59 52 61 68 62 45 63 34 64 35 65 39 66
REMARK SMILES IDX 36 67 38 68 37 69 56 70 57 71 61 72 58 73 60 74 59 75 46 76
REMARK SMILES IDX 47 77 51 78 48 79 50 80 49 81
REMARK H PARENT 18 5 22 30 66 49 44 60
REMARK Flexibility Score: inf
ROOT
ATOM      1  C   UNL     1       0.144   6.174  -2.878  1.00  0.00     0.118 C 
ENDROOT
BRANCH   1   2
ATOM      2  N   UNL     1       1.589   6.060  -2.973  1.00  0.00    -0.352 N 
ATOM      3  C   UNL     1       2.532   5.485  -2.156  1.00  0.00     0.252 C 
ATOM      4  O   UNL     1       3.693   5.467  -2.568  1.00  0.00    -0.269 OA
ATOM      5  H   UNL     1       1.966   6.477  -3.781  1.00  0.00     0.163 HD
BRANCH   3   6
ATOM      6  C   UNL     1       2.230   4.869  -0.839  1.00  0.00     0.058 A 
ATOM      7  C   UNL     1       1.885   3.516   1.567  1.00  0.00     0.128 A 
ATOM      8  C   UNL     1       0.931   4.433   1.138  1.00  0.00     0.048 A 
ATOM      9  N   UNL     1       3.012   3.304   0.865  1.00  0.00    -0.239 NA
ATOM     10  C   UNL     1       1.116   5.129  -0.054  1.00  0.00     0.019 A 
ATOM     11  C   UNL     1       3.156   3.971  -0.314  1.00  0.00     0.127 A 
BRANCH   7  12
ATOM     12  N   UNL     1       1.579   2.731   2.665  1.00  0.00    -0.356 N 
ATOM     13  N   UNL     1       0.597  -1.493   2.214  1.00  0.00    -0.342 N 
ATOM     14  C   UNL     1      -0.735  -1.737   2.747  1.00  0.00     0.119 C 
ATOM     15  C   UNL     1       1.486  -0.664   2.897  1.00  0.00     0.230 C 
ATOM     16  C   UNL     1      -1.414  -0.469   3.229  1.00  0.00     0.023 C 
ATOM     17  C   UNL     1       0.860   0.601   3.497  1.00  0.00     0.069 C 
ATOM     18  O   UNL     1       2.701  -0.851   2.895  1.00  0.00    -0.274 OA
ATOM     19  C   UNL     1      -0.485   0.295   4.169  1.00  0.00     0.021 C 
ATOM     20  C   UNL     1       1.837   1.309   4.461  1.00  0.00     0.040 C 
ATOM     21  C   UNL     1       0.697   1.611   2.337  1.00  0.00     0.135 C 
ATOM     22  C   UNL     1       2.626   2.261   3.556  1.00  0.00     0.119 C 
BRANCH  13  23
ATOM     23  C   UNL     1       1.114  -2.410   1.200  1.00  0.00     0.119 C 
BRANCH  23  24
ATOM     24  C   UNL     1       0.529  -2.141  -0.192  1.00  0.00     0.018 C 
ATOM     25  C   UNL     1       0.790  -0.729  -0.700  1.00  0.00     0.006 C 
ENDBRANCH  23  24
ENDBRANCH  13  23
ENDBRANCH   7  12
ENDBRANCH   3   6
ENDBRANCH   1   2
BRANCH   1  26
ATOM     26  C   UNL     1      -0.281   7.508  -2.262  1.00  0.00     0.042 C 
BRANCH  26  27
ATOM     27  C   UNL     1      -0.212   8.683  -3.233  1.00  0.00     0.118 C 
BRANCH  27  28
ATOM     28  N   UNL     1      -1.249   8.608  -4.253  1.00  0.00    -0.352 N 
ATOM     29  C   UNL     1      -2.257   9.483  -4.558  1.00  0.00     0.251 C 
ATOM     30  H   UNL     1      -1.220   7.798  -4.813  1.00  0.00     0.163 HD
ATOM     31  O   UNL     1      -3.162   9.115  -5.313  1.00  0.00    -0.269 OA
BRANCH  29  32
ATOM     32  C   UNL     1      -2.290  10.852  -3.999  1.00  0.00     0.039 A 
ATOM     33  C   UNL     1      -3.526  11.401  -3.641  1.00  0.00     0.014 A 
ATOM     34  C   UNL     1      -1.131  11.624  -3.886  1.00  0.00     0.014 A 
ATOM     35  C   UNL     1      -3.595  12.698  -3.127  1.00  0.00     0.010 A 
ATOM     36  C   UNL     1      -1.191  12.894  -3.312  1.00  0.00     0.010 A 
ATOM     37  C   UNL     1      -2.423  13.447  -2.932  1.00  0.00    -0.014 A 
BRANCH  37  38
ATOM     38  C   UNL     1      -2.470  14.806  -2.333  1.00  0.00     0.031 A 
ATOM     39  C   UNL     1      -2.059  16.009  -3.139  1.00  0.00     0.074 A 
ATOM     40  C   UNL     1      -2.824  14.950  -1.041  1.00  0.00     0.049 A 
ATOM     41  N   UNL     1      -1.968  17.260  -2.765  1.00  0.00    -0.248 NA
ATOM     42  C   UNL     1      -1.680  15.773  -4.542  1.00  0.00     0.031 C 
ATOM     43  C   UNL     1      -3.209  13.861  -0.140  1.00  0.00     0.029 A 
ATOM     44  N   UNL     1      -2.906  16.073  -0.256  1.00  0.00    -0.354 N 
ATOM     45  C   UNL     1      -1.500  17.954  -3.874  1.00  0.00     0.074 A 
ATOM     46  C   UNL     1      -1.293  16.982  -4.925  1.00  0.00     0.031 C 
ATOM     47  C   UNL     1      -3.501  14.372   1.067  1.00  0.00     0.029 A 
ATOM     48  C   UNL     1      -3.288  15.815   1.038  1.00  0.00     0.049 A 
ATOM     49  H   UNL     1      -2.710  16.979  -0.590  1.00  0.00     0.167 HD
ATOM     50  C   UNL     1      -1.275  19.283  -4.010  1.00  0.00     0.031 A 
ATOM     51  C   UNL     1      -3.438  16.644   2.088  1.00  0.00     0.031 A 
ATOM     52  C   UNL     1      -1.503  20.254  -2.974  1.00  0.00     0.049 A 
ATOM     53  C   UNL     1      -3.185  18.115   1.906  1.00  0.00     0.074 A 
ATOM     54  C   UNL     1      -1.368  21.631  -3.039  1.00  0.00     0.029 A 
ATOM     55  N   UNL     1      -1.914  19.953  -1.685  1.00  0.00    -0.354 N 
ATOM     56  N   UNL     1      -2.813  18.762   0.829  1.00  0.00    -0.248 NA
ATOM     57  C   UNL     1      -3.384  18.971   3.085  1.00  0.00     0.031 C 
ATOM     58  C   UNL     1      -1.653  22.159  -1.776  1.00  0.00     0.029 A 
ATOM     59  C   UNL     1      -2.016  21.116  -0.941  1.00  0.00     0.049 A 
ATOM     60  H   UNL     1      -2.105  19.047  -1.350  1.00  0.00     0.167 HD
ATOM     61  C   UNL     1      -2.764  20.101   1.191  1.00  0.00     0.074 A 
ATOM     62  C   UNL     1      -3.159  20.176   2.582  1.00  0.00     0.031 C 
ATOM     63  C   UNL     1      -2.421  21.174   0.439  1.00  0.00     0.031 A 
BRANCH  50  64
ATOM     64  C   UNL     1      -0.750  19.774  -5.330  1.00  0.00    -0.014 A 
ATOM     65  C   UNL     1      -1.570  19.818  -6.468  1.00  0.00     0.009 A 
ATOM     66  C   UNL     1       0.563  20.264  -5.419  1.00  0.00     0.009 A 
ATOM     67  C   UNL     1      -1.078  20.320  -7.675  1.00  0.00     0.001 A 
ATOM     68  C   UNL     1       1.044  20.788  -6.620  1.00  0.00     0.001 A 
ATOM     69  C   UNL     1       0.225  20.810  -7.748  1.00  0.00     0.000 A 
ENDBRANCH  50  64
BRANCH  51  70
ATOM     70  C   UNL     1      -3.853  16.110   3.412  1.00  0.00    -0.014 A 
ATOM     71  C   UNL     1      -5.124  16.401   3.933  1.00  0.00     0.009 A 
ATOM     72  C   UNL     1      -2.970  15.330   4.175  1.00  0.00     0.009 A 
ATOM     73  C   UNL     1      -5.488  15.953   5.204  1.00  0.00     0.001 A 
ATOM     74  C   UNL     1      -3.348  14.858   5.434  1.00  0.00     0.001 A 
ATOM     75  C   UNL     1      -4.601  15.180   5.952  1.00  0.00     0.000 A 
ENDBRANCH  51  70
BRANCH  63  76
ATOM     76  C   UNL     1      -2.500  22.525   1.091  1.00  0.00    -0.014 A 
ATOM     77  C   UNL     1      -1.558  22.929   2.049  1.00  0.00     0.009 A 
ATOM     78  C   UNL     1      -3.512  23.420   0.709  1.00  0.00     0.009 A 
ATOM     79  C   UNL     1      -1.648  24.192   2.636  1.00  0.00     0.001 A 
ATOM     80  C   UNL     1      -3.582  24.693   1.276  1.00  0.00     0.001 A 
ATOM     81  C   UNL     1      -2.656  25.074   2.246  1.00  0.00     0.000 A 
ENDBRANCH  63  76
ENDBRANCH  37  38
ENDBRANCH  29  32
ENDBRANCH  27  28
ENDBRANCH  26  27
ENDBRANCH   1  26
TORSDOF 13
