REMARK SMILES O=C(CCCC(=O)NCc1ccco1)NCCCNC(=O)c1ccc(-c2c3nc(c(-c4ccccc4)c4ccc([nH]4)c(-c4ccccc4)c4nc(c(-c5ccccc5)c5ccc2[nH]5)C=C4)C=C3)cc1
REMARK SMILES IDX 1 1 2 2 15 3 3 5 4 6 5 7 6 8 7 9 8 10 9 12 10 13 11 14 14 15
REMARK SMILES IDX 12 16 13 17 16 18 17 19 18 20 19 21 20 22 21 24 22 25 23 26
REMARK SMILES IDX 69 27 24 28 68 29 25 30 26 31 27 32 62 33 28 34 67 35 61 36
REMARK SMILES IDX 63 37 29 38 66 39 60 40 59 41 30 43 52 44 37 45 51 46 38 47
REMARK SMILES IDX 41 48 50 49 64 50 39 51 40 52 49 54 65 55 42 56 31 57 32 58
REMARK SMILES IDX 36 59 33 60 35 61 34 62 53 63 54 64 58 65 55 66 57 67 56 68
REMARK SMILES IDX 43 69 44 70 48 71 45 72 47 73 46 74
REMARK H PARENT 15 4 8 11 19 23 63 42 41 53
REMARK Flexibility Score: inf
ROOT
ATOM      1  O   UNL     1       0.539   0.754   0.554  1.00  0.00    -0.275 OA
ATOM      2  C   UNL     1       1.767   0.702   0.568  1.00  0.00     0.220 C 
ATOM      3  N   UNL     1       2.458   0.075   1.571  1.00  0.00    -0.356 N 
ATOM      4  H   UNL     1       3.442   0.096   1.532  1.00  0.00     0.163 HD
ENDROOT
BRANCH   2   5
ATOM      5  C   UNL     1       2.585   1.204  -0.622  1.00  0.00     0.100 C 
BRANCH   5   6
ATOM      6  C   UNL     1       3.943   1.880  -0.433  1.00  0.00     0.020 C 
BRANCH   6   7
ATOM      7  C   UNL     1       5.165   1.118   0.095  1.00  0.00     0.100 C 
BRANCH   7   8
ATOM      8  C   UNL     1       5.943   0.195  -0.825  1.00  0.00     0.220 C 
ATOM      9  O   UNL     1       7.073   0.522  -1.201  1.00  0.00    -0.275 OA
ATOM     10  N   UNL     1       5.522  -1.042  -1.173  1.00  0.00    -0.349 N 
ATOM     11  H   UNL     1       6.181  -1.544  -1.705  1.00  0.00     0.163 HD
BRANCH  10  12
ATOM     12  C   UNL     1       4.304  -1.779  -0.927  1.00  0.00     0.191 C 
BRANCH  12  13
ATOM     13  C   UNL     1       3.659  -2.117  -2.223  1.00  0.00     0.122 A 
ATOM     14  C   UNL     1       3.264  -3.303  -2.809  1.00  0.00     0.047 A 
ATOM     15  O   UNL     1       3.348  -1.075  -3.050  1.00  0.00    -0.467 OA
ATOM     16  C   UNL     1       2.664  -2.962  -4.046  1.00  0.00     0.042 A 
ATOM     17  C   UNL     1       2.735  -1.593  -4.143  1.00  0.00     0.195 A 
ENDBRANCH  12  13
ENDBRANCH  10  12
ENDBRANCH   7   8
ENDBRANCH   6   7
ENDBRANCH   5   6
ENDBRANCH   2   5
BRANCH   3  18
ATOM     18  C   UNL     1       1.843  -0.616   2.686  1.00  0.00     0.117 C 
BRANCH  18  19
ATOM     19  C   UNL     1       2.320  -2.066   2.794  1.00  0.00     0.042 C 
BRANCH  19  20
ATOM     20  C   UNL     1       3.828  -2.265   2.961  1.00  0.00     0.118 C 
BRANCH  20  21
ATOM     21  N   UNL     1       4.377  -1.642   4.155  1.00  0.00    -0.352 N 
ATOM     22  C   UNL     1       5.061  -2.180   5.216  1.00  0.00     0.251 C 
ATOM     23  H   UNL     1       4.232  -0.670   4.212  1.00  0.00     0.163 HD
ATOM     24  O   UNL     1       5.331  -1.459   6.178  1.00  0.00    -0.269 OA
BRANCH  22  25
ATOM     25  C   UNL     1       5.451  -3.608   5.251  1.00  0.00     0.039 A 
ATOM     26  C   UNL     1       5.290  -4.309   6.452  1.00  0.00     0.014 A 
ATOM     27  C   UNL     1       6.007  -4.256   4.146  1.00  0.00     0.014 A 
ATOM     28  C   UNL     1       5.610  -5.668   6.521  1.00  0.00     0.010 A 
ATOM     29  C   UNL     1       6.262  -5.629   4.196  1.00  0.00     0.010 A 
ATOM     30  C   UNL     1       6.057  -6.354   5.381  1.00  0.00    -0.014 A 
BRANCH  30  31
ATOM     31  C   UNL     1       6.280  -7.826   5.407  1.00  0.00     0.031 A 
ATOM     32  C   UNL     1       7.649  -8.405   5.172  1.00  0.00     0.074 A 
ATOM     33  C   UNL     1       5.231  -8.654   5.587  1.00  0.00     0.049 A 
ATOM     34  N   UNL     1       8.012  -9.662   5.100  1.00  0.00    -0.248 NA
ATOM     35  C   UNL     1       8.749  -7.450   4.972  1.00  0.00     0.031 C 
ATOM     36  C   UNL     1       3.845  -8.232   5.802  1.00  0.00     0.029 A 
ATOM     37  N   UNL     1       5.165 -10.026   5.611  1.00  0.00    -0.354 N 
ATOM     38  C   UNL     1       9.376  -9.649   4.834  1.00  0.00     0.074 A 
ATOM     39  C   UNL     1       9.766  -8.261   4.711  1.00  0.00     0.031 C 
ATOM     40  C   UNL     1       3.073  -9.319   5.960  1.00  0.00     0.029 A 
ATOM     41  C   UNL     1       3.896 -10.515   5.811  1.00  0.00     0.049 A 
ATOM     42  H   UNL     1       5.953 -10.605   5.497  1.00  0.00     0.167 HD
ATOM     43  C   UNL     1      10.231 -10.695   4.717  1.00  0.00     0.031 A 
ATOM     44  C   UNL     1       3.437 -11.781   5.856  1.00  0.00     0.031 A 
ATOM     45  C   UNL     1       9.848 -12.078   4.839  1.00  0.00     0.049 A 
ATOM     46  C   UNL     1       4.400 -12.923   5.684  1.00  0.00     0.074 A 
ATOM     47  C   UNL     1      10.655 -13.202   4.783  1.00  0.00     0.029 A 
ATOM     48  N   UNL     1       8.552 -12.527   5.034  1.00  0.00    -0.354 N 
ATOM     49  N   UNL     1       5.696 -12.890   5.494  1.00  0.00    -0.248 NA
ATOM     50  C   UNL     1       3.835 -14.280   5.744  1.00  0.00     0.031 C 
ATOM     51  C   UNL     1       9.839 -14.333   4.881  1.00  0.00     0.029 A 
ATOM     52  C   UNL     1       8.533 -13.912   5.070  1.00  0.00     0.049 A 
ATOM     53  H   UNL     1       7.762 -11.948   5.132  1.00  0.00     0.167 HD
ATOM     54  C   UNL     1       6.106 -14.217   5.448  1.00  0.00     0.074 A 
ATOM     55  C   UNL     1       4.923 -15.029   5.641  1.00  0.00     0.031 C 
ATOM     56  C   UNL     1       7.353 -14.715   5.266  1.00  0.00     0.031 A 
BRANCH  43  57
ATOM     57  C   UNL     1      11.674 -10.383   4.426  1.00  0.00    -0.014 A 
ATOM     58  C   UNL     1      12.498  -9.772   5.385  1.00  0.00     0.009 A 
ATOM     59  C   UNL     1      12.232 -10.751   3.191  1.00  0.00     0.009 A 
ATOM     60  C   UNL     1      13.838  -9.500   5.098  1.00  0.00     0.001 A 
ATOM     61  C   UNL     1      13.580 -10.507   2.919  1.00  0.00     0.001 A 
ATOM     62  C   UNL     1      14.378  -9.872   3.869  1.00  0.00     0.000 A 
ENDBRANCH  43  57
BRANCH  44  63
ATOM     63  C   UNL     1       1.990 -12.041   6.079  1.00  0.00    -0.014 A 
ATOM     64  C   UNL     1       1.545 -12.623   7.276  1.00  0.00     0.009 A 
ATOM     65  C   UNL     1       1.046 -11.723   5.090  1.00  0.00     0.009 A 
ATOM     66  C   UNL     1       0.191 -12.907   7.466  1.00  0.00     0.001 A 
ATOM     67  C   UNL     1      -0.311 -11.978   5.295  1.00  0.00     0.001 A 
ATOM     68  C   UNL     1      -0.737 -12.580   6.478  1.00  0.00     0.000 A 
ENDBRANCH  44  63
BRANCH  56  69
ATOM     69  C   UNL     1       7.518 -16.209   5.316  1.00  0.00    -0.014 A 
ATOM     70  C   UNL     1       7.041 -17.037   4.288  1.00  0.00     0.009 A 
ATOM     71  C   UNL     1       8.206 -16.793   6.393  1.00  0.00     0.009 A 
ATOM     72  C   UNL     1       7.222 -18.421   4.353  1.00  0.00     0.001 A 
ATOM     73  C   UNL     1       8.413 -18.172   6.440  1.00  0.00     0.001 A 
ATOM     74  C   UNL     1       7.913 -18.986   5.425  1.00  0.00     0.000 A 
ENDBRANCH  56  69
ENDBRANCH  30  31
ENDBRANCH  22  25
ENDBRANCH  20  21
ENDBRANCH  19  20
ENDBRANCH  18  19
ENDBRANCH   3  18
TORSDOF 15
