REMARK SMILES CC[NH2+][C@@]1(C(=O)NCCCNC(=O)c2ccc(-c3c4nc(c(-c5ccccc5)c5ccc([nH]5)c(-c5ccccc5)c5nc(c(-c6ccccc6)c6ccc3[nH]6)C=C5)C=C4)cc2)CC[C@@H](Oc2cccc(OC)c2)C1
REMARK SMILES IDX 8 1 7 2 5 3 6 4 4 6 62 7 74 8 63 9 64 10 3 11 2 14 1 15
REMARK SMILES IDX 65 16 66 17 67 18 73 19 68 20 70 21 69 22 71 23 72 24 9 25
REMARK SMILES IDX 10 26 11 27 12 28 13 30 14 31 15 32 61 33 16 34 60 35 17 36
REMARK SMILES IDX 18 37 19 38 54 39 20 40 59 41 53 42 55 43 21 44 58 45 52 46
REMARK SMILES IDX 51 47 22 49 44 50 29 51 43 52 30 53 33 54 42 55 56 56 31 57
REMARK SMILES IDX 32 58 41 60 57 61 34 62 23 63 24 64 28 65 25 66 27 67 26 68
REMARK SMILES IDX 45 69 46 70 50 71 47 72 49 73 48 74 35 75 36 76 40 77 37 78
REMARK SMILES IDX 39 79 38 80
REMARK H PARENT 7 5 3 12 3 13 11 29 55 48 33 59
REMARK Flexibility Score: inf
ROOT
ATOM      1  C   UNL     1      -1.702   0.610  -5.840  1.00  0.00     0.118 C 
ENDROOT
BRANCH   1   2
ATOM      2  N   UNL     1      -1.866  -0.030  -4.558  1.00  0.00    -0.351 N 
ATOM      3  C   UNL     1      -0.985  -0.470  -3.625  1.00  0.00     0.281 C 
ATOM      4  O   UNL     1      -1.507  -1.154  -2.735  1.00  0.00    -0.268 OA
ATOM      5  H   UNL     1      -2.808  -0.177  -4.309  1.00  0.00     0.163 HD
BRANCH   3   6
ATOM      6  C   UNL     1       0.571  -0.200  -3.680  1.00  0.00     0.179 C 
ATOM      7  C   UNL     1       1.013   1.220  -4.084  1.00  0.00     0.083 C 
ATOM      8  C   UNL     1       1.215  -1.151  -4.712  1.00  0.00     0.124 C 
ATOM      9  C   UNL     1       1.733   1.147  -5.428  1.00  0.00     0.052 C 
ATOM     10  C   UNL     1       1.638  -0.300  -5.912  1.00  0.00     0.180 C 
BRANCH   6  11
ATOM     11  N   UNL     1       1.151  -0.530  -2.338  1.00  0.00    -0.334 N 
ATOM     12  H   UNL     1       0.901  -1.492  -2.111  1.00  0.00     0.347 HD
ATOM     13  H   UNL     1       2.159  -0.388  -2.415  1.00  0.00     0.347 HD
BRANCH  11  14
ATOM     14  C   UNL     1       0.689   0.335  -1.246  1.00  0.00     0.257 C 
ATOM     15  C   UNL     1       1.209  -0.191   0.083  1.00  0.00     0.071 C 
ENDBRANCH  11  14
ENDBRANCH   6  11
BRANCH  10  16
ATOM     16  O   UNL     1       2.740  -0.819  -6.676  1.00  0.00    -0.490 OA
BRANCH  16  17
ATOM     17  C   UNL     1       3.978  -0.503  -6.192  1.00  0.00     0.123 A 
ATOM     18  C   UNL     1       4.702   0.523  -6.795  1.00  0.00     0.047 A 
ATOM     19  C   UNL     1       4.515  -1.213  -5.123  1.00  0.00     0.092 A 
ATOM     20  C   UNL     1       5.927   0.906  -6.252  1.00  0.00     0.008 A 
ATOM     21  C   UNL     1       5.712  -0.804  -4.545  1.00  0.00     0.122 A 
ATOM     22  C   UNL     1       6.420   0.255  -5.117  1.00  0.00     0.046 A 
BRANCH  21  23
ATOM     23  O   UNL     1       6.275  -1.365  -3.430  1.00  0.00    -0.497 OA
ATOM     24  C   UNL     1       5.424  -2.217  -2.666  1.00  0.00     0.278 C 
ENDBRANCH  21  23
ENDBRANCH  16  17
ENDBRANCH  10  16
ENDBRANCH   3   6
ENDBRANCH   1   2
BRANCH   1  25
ATOM     25  C   UNL     1      -1.805  -0.398  -6.977  1.00  0.00     0.042 C 
BRANCH  25  26
ATOM     26  C   UNL     1      -3.245  -0.720  -7.337  1.00  0.00     0.118 C 
BRANCH  26  27
ATOM     27  N   UNL     1      -3.926   0.437  -7.908  1.00  0.00    -0.352 N 
ATOM     28  C   UNL     1      -4.455   0.610  -9.161  1.00  0.00     0.251 C 
ATOM     29  H   UNL     1      -4.019   1.209  -7.304  1.00  0.00     0.163 HD
ATOM     30  O   UNL     1      -4.758   1.733  -9.553  1.00  0.00    -0.269 OA
BRANCH  28  31
ATOM     31  C   UNL     1      -4.651  -0.561 -10.035  1.00  0.00     0.039 A 
ATOM     32  C   UNL     1      -4.346  -0.464 -11.395  1.00  0.00     0.014 A 
ATOM     33  C   UNL     1      -5.136  -1.758  -9.502  1.00  0.00     0.014 A 
ATOM     34  C   UNL     1      -4.464  -1.593 -12.207  1.00  0.00     0.010 A 
ATOM     35  C   UNL     1      -5.153  -2.901 -10.286  1.00  0.00     0.010 A 
ATOM     36  C   UNL     1      -4.831  -2.828 -11.649  1.00  0.00    -0.014 A 
BRANCH  36  37
ATOM     37  C   UNL     1      -4.913  -4.065 -12.459  1.00  0.00     0.031 A 
ATOM     38  C   UNL     1      -6.226  -4.791 -12.569  1.00  0.00     0.074 A 
ATOM     39  C   UNL     1      -3.797  -4.585 -13.003  1.00  0.00     0.049 A 
ATOM     40  N   UNL     1      -6.483  -5.959 -13.098  1.00  0.00    -0.248 NA
ATOM     41  C   UNL     1      -7.399  -4.131 -11.968  1.00  0.00     0.031 C 
ATOM     42  C   UNL     1      -2.459  -3.992 -12.934  1.00  0.00     0.029 A 
ATOM     43  N   UNL     1      -3.609  -5.746 -13.709  1.00  0.00    -0.354 N 
ATOM     44  C   UNL     1      -7.834  -6.186 -12.864  1.00  0.00     0.074 A 
ATOM     45  C   UNL     1      -8.330  -5.063 -12.101  1.00  0.00     0.031 C 
ATOM     46  C   UNL     1      -1.595  -4.781 -13.592  1.00  0.00     0.029 A 
ATOM     47  C   UNL     1      -2.304  -5.958 -14.082  1.00  0.00     0.049 A 
ATOM     48  H   UNL     1      -4.340  -6.369 -13.929  1.00  0.00     0.167 HD
ATOM     49  C   UNL     1      -8.598  -7.228 -13.268  1.00  0.00     0.031 A 
ATOM     50  C   UNL     1      -1.740  -6.994 -14.731  1.00  0.00     0.031 A 
ATOM     51  C   UNL     1      -8.102  -8.331 -14.043  1.00  0.00     0.049 A 
ATOM     52  C   UNL     1      -2.607  -8.145 -15.159  1.00  0.00     0.074 A 
ATOM     53  C   UNL     1      -8.803  -9.409 -14.554  1.00  0.00     0.029 A 
ATOM     54  N   UNL     1      -6.778  -8.494 -14.422  1.00  0.00    -0.354 N 
ATOM     55  N   UNL     1      -3.895  -8.319 -14.982  1.00  0.00    -0.248 NA
ATOM     56  C   UNL     1      -1.945  -9.238 -15.884  1.00  0.00     0.031 C 
ATOM     57  C   UNL     1      -7.892 -10.253 -15.197  1.00  0.00     0.029 A 
ATOM     58  C   UNL     1      -6.637  -9.666 -15.143  1.00  0.00     0.049 A 
ATOM     59  H   UNL     1      -6.048  -7.870 -14.209  1.00  0.00     0.167 HD
ATOM     60  C   UNL     1      -4.204  -9.520 -15.607  1.00  0.00     0.074 A 
ATOM     61  C   UNL     1      -2.971 -10.027 -16.173  1.00  0.00     0.031 C 
ATOM     62  C   UNL     1      -5.402 -10.145 -15.709  1.00  0.00     0.031 A 
BRANCH  49  63
ATOM     63  C   UNL     1     -10.048  -7.221 -12.868  1.00  0.00    -0.014 A 
ATOM     64  C   UNL     1     -10.948  -6.283 -13.400  1.00  0.00     0.009 A 
ATOM     65  C   UNL     1     -10.528  -8.182 -11.966  1.00  0.00     0.009 A 
ATOM     66  C   UNL     1     -12.287  -6.282 -13.005  1.00  0.00     0.001 A 
ATOM     67  C   UNL     1     -11.875  -8.201 -11.599  1.00  0.00     0.001 A 
ATOM     68  C   UNL     1     -12.751  -7.245 -12.110  1.00  0.00     0.000 A 
ENDBRANCH  49  63
BRANCH  50  69
ATOM     69  C   UNL     1      -0.284  -6.984 -15.031  1.00  0.00    -0.014 A 
ATOM     70  C   UNL     1       0.168  -6.842 -16.352  1.00  0.00     0.009 A 
ATOM     71  C   UNL     1       0.662  -7.117 -14.002  1.00  0.00     0.009 A 
ATOM     72  C   UNL     1       1.535  -6.864 -16.640  1.00  0.00     0.001 A 
ATOM     73  C   UNL     1       2.029  -7.108 -14.289  1.00  0.00     0.001 A 
ATOM     74  C   UNL     1       2.464  -6.993 -15.608  1.00  0.00     0.000 A 
ENDBRANCH  50  69
BRANCH  62  75
ATOM     75  C   UNL     1      -5.455 -11.415 -16.510  1.00  0.00    -0.014 A 
ATOM     76  C   UNL     1      -4.904 -12.611 -16.027  1.00  0.00     0.009 A 
ATOM     77  C   UNL     1      -6.126 -11.422 -17.744  1.00  0.00     0.009 A 
ATOM     78  C   UNL     1      -5.002 -13.784 -16.779  1.00  0.00     0.001 A 
ATOM     79  C   UNL     1      -6.250 -12.601 -18.477  1.00  0.00     0.001 A 
ATOM     80  C   UNL     1      -5.680 -13.780 -17.998  1.00  0.00     0.000 A 
ENDBRANCH  62  75
ENDBRANCH  36  37
ENDBRANCH  28  31
ENDBRANCH  26  27
ENDBRANCH  25  26
ENDBRANCH   1  25
TORSDOF 15
