REMARK SMILES Cc1nccnc1N1CCC2(CCC(=O)N([C@@H](C)C(=O)NCCCNC(=O)c3ccc(-c4c5nc(c(-c6ccccc6)c6ccc([nH]6)c(-c6ccccc6)c6nc(c(-c7ccccc7)c7ccc4[nH]7)C=C6)C=C5)cc3)C2)CC1
REMARK SMILES IDX 23 1 22 2 21 3 19 4 20 5 17 7 18 8 16 9 8 10 9 11 78 12
REMARK SMILES IDX 10 13 77 14 11 15 12 16 76 17 13 18 14 19 15 20 7 21 1 22
REMARK SMILES IDX 2 23 3 24 4 25 6 26 5 27 24 28 25 29 26 30 27 32 28 33 29 34
REMARK SMILES IDX 75 35 30 36 74 37 31 38 32 39 33 40 68 41 34 42 73 43 67 44
REMARK SMILES IDX 69 45 35 46 72 47 66 48 65 49 36 51 58 52 43 53 57 54 44 55
REMARK SMILES IDX 47 56 56 57 70 58 45 59 46 60 55 62 71 63 48 64 37 65 38 66
REMARK SMILES IDX 42 67 39 68 41 69 40 70 59 71 60 72 64 73 61 74 63 75 62 76
REMARK SMILES IDX 49 77 50 78 54 79 51 80 53 81 52 82
REMARK H PARENT 21 6 25 31 69 50 47 61
REMARK Flexibility Score: inf
ROOT
ATOM      1  C   UNL     1       2.028   9.335   2.491  1.00  0.00     0.042 C 
ENDROOT
BRANCH   1   2
ATOM      2  C   UNL     1       3.091   8.980   3.529  1.00  0.00     0.117 C 
BRANCH   2   3
ATOM      3  N   UNL     1       2.880   7.656   4.093  1.00  0.00    -0.354 N 
ATOM      4  C   UNL     1       3.446   6.446   3.841  1.00  0.00     0.242 C 
ATOM      5  O   UNL     1       2.901   5.480   4.397  1.00  0.00    -0.273 OA
ATOM      6  H   UNL     1       2.191   7.631   4.796  1.00  0.00     0.163 HD
BRANCH   4   7
ATOM      7  C   UNL     1       4.615   6.190   2.852  1.00  0.00     0.171 C 
ATOM      8  C   UNL     1       5.865   7.037   3.039  1.00  0.00     0.042 C 
BRANCH   7   9
ATOM      9  N   UNL     1       4.123   6.018   1.473  1.00  0.00    -0.330 N 
ATOM     10  N   UNL     1       1.035   2.151  -0.070  1.00  0.00    -0.355 N 
ATOM     11  C   UNL     1       0.575   3.314   0.667  1.00  0.00     0.119 C 
ATOM     12  C   UNL     1       1.858   2.414  -1.237  1.00  0.00     0.119 C 
ATOM     13  C   UNL     1       1.819   4.031   1.198  1.00  0.00     0.030 C 
ATOM     14  C   UNL     1       3.158   3.043  -0.737  1.00  0.00     0.030 C 
ATOM     15  C   UNL     1       2.904   4.315   0.116  1.00  0.00    -0.008 C 
ATOM     16  C   UNL     1       2.525   5.463  -0.844  1.00  0.00     0.019 C 
ATOM     17  C   UNL     1       4.207   4.707   0.839  1.00  0.00     0.127 C 
ATOM     18  C   UNL     1       2.525   6.820  -0.174  1.00  0.00     0.101 C 
ATOM     19  C   UNL     1       3.742   7.088   0.690  1.00  0.00     0.223 C 
ATOM     20  O   UNL     1       4.204   8.222   0.799  1.00  0.00    -0.275 OA
BRANCH  10  21
ATOM     21  C   UNL     1       0.285   0.992  -0.031  1.00  0.00     0.150 A 
ATOM     22  C   UNL     1       2.381  -0.433   0.196  1.00  0.00     0.071 C 
ATOM     23  C   UNL     1       0.893  -0.281   0.061  1.00  0.00     0.080 A 
ATOM     24  N   UNL     1       0.177  -1.439   0.087  1.00  0.00    -0.256 NA
ATOM     25  C   UNL     1      -1.161  -1.295   0.059  1.00  0.00     0.131 A 
ATOM     26  N   UNL     1      -1.064   1.101  -0.034  1.00  0.00    -0.236 NA
ATOM     27  C   UNL     1      -1.766  -0.054   0.009  1.00  0.00     0.133 A 
ENDBRANCH  10  21
ENDBRANCH   7   9
ENDBRANCH   4   7
ENDBRANCH   2   3
ENDBRANCH   1   2
BRANCH   1  28
ATOM     28  C   UNL     1       0.666   9.685   3.068  1.00  0.00     0.118 C 
BRANCH  28  29
ATOM     29  N   UNL     1       0.611  11.059   3.538  1.00  0.00    -0.352 N 
ATOM     30  C   UNL     1      -0.025  12.153   3.007  1.00  0.00     0.251 C 
ATOM     31  H   UNL     1       1.108  11.232   4.369  1.00  0.00     0.163 HD
ATOM     32  O   UNL     1       0.264  13.274   3.431  1.00  0.00    -0.269 OA
BRANCH  30  33
ATOM     33  C   UNL     1      -1.042  12.025   1.936  1.00  0.00     0.039 A 
ATOM     34  C   UNL     1      -1.113  13.023   0.956  1.00  0.00     0.014 A 
ATOM     35  C   UNL     1      -1.979  10.988   1.923  1.00  0.00     0.014 A 
ATOM     36  C   UNL     1      -2.087  12.960  -0.046  1.00  0.00     0.010 A 
ATOM     37  C   UNL     1      -2.893  10.878   0.874  1.00  0.00     0.010 A 
ATOM     38  C   UNL     1      -2.973  11.873  -0.111  1.00  0.00    -0.014 A 
BRANCH  38  39
ATOM     39  C   UNL     1      -4.007  11.783  -1.177  1.00  0.00     0.031 A 
ATOM     40  C   UNL     1      -5.471  11.801  -0.820  1.00  0.00     0.074 A 
ATOM     41  C   UNL     1      -3.636  11.642  -2.465  1.00  0.00     0.049 A 
ATOM     42  N   UNL     1      -6.516  11.687  -1.603  1.00  0.00    -0.248 NA
ATOM     43  C   UNL     1      -5.807  11.942   0.606  1.00  0.00     0.031 C 
ATOM     44  C   UNL     1      -2.256  11.579  -2.948  1.00  0.00     0.029 A 
ATOM     45  N   UNL     1      -4.393  11.524  -3.605  1.00  0.00    -0.354 N 
ATOM     46  C   UNL     1      -7.624  11.720  -0.764  1.00  0.00     0.074 A 
ATOM     47  C   UNL     1      -7.125  11.815   0.590  1.00  0.00     0.031 C 
ATOM     48  C   UNL     1      -2.264  11.465  -4.286  1.00  0.00     0.029 A 
ATOM     49  C   UNL     1      -3.646  11.404  -4.752  1.00  0.00     0.049 A 
ATOM     50  H   UNL     1      -5.377  11.525  -3.601  1.00  0.00     0.167 HD
ATOM     51  C   UNL     1      -8.939  11.696  -1.089  1.00  0.00     0.031 A 
ATOM     52  C   UNL     1      -4.027  11.256  -6.035  1.00  0.00     0.031 A 
ATOM     53  C   UNL     1      -9.441  11.620  -2.435  1.00  0.00     0.049 A 
ATOM     54  C   UNL     1      -5.493  11.217  -6.369  1.00  0.00     0.074 A 
ATOM     55  C   UNL     1     -10.755  11.647  -2.869  1.00  0.00     0.029 A 
ATOM     56  N   UNL     1      -8.649  11.500  -3.566  1.00  0.00    -0.354 N 
ATOM     57  N   UNL     1      -6.526  11.313  -5.568  1.00  0.00    -0.248 NA
ATOM     58  C   UNL     1      -5.843  11.059  -7.788  1.00  0.00     0.031 C 
ATOM     59  C   UNL     1     -10.761  11.491  -4.258  1.00  0.00     0.029 A 
ATOM     60  C   UNL     1      -9.447  11.427  -4.695  1.00  0.00     0.049 A 
ATOM     61  H   UNL     1      -7.665  11.472  -3.567  1.00  0.00     0.167 HD
ATOM     62  C   UNL     1      -7.646  11.257  -6.388  1.00  0.00     0.074 A 
ATOM     63  C   UNL     1      -7.166  11.134  -7.748  1.00  0.00     0.031 C 
ATOM     64  C   UNL     1      -8.956  11.303  -6.043  1.00  0.00     0.031 A 
BRANCH  51  65
ATOM     65  C   UNL     1      -9.933  11.746   0.040  1.00  0.00    -0.014 A 
ATOM     66  C   UNL     1     -10.113  12.911   0.803  1.00  0.00     0.009 A 
ATOM     67  C   UNL     1     -10.727  10.623   0.321  1.00  0.00     0.009 A 
ATOM     68  C   UNL     1     -11.036  12.936   1.851  1.00  0.00     0.001 A 
ATOM     69  C   UNL     1     -11.671  10.661   1.349  1.00  0.00     0.001 A 
ATOM     70  C   UNL     1     -11.818  11.813   2.119  1.00  0.00     0.000 A 
ENDBRANCH  51  65
BRANCH  52  71
ATOM     71  C   UNL     1      -3.004  11.147  -7.108  1.00  0.00    -0.014 A 
ATOM     72  C   UNL     1      -2.824  12.190  -8.030  1.00  0.00     0.009 A 
ATOM     73  C   UNL     1      -2.207   9.997  -7.222  1.00  0.00     0.009 A 
ATOM     74  C   UNL     1      -1.886  12.072  -9.058  1.00  0.00     0.001 A 
ATOM     75  C   UNL     1      -1.250   9.895  -8.233  1.00  0.00     0.001 A 
ATOM     76  C   UNL     1      -1.097  10.928  -9.156  1.00  0.00     0.000 A 
ENDBRANCH  52  71
BRANCH  64  77
ATOM     77  C   UNL     1      -9.963  11.257  -7.158  1.00  0.00    -0.014 A 
ATOM     78  C   UNL     1     -10.207  10.075  -7.874  1.00  0.00     0.009 A 
ATOM     79  C   UNL     1     -10.709  12.406  -7.467  1.00  0.00     0.009 A 
ATOM     80  C   UNL     1     -11.153  10.055  -8.900  1.00  0.00     0.001 A 
ATOM     81  C   UNL     1     -11.675  12.375  -8.473  1.00  0.00     0.001 A 
ATOM     82  C   UNL     1     -11.890  11.202  -9.195  1.00  0.00     0.000 A 
ENDBRANCH  64  77
ENDBRANCH  38  39
ENDBRANCH  30  33
ENDBRANCH  28  29
ENDBRANCH   1  28
TORSDOF 12
