REMARK SMILES CC(C)[NH2+][C@@H](C(=O)NCCCNC(=O)c1ccc(-c2c3nc(c(-c4ccccc4)c4ccc([nH]4)c(-c4ccccc4)c4nc(c(-c5ccccc5)c5ccc2[nH]5)C=C4)C=C3)cc1)c1c[nH]c2ccc(Br)cc12
REMARK SMILES IDX 10 1 9 2 8 3 6 4 7 5 5 7 4 8 2 11 1 12 3 13 63 14 64 15
REMARK SMILES IDX 72 16 65 17 66 18 71 19 67 21 69 22 68 23 70 24 11 25 12 26
REMARK SMILES IDX 13 27 14 29 15 30 16 31 62 32 17 33 61 34 18 35 19 36 20 37
REMARK SMILES IDX 55 38 21 39 60 40 54 41 56 42 22 43 59 44 53 45 52 46 23 48
REMARK SMILES IDX 45 49 30 50 44 51 31 52 34 53 43 54 57 55 32 56 33 57 42 59
REMARK SMILES IDX 58 60 35 61 24 62 25 63 29 64 26 65 28 66 27 67 46 68 47 69
REMARK SMILES IDX 51 70 48 71 50 72 49 73 36 74 37 75 41 76 38 77 40 78 39 79
REMARK H PARENT 8 6 4 9 4 10 65 20 12 28 56 47 34 58
REMARK Flexibility Score: inf
ROOT
ATOM      1  C   UNL     1       2.605   2.202   2.617  1.00  0.00     0.042 C 
ENDROOT
BRANCH   1   2
ATOM      2  C   UNL     1       1.206   2.389   3.238  1.00  0.00     0.118 C 
BRANCH   2   3
ATOM      3  N   UNL     1       0.356   3.385   2.605  1.00  0.00    -0.351 N 
ATOM      4  C   UNL     1      -0.911   3.343   2.078  1.00  0.00     0.283 C 
ATOM      5  O   UNL     1      -1.414   4.458   1.905  1.00  0.00    -0.268 OA
ATOM      6  H   UNL     1       0.776   4.272   2.540  1.00  0.00     0.163 HD
BRANCH   4   7
ATOM      7  C   UNL     1      -1.676   2.021   1.818  1.00  0.00     0.306 C 
BRANCH   7   8
ATOM      8  N   UNL     1      -0.819   0.939   1.307  1.00  0.00    -0.330 N 
ATOM      9  H   UNL     1      -0.271   0.632   2.111  1.00  0.00     0.347 HD
ATOM     10  H   UNL     1      -1.527   0.355   0.863  1.00  0.00     0.347 HD
BRANCH   8  11
ATOM     11  C   UNL     1       0.131   1.038   0.218  1.00  0.00     0.176 C 
ATOM     12  C   UNL     1       0.146  -0.268  -0.586  1.00  0.00     0.075 C 
ATOM     13  C   UNL     1       0.098   2.224  -0.746  1.00  0.00     0.075 C 
ENDBRANCH   8  11
ENDBRANCH   7   8
BRANCH   7  14
ATOM     14  C   UNL     1      -2.862   2.029   0.869  1.00  0.00     0.044 A 
ATOM     15  C   UNL     1      -3.695   0.934   0.646  1.00  0.00     0.094 A 
ATOM     16  C   UNL     1      -3.301   2.949  -0.136  1.00  0.00     0.010 A 
ATOM     17  N   UNL     1      -3.728   0.861  -0.726  1.00  0.00    -0.361 N 
ATOM     18  C   UNL     1      -3.636   2.136  -1.224  1.00  0.00     0.046 A 
ATOM     19  C   UNL     1      -3.379   4.343  -0.312  1.00  0.00     0.026 A 
ATOM     20  H   UNL     1      -3.805   0.037  -1.258  1.00  0.00     0.166 HD
ATOM     21  C   UNL     1      -3.825   2.615  -2.520  1.00  0.00     0.028 A 
ATOM     22  C   UNL     1      -3.746   4.842  -1.567  1.00  0.00     0.018 A 
ATOM     23  C   UNL     1      -3.905   4.000  -2.667  1.00  0.00     0.018 A 
ATOM     24  Br  UNL     1      -4.065   6.697  -1.774  1.00  0.00    -0.051 Br
ENDBRANCH   7  14
ENDBRANCH   4   7
ENDBRANCH   2   3
ENDBRANCH   1   2
BRANCH   1  25
ATOM     25  C   UNL     1       3.271   3.430   1.990  1.00  0.00     0.118 C 
BRANCH  25  26
ATOM     26  N   UNL     1       4.387   3.894   2.796  1.00  0.00    -0.352 N 
ATOM     27  C   UNL     1       5.717   4.034   2.481  1.00  0.00     0.251 C 
ATOM     28  H   UNL     1       4.152   4.149   3.717  1.00  0.00     0.163 HD
ATOM     29  O   UNL     1       6.524   4.208   3.388  1.00  0.00    -0.269 OA
BRANCH  27  30
ATOM     30  C   UNL     1       6.206   3.983   1.078  1.00  0.00     0.039 A 
ATOM     31  C   UNL     1       7.450   3.385   0.837  1.00  0.00     0.014 A 
ATOM     32  C   UNL     1       5.535   4.613   0.026  1.00  0.00     0.014 A 
ATOM     33  C   UNL     1       8.010   3.404  -0.446  1.00  0.00     0.010 A 
ATOM     34  C   UNL     1       6.076   4.595  -1.266  1.00  0.00     0.010 A 
ATOM     35  C   UNL     1       7.327   4.006  -1.512  1.00  0.00    -0.014 A 
BRANCH  35  36
ATOM     36  C   UNL     1       7.930   4.053  -2.872  1.00  0.00     0.031 A 
ATOM     37  C   UNL     1       8.401   5.359  -3.457  1.00  0.00     0.074 A 
ATOM     38  C   UNL     1       8.044   2.925  -3.600  1.00  0.00     0.049 A 
ATOM     39  N   UNL     1       8.929   5.596  -4.633  1.00  0.00    -0.248 NA
ATOM     40  C   UNL     1       8.249   6.556  -2.616  1.00  0.00     0.031 C 
ATOM     41  C   UNL     1       7.625   1.592  -3.169  1.00  0.00     0.029 A 
ATOM     42  N   UNL     1       8.547   2.725  -4.863  1.00  0.00    -0.354 N 
ATOM     43  C   UNL     1       9.157   6.965  -4.679  1.00  0.00     0.074 A 
ATOM     44  C   UNL     1       8.682   7.512  -3.426  1.00  0.00     0.031 C 
ATOM     45  C   UNL     1       7.902   0.709  -4.143  1.00  0.00     0.029 A 
ATOM     46  C   UNL     1       8.489   1.417  -5.277  1.00  0.00     0.049 A 
ATOM     47  H   UNL     1       8.915   3.450  -5.418  1.00  0.00     0.167 HD
ATOM     48  C   UNL     1       9.721   7.704  -5.666  1.00  0.00     0.031 A 
ATOM     49  C   UNL     1       8.861   0.848  -6.440  1.00  0.00     0.031 A 
ATOM     50  C   UNL     1      10.209   7.173  -6.911  1.00  0.00     0.049 A 
ATOM     51  C   UNL     1       9.462   1.691  -7.529  1.00  0.00     0.074 A 
ATOM     52  C   UNL     1      10.839   7.845  -7.946  1.00  0.00     0.029 A 
ATOM     53  N   UNL     1      10.120   5.845  -7.293  1.00  0.00    -0.354 N 
ATOM     54  N   UNL     1       9.714   2.977  -7.533  1.00  0.00    -0.248 NA
ATOM     55  C   UNL     1       9.839   0.998  -8.771  1.00  0.00     0.031 C 
ATOM     56  C   UNL     1      11.097   6.928  -8.972  1.00  0.00     0.029 A 
ATOM     57  C   UNL     1      10.665   5.680  -8.556  1.00  0.00     0.049 A 
ATOM     58  H   UNL     1       9.729   5.125  -6.747  1.00  0.00     0.167 HD
ATOM     59  C   UNL     1      10.299   3.243  -8.765  1.00  0.00     0.074 A 
ATOM     60  C   UNL     1      10.375   1.984  -9.477  1.00  0.00     0.031 C 
ATOM     61  C   UNL     1      10.736   4.426  -9.258  1.00  0.00     0.031 A 
BRANCH  48  62
ATOM     62  C   UNL     1       9.832   9.185  -5.441  1.00  0.00    -0.014 A 
ATOM     63  C   UNL     1      10.782   9.715  -4.554  1.00  0.00     0.009 A 
ATOM     64  C   UNL     1       9.007  10.064  -6.160  1.00  0.00     0.009 A 
ATOM     65  C   UNL     1      10.880  11.096  -4.368  1.00  0.00     0.001 A 
ATOM     66  C   UNL     1       9.124  11.445  -5.989  1.00  0.00     0.001 A 
ATOM     67  C   UNL     1      10.054  11.959  -5.087  1.00  0.00     0.000 A 
ENDBRANCH  48  62
BRANCH  49  68
ATOM     68  C   UNL     1       8.682  -0.613  -6.638  1.00  0.00    -0.014 A 
ATOM     69  C   UNL     1       9.791  -1.472  -6.625  1.00  0.00     0.009 A 
ATOM     70  C   UNL     1       7.404  -1.152  -6.850  1.00  0.00     0.009 A 
ATOM     71  C   UNL     1       9.626  -2.842  -6.841  1.00  0.00     0.001 A 
ATOM     72  C   UNL     1       7.240  -2.525  -7.043  1.00  0.00     0.001 A 
ATOM     73  C   UNL     1       8.351  -3.367  -7.046  1.00  0.00     0.000 A 
ENDBRANCH  49  68
BRANCH  61  74
ATOM     74  C   UNL     1      11.363   4.413 -10.623  1.00  0.00    -0.014 A 
ATOM     75  C   UNL     1      10.580   4.290 -11.780  1.00  0.00     0.009 A 
ATOM     76  C   UNL     1      12.752   4.562 -10.752  1.00  0.00     0.009 A 
ATOM     77  C   UNL     1      11.181   4.288 -13.041  1.00  0.00     0.001 A 
ATOM     78  C   UNL     1      13.348   4.583 -12.014  1.00  0.00     0.001 A 
ATOM     79  C   UNL     1      12.563   4.438 -13.157  1.00  0.00     0.000 A 
ENDBRANCH  61  74
ENDBRANCH  35  36
ENDBRANCH  27  30
ENDBRANCH  25  26
ENDBRANCH   1  25
TORSDOF 13
