REMARK SMILES CC[C@@H](Oc1ccccc1/C=C1\S/C(=[NH+]\c2cccc(O)c2)N(CC)C1=O)C(=O)NCCCNC(=O)c1ccc(-c2c3nc(c(-c4ccccc4)c4ccc([nH]4)c(-c4ccccc4)c4nc(c(-c5ccccc5)c5ccc2[nH]5)C=C4)C=C3)cc1
REMARK SMILES IDX 28 1 29 2 30 3 3 5 2 6 1 7 4 8 5 9 6 10 10 11 7 12 9 13 8 14
REMARK SMILES IDX 11 15 12 16 13 17 26 18 14 19 23 20 27 21 15 22 24 24 25 25
REMARK SMILES IDX 16 26 17 27 22 28 18 29 20 30 19 31 21 32 31 34 32 35 33 36
REMARK SMILES IDX 34 37 35 38 36 40 37 41 38 42 84 43 39 44 83 45 40 46 41 47
REMARK SMILES IDX 42 48 77 49 43 50 82 51 76 52 78 53 44 54 81 55 75 56 74 57
REMARK SMILES IDX 45 59 67 60 52 61 66 62 53 63 56 64 65 65 79 66 54 67 55 68
REMARK SMILES IDX 64 70 80 71 57 72 46 73 47 74 51 75 48 76 50 77 49 78 68 79
REMARK SMILES IDX 69 80 73 81 70 82 72 83 71 84 58 85 59 86 63 87 60 88 62 89
REMARK SMILES IDX 61 90
REMARK H PARENT 30 4 15 23 21 33 34 39 78 58 56 69
REMARK Flexibility Score: inf
ROOT
ATOM      1  C   UNL     1       0.779  -0.924  -3.972  1.00  0.00     0.261 C 
ATOM      2  O   UNL     1       1.705  -0.914  -4.795  1.00  0.00    -0.271 OA
ATOM      3  N   UNL     1      -0.476  -0.767  -4.484  1.00  0.00    -0.353 N 
ATOM      4  H   UNL     1      -0.494  -0.485  -5.427  1.00  0.00     0.163 HD
ENDROOT
BRANCH   1   5
ATOM      5  C   UNL     1       1.111  -0.967  -2.456  1.00  0.00     0.261 C 
BRANCH   5   6
ATOM      6  C   UNL     1       1.410   0.486  -2.031  1.00  0.00     0.052 C 
ATOM      7  C   UNL     1       2.586   0.592  -1.065  1.00  0.00     0.008 C 
ENDBRANCH   5   6
BRANCH   5   8
ATOM      8  O   UNL     1       0.085  -1.503  -1.625  1.00  0.00    -0.480 OA
BRANCH   8   9
ATOM      9  C   UNL     1       0.508  -2.286  -0.576  1.00  0.00     0.127 A 
ATOM     10  C   UNL     1       0.859  -3.615  -0.817  1.00  0.00     0.047 A 
ATOM     11  C   UNL     1       0.421  -1.803   0.749  1.00  0.00     0.018 A 
ATOM     12  C   UNL     1       1.144  -4.461   0.258  1.00  0.00     0.004 A 
ATOM     13  C   UNL     1       0.711  -2.659   1.816  1.00  0.00     0.012 A 
ATOM     14  C   UNL     1       1.065  -3.987   1.569  1.00  0.00     0.001 A 
BRANCH  11  15
ATOM     15  C   UNL     1       0.099  -0.396   1.018  1.00  0.00     0.036 C 
ATOM     16  C   UNL     1      -1.084   0.170   0.753  1.00  0.00     0.110 C 
ATOM     17  S   UNL     1      -2.538  -0.617   0.334  1.00  0.00     0.007 SA
ATOM     18  C   UNL     1      -1.209   1.636   0.554  1.00  0.00     0.348 C 
ATOM     19  C   UNL     1      -3.333   0.882  -0.099  1.00  0.00     0.324 C 
ATOM     20  N   UNL     1      -2.443   1.928   0.002  1.00  0.00    -0.186 N 
ATOM     21  O   UNL     1      -0.290   2.422   0.740  1.00  0.00    -0.240 OA
ATOM     22  N   UNL     1      -4.552   1.026  -0.509  1.00  0.00    -0.234 N 
ATOM     23  H   UNL     1      -4.922   1.930  -0.633  1.00  0.00     0.313 HD
BRANCH  20  24
ATOM     24  C   UNL     1      -2.639   3.193  -0.696  1.00  0.00     0.244 C 
ATOM     25  C   UNL     1      -2.649   4.416   0.203  1.00  0.00     0.055 C 
ENDBRANCH  20  24
BRANCH  22  26
ATOM     26  C   UNL     1      -5.356  -0.100  -0.779  1.00  0.00     0.129 A 
ATOM     27  C   UNL     1      -5.810  -0.252  -2.089  1.00  0.00     0.052 A 
ATOM     28  C   UNL     1      -5.676  -1.091   0.150  1.00  0.00     0.097 A 
ATOM     29  C   UNL     1      -6.471  -1.404  -2.512  1.00  0.00     0.008 A 
ATOM     30  C   UNL     1      -6.307  -2.260  -0.279  1.00  0.00     0.119 A 
ATOM     31  C   UNL     1      -6.703  -2.425  -1.601  1.00  0.00     0.046 A 
BRANCH  30  32
ATOM     32  O   UNL     1      -6.520  -3.302   0.575  1.00  0.00    -0.508 OA
ATOM     33  H   UNL     1      -6.945  -4.079   0.270  1.00  0.00     0.293 HD
ENDBRANCH  30  32
ENDBRANCH  22  26
ENDBRANCH  11  15
ENDBRANCH   8   9
ENDBRANCH   5   8
ENDBRANCH   1   5
BRANCH   3  34
ATOM     34  C   UNL     1      -1.790  -0.942  -3.890  1.00  0.00     0.118 C 
BRANCH  34  35
ATOM     35  C   UNL     1      -2.515   0.372  -3.617  1.00  0.00     0.042 C 
BRANCH  35  36
ATOM     36  C   UNL     1      -3.163   1.063  -4.823  1.00  0.00     0.118 C 
BRANCH  36  37
ATOM     37  N   UNL     1      -4.250   0.312  -5.446  1.00  0.00    -0.352 N 
ATOM     38  C   UNL     1      -5.601   0.539  -5.587  1.00  0.00     0.251 C 
ATOM     39  H   UNL     1      -3.954  -0.535  -5.851  1.00  0.00     0.163 HD
ATOM     40  O   UNL     1      -6.281  -0.332  -6.129  1.00  0.00    -0.269 OA
BRANCH  38  41
ATOM     41  C   UNL     1      -6.290   1.748  -5.060  1.00  0.00     0.039 A 
ATOM     42  C   UNL     1      -7.567   1.584  -4.493  1.00  0.00     0.014 A 
ATOM     43  C   UNL     1      -5.749   3.030  -5.138  1.00  0.00     0.014 A 
ATOM     44  C   UNL     1      -8.262   2.671  -3.949  1.00  0.00     0.010 A 
ATOM     45  C   UNL     1      -6.428   4.114  -4.568  1.00  0.00     0.010 A 
ATOM     46  C   UNL     1      -7.692   3.948  -3.975  1.00  0.00    -0.014 A 
BRANCH  46  47
ATOM     47  C   UNL     1      -8.451   5.140  -3.513  1.00  0.00     0.031 A 
ATOM     48  C   UNL     1      -8.980   6.109  -4.537  1.00  0.00     0.074 A 
ATOM     49  C   UNL     1      -8.645   5.385  -2.203  1.00  0.00     0.049 A 
ATOM     50  N   UNL     1      -9.565   7.267  -4.363  1.00  0.00    -0.248 NA
ATOM     51  C   UNL     1      -8.811   5.724  -5.948  1.00  0.00     0.031 C 
ATOM     52  C   UNL     1      -8.213   4.526  -1.101  1.00  0.00     0.029 A 
ATOM     53  N   UNL     1      -9.250   6.451  -1.579  1.00  0.00    -0.354 N 
ATOM     54  C   UNL     1      -9.818   7.755  -5.639  1.00  0.00     0.074 A 
ATOM     55  C   UNL     1      -9.289   6.788  -6.576  1.00  0.00     0.031 C 
ATOM     56  C   UNL     1      -8.563   5.102   0.064  1.00  0.00     0.029 A 
ATOM     57  C   UNL     1      -9.209   6.384  -0.206  1.00  0.00     0.049 A 
ATOM     58  H   UNL     1      -9.672   7.193  -2.069  1.00  0.00     0.167 HD
ATOM     59  C   UNL     1     -10.445   8.898  -6.005  1.00  0.00     0.031 A 
ATOM     60  C   UNL     1      -9.627   7.266   0.725  1.00  0.00     0.031 A 
ATOM     61  C   UNL     1     -10.979   9.864  -5.083  1.00  0.00     0.049 A 
ATOM     62  C   UNL     1     -10.267   8.561   0.292  1.00  0.00     0.074 A 
ATOM     63  C   UNL     1     -11.648  11.043  -5.363  1.00  0.00     0.029 A 
ATOM     64  N   UNL     1     -10.906   9.762  -3.704  1.00  0.00    -0.354 N 
ATOM     65  N   UNL     1     -10.521   8.998  -0.918  1.00  0.00    -0.248 NA
ATOM     66  C   UNL     1     -10.685   9.483   1.360  1.00  0.00     0.031 C 
ATOM     67  C   UNL     1     -11.938  11.680  -4.152  1.00  0.00     0.029 A 
ATOM     68  C   UNL     1     -11.499  10.868  -3.118  1.00  0.00     0.049 A 
ATOM     69  H   UNL     1     -10.494   9.015  -3.213  1.00  0.00     0.167 HD
ATOM     70  C   UNL     1     -11.154  10.225  -0.754  1.00  0.00     0.074 A 
ATOM     71  C   UNL     1     -11.262  10.456   0.670  1.00  0.00     0.031 C 
ATOM     72  C   UNL     1     -11.606  11.085  -1.700  1.00  0.00     0.031 A 
BRANCH  59  73
ATOM     73  C   UNL     1     -10.571   9.175  -7.476  1.00  0.00    -0.014 A 
ATOM     74  C   UNL     1     -11.450   8.433  -8.281  1.00  0.00     0.009 A 
ATOM     75  C   UNL     1      -9.826  10.212  -8.057  1.00  0.00     0.009 A 
ATOM     76  C   UNL     1     -11.556   8.705  -9.647  1.00  0.00     0.001 A 
ATOM     77  C   UNL     1      -9.956  10.500  -9.417  1.00  0.00     0.001 A 
ATOM     78  C   UNL     1     -10.813   9.741 -10.212  1.00  0.00     0.000 A 
ENDBRANCH  59  73
BRANCH  60  79
ATOM     79  C   UNL     1      -9.441   6.980   2.174  1.00  0.00    -0.014 A 
ATOM     80  C   UNL     1     -10.548   6.748   3.005  1.00  0.00     0.009 A 
ATOM     81  C   UNL     1      -8.159   6.998   2.745  1.00  0.00     0.009 A 
ATOM     82  C   UNL     1     -10.378   6.576   4.381  1.00  0.00     0.001 A 
ATOM     83  C   UNL     1      -7.989   6.795   4.116  1.00  0.00     0.001 A 
ATOM     84  C   UNL     1      -9.099   6.598   4.935  1.00  0.00     0.000 A 
ENDBRANCH  60  79
BRANCH  72  85
ATOM     85  C   UNL     1     -12.297  12.335  -1.228  1.00  0.00    -0.014 A 
ATOM     86  C   UNL     1     -11.582  13.385  -0.632  1.00  0.00     0.009 A 
ATOM     87  C   UNL     1     -13.680  12.479  -1.422  1.00  0.00     0.009 A 
ATOM     88  C   UNL     1     -12.245  14.540  -0.208  1.00  0.00     0.001 A 
ATOM     89  C   UNL     1     -14.335  13.645  -1.025  1.00  0.00     0.001 A 
ATOM     90  C   UNL     1     -13.619  14.671  -0.410  1.00  0.00     0.000 A 
ENDBRANCH  72  85
ENDBRANCH  46  47
ENDBRANCH  38  41
ENDBRANCH  36  37
ENDBRANCH  35  36
ENDBRANCH  34  35
ENDBRANCH   3  34
TORSDOF 17
