REMARK SMILES CC1(C)CCC[C@H]1NC(=O)N[C@@H]1COC[C@@]1(C)C(=O)NCCCNC(=O)c1ccc(-c2c3nc(c(-c4ccccc4)c4ccc([nH]4)c(-c4ccccc4)c4nc(c(-c5ccccc5)c5ccc2[nH]5)C=C4)C=C3)cc1
REMARK SMILES IDX 22 1 21 2 20 3 18 4 19 5 16 7 12 8 13 9 14 10 15 11 17 12
REMARK SMILES IDX 11 13 8 14 9 15 10 17 7 19 1 20 2 21 3 22 4 23 5 24 6 25
REMARK SMILES IDX 23 26 24 27 25 28 26 30 27 31 28 32 74 33 29 34 73 35 30 36
REMARK SMILES IDX 31 37 32 38 67 39 33 40 72 41 66 42 68 43 34 44 71 45 65 46
REMARK SMILES IDX 64 47 35 49 57 50 42 51 56 52 43 53 46 54 55 55 69 56 44 57
REMARK SMILES IDX 45 58 54 60 70 61 47 62 36 63 37 64 41 65 38 66 40 67 39 68
REMARK SMILES IDX 58 69 59 70 63 71 60 72 62 73 61 74 48 75 49 76 53 77 50 78
REMARK SMILES IDX 52 79 51 80
REMARK H PARENT 20 6 8 16 11 18 24 29 68 48 46 59
REMARK Flexibility Score: inf
ROOT
ATOM      1  C   UNL     1       3.762   2.400   2.601  1.00  0.00     0.042 C 
ENDROOT
BRANCH   1   2
ATOM      2  C   UNL     1       3.413   3.735   1.944  1.00  0.00     0.117 C 
BRANCH   2   3
ATOM      3  N   UNL     1       3.830   3.913   0.563  1.00  0.00    -0.355 N 
ATOM      4  C   UNL     1       3.169   3.793  -0.624  1.00  0.00     0.230 C 
ATOM      5  O   UNL     1       3.732   4.298  -1.600  1.00  0.00    -0.274 OA
ATOM      6  H   UNL     1       4.776   4.171   0.466  1.00  0.00     0.163 HD
BRANCH   4   7
ATOM      7  C   UNL     1       1.872   2.987  -0.782  1.00  0.00     0.092 C 
ATOM      8  C   UNL     1       0.605   3.625  -0.179  1.00  0.00     0.127 C 
ATOM      9  C   UNL     1      -0.490   3.529  -1.240  1.00  0.00     0.186 C 
ATOM     10  O   UNL     1       0.057   2.776  -2.324  1.00  0.00    -0.378 OA
ATOM     11  C   UNL     1       1.477   2.988  -2.278  1.00  0.00     0.179 C 
ATOM     12  C   UNL     1       2.183   1.554  -0.386  1.00  0.00     0.026 C 
BRANCH   8  13
ATOM     13  N   UNL     1       0.155   3.277   1.175  1.00  0.00    -0.332 N 
ATOM     14  N   UNL     1      -0.607   1.041   1.486  1.00  0.00    -0.335 N 
ATOM     15  C   UNL     1      -0.303   2.264   1.900  1.00  0.00     0.315 C 
ATOM     16  H   UNL     1      -0.722   0.423   2.244  1.00  0.00     0.165 HD
ATOM     17  O   UNL     1      -0.441   2.491   3.107  1.00  0.00    -0.249 OA
ATOM     18  H   UNL     1       0.215   4.077   1.746  1.00  0.00     0.165 HD
BRANCH  14  19
ATOM     19  C   UNL     1      -0.816   0.361   0.210  1.00  0.00     0.089 C 
ATOM     20  C   UNL     1       0.998  -1.344   1.081  1.00  0.00     0.013 C 
ATOM     21  C   UNL     1      -0.226  -1.091   0.187  1.00  0.00    -0.015 C 
ATOM     22  C   UNL     1       0.135  -1.509  -1.258  1.00  0.00     0.013 C 
ATOM     23  C   UNL     1      -1.405  -1.939   0.691  1.00  0.00     0.008 C 
ATOM     24  C   UNL     1      -2.615  -1.327   0.012  1.00  0.00     0.003 C 
ATOM     25  C   UNL     1      -2.337   0.175  -0.012  1.00  0.00     0.025 C 
ENDBRANCH  14  19
ENDBRANCH   8  13
ENDBRANCH   4   7
ENDBRANCH   2   3
ENDBRANCH   1   2
BRANCH   1  26
ATOM     26  C   UNL     1       5.249   2.076   2.710  1.00  0.00     0.118 C 
BRANCH  26  27
ATOM     27  N   UNL     1       5.962   3.012   3.560  1.00  0.00    -0.352 N 
ATOM     28  C   UNL     1       6.508   2.890   4.811  1.00  0.00     0.251 C 
ATOM     29  H   UNL     1       6.074   3.905   3.161  1.00  0.00     0.163 HD
ATOM     30  O   UNL     1       6.850   3.920   5.390  1.00  0.00    -0.269 OA
BRANCH  28  31
ATOM     31  C   UNL     1       6.716   1.584   5.490  1.00  0.00     0.039 A 
ATOM     32  C   UNL     1       6.671   1.568   6.891  1.00  0.00     0.014 A 
ATOM     33  C   UNL     1       7.085   0.417   4.814  1.00  0.00     0.014 A 
ATOM     34  C   UNL     1       6.981   0.405   7.602  1.00  0.00     0.010 A 
ATOM     35  C   UNL     1       7.330  -0.767   5.523  1.00  0.00     0.010 A 
ATOM     36  C   UNL     1       7.308  -0.779   6.925  1.00  0.00    -0.014 A 
BRANCH  36  37
ATOM     37  C   UNL     1       7.647  -2.010   7.690  1.00  0.00     0.031 A 
ATOM     38  C   UNL     1       9.041  -2.579   7.668  1.00  0.00     0.074 A 
ATOM     39  C   UNL     1       6.692  -2.632   8.407  1.00  0.00     0.049 A 
ATOM     40  N   UNL     1       9.524  -3.607   8.323  1.00  0.00    -0.248 NA
ATOM     41  C   UNL     1      10.013  -1.923   6.780  1.00  0.00     0.031 C 
ATOM     42  C   UNL     1       5.287  -2.226   8.475  1.00  0.00     0.029 A 
ATOM     43  N   UNL     1       6.761  -3.737   9.219  1.00  0.00    -0.354 N 
ATOM     44  C   UNL     1      10.847  -3.730   7.915  1.00  0.00     0.074 A 
ATOM     45  C   UNL     1      11.077  -2.700   6.925  1.00  0.00     0.031 C 
ATOM     46  C   UNL     1       4.633  -3.055   9.304  1.00  0.00     0.029 A 
ATOM     47  C   UNL     1       5.565  -4.057   9.812  1.00  0.00     0.049 A 
ATOM     48  H   UNL     1       7.589  -4.250   9.362  1.00  0.00     0.167 HD
ATOM     49  C   UNL     1      11.791  -4.609   8.333  1.00  0.00     0.031 A 
ATOM     50  C   UNL     1       5.250  -5.040  10.676  1.00  0.00     0.031 A 
ATOM     51  C   UNL     1      11.574  -5.631   9.324  1.00  0.00     0.049 A 
ATOM     52  C   UNL     1       6.319  -5.974  11.162  1.00  0.00     0.074 A 
ATOM     53  C   UNL     1      12.489  -6.518   9.866  1.00  0.00     0.029 A 
ATOM     54  N   UNL     1      10.353  -5.906   9.919  1.00  0.00    -0.354 N 
ATOM     55  N   UNL     1       7.587  -6.019  10.833  1.00  0.00    -0.248 NA
ATOM     56  C   UNL     1       5.915  -6.980  12.155  1.00  0.00     0.031 C 
ATOM     57  C   UNL     1      11.811  -7.360  10.756  1.00  0.00     0.029 A 
ATOM     58  C   UNL     1      10.484  -6.966  10.802  1.00  0.00     0.049 A 
ATOM     59  H   UNL     1       9.516  -5.420   9.740  1.00  0.00     0.167 HD
ATOM     60  C   UNL     1       8.136  -7.050  11.585  1.00  0.00     0.074 A 
ATOM     61  C   UNL     1       7.068  -7.586  12.404  1.00  0.00     0.031 C 
ATOM     62  C   UNL     1       9.411  -7.510  11.593  1.00  0.00     0.031 A 
BRANCH  49  63
ATOM     63  C   UNL     1      13.150  -4.508   7.697  1.00  0.00    -0.014 A 
ATOM     64  C   UNL     1      14.009  -3.433   7.978  1.00  0.00     0.009 A 
ATOM     65  C   UNL     1      13.585  -5.510   6.815  1.00  0.00     0.009 A 
ATOM     66  C   UNL     1      15.254  -3.339   7.351  1.00  0.00     0.001 A 
ATOM     67  C   UNL     1      14.841  -5.427   6.211  1.00  0.00     0.001 A 
ATOM     68  C   UNL     1      15.669  -4.336   6.470  1.00  0.00     0.000 A 
ENDBRANCH  49  63
BRANCH  50  69
ATOM     69  C   UNL     1       3.853  -5.161  11.161  1.00  0.00    -0.014 A 
ATOM     70  C   UNL     1       3.508  -4.744  12.455  1.00  0.00     0.009 A 
ATOM     71  C   UNL     1       2.850  -5.663  10.316  1.00  0.00     0.009 A 
ATOM     72  C   UNL     1       2.187  -4.837  12.898  1.00  0.00     0.001 A 
ATOM     73  C   UNL     1       1.527  -5.733  10.755  1.00  0.00     0.001 A 
ATOM     74  C   UNL     1       1.197  -5.325  12.046  1.00  0.00     0.000 A 
ENDBRANCH  50  69
BRANCH  62  75
ATOM     75  C   UNL     1       9.713  -8.655  12.518  1.00  0.00    -0.014 A 
ATOM     76  C   UNL     1       9.260  -9.953  12.235  1.00  0.00     0.009 A 
ATOM     77  C   UNL     1      10.467  -8.435  13.681  1.00  0.00     0.009 A 
ATOM     78  C   UNL     1       9.524 -11.001  13.119  1.00  0.00     0.001 A 
ATOM     79  C   UNL     1      10.750  -9.490  14.550  1.00  0.00     0.001 A 
ATOM     80  C   UNL     1      10.269 -10.769  14.274  1.00  0.00     0.000 A 
ENDBRANCH  62  75
ENDBRANCH  36  37
ENDBRANCH  28  31
ENDBRANCH  26  27
ENDBRANCH   1  26
TORSDOF 12
