REMARK SMILES CC[NH2+][C@]1(C(=O)NCCCNC(=O)c2ccc(-c3c4nc(c(-c5ccccc5)c5ccc([nH]5)c(-c5ccccc5)c5nc(c(-c6ccccc6)c6ccc3[nH]6)C=C5)C=C4)cc2)CCC[C@H]1CCSc1ccc(Cl)cc1
REMARK SMILES IDX 8 1 7 2 5 3 6 4 4 6 62 7 65 8 63 9 64 10 3 11 2 14 1 15
REMARK SMILES IDX 66 16 67 17 68 18 69 19 70 20 75 21 71 22 74 23 72 24 73 25
REMARK SMILES IDX 9 26 10 27 11 28 12 29 13 31 14 32 15 33 61 34 16 35 60 36
REMARK SMILES IDX 17 37 18 38 19 39 54 40 20 41 59 42 53 43 55 44 21 45 58 46
REMARK SMILES IDX 52 47 51 48 22 50 44 51 29 52 43 53 30 54 33 55 42 56 56 57
REMARK SMILES IDX 31 58 32 59 41 61 57 62 34 63 23 64 24 65 28 66 25 67 27 68
REMARK SMILES IDX 26 69 45 70 46 71 50 72 47 73 49 74 48 75 35 76 36 77 40 78
REMARK SMILES IDX 37 79 39 80 38 81
REMARK H PARENT 7 5 3 12 3 13 11 30 55 49 33 60
REMARK Flexibility Score: inf
ROOT
ATOM      1  C   UNL     1       1.723   4.104  -2.285  1.00  0.00     0.118 C 
ENDROOT
BRANCH   1   2
ATOM      2  N   UNL     1       1.634   2.882  -1.520  1.00  0.00    -0.351 N 
ATOM      3  C   UNL     1       1.464   2.606  -0.204  1.00  0.00     0.281 C 
ATOM      4  O   UNL     1       1.630   1.403   0.039  1.00  0.00    -0.268 OA
ATOM      5  H   UNL     1       1.713   2.073  -2.075  1.00  0.00     0.163 HD
BRANCH   3   6
ATOM      6  C   UNL     1       0.930   3.625   0.870  1.00  0.00     0.178 C 
ATOM      7  C   UNL     1       1.461   5.078   0.784  1.00  0.00     0.079 C 
ATOM      8  C   UNL     1      -0.630   3.815   0.825  1.00  0.00     0.061 C 
ATOM      9  C   UNL     1       0.422   5.938   1.490  1.00  0.00     0.008 C 
ATOM     10  C   UNL     1      -0.887   5.329   1.030  1.00  0.00     0.011 C 
BRANCH   6  11
ATOM     11  N   UNL     1       1.371   3.253   2.265  1.00  0.00    -0.334 N 
ATOM     12  H   UNL     1       2.360   3.492   2.346  1.00  0.00     0.347 HD
ATOM     13  H   UNL     1       0.742   3.770   2.880  1.00  0.00     0.347 HD
BRANCH  11  14
ATOM     14  C   UNL     1       1.226   1.860   2.678  1.00  0.00     0.257 C 
ATOM     15  C   UNL     1       1.345   1.757   4.194  1.00  0.00     0.071 C 
ENDBRANCH  11  14
ENDBRANCH   6  11
BRANCH   8  16
ATOM     16  C   UNL     1      -1.417   3.343  -0.422  1.00  0.00     0.022 C 
BRANCH  16  17
ATOM     17  C   UNL     1      -1.647   1.831  -0.547  1.00  0.00     0.075 C 
BRANCH  17  18
ATOM     18  S   UNL     1      -3.279   1.282   0.087  1.00  0.00    -0.126 SA
BRANCH  18  19
ATOM     19  C   UNL     1      -2.995   1.389   1.839  1.00  0.00     0.007 A 
ATOM     20  C   UNL     1      -2.407   0.329   2.534  1.00  0.00     0.016 A 
ATOM     21  C   UNL     1      -3.350   2.555   2.526  1.00  0.00     0.016 A 
ATOM     22  C   UNL     1      -2.139   0.450   3.901  1.00  0.00     0.021 A 
ATOM     23  C   UNL     1      -3.058   2.688   3.885  1.00  0.00     0.021 A 
ATOM     24  C   UNL     1      -2.454   1.634   4.567  1.00  0.00     0.041 A 
ATOM     25  Cl  UNL     1      -2.080   1.805   6.237  1.00  0.00    -0.084 Cl
ENDBRANCH  18  19
ENDBRANCH  17  18
ENDBRANCH  16  17
ENDBRANCH   8  16
ENDBRANCH   3   6
ENDBRANCH   1   2
BRANCH   1  26
ATOM     26  C   UNL     1       3.132   4.680  -2.215  1.00  0.00     0.042 C 
BRANCH  26  27
ATOM     27  C   UNL     1       4.184   3.722  -2.760  1.00  0.00     0.118 C 
BRANCH  27  28
ATOM     28  N   UNL     1       4.014   3.492  -4.188  1.00  0.00    -0.352 N 
ATOM     29  C   UNL     1       4.797   3.917  -5.225  1.00  0.00     0.251 C 
ATOM     30  H   UNL     1       3.227   2.956  -4.441  1.00  0.00     0.163 HD
ATOM     31  O   UNL     1       4.363   3.891  -6.380  1.00  0.00    -0.269 OA
BRANCH  29  32
ATOM     32  C   UNL     1       6.160   4.410  -4.958  1.00  0.00     0.039 A 
ATOM     33  C   UNL     1       6.622   5.546  -5.625  1.00  0.00     0.014 A 
ATOM     34  C   UNL     1       6.986   3.734  -4.055  1.00  0.00     0.014 A 
ATOM     35  C   UNL     1       7.901   6.030  -5.351  1.00  0.00     0.010 A 
ATOM     36  C   UNL     1       8.220   4.270  -3.714  1.00  0.00     0.010 A 
ATOM     37  C   UNL     1       8.698   5.409  -4.376  1.00  0.00    -0.014 A 
BRANCH  37  38
ATOM     38  C   UNL     1      10.055   5.910  -4.056  1.00  0.00     0.031 A 
ATOM     39  C   UNL     1      11.254   5.044  -4.327  1.00  0.00     0.074 A 
ATOM     40  C   UNL     1      10.200   7.110  -3.465  1.00  0.00     0.049 A 
ATOM     41  N   UNL     1      12.517   5.279  -4.075  1.00  0.00    -0.248 NA
ATOM     42  C   UNL     1      10.998   3.728  -4.934  1.00  0.00     0.031 C 
ATOM     43  C   UNL     1       9.109   8.021  -3.115  1.00  0.00     0.029 A 
ATOM     44  N   UNL     1      11.331   7.768  -3.054  1.00  0.00    -0.354 N 
ATOM     45  C   UNL     1      13.197   4.134  -4.469  1.00  0.00     0.074 A 
ATOM     46  C   UNL     1      12.204   3.185  -4.921  1.00  0.00     0.031 C 
ATOM     47  C   UNL     1       9.627   9.137  -2.578  1.00  0.00     0.029 A 
ATOM     48  C   UNL     1      11.078   9.002  -2.510  1.00  0.00     0.049 A 
ATOM     49  H   UNL     1      12.236   7.391  -3.140  1.00  0.00     0.167 HD
ATOM     50  C   UNL     1      14.530   3.900  -4.477  1.00  0.00     0.031 A 
ATOM     51  C   UNL     1      11.924   9.924  -2.014  1.00  0.00     0.031 A 
ATOM     52  C   UNL     1      15.514   4.851  -4.035  1.00  0.00     0.049 A 
ATOM     53  C   UNL     1      13.399   9.640  -2.021  1.00  0.00     0.074 A 
ATOM     54  C   UNL     1      16.893   4.741  -4.057  1.00  0.00     0.029 A 
ATOM     55  N   UNL     1      15.218   6.090  -3.487  1.00  0.00    -0.354 N 
ATOM     56  N   UNL     1      14.035   8.581  -2.461  1.00  0.00    -0.248 NA
ATOM     57  C   UNL     1      14.273  10.685  -1.471  1.00  0.00     0.031 C 
ATOM     58  C   UNL     1      17.430   5.894  -3.473  1.00  0.00     0.029 A 
ATOM     59  C   UNL     1      16.387   6.745  -3.141  1.00  0.00     0.049 A 
ATOM     60  H   UNL     1      14.310   6.450  -3.362  1.00  0.00     0.167 HD
ATOM     61  C   UNL     1      15.384   8.841  -2.266  1.00  0.00     0.074 A 
ATOM     62  C   UNL     1      15.475  10.164  -1.680  1.00  0.00     0.031 C 
ATOM     63  C   UNL     1      16.454   8.057  -2.550  1.00  0.00     0.031 A 
BRANCH  50  64
ATOM     64  C   UNL     1      14.987   2.552  -4.966  1.00  0.00    -0.014 A 
ATOM     65  C   UNL     1      14.846   2.178  -6.313  1.00  0.00     0.009 A 
ATOM     66  C   UNL     1      15.558   1.639  -4.067  1.00  0.00     0.009 A 
ATOM     67  C   UNL     1      15.218   0.900  -6.737  1.00  0.00     0.001 A 
ATOM     68  C   UNL     1      15.960   0.374  -4.500  1.00  0.00     0.001 A 
ATOM     69  C   UNL     1      15.776   0.001  -5.831  1.00  0.00     0.000 A 
ENDBRANCH  50  64
BRANCH  51  70
ATOM     70  C   UNL     1      11.394  11.217  -1.512  1.00  0.00    -0.014 A 
ATOM     71  C   UNL     1      11.587  12.393  -2.252  1.00  0.00     0.009 A 
ATOM     72  C   UNL     1      10.672  11.281  -0.310  1.00  0.00     0.009 A 
ATOM     73  C   UNL     1      11.081  13.611  -1.792  1.00  0.00     0.001 A 
ATOM     74  C   UNL     1      10.145  12.495   0.135  1.00  0.00     0.001 A 
ATOM     75  C   UNL     1      10.355  13.659  -0.603  1.00  0.00     0.000 A 
ENDBRANCH  51  70
BRANCH  63  76
ATOM     76  C   UNL     1      17.814   8.625  -2.257  1.00  0.00    -0.014 A 
ATOM     77  C   UNL     1      18.281   8.754  -0.940  1.00  0.00     0.009 A 
ATOM     78  C   UNL     1      18.653   8.998  -3.318  1.00  0.00     0.009 A 
ATOM     79  C   UNL     1      19.551   9.277  -0.691  1.00  0.00     0.001 A 
ATOM     80  C   UNL     1      19.933   9.492  -3.067  1.00  0.00     0.001 A 
ATOM     81  C   UNL     1      20.378   9.640  -1.754  1.00  0.00     0.000 A 
ENDBRANCH  63  76
ENDBRANCH  37  38
ENDBRANCH  29  32
ENDBRANCH  27  28
ENDBRANCH  26  27
ENDBRANCH   1  26
TORSDOF 16
