REMARK SMILES COc1c(C)cccc1C(=O)NC(=S)Nc1ccc(C(=O)NCCCNC(=O)c2ccc(-c3c4nc(c(-c5ccccc5)c5ccc([nH]5)c(-c5ccccc5)c5nc(c(-c6ccccc6)c6ccc3[nH]6)C=C5)C=C4)cc2)cc1C
REMARK SMILES IDX 20 1 21 2 22 3 19 5 16 6 17 7 78 8 18 9 77 10 79 11 15 12
REMARK SMILES IDX 13 14 14 15 12 16 10 17 11 18 9 20 3 21 4 22 5 23 6 24 8 25
REMARK SMILES IDX 7 26 2 27 1 28 23 29 24 30 25 31 26 32 27 33 28 35 29 36
REMARK SMILES IDX 30 37 76 38 31 39 75 40 32 41 33 42 34 43 69 44 35 45 74 46
REMARK SMILES IDX 68 47 70 48 36 49 73 50 67 51 66 52 37 54 59 55 44 56 58 57
REMARK SMILES IDX 45 58 48 59 57 60 71 61 46 62 47 63 56 65 72 66 49 67 38 68
REMARK SMILES IDX 39 69 43 70 40 71 42 72 41 73 60 74 61 75 65 76 62 77 64 78
REMARK SMILES IDX 63 79 50 80 51 81 55 82 52 83 54 84 53 85
REMARK H PARENT 22 4 15 13 12 19 26 34 70 53 48 64
REMARK Flexibility Score: inf
ROOT
ATOM      1  C   UNL     1       1.485   3.894   4.506  1.00  0.00     0.251 C 
ATOM      2  O   UNL     1       2.468   3.751   5.237  1.00  0.00    -0.269 OA
ATOM      3  N   UNL     1       0.453   4.624   5.049  1.00  0.00    -0.352 N 
ATOM      4  H   UNL     1       0.630   5.561   5.293  1.00  0.00     0.163 HD
ENDROOT
BRANCH   1   5
ATOM      5  C   UNL     1       1.358   3.164   3.060  1.00  0.00     0.040 A 
ATOM      6  C   UNL     1       1.426   0.305   0.954  1.00  0.00     0.043 A 
ATOM      7  C   UNL     1       0.827   0.268   2.594  1.00  0.00     0.027 A 
ATOM      8  C   UNL     1       2.374   1.741   0.304  1.00  0.00    -0.027 A 
ATOM      9  C   UNL     1       0.738   1.604   3.583  1.00  0.00     0.016 A 
ATOM     10  C   UNL     1       2.206   3.336   1.234  1.00  0.00     0.019 A 
ATOM     11  C   UNL     1       3.540   1.716  -0.643  1.00  0.00     0.046 C 
BRANCH   6  12
ATOM     12  N   UNL     1      -0.045   0.041   0.415  1.00  0.00    -0.332 N 
ATOM     13  H   UNL     1      -0.088  -0.807  -0.084  1.00  0.00     0.169 HD
BRANCH  12  14
ATOM     14  C   UNL     1      -1.310   0.673   0.445  1.00  0.00     0.177 C 
ATOM     15  S   UNL     1      -2.601  -0.303  -0.047  1.00  0.00    -0.040 S 
BRANCH  14  16
ATOM     16  N   UNL     1      -1.700   2.026   0.751  1.00  0.00    -0.299 N 
ATOM     17  C   UNL     1      -1.370   3.442   1.131  1.00  0.00     0.261 C 
ATOM     18  O   UNL     1      -2.237   4.307   1.197  1.00  0.00    -0.269 OA
ATOM     19  H   UNL     1      -2.681   2.020   0.670  1.00  0.00     0.172 HD
BRANCH  17  20
ATOM     20  C   UNL     1       0.026   3.759   1.469  1.00  0.00     0.082 A 
ATOM     21  C   UNL     1       0.762   2.201   1.480  1.00  0.00     0.134 A 
ATOM     22  C   UNL     1       2.576   1.890   2.326  1.00  0.00    -0.008 A 
ATOM     23  C   UNL     1       3.512   0.678   2.608  1.00  0.00     0.048 C 
ATOM     24  C   UNL     1       3.483   3.391   2.853  1.00  0.00     0.007 A 
ATOM     25  C   UNL     1       0.981   5.110   1.997  1.00  0.00     0.018 A 
ATOM     26  C   UNL     1       2.649   4.966   2.641  1.00  0.00     0.001 A 
BRANCH  21  27
ATOM     27  O   UNL     1       0.520   2.552  -0.273  1.00  0.00    -0.496 OA
ATOM     28  C   UNL     1       0.616   1.700  -1.486  1.00  0.00     0.278 C 
ENDBRANCH  21  27
ENDBRANCH  17  20
ENDBRANCH  14  16
ENDBRANCH  12  14
ENDBRANCH   6  12
ENDBRANCH   1   5
BRANCH   3  29
ATOM     29  C   UNL     1      -0.873   4.105   5.285  1.00  0.00     0.118 C 
BRANCH  29  30
ATOM     30  C   UNL     1      -0.853   3.010   6.351  1.00  0.00     0.042 C 
BRANCH  30  31
ATOM     31  C   UNL     1      -0.684   3.487   7.777  1.00  0.00     0.118 C 
BRANCH  31  32
ATOM     32  N   UNL     1      -1.903   4.072   8.303  1.00  0.00    -0.352 N 
ATOM     33  C   UNL     1      -2.434   4.069   9.574  1.00  0.00     0.251 C 
ATOM     34  H   UNL     1      -2.443   4.554   7.636  1.00  0.00     0.163 HD
ATOM     35  O   UNL     1      -3.609   4.400   9.721  1.00  0.00    -0.269 OA
BRANCH  33  36
ATOM     36  C   UNL     1      -1.554   3.931  10.770  1.00  0.00     0.039 A 
ATOM     37  C   UNL     1      -1.798   4.920  11.737  1.00  0.00     0.014 A 
ATOM     38  C   UNL     1      -0.274   3.424  10.616  1.00  0.00     0.014 A 
ATOM     39  C   UNL     1      -0.736   5.670  12.203  1.00  0.00     0.010 A 
ATOM     40  C   UNL     1       0.758   4.273  10.882  1.00  0.00     0.010 A 
ATOM     41  C   UNL     1       0.503   5.418  11.636  1.00  0.00    -0.014 A 
BRANCH  41  42
ATOM     42  C   UNL     1       1.705   6.147  11.938  1.00  0.00     0.031 A 
ATOM     43  C   UNL     1       2.431   5.610  13.098  1.00  0.00     0.074 A 
ATOM     44  C   UNL     1       2.119   7.038  11.009  1.00  0.00     0.049 A 
ATOM     45  N   UNL     1       3.266   6.271  13.802  1.00  0.00    -0.248 NA
ATOM     46  C   UNL     1       2.206   4.255  13.633  1.00  0.00     0.031 C 
ATOM     47  C   UNL     1       3.414   7.670  10.813  1.00  0.00     0.029 A 
ATOM     48  N   UNL     1       1.291   7.709  10.104  1.00  0.00    -0.354 N 
ATOM     49  C   UNL     1       3.972   5.343  14.540  1.00  0.00     0.074 A 
ATOM     50  C   UNL     1       3.171   4.152  14.550  1.00  0.00     0.031 C 
ATOM     51  C   UNL     1       3.240   8.820  10.128  1.00  0.00     0.029 A 
ATOM     52  C   UNL     1       1.807   9.010   9.957  1.00  0.00     0.049 A 
ATOM     53  H   UNL     1       0.496   7.340   9.655  1.00  0.00     0.167 HD
ATOM     54  C   UNL     1       5.259   5.642  14.854  1.00  0.00     0.031 A 
ATOM     55  C   UNL     1       1.091  10.062  10.463  1.00  0.00     0.031 A 
ATOM     56  C   UNL     1       5.573   6.976  14.347  1.00  0.00     0.049 A 
ATOM     57  C   UNL     1       1.782  10.614  11.693  1.00  0.00     0.074 A 
ATOM     58  C   UNL     1       6.181   7.396  13.176  1.00  0.00     0.029 A 
ATOM     59  N   UNL     1       4.835   8.049  14.824  1.00  0.00    -0.354 N 
ATOM     60  N   UNL     1       2.517   9.898  12.507  1.00  0.00    -0.248 NA
ATOM     61  C   UNL     1       1.807  12.038  12.016  1.00  0.00     0.031 C 
ATOM     62  C   UNL     1       5.732   8.723  12.916  1.00  0.00     0.029 A 
ATOM     63  C   UNL     1       4.859   9.095  13.926  1.00  0.00     0.049 A 
ATOM     64  H   UNL     1       4.360   8.061  15.686  1.00  0.00     0.167 HD
ATOM     65  C   UNL     1       3.182  10.736  13.365  1.00  0.00     0.074 A 
ATOM     66  C   UNL     1       2.678  12.059  13.040  1.00  0.00     0.031 C 
ATOM     67  C   UNL     1       4.148  10.324  14.241  1.00  0.00     0.031 A 
BRANCH  54  68
ATOM     68  C   UNL     1       6.312   4.683  15.335  1.00  0.00    -0.014 A 
ATOM     69  C   UNL     1       7.659   5.085  15.243  1.00  0.00     0.009 A 
ATOM     70  C   UNL     1       6.083   3.400  15.859  1.00  0.00     0.009 A 
ATOM     71  C   UNL     1       8.717   4.255  15.622  1.00  0.00     0.001 A 
ATOM     72  C   UNL     1       7.142   2.558  16.237  1.00  0.00     0.001 A 
ATOM     73  C   UNL     1       8.459   2.986  16.117  1.00  0.00     0.000 A 
ENDBRANCH  54  68
BRANCH  55  74
ATOM     74  C   UNL     1      -0.383   9.858  10.258  1.00  0.00    -0.014 A 
ATOM     75  C   UNL     1      -0.825   9.807   8.913  1.00  0.00     0.009 A 
ATOM     76  C   UNL     1      -1.161   9.217  11.232  1.00  0.00     0.009 A 
ATOM     77  C   UNL     1      -1.855   8.940   8.528  1.00  0.00     0.001 A 
ATOM     78  C   UNL     1      -2.221   8.383  10.840  1.00  0.00     0.001 A 
ATOM     79  C   UNL     1      -2.518   8.189   9.490  1.00  0.00     0.000 A 
ENDBRANCH  55  74
BRANCH  67  80
ATOM     80  C   UNL     1       4.584  11.084  15.473  1.00  0.00    -0.014 A 
ATOM     81  C   UNL     1       3.896  12.181  15.999  1.00  0.00     0.009 A 
ATOM     82  C   UNL     1       5.654  10.583  16.254  1.00  0.00     0.009 A 
ATOM     83  C   UNL     1       4.299  12.790  17.192  1.00  0.00     0.001 A 
ATOM     84  C   UNL     1       6.006  11.132  17.486  1.00  0.00     0.001 A 
ATOM     85  C   UNL     1       5.342  12.257  17.942  1.00  0.00     0.000 A 
ENDBRANCH  67  80
ENDBRANCH  41  42
ENDBRANCH  33  36
ENDBRANCH  31  32
ENDBRANCH  30  31
ENDBRANCH  29  30
ENDBRANCH   3  29
TORSDOF 15
