REMARK SMILES O=C(NCCCNC(=O)c1ccc(-c2c3nc(c(-c4ccccc4)c4ccc([nH]4)c(-c4ccccc4)c4nc(c(-c5ccccc5)c5ccc2[nH]5)C=C4)C=C3)cc1)C1=Cc2cc(Cl)ccc2O[C@@H]1C(F)(F)F
REMARK SMILES IDX 5 1 4 2 3 3 1 4 2 5 58 7 59 8 68 9 60 10 67 11 61 12 66 13
REMARK SMILES IDX 62 14 65 15 63 16 64 17 69 18 70 19 71 20 72 21 6 22 7 23
REMARK SMILES IDX 8 24 9 26 10 27 11 28 57 29 12 30 56 31 13 32 14 33 15 34
REMARK SMILES IDX 50 35 16 36 55 37 49 38 51 39 17 40 54 41 48 42 47 43 18 45
REMARK SMILES IDX 40 46 25 47 39 48 26 49 29 50 38 51 52 52 27 53 28 54 37 56
REMARK SMILES IDX 53 57 30 58 19 59 20 60 24 61 21 62 23 63 22 64 41 65 42 66
REMARK SMILES IDX 46 67 43 68 45 69 44 70 31 71 32 72 36 73 33 74 35 75 34 76
REMARK H PARENT 3 6 7 25 51 44 29 55
REMARK Flexibility Score: inf
ROOT
ATOM      1  C   UNL     1       4.132   2.809  -0.576  1.00  0.00     0.042 C 
ENDROOT
BRANCH   1   2
ATOM      2  C   UNL     1       3.364   1.702   0.137  1.00  0.00     0.118 C 
BRANCH   2   3
ATOM      3  N   UNL     1       2.413   1.013  -0.740  1.00  0.00    -0.352 N 
ATOM      4  O   UNL     1       1.315  -0.763  -1.627  1.00  0.00    -0.270 OA
ATOM      5  C   UNL     1       2.291  -0.323  -1.037  1.00  0.00     0.251 C 
ATOM      6  H   UNL     1       1.760   1.599  -1.187  1.00  0.00     0.163 HD
BRANCH   5   7
ATOM      7  C   UNL     1       3.367  -1.209  -0.563  1.00  0.00     0.067 C 
ATOM      8  C   UNL     1       4.568  -1.035  -1.129  1.00  0.00     0.025 C 
ATOM      9  C   UNL     1       3.160  -1.902   0.747  1.00  0.00     0.314 C 
ATOM     10  C   UNL     1       5.662  -0.971  -0.156  1.00  0.00     0.019 A 
ATOM     11  O   UNL     1       4.195  -1.588   1.713  1.00  0.00    -0.475 OA
ATOM     12  C   UNL     1       6.845  -0.344  -0.562  1.00  0.00     0.032 A 
ATOM     13  C   UNL     1       5.386  -1.119   1.216  1.00  0.00     0.128 A 
ATOM     14  C   UNL     1       7.683   0.225   0.395  1.00  0.00     0.041 A 
ATOM     15  C   UNL     1       6.257  -0.587   2.167  1.00  0.00     0.048 A 
ATOM     16  Cl  UNL     1       9.019   1.180  -0.118  1.00  0.00    -0.084 Cl
ATOM     17  C   UNL     1       7.388   0.118   1.753  1.00  0.00     0.024 A 
BRANCH   9  18
ATOM     18  C   UNL     1       3.029  -3.422   0.567  1.00  0.00     0.429 C 
ATOM     19  F   UNL     1       2.705  -4.023   1.738  1.00  0.00    -0.167 F 
ATOM     20  F   UNL     1       2.057  -3.745  -0.318  1.00  0.00    -0.167 F 
ATOM     21  F   UNL     1       4.177  -3.990   0.130  1.00  0.00    -0.167 F 
ENDBRANCH   9  18
ENDBRANCH   5   7
ENDBRANCH   2   3
ENDBRANCH   1   2
BRANCH   1  22
ATOM     22  C   UNL     1       4.027   4.144   0.152  1.00  0.00     0.118 C 
BRANCH  22  23
ATOM     23  N   UNL     1       4.757   4.199   1.416  1.00  0.00    -0.352 N 
ATOM     24  C   UNL     1       5.699   5.111   1.859  1.00  0.00     0.251 C 
ATOM     25  H   UNL     1       4.547   3.476   2.050  1.00  0.00     0.163 HD
ATOM     26  O   UNL     1       6.258   4.948   2.930  1.00  0.00    -0.269 OA
BRANCH  24  27
ATOM     27  C   UNL     1       6.061   6.261   0.998  1.00  0.00     0.039 A 
ATOM     28  C   UNL     1       7.410   6.565   0.790  1.00  0.00     0.014 A 
ATOM     29  C   UNL     1       5.073   6.981   0.331  1.00  0.00     0.014 A 
ATOM     30  C   UNL     1       7.766   7.497  -0.190  1.00  0.00     0.010 A 
ATOM     31  C   UNL     1       5.430   7.807  -0.725  1.00  0.00     0.010 A 
ATOM     32  C   UNL     1       6.781   8.067  -1.011  1.00  0.00    -0.014 A 
BRANCH  32  33
ATOM     33  C   UNL     1       7.098   8.928  -2.183  1.00  0.00     0.031 A 
ATOM     34  C   UNL     1       6.461  10.289  -2.292  1.00  0.00     0.074 A 
ATOM     35  C   UNL     1       7.825   8.447  -3.211  1.00  0.00     0.049 A 
ATOM     36  N   UNL     1       6.368  11.082  -3.328  1.00  0.00    -0.248 NA
ATOM     37  C   UNL     1       5.785  10.793  -1.085  1.00  0.00     0.031 C 
ATOM     38  C   UNL     1       8.477   7.136  -3.263  1.00  0.00     0.029 A 
ATOM     39  N   UNL     1       8.121   9.008  -4.430  1.00  0.00    -0.354 N 
ATOM     40  C   UNL     1       5.569  12.141  -2.916  1.00  0.00     0.074 A 
ATOM     41  C   UNL     1       5.166  11.865  -1.554  1.00  0.00     0.031 C 
ATOM     42  C   UNL     1       9.124   7.010  -4.434  1.00  0.00     0.029 A 
ATOM     43  C   UNL     1       8.881   8.199  -5.241  1.00  0.00     0.049 A 
ATOM     44  H   UNL     1       7.816   9.905  -4.698  1.00  0.00     0.167 HD
ATOM     45  C   UNL     1       5.214  13.255  -3.600  1.00  0.00     0.031 A 
ATOM     46  C   UNL     1       9.320   8.387  -6.500  1.00  0.00     0.031 A 
ATOM     47  C   UNL     1       5.666  13.560  -4.929  1.00  0.00     0.049 A 
ATOM     48  C   UNL     1       8.943   9.645  -7.231  1.00  0.00     0.074 A 
ATOM     49  C   UNL     1       5.424  14.694  -5.685  1.00  0.00     0.029 A 
ATOM     50  N   UNL     1       6.476  12.733  -5.691  1.00  0.00    -0.354 N 
ATOM     51  N   UNL     1       8.201  10.646  -6.823  1.00  0.00    -0.248 NA
ATOM     52  C   UNL     1       9.465   9.799  -8.597  1.00  0.00     0.031 C 
ATOM     53  C   UNL     1       6.069  14.541  -6.917  1.00  0.00     0.029 A 
ATOM     54  C   UNL     1       6.744  13.331  -6.910  1.00  0.00     0.049 A 
ATOM     55  H   UNL     1       6.811  11.852  -5.408  1.00  0.00     0.167 HD
ATOM     56  C   UNL     1       8.195  11.562  -7.866  1.00  0.00     0.074 A 
ATOM     57  C   UNL     1       9.011  11.000  -8.924  1.00  0.00     0.031 C 
ATOM     58  C   UNL     1       7.573  12.763  -7.941  1.00  0.00     0.031 A 
BRANCH  45  59
ATOM     59  C   UNL     1       4.293  14.221  -2.907  1.00  0.00    -0.014 A 
ATOM     60  C   UNL     1       4.721  14.971  -1.800  1.00  0.00     0.009 A 
ATOM     61  C   UNL     1       2.976  14.380  -3.365  1.00  0.00     0.009 A 
ATOM     62  C   UNL     1       3.833  15.817  -1.131  1.00  0.00     0.001 A 
ATOM     63  C   UNL     1       2.100  15.252  -2.716  1.00  0.00     0.001 A 
ATOM     64  C   UNL     1       2.525  15.958  -1.591  1.00  0.00     0.000 A 
ENDBRANCH  45  59
BRANCH  46  65
ATOM     65  C   UNL     1      10.192   7.371  -7.146  1.00  0.00    -0.014 A 
ATOM     66  C   UNL     1      11.558   7.636  -7.328  1.00  0.00     0.009 A 
ATOM     67  C   UNL     1       9.675   6.142  -7.582  1.00  0.00     0.009 A 
ATOM     68  C   UNL     1      12.385   6.700  -7.954  1.00  0.00     0.001 A 
ATOM     69  C   UNL     1      10.510   5.197  -8.185  1.00  0.00     0.001 A 
ATOM     70  C   UNL     1      11.862   5.480  -8.377  1.00  0.00     0.000 A 
ENDBRANCH  46  65
BRANCH  58  71
ATOM     71  C   UNL     1       7.796  13.579  -9.180  1.00  0.00    -0.014 A 
ATOM     72  C   UNL     1       7.154  13.262 -10.386  1.00  0.00     0.009 A 
ATOM     73  C   UNL     1       8.616  14.716  -9.118  1.00  0.00     0.009 A 
ATOM     74  C   UNL     1       7.348  14.061 -11.515  1.00  0.00     0.001 A 
ATOM     75  C   UNL     1       8.788  15.525 -10.241  1.00  0.00     0.001 A 
ATOM     76  C   UNL     1       8.159  15.194 -11.440  1.00  0.00     0.000 A 
ENDBRANCH  58  71
ENDBRANCH  32  33
ENDBRANCH  24  27
ENDBRANCH  22  23
ENDBRANCH   1  22
TORSDOF 11
