REMARK SMILES CCC(=O)N1CCc2cc(C(=O)NC3(C(=O)NCCCNC(=O)c4ccc(-c5c6nc(c(-c7ccccc7)c7ccc([nH]7)c(-c7ccccc7)c7nc(c(-c8ccccc8)c8ccc5[nH]8)C=C7)C=C6)cc4)CCCC3)ccc21
REMARK SMILES IDX 18 1 17 2 15 3 16 4 14 6 72 7 75 8 73 9 74 10 13 11 11 12
REMARK SMILES IDX 12 13 10 15 5 16 6 17 78 18 7 19 8 20 77 21 9 22 76 23 3 24
REMARK SMILES IDX 4 25 2 26 1 27 19 28 20 29 21 30 22 31 23 33 24 34 25 35
REMARK SMILES IDX 71 36 26 37 70 38 27 39 28 40 29 41 64 42 30 43 69 44 63 45
REMARK SMILES IDX 65 46 31 47 68 48 62 49 61 50 32 52 54 53 39 54 53 55 40 56
REMARK SMILES IDX 43 57 52 58 66 59 41 60 42 61 51 63 67 64 44 65 33 66 34 67
REMARK SMILES IDX 38 68 35 69 37 70 36 71 55 72 56 73 60 74 57 75 59 76 58 77
REMARK SMILES IDX 45 78 46 79 50 80 47 81 49 82 48 83
REMARK H PARENT 17 5 13 14 21 32 65 51 43 62
REMARK Flexibility Score: inf
ROOT
ATOM      1  C   UNL     1       3.709  -0.946   5.619  1.00  0.00     0.117 C 
ENDROOT
BRANCH   1   2
ATOM      2  N   UNL     1       5.091  -1.344   5.400  1.00  0.00    -0.354 N 
ATOM      3  C   UNL     1       5.842  -1.498   4.266  1.00  0.00     0.245 C 
ATOM      4  O   UNL     1       7.051  -1.702   4.436  1.00  0.00    -0.272 OA
ATOM      5  H   UNL     1       5.581  -1.543   6.230  1.00  0.00     0.163 HD
BRANCH   3   6
ATOM      6  C   UNL     1       5.233  -1.509   2.814  1.00  0.00     0.119 C 
ATOM      7  C   UNL     1       4.474  -0.217   2.517  1.00  0.00     0.038 C 
ATOM      8  C   UNL     1       4.249  -2.683   2.764  1.00  0.00     0.038 C 
ATOM      9  C   UNL     1       3.021  -0.603   2.278  1.00  0.00     0.003 C 
ATOM     10  C   UNL     1       2.870  -2.105   2.469  1.00  0.00     0.003 C 
BRANCH   6  11
ATOM     11  N   UNL     1       6.388  -1.692   1.872  1.00  0.00    -0.338 N 
ATOM     12  C   UNL     1       6.617  -1.623   0.511  1.00  0.00     0.252 C 
ATOM     13  O   UNL     1       7.777  -1.710   0.110  1.00  0.00    -0.269 OA
ATOM     14  H   UNL     1       7.210  -1.927   2.360  1.00  0.00     0.164 HD
BRANCH  12  15
ATOM     15  C   UNL     1       5.550  -1.376  -0.501  1.00  0.00     0.040 A 
ATOM     16  N   UNL     1       2.547  -0.080  -3.073  1.00  0.00    -0.312 N 
ATOM     17  C   UNL     1       3.300   0.335  -4.260  1.00  0.00     0.130 C 
ATOM     18  C   UNL     1       3.444  -0.644  -2.169  1.00  0.00     0.047 A 
ATOM     19  C   UNL     1       4.796   0.163  -3.933  1.00  0.00     0.059 C 
ATOM     20  C   UNL     1       4.757  -0.350  -2.525  1.00  0.00    -0.022 A 
ATOM     21  C   UNL     1       3.199  -1.529  -1.154  1.00  0.00     0.027 A 
ATOM     22  C   UNL     1       5.819  -0.646  -1.668  1.00  0.00     0.019 A 
ATOM     23  C   UNL     1       4.285  -1.947  -0.383  1.00  0.00     0.016 A 
BRANCH  16  24
ATOM     24  C   UNL     1       1.174  -0.010  -3.026  1.00  0.00     0.226 C 
ATOM     25  O   UNL     1       0.490  -0.307  -4.011  1.00  0.00    -0.275 OA
BRANCH  24  26
ATOM     26  C   UNL     1       0.523   0.804  -1.901  1.00  0.00     0.097 C 
ATOM     27  C   UNL     1       0.745   0.437  -0.455  1.00  0.00     0.014 C 
ENDBRANCH  24  26
ENDBRANCH  16  24
ENDBRANCH  12  15
ENDBRANCH   6  11
ENDBRANCH   3   6
ENDBRANCH   1   2
BRANCH   1  28
ATOM     28  C   UNL     1       2.746  -2.106   5.837  1.00  0.00     0.042 C 
BRANCH  28  29
ATOM     29  C   UNL     1       2.354  -2.304   7.285  1.00  0.00     0.118 C 
BRANCH  29  30
ATOM     30  N   UNL     1       1.552  -1.196   7.787  1.00  0.00    -0.352 N 
ATOM     31  C   UNL     1       0.324  -1.197   8.403  1.00  0.00     0.251 C 
ATOM     32  H   UNL     1       1.954  -0.305   7.666  1.00  0.00     0.163 HD
ATOM     33  O   UNL     1      -0.262  -0.138   8.580  1.00  0.00    -0.269 OA
BRANCH  31  34
ATOM     34  C   UNL     1      -0.297  -2.470   8.833  1.00  0.00     0.039 A 
ATOM     35  C   UNL     1      -1.688  -2.599   8.774  1.00  0.00     0.014 A 
ATOM     36  C   UNL     1       0.479  -3.526   9.312  1.00  0.00     0.014 A 
ATOM     37  C   UNL     1      -2.288  -3.800   9.159  1.00  0.00     0.010 A 
ATOM     38  C   UNL     1      -0.104  -4.758   9.567  1.00  0.00     0.010 A 
ATOM     39  C   UNL     1      -1.497  -4.896   9.534  1.00  0.00    -0.014 A 
BRANCH  39  40
ATOM     40  C   UNL     1      -2.096  -6.178   9.972  1.00  0.00     0.031 A 
ATOM     41  C   UNL     1      -1.825  -6.685  11.365  1.00  0.00     0.074 A 
ATOM     42  C   UNL     1      -2.820  -6.913   9.107  1.00  0.00     0.049 A 
ATOM     43  N   UNL     1      -2.182  -7.815  11.919  1.00  0.00    -0.248 NA
ATOM     44  C   UNL     1      -1.008  -5.824  12.239  1.00  0.00     0.031 C 
ATOM     45  C   UNL     1      -3.112  -6.550   7.718  1.00  0.00     0.029 A 
ATOM     46  N   UNL     1      -3.441  -8.124   9.272  1.00  0.00    -0.354 N 
ATOM     47  C   UNL     1      -1.609  -7.809  13.185  1.00  0.00     0.074 A 
ATOM     48  C   UNL     1      -0.824  -6.602  13.293  1.00  0.00     0.031 C 
ATOM     49  C   UNL     1      -3.889  -7.499   7.171  1.00  0.00     0.029 A 
ATOM     50  C   UNL     1      -4.111  -8.555   8.153  1.00  0.00     0.049 A 
ATOM     51  H   UNL     1      -3.410  -8.636  10.113  1.00  0.00     0.167 HD
ATOM     52  C   UNL     1      -1.746  -8.713  14.183  1.00  0.00     0.031 A 
ATOM     53  C   UNL     1      -4.824  -9.677   7.946  1.00  0.00     0.031 A 
ATOM     54  C   UNL     1      -2.551  -9.899  14.080  1.00  0.00     0.049 A 
ATOM     55  C   UNL     1      -4.972 -10.662   9.072  1.00  0.00     0.074 A 
ATOM     56  C   UNL     1      -2.810 -10.853  15.046  1.00  0.00     0.029 A 
ATOM     57  N   UNL     1      -3.234 -10.286  12.937  1.00  0.00    -0.354 N 
ATOM     58  N   UNL     1      -4.476 -10.613  10.285  1.00  0.00    -0.248 NA
ATOM     59  C   UNL     1      -5.796 -11.848   8.804  1.00  0.00     0.031 C 
ATOM     60  C   UNL     1      -3.609 -11.847  14.472  1.00  0.00     0.029 A 
ATOM     61  C   UNL     1      -3.901 -11.476  13.168  1.00  0.00     0.049 A 
ATOM     62  H   UNL     1      -3.242  -9.789  12.087  1.00  0.00     0.167 HD
ATOM     63  C   UNL     1      -4.958 -11.741  10.937  1.00  0.00     0.074 A 
ATOM     64  C   UNL     1      -5.795 -12.446   9.987  1.00  0.00     0.031 C 
ATOM     65  C   UNL     1      -4.733 -12.155  12.209  1.00  0.00     0.031 A 
BRANCH  52  66
ATOM     66  C   UNL     1      -1.004  -8.446  15.465  1.00  0.00    -0.014 A 
ATOM     67  C   UNL     1      -1.345  -7.366  16.297  1.00  0.00     0.009 A 
ATOM     68  C   UNL     1       0.046  -9.292  15.853  1.00  0.00     0.009 A 
ATOM     69  C   UNL     1      -0.619  -7.111  17.462  1.00  0.00     0.001 A 
ATOM     70  C   UNL     1       0.747  -9.056  17.037  1.00  0.00     0.001 A 
ATOM     71  C   UNL     1       0.423  -7.958  17.834  1.00  0.00     0.000 A 
ENDBRANCH  52  66
BRANCH  53  72
ATOM     72  C   UNL     1      -5.481  -9.911   6.633  1.00  0.00    -0.014 A 
ATOM     73  C   UNL     1      -6.879  -9.853   6.517  1.00  0.00     0.009 A 
ATOM     74  C   UNL     1      -4.718 -10.194   5.490  1.00  0.00     0.009 A 
ATOM     75  C   UNL     1      -7.500 -10.105   5.292  1.00  0.00     0.001 A 
ATOM     76  C   UNL     1      -5.340 -10.414   4.259  1.00  0.00     0.001 A 
ATOM     77  C   UNL     1      -6.730 -10.381   4.163  1.00  0.00     0.000 A 
ENDBRANCH  53  72
BRANCH  65  78
ATOM     78  C   UNL     1      -5.449 -13.397  12.661  1.00  0.00    -0.014 A 
ATOM     79  C   UNL     1      -5.099 -14.666  12.176  1.00  0.00     0.009 A 
ATOM     80  C   UNL     1      -6.469 -13.292  13.620  1.00  0.00     0.009 A 
ATOM     81  C   UNL     1      -5.786 -15.801  12.611  1.00  0.00     0.001 A 
ATOM     82  C   UNL     1      -7.130 -14.431  14.079  1.00  0.00     0.001 A 
ATOM     83  C   UNL     1      -6.797 -15.682  13.565  1.00  0.00     0.000 A 
ENDBRANCH  65  78
ENDBRANCH  39  40
ENDBRANCH  31  34
ENDBRANCH  29  30
ENDBRANCH  28  29
ENDBRANCH   1  28
TORSDOF 14
