REMARK SMILES Cc1ccccc1C(=O)N1CSC[C@H]1C(=O)NCCCNC(=O)c1ccc(-c2c3nc(c(-c4ccccc4)c4ccc([nH]4)c(-c4ccccc4)c4nc(c(-c5ccccc5)c5ccc2[nH]5)C=C4)C=C3)cc1
REMARK SMILES IDX 19 1 18 2 17 3 15 4 16 5 14 7 10 8 11 9 12 10 13 11 8 12
REMARK SMILES IDX 9 13 7 14 1 15 2 16 3 17 4 18 6 19 5 20 20 21 21 22 22 23
REMARK SMILES IDX 23 25 24 26 25 27 71 28 26 29 70 30 27 31 28 32 29 33 64 34
REMARK SMILES IDX 30 35 69 36 63 37 65 38 31 39 68 40 62 41 61 42 32 44 54 45
REMARK SMILES IDX 39 46 53 47 40 48 43 49 52 50 66 51 41 52 42 53 51 55 67 56
REMARK SMILES IDX 44 57 33 58 34 59 38 60 35 61 37 62 36 63 55 64 56 65 60 66
REMARK SMILES IDX 57 67 59 68 58 69 45 70 46 71 50 72 47 73 49 74 48 75
REMARK H PARENT 17 6 21 24 65 43 43 54
REMARK Flexibility Score: inf
ROOT
ATOM      1  C   UNL     1       4.189   4.281  -2.459  1.00  0.00     0.042 C 
ENDROOT
BRANCH   1   2
ATOM      2  C   UNL     1       5.012   4.679  -1.245  1.00  0.00     0.117 C 
BRANCH   2   3
ATOM      3  N   UNL     1       4.179   5.133  -0.148  1.00  0.00    -0.354 N 
ATOM      4  C   UNL     1       3.553   4.480   0.868  1.00  0.00     0.243 C 
ATOM      5  O   UNL     1       3.014   5.215   1.705  1.00  0.00    -0.273 OA
ATOM      6  H   UNL     1       4.037   6.107  -0.137  1.00  0.00     0.163 HD
BRANCH   4   7
ATOM      7  C   UNL     1       3.509   2.939   1.045  1.00  0.00     0.185 C 
ATOM      8  N   UNL     1       2.623   2.136   0.190  1.00  0.00    -0.317 N 
ATOM      9  C   UNL     1       3.283   1.392  -0.853  1.00  0.00     0.190 C 
ATOM     10  S   UNL     1       5.001   1.173  -0.344  1.00  0.00    -0.138 SA
ATOM     11  C   UNL     1       4.874   2.267   1.107  1.00  0.00     0.106 C 
BRANCH   8  12
ATOM     12  C   UNL     1       1.279   2.069   0.521  1.00  0.00     0.255 C 
ATOM     13  O   UNL     1       0.731   2.958   1.169  1.00  0.00    -0.269 OA
BRANCH  12  14
ATOM     14  C   UNL     1       0.448   0.882   0.165  1.00  0.00     0.042 A 
ATOM     15  C   UNL     1       2.111  -0.873   1.077  1.00  0.00     0.045 C 
ATOM     16  C   UNL     1       0.808  -0.453   0.453  1.00  0.00    -0.038 A 
ATOM     17  C   UNL     1      -0.118  -1.477   0.175  1.00  0.00     0.004 A 
ATOM     18  C   UNL     1      -1.401  -1.186  -0.288  1.00  0.00     0.000 A 
ATOM     19  C   UNL     1      -0.853   1.161  -0.293  1.00  0.00     0.014 A 
ATOM     20  C   UNL     1      -1.774   0.135  -0.509  1.00  0.00     0.001 A 
ENDBRANCH  12  14
ENDBRANCH   8  12
ENDBRANCH   4   7
ENDBRANCH   2   3
ENDBRANCH   1   2
BRANCH   1  21
ATOM     21  C   UNL     1       4.182   5.328  -3.558  1.00  0.00     0.118 C 
BRANCH  21  22
ATOM     22  N   UNL     1       5.171   5.082  -4.607  1.00  0.00    -0.352 N 
ATOM     23  C   UNL     1       5.398   5.823  -5.759  1.00  0.00     0.251 C 
ATOM     24  H   UNL     1       5.746   4.293  -4.481  1.00  0.00     0.163 HD
ATOM     25  O   UNL     1       6.282   5.533  -6.540  1.00  0.00    -0.269 OA
BRANCH  23  26
ATOM     26  C   UNL     1       4.608   7.063  -5.929  1.00  0.00     0.039 A 
ATOM     27  C   UNL     1       5.313   8.266  -5.855  1.00  0.00     0.014 A 
ATOM     28  C   UNL     1       3.225   7.019  -5.766  1.00  0.00     0.014 A 
ATOM     29  C   UNL     1       4.671   9.379  -5.333  1.00  0.00     0.010 A 
ATOM     30  C   UNL     1       2.615   8.096  -5.154  1.00  0.00     0.010 A 
ATOM     31  C   UNL     1       3.366   9.241  -4.860  1.00  0.00    -0.014 A 
BRANCH  31  32
ATOM     32  C   UNL     1       2.778  10.193  -3.927  1.00  0.00     0.031 A 
ATOM     33  C   UNL     1       1.746  11.135  -4.392  1.00  0.00     0.074 A 
ATOM     34  C   UNL     1       3.198  10.235  -2.642  1.00  0.00     0.049 A 
ATOM     35  N   UNL     1       1.492  12.263  -3.818  1.00  0.00    -0.248 NA
ATOM     36  C   UNL     1       0.988  10.930  -5.625  1.00  0.00     0.031 C 
ATOM     37  C   UNL     1       2.585  10.947  -1.524  1.00  0.00     0.029 A 
ATOM     38  N   UNL     1       4.441   9.823  -2.152  1.00  0.00    -0.354 N 
ATOM     39  C   UNL     1       0.358  12.766  -4.402  1.00  0.00     0.074 A 
ATOM     40  C   UNL     1       0.181  11.994  -5.607  1.00  0.00     0.031 C 
ATOM     41  C   UNL     1       3.515  11.153  -0.578  1.00  0.00     0.029 A 
ATOM     42  C   UNL     1       4.790  10.715  -1.121  1.00  0.00     0.049 A 
ATOM     43  H   UNL     1       4.971   9.056  -2.468  1.00  0.00     0.167 HD
ATOM     44  C   UNL     1      -0.394  13.668  -3.716  1.00  0.00     0.031 A 
ATOM     45  C   UNL     1       5.911  11.490  -1.196  1.00  0.00     0.031 A 
ATOM     46  C   UNL     1       0.324  14.206  -2.561  1.00  0.00     0.049 A 
ATOM     47  C   UNL     1       5.636  12.977  -1.141  1.00  0.00     0.074 A 
ATOM     48  C   UNL     1       0.207  14.025  -1.193  1.00  0.00     0.029 A 
ATOM     49  N   UNL     1       1.526  14.877  -2.767  1.00  0.00    -0.354 N 
ATOM     50  N   UNL     1       4.467  13.515  -1.348  1.00  0.00    -0.248 NA
ATOM     51  C   UNL     1       6.676  13.976  -0.904  1.00  0.00     0.031 C 
ATOM     52  C   UNL     1       1.395  14.518  -0.585  1.00  0.00     0.029 A 
ATOM     53  C   UNL     1       2.208  15.037  -1.578  1.00  0.00     0.049 A 
ATOM     54  H   UNL     1       1.846  15.194  -3.643  1.00  0.00     0.167 HD
ATOM     55  C   UNL     1       4.577  14.881  -1.310  1.00  0.00     0.074 A 
ATOM     56  C   UNL     1       5.976  15.120  -1.005  1.00  0.00     0.031 C 
ATOM     57  C   UNL     1       3.510  15.696  -1.563  1.00  0.00     0.031 A 
BRANCH  44  58
ATOM     58  C   UNL     1      -1.874  13.881  -3.957  1.00  0.00    -0.014 A 
ATOM     59  C   UNL     1      -2.602  14.721  -3.095  1.00  0.00     0.009 A 
ATOM     60  C   UNL     1      -2.638  13.194  -4.921  1.00  0.00     0.009 A 
ATOM     61  C   UNL     1      -3.999  14.843  -3.178  1.00  0.00     0.001 A 
ATOM     62  C   UNL     1      -4.027  13.331  -5.030  1.00  0.00     0.001 A 
ATOM     63  C   UNL     1      -4.712  14.149  -4.148  1.00  0.00     0.000 A 
ENDBRANCH  44  58
BRANCH  45  64
ATOM     64  C   UNL     1       7.025  10.873  -1.967  1.00  0.00    -0.014 A 
ATOM     65  C   UNL     1       7.631   9.706  -1.459  1.00  0.00     0.009 A 
ATOM     66  C   UNL     1       7.249  11.215  -3.307  1.00  0.00     0.009 A 
ATOM     67  C   UNL     1       8.347   8.847  -2.298  1.00  0.00     0.001 A 
ATOM     68  C   UNL     1       7.977  10.357  -4.142  1.00  0.00     0.001 A 
ATOM     69  C   UNL     1       8.494   9.160  -3.647  1.00  0.00     0.000 A 
ENDBRANCH  45  64
BRANCH  57  70
ATOM     70  C   UNL     1       3.559  17.193  -1.778  1.00  0.00    -0.014 A 
ATOM     71  C   UNL     1       4.710  17.915  -2.121  1.00  0.00     0.009 A 
ATOM     72  C   UNL     1       2.347  17.921  -1.761  1.00  0.00     0.009 A 
ATOM     73  C   UNL     1       4.662  19.293  -2.383  1.00  0.00     0.001 A 
ATOM     74  C   UNL     1       2.285  19.283  -2.067  1.00  0.00     0.001 A 
ATOM     75  C   UNL     1       3.449  19.974  -2.366  1.00  0.00     0.000 A 
ENDBRANCH  57  70
ENDBRANCH  31  32
ENDBRANCH  23  26
ENDBRANCH  21  22
ENDBRANCH   1  21
TORSDOF 12
