REMARK SMILES O=C(C[C@@H]1C(=O)NC(=S)N1c1ccccc1)NCCCNC(=O)c1ccc(-c2c3nc(c(-c4ccccc4)c4ccc([nH]4)c(-c4ccccc4)c4nc(c(-c5ccccc5)c5ccc2[nH]5)C=C4)C=C3)cc1
REMARK SMILES IDX 19 1 18 2 17 3 1 4 2 5 3 7 4 8 5 9 10 10 6 11 7 12 8 13 9 15
REMARK SMILES IDX 11 16 12 17 16 18 13 19 15 20 14 21 20 22 21 23 22 24 23 26
REMARK SMILES IDX 24 27 25 28 71 29 26 30 70 31 27 32 28 33 29 34 64 35 30 36
REMARK SMILES IDX 69 37 63 38 65 39 31 40 68 41 62 42 61 43 32 45 54 46 39 47
REMARK SMILES IDX 53 48 40 49 43 50 52 51 66 52 41 53 42 54 51 56 67 57 44 58
REMARK SMILES IDX 33 59 34 60 38 61 35 62 37 63 36 64 55 65 56 66 60 67 57 68
REMARK SMILES IDX 59 69 58 70 45 71 46 72 50 73 47 74 49 75 48 76
REMARK H PARENT 17 6 7 14 21 25 65 44 43 55
REMARK Flexibility Score: inf
ROOT
ATOM      1  C   UNL     1       2.487   2.938  -1.732  1.00  0.00     0.042 C 
ENDROOT
BRANCH   1   2
ATOM      2  C   UNL     1       2.171   1.457  -1.883  1.00  0.00     0.117 C 
BRANCH   2   3
ATOM      3  N   UNL     1       2.796   0.645  -0.853  1.00  0.00    -0.356 N 
ATOM      4  O   UNL     1       0.822  -0.119   0.014  1.00  0.00    -0.275 OA
ATOM      5  C   UNL     1       2.050  -0.149  -0.020  1.00  0.00     0.222 C 
ATOM      6  H   UNL     1       3.775   0.665  -0.751  1.00  0.00     0.163 HD
BRANCH   5   7
ATOM      7  C   UNL     1       2.818  -1.014   0.955  1.00  0.00     0.135 C 
BRANCH   7   8
ATOM      8  C   UNL     1       3.877  -1.963   0.410  1.00  0.00     0.188 C 
ATOM      9  C   UNL     1       3.629  -2.434  -1.025  1.00  0.00     0.249 C 
ATOM     10  N   UNL     1       3.959  -3.264   1.090  1.00  0.00    -0.306 N 
ATOM     11  O   UNL     1       3.614  -1.730  -2.023  1.00  0.00    -0.272 OA
ATOM     12  N   UNL     1       3.477  -3.781  -1.035  1.00  0.00    -0.301 N 
ATOM     13  C   UNL     1       3.696  -4.315   0.197  1.00  0.00     0.180 C 
ATOM     14  H   UNL     1       3.239  -4.307  -1.832  1.00  0.00     0.172 HD
ATOM     15  S   UNL     1       3.584  -5.952   0.456  1.00  0.00    -0.040 S 
BRANCH  10  16
ATOM     16  C   UNL     1       4.466  -3.399   2.409  1.00  0.00     0.044 A 
ATOM     17  C   UNL     1       5.547  -4.251   2.670  1.00  0.00     0.026 A 
ATOM     18  C   UNL     1       3.884  -2.714   3.481  1.00  0.00     0.026 A 
ATOM     19  C   UNL     1       6.018  -4.431   3.974  1.00  0.00     0.002 A 
ATOM     20  C   UNL     1       4.342  -2.909   4.788  1.00  0.00     0.002 A 
ATOM     21  C   UNL     1       5.408  -3.768   5.035  1.00  0.00     0.000 A 
ENDBRANCH  10  16
ENDBRANCH   7   8
ENDBRANCH   5   7
ENDBRANCH   2   3
ENDBRANCH   1   2
BRANCH   1  22
ATOM     22  C   UNL     1       3.965   3.282  -1.863  1.00  0.00     0.118 C 
BRANCH  22  23
ATOM     23  N   UNL     1       4.512   2.982  -3.179  1.00  0.00    -0.352 N 
ATOM     24  C   UNL     1       5.183   3.785  -4.067  1.00  0.00     0.251 C 
ATOM     25  H   UNL     1       4.379   2.053  -3.479  1.00  0.00     0.163 HD
ATOM     26  O   UNL     1       5.436   3.364  -5.193  1.00  0.00    -0.269 OA
BRANCH  24  27
ATOM     27  C   UNL     1       5.590   5.159  -3.695  1.00  0.00     0.039 A 
ATOM     28  C   UNL     1       5.480   6.171  -4.654  1.00  0.00     0.014 A 
ATOM     29  C   UNL     1       6.116   5.453  -2.435  1.00  0.00     0.014 A 
ATOM     30  C   UNL     1       5.851   7.480  -4.334  1.00  0.00     0.010 A 
ATOM     31  C   UNL     1       6.405   6.772  -2.090  1.00  0.00     0.010 A 
ATOM     32  C   UNL     1       6.293   7.798  -3.040  1.00  0.00    -0.014 A 
BRANCH  32  33
ATOM     33  C   UNL     1       6.673   9.188  -2.678  1.00  0.00     0.031 A 
ATOM     34  C   UNL     1       8.090   9.506  -2.280  1.00  0.00     0.074 A 
ATOM     35  C   UNL     1       5.740  10.160  -2.668  1.00  0.00     0.049 A 
ATOM     36  N   UNL     1       8.607  10.649  -1.902  1.00  0.00    -0.248 NA
ATOM     37  C   UNL     1       9.049   8.388  -2.282  1.00  0.00     0.031 C 
ATOM     38  C   UNL     1       4.325   9.982  -3.000  1.00  0.00     0.029 A 
ATOM     39  N   UNL     1       5.845  11.495  -2.365  1.00  0.00    -0.354 N 
ATOM     40  C   UNL     1       9.939  10.383  -1.608  1.00  0.00     0.074 A 
ATOM     41  C   UNL     1      10.137   8.963  -1.794  1.00  0.00     0.031 C 
ATOM     42  C   UNL     1       3.702  11.169  -2.916  1.00  0.00     0.029 A 
ATOM     43  C   UNL     1       4.661  12.182  -2.485  1.00  0.00     0.049 A 
ATOM     44  H   UNL     1       6.689  11.920  -2.089  1.00  0.00     0.167 HD
ATOM     45  C   UNL     1      10.917  11.244  -1.239  1.00  0.00     0.031 A 
ATOM     46  C   UNL     1       4.377  13.480  -2.269  1.00  0.00     0.031 A 
ATOM     47  C   UNL     1      10.725  12.659  -1.062  1.00  0.00     0.049 A 
ATOM     48  C   UNL     1       5.476  14.413  -1.841  1.00  0.00     0.074 A 
ATOM     49  C   UNL     1      11.665  13.622  -0.738  1.00  0.00     0.029 A 
ATOM     50  N   UNL     1       9.510  13.313  -1.193  1.00  0.00    -0.354 N 
ATOM     51  N   UNL     1       6.745  14.157  -1.631  1.00  0.00    -0.248 NA
ATOM     52  C   UNL     1       5.104  15.820  -1.634  1.00  0.00     0.031 C 
ATOM     53  C   UNL     1      11.008  14.851  -0.618  1.00  0.00     0.029 A 
ATOM     54  C   UNL     1       9.672  14.664  -0.933  1.00  0.00     0.049 A 
ATOM     55  H   UNL     1       8.659  12.882  -1.435  1.00  0.00     0.167 HD
ATOM     56  C   UNL     1       7.328  15.375  -1.305  1.00  0.00     0.074 A 
ATOM     57  C   UNL     1       6.278  16.371  -1.358  1.00  0.00     0.031 C 
ATOM     58  C   UNL     1       8.619  15.645  -0.993  1.00  0.00     0.031 A 
BRANCH  45  59
ATOM     59  C   UNL     1      12.287  10.672  -0.992  1.00  0.00    -0.014 A 
ATOM     60  C   UNL     1      13.065  10.163  -2.045  1.00  0.00     0.009 A 
ATOM     61  C   UNL     1      12.819  10.668   0.307  1.00  0.00     0.009 A 
ATOM     62  C   UNL     1      14.329   9.625  -1.795  1.00  0.00     0.001 A 
ATOM     63  C   UNL     1      14.097  10.159   0.548  1.00  0.00     0.001 A 
ATOM     64  C   UNL     1      14.846   9.628  -0.500  1.00  0.00     0.000 A 
ENDBRANCH  45  59
BRANCH  46  65
ATOM     65  C   UNL     1       2.993  13.986  -2.473  1.00  0.00    -0.014 A 
ATOM     66  C   UNL     1       2.701  14.856  -3.536  1.00  0.00     0.009 A 
ATOM     67  C   UNL     1       1.960  13.616  -1.598  1.00  0.00     0.009 A 
ATOM     68  C   UNL     1       1.412  15.369  -3.698  1.00  0.00     0.001 A 
ATOM     69  C   UNL     1       0.665  14.105  -1.782  1.00  0.00     0.001 A 
ATOM     70  C   UNL     1       0.395  14.990  -2.824  1.00  0.00     0.000 A 
ENDBRANCH  46  65
BRANCH  58  71
ATOM     71  C   UNL     1       8.981  17.082  -0.733  1.00  0.00    -0.014 A 
ATOM     72  C   UNL     1       8.553  17.750   0.425  1.00  0.00     0.009 A 
ATOM     73  C   UNL     1       9.796  17.765  -1.649  1.00  0.00     0.009 A 
ATOM     74  C   UNL     1       8.903  19.085   0.639  1.00  0.00     0.001 A 
ATOM     75  C   UNL     1      10.172  19.089  -1.416  1.00  0.00     0.001 A 
ATOM     76  C   UNL     1       9.716  19.751  -0.278  1.00  0.00     0.000 A 
ENDBRANCH  58  71
ENDBRANCH  32  33
ENDBRANCH  24  27
ENDBRANCH  22  23
ENDBRANCH   1  22
TORSDOF 12
