REMARK SMILES Cc1csc([C@H](C)Nc2cc(C)c(N)c(C(=O)NCCCNC(=O)c3ccc(-c4c5nc(c(-c6ccccc6)c6ccc([nH]6)c(-c6ccccc6)c6nc(c(-c7ccccc7)c7ccc4[nH]7)C=C6)C=C5)cc3)c2)n1
REMARK SMILES IDX 19 1 18 2 16 3 17 4 15 6 9 7 10 8 73 9 11 10 12 11 13 12
REMARK SMILES IDX 8 13 6 15 7 16 5 17 1 18 2 19 3 20 74 21 4 22 14 23 20 26
REMARK SMILES IDX 21 27 22 28 23 29 24 31 25 32 26 33 72 34 27 35 71 36 28 37
REMARK SMILES IDX 29 38 30 39 65 40 31 41 70 42 64 43 66 44 32 45 69 46 63 47
REMARK SMILES IDX 62 48 33 50 55 51 40 52 54 53 41 54 44 55 53 56 67 57 42 58
REMARK SMILES IDX 43 59 52 61 68 62 45 63 34 64 35 65 39 66 36 67 38 68 37 69
REMARK SMILES IDX 56 70 57 71 61 72 58 73 60 74 59 75 46 76 47 77 51 78 48 79
REMARK SMILES IDX 50 80 49 81
REMARK H PARENT 18 5 8 14 14 24 14 25 22 30 66 49 44 60
REMARK Flexibility Score: inf
ROOT
ATOM      1  C   UNL     1       0.163   3.421   5.780  1.00  0.00     0.118 C 
ENDROOT
BRANCH   1   2
ATOM      2  N   UNL     1       1.502   3.513   6.333  1.00  0.00    -0.352 N 
ATOM      3  C   UNL     1       2.750   3.667   5.778  1.00  0.00     0.253 C 
ATOM      4  O   UNL     1       3.689   3.702   6.580  1.00  0.00    -0.269 OA
ATOM      5  H   UNL     1       1.521   3.451   7.316  1.00  0.00     0.163 HD
BRANCH   3   6
ATOM      6  C   UNL     1       3.019   3.817   4.308  1.00  0.00     0.065 A 
ATOM      7  C   UNL     1       2.358   3.468   1.973  1.00  0.00     0.036 A 
ATOM      8  C   UNL     1       3.495   4.151   1.558  1.00  0.00     0.031 A 
ATOM      9  C   UNL     1       2.147   3.300   3.343  1.00  0.00     0.041 A 
ATOM     10  C   UNL     1       4.436   4.628   2.490  1.00  0.00    -0.025 A 
ATOM     11  C   UNL     1       5.662   5.337   1.978  1.00  0.00     0.046 C 
ATOM     12  C   UNL     1       4.213   4.450   3.875  1.00  0.00     0.047 A 
BRANCH   7  13
ATOM     13  N   UNL     1       1.321   3.126   1.116  1.00  0.00    -0.376 N 
ATOM     14  H   UNL     1       0.398   3.357   1.371  1.00  0.00     0.161 HD
BRANCH  13  15
ATOM     15  C   UNL     1       1.554   2.431  -0.159  1.00  0.00     0.135 C 
ATOM     16  C   UNL     1       0.630   1.203  -0.127  1.00  0.00     0.039 C 
BRANCH  15  17
ATOM     17  C   UNL     1       1.312   3.312  -1.385  1.00  0.00     0.115 A 
ATOM     18  C   UNL     1       1.159   6.630  -2.796  1.00  0.00     0.067 C 
ATOM     19  C   UNL     1       1.116   5.156  -2.618  1.00  0.00     0.049 A 
ATOM     20  C   UNL     1       0.890   4.213  -3.600  1.00  0.00     0.090 A 
ATOM     21  N   UNL     1       1.329   4.633  -1.353  1.00  0.00    -0.244 NA
ATOM     22  S   UNL     1       1.032   2.639  -2.948  1.00  0.00    -0.125 S 
ENDBRANCH  15  17
ENDBRANCH  13  15
ENDBRANCH   7  13
BRANCH  12  23
ATOM     23  N   UNL     1       5.089   5.050   4.790  1.00  0.00    -0.398 N 
ATOM     24  H   UNL     1       5.913   5.485   4.471  1.00  0.00     0.156 HD
ATOM     25  H   UNL     1       4.880   5.036   5.753  1.00  0.00     0.156 HD
ENDBRANCH  12  23
ENDBRANCH   3   6
ENDBRANCH   1   2
BRANCH   1  26
ATOM     26  C   UNL     1      -0.275   1.961   5.639  1.00  0.00     0.042 C 
BRANCH  26  27
ATOM     27  C   UNL     1      -0.622   1.300   6.971  1.00  0.00     0.118 C 
BRANCH  27  28
ATOM     28  N   UNL     1      -1.857   1.825   7.533  1.00  0.00    -0.352 N 
ATOM     29  C   UNL     1      -3.012   1.177   7.892  1.00  0.00     0.251 C 
ATOM     30  H   UNL     1      -1.866   2.799   7.679  1.00  0.00     0.163 HD
ATOM     31  O   UNL     1      -4.021   1.832   8.136  1.00  0.00    -0.269 OA
BRANCH  29  32
ATOM     32  C   UNL     1      -3.059  -0.299   7.984  1.00  0.00     0.039 A 
ATOM     33  C   UNL     1      -4.208  -0.960   7.539  1.00  0.00     0.014 A 
ATOM     34  C   UNL     1      -2.016  -1.027   8.563  1.00  0.00     0.014 A 
ATOM     35  C   UNL     1      -4.293  -2.351   7.632  1.00  0.00     0.010 A 
ATOM     36  C   UNL     1      -2.075  -2.419   8.599  1.00  0.00     0.010 A 
ATOM     37  C   UNL     1      -3.217  -3.094   8.142  1.00  0.00    -0.014 A 
BRANCH  37  38
ATOM     38  C   UNL     1      -3.270  -4.576   8.206  1.00  0.00     0.031 A 
ATOM     39  C   UNL     1      -3.266  -5.280   9.535  1.00  0.00     0.074 A 
ATOM     40  C   UNL     1      -3.261  -5.291   7.065  1.00  0.00     0.049 A 
ATOM     41  N   UNL     1      -3.244  -6.565   9.789  1.00  0.00    -0.248 NA
ATOM     42  C   UNL     1      -3.264  -4.430  10.736  1.00  0.00     0.031 C 
ATOM     43  C   UNL     1      -3.232  -4.729   5.713  1.00  0.00     0.029 A 
ATOM     44  N   UNL     1      -3.268  -6.648   6.861  1.00  0.00    -0.354 N 
ATOM     45  C   UNL     1      -3.204  -6.675  11.173  1.00  0.00     0.074 A 
ATOM     46  C   UNL     1      -3.164  -5.330  11.704  1.00  0.00     0.031 C 
ATOM     47  C   UNL     1      -3.245  -5.733   4.820  1.00  0.00     0.029 A 
ATOM     48  C   UNL     1      -3.245  -7.005   5.535  1.00  0.00     0.049 A 
ATOM     49  H   UNL     1      -3.287  -7.304   7.596  1.00  0.00     0.167 HD
ATOM     50  C   UNL     1      -3.215  -7.795  11.935  1.00  0.00     0.031 A 
ATOM     51  C   UNL     1      -3.219  -8.221   4.957  1.00  0.00     0.031 A 
ATOM     52  C   UNL     1      -3.268  -9.133  11.409  1.00  0.00     0.049 A 
ATOM     53  C   UNL     1      -3.227  -9.447   5.824  1.00  0.00     0.074 A 
ATOM     54  C   UNL     1      -3.337 -10.330  12.101  1.00  0.00     0.029 A 
ATOM     55  N   UNL     1      -3.256  -9.450  10.060  1.00  0.00    -0.354 N 
ATOM     56  N   UNL     1      -3.249  -9.534   7.132  1.00  0.00    -0.248 NA
ATOM     57  C   UNL     1      -3.217 -10.745   5.134  1.00  0.00     0.031 C 
ATOM     58  C   UNL     1      -3.324 -11.374  11.170  1.00  0.00     0.029 A 
ATOM     59  C   UNL     1      -3.297 -10.825   9.898  1.00  0.00     0.049 A 
ATOM     60  H   UNL     1      -3.223  -8.795   9.326  1.00  0.00     0.167 HD
ATOM     61  C   UNL     1      -3.282 -10.892   7.421  1.00  0.00     0.074 A 
ATOM     62  C   UNL     1      -3.292 -11.591   6.152  1.00  0.00     0.031 C 
ATOM     63  C   UNL     1      -3.305 -11.504   8.629  1.00  0.00     0.031 A 
BRANCH  50  64
ATOM     64  C   UNL     1      -3.159  -7.617  13.427  1.00  0.00    -0.014 A 
ATOM     65  C   UNL     1      -4.256  -7.106  14.140  1.00  0.00     0.009 A 
ATOM     66  C   UNL     1      -2.007  -7.995  14.134  1.00  0.00     0.009 A 
ATOM     67  C   UNL     1      -4.185  -6.942  15.525  1.00  0.00     0.001 A 
ATOM     68  C   UNL     1      -1.950  -7.856  15.523  1.00  0.00     0.001 A 
ATOM     69  C   UNL     1      -3.035  -7.321  16.215  1.00  0.00     0.000 A 
ENDBRANCH  50  64
BRANCH  51  70
ATOM     70  C   UNL     1      -3.203  -8.337   3.477  1.00  0.00    -0.014 A 
ATOM     71  C   UNL     1      -4.340  -8.783   2.787  1.00  0.00     0.009 A 
ATOM     72  C   UNL     1      -2.053  -8.000   2.745  1.00  0.00     0.009 A 
ATOM     73  C   UNL     1      -4.320  -8.910   1.396  1.00  0.00     0.001 A 
ATOM     74  C   UNL     1      -2.045  -8.103   1.353  1.00  0.00     0.001 A 
ATOM     75  C   UNL     1      -3.174  -8.566   0.680  1.00  0.00     0.000 A 
ENDBRANCH  51  70
BRANCH  63  76
ATOM     76  C   UNL     1      -3.378 -13.004   8.636  1.00  0.00    -0.014 A 
ATOM     77  C   UNL     1      -2.264 -13.789   8.300  1.00  0.00     0.009 A 
ATOM     78  C   UNL     1      -4.568 -13.639   9.024  1.00  0.00     0.009 A 
ATOM     79  C   UNL     1      -2.352 -15.182   8.324  1.00  0.00     0.001 A 
ATOM     80  C   UNL     1      -4.644 -15.032   9.073  1.00  0.00     0.001 A 
ATOM     81  C   UNL     1      -3.539 -15.802   8.715  1.00  0.00     0.000 A 
ENDBRANCH  63  76
ENDBRANCH  37  38
ENDBRANCH  29  32
ENDBRANCH  27  28
ENDBRANCH  26  27
ENDBRANCH   1  26
TORSDOF 14
