REMARK SMILES C[NH2+][C@]1(C(=O)NCCCNC(=O)c2ccc(-c3c4nc(c(-c5ccccc5)c5ccc([nH]5)c(-c5ccccc5)c5nc(c(-c6ccccc6)c6ccc3[nH]6)C=C5)C=C4)cc2)CCC[C@@H]1CC[N@H+]1CCC[C@H]([NH+](C)C)C1
REMARK SMILES IDX 7 1 6 2 4 3 5 4 3 6 61 7 64 8 62 9 63 10 2 11 1 12 65 15
REMARK SMILES IDX 66 16 67 17 68 18 75 19 69 21 71 22 70 23 72 24 73 25 74 26
REMARK SMILES IDX 8 28 9 29 10 30 11 31 12 33 13 34 14 35 60 36 15 37 59 38
REMARK SMILES IDX 16 39 17 40 18 41 53 42 19 43 58 44 52 45 54 46 20 47 57 48
REMARK SMILES IDX 51 49 50 50 21 52 43 53 28 54 42 55 29 56 32 57 41 58 55 59
REMARK SMILES IDX 30 60 31 61 40 63 56 64 33 65 22 66 23 67 27 68 24 69 26 70
REMARK SMILES IDX 25 71 44 72 45 73 49 74 46 75 48 76 47 77 34 78 35 79 39 80
REMARK SMILES IDX 36 81 38 82 37 83
REMARK H PARENT 6 5 2 13 2 14 67 20 72 27 10 32 54 51 32 62
REMARK Flexibility Score: inf
ROOT
ATOM      1  C   UNL     1       0.396  -0.159  -4.075  1.00  0.00     0.118 C 
ENDROOT
BRANCH   1   2
ATOM      2  N   UNL     1       1.014   0.116  -2.786  1.00  0.00    -0.351 N 
ATOM      3  C   UNL     1       0.524   0.270  -1.521  1.00  0.00     0.281 C 
ATOM      4  O   UNL     1       1.407   0.396  -0.666  1.00  0.00    -0.268 OA
ATOM      5  H   UNL     1       1.992   0.212  -2.837  1.00  0.00     0.163 HD
BRANCH   3   6
ATOM      6  C   UNL     1      -1.010   0.230  -1.206  1.00  0.00     0.178 C 
ATOM      7  C   UNL     1      -1.740   1.329  -2.009  1.00  0.00     0.079 C 
ATOM      8  C   UNL     1      -1.658  -1.090  -1.726  1.00  0.00     0.066 C 
ATOM      9  C   UNL     1      -3.149   0.806  -2.252  1.00  0.00     0.008 C 
ATOM     10  C   UNL     1      -3.095  -0.717  -2.122  1.00  0.00     0.011 C 
BRANCH   6  11
ATOM     11  N   UNL     1      -1.416   0.518   0.204  1.00  0.00    -0.336 N 
ATOM     12  C   UNL     1      -0.440   0.335   1.263  1.00  0.00     0.331 C 
ATOM     13  H   UNL     1      -1.715   1.493   0.238  1.00  0.00     0.346 HD
ATOM     14  H   UNL     1      -2.131  -0.181   0.404  1.00  0.00     0.346 HD
ENDBRANCH   6  11
BRANCH   8  15
ATOM     15  C   UNL     1      -1.563  -2.287  -0.759  1.00  0.00     0.072 C 
BRANCH  15  16
ATOM     16  C   UNL     1      -1.466  -3.666  -1.439  1.00  0.00     0.262 C 
BRANCH  16  17
ATOM     17  N   UNL     1      -0.335  -3.875  -2.365  1.00  0.00    -0.330 N 
ATOM     18  C   UNL     1       0.972  -3.482  -1.826  1.00  0.00     0.262 C 
ATOM     19  C   UNL     1      -0.277  -5.305  -2.749  1.00  0.00     0.327 C 
ATOM     20  H   UNL     1      -0.514  -3.271  -3.167  1.00  0.00     0.348 HD
ATOM     21  C   UNL     1       2.051  -3.597  -2.903  1.00  0.00     0.068 C 
ATOM     22  C   UNL     1       0.780  -5.638  -3.841  1.00  0.00     0.239 C 
ATOM     23  C   UNL     1       2.143  -4.997  -3.498  1.00  0.00     0.077 C 
BRANCH  22  24
ATOM     24  N   UNL     1       0.371  -5.441  -5.254  1.00  0.00    -0.333 N 
ATOM     25  C   UNL     1      -0.710  -6.350  -5.641  1.00  0.00     0.332 C 
ATOM     26  C   UNL     1       0.022  -4.071  -5.612  1.00  0.00     0.332 C 
ATOM     27  H   UNL     1       1.214  -5.664  -5.784  1.00  0.00     0.348 HD
ENDBRANCH  22  24
ENDBRANCH  16  17
ENDBRANCH  15  16
ENDBRANCH   8  15
ENDBRANCH   3   6
ENDBRANCH   1   2
BRANCH   1  28
ATOM     28  C   UNL     1       0.932   0.742  -5.172  1.00  0.00     0.042 C 
BRANCH  28  29
ATOM     29  C   UNL     1       2.439   0.665  -5.359  1.00  0.00     0.118 C 
BRANCH  29  30
ATOM     30  N   UNL     1       2.906  -0.647  -5.786  1.00  0.00    -0.352 N 
ATOM     31  C   UNL     1       3.589  -1.008  -6.926  1.00  0.00     0.251 C 
ATOM     32  H   UNL     1       2.704  -1.385  -5.167  1.00  0.00     0.163 HD
ATOM     33  O   UNL     1       3.797  -2.184  -7.180  1.00  0.00    -0.269 OA
BRANCH  31  34
ATOM     34  C   UNL     1       4.033   0.043  -7.863  1.00  0.00     0.039 A 
ATOM     35  C   UNL     1       3.776  -0.113  -9.227  1.00  0.00     0.014 A 
ATOM     36  C   UNL     1       4.654   1.200  -7.389  1.00  0.00     0.014 A 
ATOM     37  C   UNL     1       4.063   0.934 -10.104  1.00  0.00     0.010 A 
ATOM     38  C   UNL     1       4.836   2.279  -8.243  1.00  0.00     0.010 A 
ATOM     39  C   UNL     1       4.549   2.156  -9.611  1.00  0.00    -0.014 A 
BRANCH  39  40
ATOM     40  C   UNL     1       4.783   3.319 -10.503  1.00  0.00     0.031 A 
ATOM     41  C   UNL     1       6.167   3.898 -10.627  1.00  0.00     0.074 A 
ATOM     42  C   UNL     1       3.746   3.903 -11.134  1.00  0.00     0.049 A 
ATOM     43  N   UNL     1       6.561   4.963 -11.277  1.00  0.00    -0.248 NA
ATOM     44  C   UNL     1       7.242   3.209  -9.894  1.00  0.00     0.031 C 
ATOM     45  C   UNL     1       2.348   3.471 -11.057  1.00  0.00     0.029 A 
ATOM     46  N   UNL     1       3.708   4.997 -11.962  1.00  0.00    -0.354 N 
ATOM     47  C   UNL     1       7.918   5.087 -11.003  1.00  0.00     0.074 A 
ATOM     48  C   UNL     1       8.267   4.025 -10.087  1.00  0.00     0.031 C 
ATOM     49  C   UNL     1       1.597   4.269 -11.833  1.00  0.00     0.029 A 
ATOM     50  C   UNL     1       2.450   5.293 -12.427  1.00  0.00     0.049 A 
ATOM     51  H   UNL     1       4.507   5.520 -12.200  1.00  0.00     0.167 HD
ATOM     52  C   UNL     1       8.802   5.989 -11.489  1.00  0.00     0.031 A 
ATOM     53  C   UNL     1       2.030   6.281 -13.239  1.00  0.00     0.031 A 
ATOM     54  C   UNL     1       8.462   7.027 -12.424  1.00  0.00     0.049 A 
ATOM     55  C   UNL     1       3.033   7.264 -13.776  1.00  0.00     0.074 A 
ATOM     56  C   UNL     1       9.296   7.948 -13.031  1.00  0.00     0.029 A 
ATOM     57  N   UNL     1       7.181   7.275 -12.890  1.00  0.00    -0.354 N 
ATOM     58  N   UNL     1       4.325   7.326 -13.563  1.00  0.00    -0.248 NA
ATOM     59  C   UNL     1       2.519   8.306 -14.676  1.00  0.00     0.031 C 
ATOM     60  C   UNL     1       8.512   8.784 -13.832  1.00  0.00     0.029 A 
ATOM     61  C   UNL     1       7.198   8.348 -13.764  1.00  0.00     0.049 A 
ATOM     62  H   UNL     1       6.378   6.765 -12.638  1.00  0.00     0.167 HD
ATOM     63  C   UNL     1       4.783   8.392 -14.325  1.00  0.00     0.074 A 
ATOM     64  C   UNL     1       3.633   8.939 -15.016  1.00  0.00     0.031 C 
ATOM     65  C   UNL     1       6.044   8.874 -14.445  1.00  0.00     0.031 A 
BRANCH  52  66
ATOM     66  C   UNL     1      10.224   5.888 -11.012  1.00  0.00    -0.014 A 
ATOM     67  C   UNL     1      11.046   4.815 -11.392  1.00  0.00     0.009 A 
ATOM     68  C   UNL     1      10.755   6.889 -10.184  1.00  0.00     0.009 A 
ATOM     69  C   UNL     1      12.356   4.724 -10.918  1.00  0.00     0.001 A 
ATOM     70  C   UNL     1      12.076   6.812  -9.738  1.00  0.00     0.001 A 
ATOM     71  C   UNL     1      12.871   5.725 -10.096  1.00  0.00     0.000 A 
ENDBRANCH  52  66
BRANCH  53  72
ATOM     72  C   UNL     1       0.596   6.378 -13.619  1.00  0.00    -0.014 A 
ATOM     73  C   UNL     1       0.187   6.075 -14.927  1.00  0.00     0.009 A 
ATOM     74  C   UNL     1      -0.369   6.780 -12.683  1.00  0.00     0.009 A 
ATOM     75  C   UNL     1      -1.154   6.200 -15.297  1.00  0.00     0.001 A 
ATOM     76  C   UNL     1      -1.714   6.877 -13.049  1.00  0.00     0.001 A 
ATOM     77  C   UNL     1      -2.104   6.597 -14.357  1.00  0.00     0.000 A 
ENDBRANCH  53  72
BRANCH  65  78
ATOM     78  C   UNL     1       6.253  10.024 -15.389  1.00  0.00    -0.014 A 
ATOM     79  C   UNL     1       5.814  11.319 -15.071  1.00  0.00     0.009 A 
ATOM     80  C   UNL     1       6.940   9.813 -16.595  1.00  0.00     0.009 A 
ATOM     81  C   UNL     1       6.032  12.373 -15.960  1.00  0.00     0.001 A 
ATOM     82  C   UNL     1       7.181  10.874 -17.467  1.00  0.00     0.001 A 
ATOM     83  C   UNL     1       6.719  12.152 -17.153  1.00  0.00     0.000 A 
ENDBRANCH  65  78
ENDBRANCH  39  40
ENDBRANCH  31  34
ENDBRANCH  29  30
ENDBRANCH  28  29
ENDBRANCH   1  28
TORSDOF 15
