REMARK SMILES C#CC[NH2+]CC(=O)N1CC[C@](CCC)(C(=O)NCCCNC(=O)c2ccc(-c3c4nc(c(-c5ccccc5)c5ccc([nH]5)c(-c5ccccc5)c5nc(c(-c6ccccc6)c6ccc3[nH]6)C=C5)C=C4)cc2)C1
REMARK SMILES IDX 15 1 16 2 17 3 11 5 8 6 9 7 72 8 10 9 6 10 7 11 5 12 4 13
REMARK SMILES IDX 3 16 2 17 1 18 12 19 13 20 14 21 18 22 19 23 20 24 21 25
REMARK SMILES IDX 22 26 23 28 24 29 25 30 71 31 26 32 70 33 27 34 28 35 29 36
REMARK SMILES IDX 64 37 30 38 69 39 63 40 65 41 31 42 68 43 62 44 61 45 32 47
REMARK SMILES IDX 54 48 39 49 53 50 40 51 43 52 52 53 66 54 41 55 42 56 51 58
REMARK SMILES IDX 67 59 44 60 33 61 34 62 38 63 35 64 37 65 36 66 55 67 56 68
REMARK SMILES IDX 60 69 57 70 59 71 58 72 45 73 46 74 50 75 47 76 49 77 48 78
REMARK H PARENT 17 4 4 14 4 15 21 27 65 46 43 57
REMARK Flexibility Score: inf
ROOT
ATOM      1  C   UNL     1      -5.452  -3.716  -3.501  1.00  0.00     0.228 C 
ATOM      2  O   UNL     1      -6.650  -3.911  -3.312  1.00  0.00    -0.274 OA
ATOM      3  N   UNL     1      -4.952  -3.905  -4.763  1.00  0.00    -0.355 N 
ATOM      4  H   UNL     1      -5.624  -3.989  -5.478  1.00  0.00     0.163 HD
ENDROOT
BRANCH   1   5
ATOM      5  C   UNL     1      -4.516  -3.144  -2.439  1.00  0.00     0.068 C 
ATOM      6  N   UNL     1      -4.586  -1.471  -0.750  1.00  0.00    -0.337 N 
ATOM      7  C   UNL     1      -3.873  -0.896  -1.870  1.00  0.00     0.121 C 
ATOM      8  C   UNL     1      -5.287  -2.679  -1.180  1.00  0.00     0.136 C 
ATOM      9  C   UNL     1      -4.131  -1.775  -3.047  1.00  0.00     0.040 C 
BRANCH   6  10
ATOM     10  C   UNL     1      -4.599  -1.042   0.571  1.00  0.00     0.277 C 
ATOM     11  O   UNL     1      -5.067  -1.749   1.467  1.00  0.00    -0.268 OA
BRANCH  10  12
ATOM     12  C   UNL     1      -4.022   0.357   0.915  1.00  0.00     0.362 C 
BRANCH  12  13
ATOM     13  N   UNL     1      -2.559   0.381   1.198  1.00  0.00    -0.328 N 
ATOM     14  H   UNL     1      -2.265   1.333   1.416  1.00  0.00     0.347 HD
ATOM     15  H   UNL     1      -2.344  -0.216   1.996  1.00  0.00     0.347 HD
BRANCH  13  16
ATOM     16  C   UNL     1      -1.866  -0.088   0.021  1.00  0.00     0.352 C 
BRANCH  16  17
ATOM     17  C   UNL     1      -0.346  -0.088   0.021  1.00  0.00    -0.047 C 
ATOM     18  C   UNL     1       0.957  -0.088   0.021  1.00  0.00     0.010 C 
ENDBRANCH  16  17
ENDBRANCH  13  16
ENDBRANCH  12  13
ENDBRANCH  10  12
ENDBRANCH   6  10
BRANCH   5  19
ATOM     19  C   UNL     1      -3.441  -4.199  -1.988  1.00  0.00     0.018 C 
BRANCH  19  20
ATOM     20  C   UNL     1      -1.931  -3.943  -2.145  1.00  0.00    -0.002 C 
ATOM     21  C   UNL     1      -1.191  -3.597  -0.861  1.00  0.00     0.004 C 
ENDBRANCH  19  20
ENDBRANCH   5  19
ENDBRANCH   1   5
BRANCH   3  22
ATOM     22  C   UNL     1      -3.567  -3.997  -5.193  1.00  0.00     0.117 C 
BRANCH  22  23
ATOM     23  C   UNL     1      -3.216  -5.436  -5.496  1.00  0.00     0.042 C 
BRANCH  23  24
ATOM     24  C   UNL     1      -3.740  -5.808  -6.862  1.00  0.00     0.118 C 
BRANCH  24  25
ATOM     25  N   UNL     1      -2.962  -5.169  -7.918  1.00  0.00    -0.352 N 
ATOM     26  C   UNL     1      -2.333  -5.759  -8.982  1.00  0.00     0.251 C 
ATOM     27  H   UNL     1      -2.879  -4.190  -7.859  1.00  0.00     0.163 HD
ATOM     28  O   UNL     1      -1.521  -5.132  -9.656  1.00  0.00    -0.269 OA
BRANCH  26  29
ATOM     29  C   UNL     1      -2.633  -7.170  -9.278  1.00  0.00     0.039 A 
ATOM     30  C   UNL     1      -1.588  -8.043  -9.575  1.00  0.00     0.014 A 
ATOM     31  C   UNL     1      -3.949  -7.631  -9.190  1.00  0.00     0.014 A 
ATOM     32  C   UNL     1      -1.863  -9.399  -9.731  1.00  0.00     0.010 A 
ATOM     33  C   UNL     1      -4.198  -8.992  -9.212  1.00  0.00     0.010 A 
ATOM     34  C   UNL     1      -3.164  -9.886  -9.514  1.00  0.00    -0.014 A 
BRANCH  34  35
ATOM     35  C   UNL     1      -3.483 -11.326  -9.638  1.00  0.00     0.031 A 
ATOM     36  C   UNL     1      -4.490 -11.774 -10.662  1.00  0.00     0.074 A 
ATOM     37  C   UNL     1      -2.918 -12.211  -8.796  1.00  0.00     0.049 A 
ATOM     38  N   UNL     1      -4.953 -12.976 -10.892  1.00  0.00    -0.248 NA
ATOM     39  C   UNL     1      -5.085 -10.730 -11.515  1.00  0.00     0.031 C 
ATOM     40  C   UNL     1      -1.963 -11.886  -7.733  1.00  0.00     0.029 A 
ATOM     41  N   UNL     1      -3.066 -13.570  -8.704  1.00  0.00    -0.354 N 
ATOM     42  C   UNL     1      -5.903 -12.824 -11.895  1.00  0.00     0.074 A 
ATOM     43  C   UNL     1      -6.005 -11.412 -12.178  1.00  0.00     0.031 C 
ATOM     44  C   UNL     1      -1.576 -13.021  -7.129  1.00  0.00     0.029 A 
ATOM     45  C   UNL     1      -2.290 -14.143  -7.726  1.00  0.00     0.049 A 
ATOM     46  H   UNL     1      -3.671 -14.087  -9.284  1.00  0.00     0.167 HD
ATOM     47  C   UNL     1      -6.606 -13.779 -12.546  1.00  0.00     0.031 A 
ATOM     48  C   UNL     1      -2.172 -15.431  -7.356  1.00  0.00     0.031 A 
ATOM     49  C   UNL     1      -6.488 -15.184 -12.270  1.00  0.00     0.049 A 
ATOM     50  C   UNL     1      -2.979 -16.471  -8.081  1.00  0.00     0.074 A 
ATOM     51  C   UNL     1      -7.109 -16.242 -12.906  1.00  0.00     0.029 A 
ATOM     52  N   UNL     1      -5.692 -15.723 -11.271  1.00  0.00    -0.354 N 
ATOM     53  N   UNL     1      -3.818 -16.322  -9.078  1.00  0.00    -0.248 NA
ATOM     54  C   UNL     1      -2.814 -17.861  -7.634  1.00  0.00     0.031 C 
ATOM     55  C   UNL     1      -6.735 -17.420 -12.252  1.00  0.00     0.029 A 
ATOM     56  C   UNL     1      -5.828 -17.100 -11.254  1.00  0.00     0.049 A 
ATOM     57  H   UNL     1      -5.116 -15.204 -10.664  1.00  0.00     0.167 HD
ATOM     58  C   UNL     1      -4.256 -17.600  -9.399  1.00  0.00     0.074 A 
ATOM     59  C   UNL     1      -3.575 -18.512  -8.502  1.00  0.00     0.031 C 
ATOM     60  C   UNL     1      -5.139 -17.987 -10.351  1.00  0.00     0.031 A 
BRANCH  47  61
ATOM     61  C   UNL     1      -7.566 -13.324 -13.611  1.00  0.00    -0.014 A 
ATOM     62  C   UNL     1      -7.111 -12.741 -14.806  1.00  0.00     0.009 A 
ATOM     63  C   UNL     1      -8.947 -13.492 -13.424  1.00  0.00     0.009 A 
ATOM     64  C   UNL     1      -8.018 -12.295 -15.768  1.00  0.00     0.001 A 
ATOM     65  C   UNL     1      -9.851 -13.077 -14.404  1.00  0.00     0.001 A 
ATOM     66  C   UNL     1      -9.387 -12.468 -15.569  1.00  0.00     0.000 A 
ENDBRANCH  47  61
BRANCH  48  67
ATOM     67  C   UNL     1      -1.237 -15.812  -6.264  1.00  0.00    -0.014 A 
ATOM     68  C   UNL     1      -0.079 -16.554  -6.547  1.00  0.00     0.009 A 
ATOM     69  C   UNL     1      -1.497 -15.446  -4.935  1.00  0.00     0.009 A 
ATOM     70  C   UNL     1       0.780 -16.947  -5.519  1.00  0.00     0.001 A 
ATOM     71  C   UNL     1      -0.619 -15.813  -3.913  1.00  0.00     0.001 A 
ATOM     72  C   UNL     1       0.512 -16.573  -4.204  1.00  0.00     0.000 A 
ENDBRANCH  48  67
BRANCH  60  73
ATOM     73  C   UNL     1      -5.388 -19.462 -10.498  1.00  0.00    -0.014 A 
ATOM     74  C   UNL     1      -6.101 -20.184  -9.529  1.00  0.00     0.009 A 
ATOM     75  C   UNL     1      -4.935 -20.127 -11.649  1.00  0.00     0.009 A 
ATOM     76  C   UNL     1      -6.323 -21.553  -9.694  1.00  0.00     0.001 A 
ATOM     77  C   UNL     1      -5.189 -21.487 -11.826  1.00  0.00     0.001 A 
ATOM     78  C   UNL     1      -5.873 -22.201 -10.844  1.00  0.00     0.000 A 
ENDBRANCH  60  73
ENDBRANCH  34  35
ENDBRANCH  26  29
ENDBRANCH  24  25
ENDBRANCH  23  24
ENDBRANCH  22  23
ENDBRANCH   3  22
TORSDOF 17
