REMARK SMILES C[C@@H](C(=O)NCCCNC(=O)c1ccc(-c2c3nc(c(-c4ccccc4)c4ccc([nH]4)c(-c4ccccc4)c4nc(c(-c5ccccc5)c5ccc2[nH]5)C=C4)C=C3)cc1)c1ccc(-c2cccc(OC(=O)NCCCc3ccccc3)c2)c(F)c1
REMARK SMILES IDX 1 1 2 2 3 3 4 4 5 5 6 7 7 8 8 9 9 10 10 11 11 13 12 14 13 15
REMARK SMILES IDX 59 16 14 17 58 18 15 19 16 20 17 21 52 22 18 23 57 24 51 25
REMARK SMILES IDX 53 26 19 27 56 28 50 29 49 30 20 32 42 33 27 34 41 35 28 36
REMARK SMILES IDX 31 37 40 38 54 39 29 40 30 41 39 43 55 44 32 45 21 46 22 47
REMARK SMILES IDX 26 48 23 49 25 50 24 51 43 52 44 53 48 54 45 55 47 56 46 57
REMARK SMILES IDX 33 58 34 59 38 60 35 61 37 62 36 63 60 64 61 65 85 66 62 67
REMARK SMILES IDX 83 68 63 69 84 70 64 71 65 72 82 73 66 74 68 75 67 76 69 77
REMARK SMILES IDX 70 78 71 79 72 80 73 82 74 83 75 84 76 85 77 86 81 87 78 88
REMARK SMILES IDX 80 89 79 90
REMARK H PARENT 5 6 9 12 53 31 31 42 72 81
REMARK Flexibility Score: inf
ROOT
ATOM      1  C   UNL     1       0.870   0.171  -0.409  1.00  0.00     0.023 C 
ATOM      2  C   UNL     1       0.498   0.768   0.951  1.00  0.00     0.105 C 
ENDROOT
BRANCH   2   3
ATOM      3  C   UNL     1       1.245   2.091   1.196  1.00  0.00     0.227 C 
ATOM      4  O   UNL     1       0.757   3.214   1.069  1.00  0.00    -0.274 OA
ATOM      5  N   UNL     1       2.552   2.076   1.585  1.00  0.00    -0.356 N 
ATOM      6  H   UNL     1       2.880   2.927   1.955  1.00  0.00     0.163 HD
BRANCH   5   7
ATOM      7  C   UNL     1       3.538   1.016   1.543  1.00  0.00     0.117 C 
BRANCH   7   8
ATOM      8  C   UNL     1       4.406   1.119   0.289  1.00  0.00     0.042 C 
BRANCH   8   9
ATOM      9  C   UNL     1       5.093   2.468   0.103  1.00  0.00     0.118 C 
BRANCH   9  10
ATOM     10  N   UNL     1       6.038   2.767   1.165  1.00  0.00    -0.352 N 
ATOM     11  C   UNL     1       7.389   2.997   1.096  1.00  0.00     0.251 C 
ATOM     12  H   UNL     1       5.652   2.811   2.070  1.00  0.00     0.163 HD
ATOM     13  O   UNL     1       8.054   3.045   2.126  1.00  0.00    -0.269 OA
BRANCH  11  14
ATOM     14  C   UNL     1       8.050   3.164  -0.216  1.00  0.00     0.039 A 
ATOM     15  C   UNL     1       9.271   2.522  -0.438  1.00  0.00     0.014 A 
ATOM     16  C   UNL     1       7.486   3.961  -1.216  1.00  0.00     0.014 A 
ATOM     17  C   UNL     1       9.895   2.628  -1.682  1.00  0.00     0.010 A 
ATOM     18  C   UNL     1       8.069   4.002  -2.481  1.00  0.00     0.010 A 
ATOM     19  C   UNL     1       9.281   3.341  -2.726  1.00  0.00    -0.014 A 
BRANCH  19  20
ATOM     20  C   UNL     1       9.892   3.400  -4.078  1.00  0.00     0.031 A 
ATOM     21  C   UNL     1      10.348   4.715  -4.648  1.00  0.00     0.074 A 
ATOM     22  C   UNL     1       9.982   2.278  -4.818  1.00  0.00     0.049 A 
ATOM     23  N   UNL     1      10.854   4.972  -5.828  1.00  0.00    -0.248 NA
ATOM     24  C   UNL     1      10.196   5.901  -3.789  1.00  0.00     0.031 C 
ATOM     25  C   UNL     1       9.544   0.946  -4.396  1.00  0.00     0.029 A 
ATOM     26  N   UNL     1      10.469   2.081  -6.086  1.00  0.00    -0.354 N 
ATOM     27  C   UNL     1      11.064   6.345  -5.858  1.00  0.00     0.074 A 
ATOM     28  C   UNL     1      10.585   6.874  -4.599  1.00  0.00     0.031 C 
ATOM     29  C   UNL     1       9.807   0.066  -5.375  1.00  0.00     0.029 A 
ATOM     30  C   UNL     1      10.390   0.776  -6.509  1.00  0.00     0.049 A 
ATOM     31  H   UNL     1      10.839   2.805  -6.640  1.00  0.00     0.167 HD
ATOM     32  C   UNL     1      11.621   7.098  -6.837  1.00  0.00     0.031 A 
ATOM     33  C   UNL     1      10.739   0.214  -7.681  1.00  0.00     0.031 A 
ATOM     34  C   UNL     1      12.102   6.572  -8.087  1.00  0.00     0.049 A 
ATOM     35  C   UNL     1      11.332   1.075  -8.762  1.00  0.00     0.074 A 
ATOM     36  C   UNL     1      12.731   7.246  -9.120  1.00  0.00     0.029 A 
ATOM     37  N   UNL     1      12.002   5.245  -8.476  1.00  0.00    -0.354 N 
ATOM     38  N   UNL     1      11.586   2.361  -8.747  1.00  0.00    -0.248 NA
ATOM     39  C   UNL     1      11.696   0.402 -10.017  1.00  0.00     0.031 C 
ATOM     40  C   UNL     1      12.962   6.337 -10.157  1.00  0.00     0.029 A 
ATOM     41  C   UNL     1      12.533   5.085  -9.745  1.00  0.00     0.049 A 
ATOM     42  H   UNL     1      11.612   4.524  -7.931  1.00  0.00     0.167 HD
ATOM     43  C   UNL     1      12.166   2.646  -9.977  1.00  0.00     0.074 A 
ATOM     44  C   UNL     1      12.241   1.396 -10.705  1.00  0.00     0.031 C 
ATOM     45  C   UNL     1      12.600   3.836 -10.458  1.00  0.00     0.031 A 
BRANCH  32  46
ATOM     46  C   UNL     1      11.729   8.578  -6.596  1.00  0.00    -0.014 A 
ATOM     47  C   UNL     1      12.618   9.099  -5.642  1.00  0.00     0.009 A 
ATOM     48  C   UNL     1      10.957   9.468  -7.359  1.00  0.00     0.009 A 
ATOM     49  C   UNL     1      12.703  10.477  -5.431  1.00  0.00     0.001 A 
ATOM     50  C   UNL     1      11.067  10.847  -7.167  1.00  0.00     0.001 A 
ATOM     51  C   UNL     1      11.932  11.350  -6.197  1.00  0.00     0.000 A 
ENDBRANCH  32  46
BRANCH  33  52
ATOM     52  C   UNL     1      10.547  -1.245  -7.895  1.00  0.00    -0.014 A 
ATOM     53  C   UNL     1      11.653  -2.104  -7.982  1.00  0.00     0.009 A 
ATOM     54  C   UNL     1       9.258  -1.785  -8.022  1.00  0.00     0.009 A 
ATOM     55  C   UNL     1      11.473  -3.469  -8.219  1.00  0.00     0.001 A 
ATOM     56  C   UNL     1       9.080  -3.155  -8.229  1.00  0.00     0.001 A 
ATOM     57  C   UNL     1      10.188  -3.993  -8.338  1.00  0.00     0.000 A 
ENDBRANCH  33  52
BRANCH  45  58
ATOM     58  C   UNL     1      13.229   3.838 -11.824  1.00  0.00    -0.014 A 
ATOM     59  C   UNL     1      12.460   3.655 -12.983  1.00  0.00     0.009 A 
ATOM     60  C   UNL     1      14.608   4.068 -11.951  1.00  0.00     0.009 A 
ATOM     61  C   UNL     1      13.067   3.668 -14.241  1.00  0.00     0.001 A 
ATOM     62  C   UNL     1      15.206   4.112 -13.210  1.00  0.00     0.001 A 
ATOM     63  C   UNL     1      14.437   3.902 -14.354  1.00  0.00     0.000 A 
ENDBRANCH  45  58
ENDBRANCH  19  20
ENDBRANCH  11  14
ENDBRANCH   9  10
ENDBRANCH   8   9
ENDBRANCH   7   8
ENDBRANCH   5   7
ENDBRANCH   2   3
BRANCH   2  64
ATOM     64  C   UNL     1      -1.028   0.789   1.056  1.00  0.00    -0.033 A 
ATOM     65  C   UNL     1      -1.816   1.943   0.971  1.00  0.00     0.005 A 
ATOM     66  C   UNL     1      -1.697  -0.442   1.174  1.00  0.00     0.044 A 
ATOM     67  C   UNL     1      -3.212   1.876   1.013  1.00  0.00     0.012 A 
ATOM     68  C   UNL     1      -3.089  -0.505   1.187  1.00  0.00     0.131 A 
ATOM     69  C   UNL     1      -3.877   0.649   1.117  1.00  0.00     0.018 A 
ATOM     70  F   UNL     1      -3.660  -1.717   1.269  1.00  0.00    -0.206 F 
BRANCH  69  71
ATOM     71  C   UNL     1      -5.338   0.608   1.238  1.00  0.00    -0.012 A 
ATOM     72  C   UNL     1      -6.182   1.309   0.360  1.00  0.00     0.009 A 
ATOM     73  C   UNL     1      -5.919  -0.096   2.302  1.00  0.00     0.056 A 
ATOM     74  C   UNL     1      -7.566   1.319   0.552  1.00  0.00     0.004 A 
ATOM     75  C   UNL     1      -7.292  -0.066   2.505  1.00  0.00     0.133 A 
ATOM     76  C   UNL     1      -8.122   0.635   1.631  1.00  0.00     0.047 A 
BRANCH  75  77
ATOM     77  O   UNL     1      -7.941  -0.739   3.562  1.00  0.00    -0.410 OA
BRANCH  77  78
ATOM     78  C   UNL     1      -7.310  -1.282   4.679  1.00  0.00     0.412 C 
ATOM     79  O   UNL     1      -6.118  -1.232   4.950  1.00  0.00    -0.224 OA
ATOM     80  N   UNL     1      -8.182  -1.903   5.526  1.00  0.00    -0.321 N 
ATOM     81  H   UNL     1      -7.798  -2.414   6.275  1.00  0.00     0.167 HD
BRANCH  80  82
ATOM     82  C   UNL     1      -9.619  -1.871   5.414  1.00  0.00     0.120 C 
BRANCH  82  83
ATOM     83  C   UNL     1     -10.318  -3.119   5.947  1.00  0.00     0.026 C 
BRANCH  83  84
ATOM     84  C   UNL     1      -9.756  -3.785   7.209  1.00  0.00     0.037 C 
BRANCH  84  85
ATOM     85  C   UNL     1      -9.886  -3.113   8.557  1.00  0.00    -0.048 A 
ATOM     86  C   UNL     1     -10.094  -1.744   8.751  1.00  0.00     0.004 A 
ATOM     87  C   UNL     1      -9.724  -3.919   9.698  1.00  0.00     0.004 A 
ATOM     88  C   UNL     1     -10.135  -1.196  10.037  1.00  0.00     0.000 A 
ATOM     89  C   UNL     1      -9.774  -3.376  10.984  1.00  0.00     0.000 A 
ATOM     90  C   UNL     1      -9.976  -2.011  11.153  1.00  0.00     0.000 A 
ENDBRANCH  84  85
ENDBRANCH  83  84
ENDBRANCH  82  83
ENDBRANCH  80  82
ENDBRANCH  77  78
ENDBRANCH  75  77
ENDBRANCH  69  71
ENDBRANCH   2  64
TORSDOF 18
