REMARK SMILES COc1ccc(-c2ncn(CC(=O)NCCCNC(=O)c3ccc(-c4c5nc(c(-c6ccccc6)c6ccc([nH]6)c(-c6ccccc6)c6nc(c(-c7ccccc7)c7ccc4[nH]7)C=C6)C=C5)cc3)c2-c2ccc(OC)cc2)cc1
REMARK SMILES IDX 15 1 14 2 12 3 13 4 11 6 10 7 7 8 8 9 69 10 9 11 6 12 3 13
REMARK SMILES IDX 4 14 79 15 5 16 78 17 2 18 1 19 70 20 71 21 77 22 72 23
REMARK SMILES IDX 76 24 73 25 74 26 75 27 16 28 17 29 18 30 19 31 20 33 21 34
REMARK SMILES IDX 22 35 68 36 23 37 67 38 24 39 25 40 26 41 61 42 27 43 66 44
REMARK SMILES IDX 60 45 62 46 28 47 65 48 59 49 58 50 29 52 51 53 36 54 50 55
REMARK SMILES IDX 37 56 40 57 49 58 63 59 38 60 39 61 48 63 64 64 41 65 30 66
REMARK SMILES IDX 31 67 35 68 32 69 34 70 33 71 52 72 53 73 57 74 54 75 56 76
REMARK SMILES IDX 55 77 42 78 43 79 47 80 44 81 46 82 45 83
REMARK H PARENT 14 5 18 32 62 51 40 62
REMARK Flexibility Score: inf
ROOT
ATOM      1  C   UNL     1       1.714   9.083  -5.844  1.00  0.00     0.117 C 
ENDROOT
BRANCH   1   2
ATOM      2  N   UNL     1       0.912   9.620  -4.756  1.00  0.00    -0.354 N 
ATOM      3  C   UNL     1       1.204   9.711  -3.425  1.00  0.00     0.239 C 
ATOM      4  O   UNL     1       0.458  10.401  -2.725  1.00  0.00    -0.273 OA
ATOM      5  H   UNL     1       0.030   9.971  -5.018  1.00  0.00     0.163 HD
BRANCH   3   6
ATOM      6  C   UNL     1       2.429   9.041  -2.840  1.00  0.00     0.223 C 
BRANCH   6   7
ATOM      7  N   UNL     1       2.472   7.603  -3.045  1.00  0.00    -0.321 N 
ATOM      8  C   UNL     1       2.178   5.445  -2.981  1.00  0.00     0.096 A 
ATOM      9  N   UNL     1       3.282   5.666  -3.766  1.00  0.00    -0.236 NA
ATOM     10  C   UNL     1       1.657   6.637  -2.488  1.00  0.00     0.076 A 
ATOM     11  C   UNL     1       3.453   6.965  -3.758  1.00  0.00     0.201 A 
BRANCH   8  12
ATOM     12  C   UNL     1       1.724   4.119  -2.616  1.00  0.00     0.003 A 
ATOM     13  C   UNL     1       0.860   1.628  -1.674  1.00  0.00     0.118 A 
ATOM     14  C   UNL     1      -0.041   2.493  -2.297  1.00  0.00     0.047 A 
ATOM     15  C   UNL     1       2.206   1.980  -1.578  1.00  0.00     0.047 A 
ATOM     16  C   UNL     1       0.385   3.740  -2.759  1.00  0.00     0.014 A 
ATOM     17  C   UNL     1       2.637   3.221  -2.053  1.00  0.00     0.014 A 
BRANCH  13  18
ATOM     18  O   UNL     1       0.345   0.438  -1.236  1.00  0.00    -0.497 OA
ATOM     19  C   UNL     1       0.863   0.007   0.020  1.00  0.00     0.278 C 
ENDBRANCH  13  18
ENDBRANCH   8  12
BRANCH  10  20
ATOM     20  C   UNL     1       0.622   6.871  -1.486  1.00  0.00     0.001 A 
ATOM     21  C   UNL     1      -0.566   7.535  -1.794  1.00  0.00     0.014 A 
ATOM     22  C   UNL     1       0.808   6.391  -0.184  1.00  0.00     0.014 A 
ATOM     23  C   UNL     1      -1.523   7.763  -0.800  1.00  0.00     0.047 A 
ATOM     24  C   UNL     1      -0.161   6.595   0.802  1.00  0.00     0.047 A 
ATOM     25  C   UNL     1      -1.329   7.292   0.499  1.00  0.00     0.118 A 
BRANCH  25  26
ATOM     26  O   UNL     1      -2.343   7.577   1.372  1.00  0.00    -0.497 OA
ATOM     27  C   UNL     1      -2.260   6.976   2.658  1.00  0.00     0.278 C 
ENDBRANCH  25  26
ENDBRANCH  10  20
ENDBRANCH   6   7
ENDBRANCH   3   6
ENDBRANCH   1   2
BRANCH   1  28
ATOM     28  C   UNL     1       1.275   7.695  -6.319  1.00  0.00     0.042 C 
BRANCH  28  29
ATOM     29  C   UNL     1      -0.043   7.710  -7.070  1.00  0.00     0.118 C 
BRANCH  29  30
ATOM     30  N   UNL     1       0.016   8.423  -8.349  1.00  0.00    -0.352 N 
ATOM     31  C   UNL     1      -0.988   8.576  -9.296  1.00  0.00     0.251 C 
ATOM     32  H   UNL     1       0.877   8.847  -8.565  1.00  0.00     0.163 HD
ATOM     33  O   UNL     1      -0.735   8.915 -10.437  1.00  0.00    -0.269 OA
BRANCH  31  34
ATOM     34  C   UNL     1      -2.381   8.320  -8.881  1.00  0.00     0.039 A 
ATOM     35  C   UNL     1      -3.297   7.657  -9.703  1.00  0.00     0.014 A 
ATOM     36  C   UNL     1      -2.738   8.721  -7.601  1.00  0.00     0.014 A 
ATOM     37  C   UNL     1      -4.549   7.335  -9.181  1.00  0.00     0.010 A 
ATOM     38  C   UNL     1      -3.858   8.201  -7.024  1.00  0.00     0.010 A 
ATOM     39  C   UNL     1      -4.812   7.597  -7.829  1.00  0.00    -0.014 A 
BRANCH  39  40
ATOM     40  C   UNL     1      -6.037   7.161  -7.171  1.00  0.00     0.031 A 
ATOM     41  C   UNL     1      -6.282   5.701  -7.264  1.00  0.00     0.074 A 
ATOM     42  C   UNL     1      -6.723   7.968  -6.330  1.00  0.00     0.049 A 
ATOM     43  N   UNL     1      -7.205   5.102  -7.938  1.00  0.00    -0.248 NA
ATOM     44  C   UNL     1      -5.289   4.789  -6.670  1.00  0.00     0.031 C 
ATOM     45  C   UNL     1      -6.381   9.339  -5.913  1.00  0.00     0.029 A 
ATOM     46  N   UNL     1      -7.806   7.691  -5.553  1.00  0.00    -0.354 N 
ATOM     47  C   UNL     1      -7.059   3.748  -7.651  1.00  0.00     0.074 A 
ATOM     48  C   UNL     1      -5.752   3.602  -7.066  1.00  0.00     0.031 C 
ATOM     49  C   UNL     1      -7.073   9.667  -4.800  1.00  0.00     0.029 A 
ATOM     50  C   UNL     1      -8.041   8.620  -4.543  1.00  0.00     0.049 A 
ATOM     51  H   UNL     1      -8.375   6.901  -5.694  1.00  0.00     0.167 HD
ATOM     52  C   UNL     1      -8.148   2.930  -7.600  1.00  0.00     0.031 A 
ATOM     53  C   UNL     1      -8.966   8.536  -3.557  1.00  0.00     0.031 A 
ATOM     54  C   UNL     1      -9.301   3.569  -8.192  1.00  0.00     0.049 A 
ATOM     55  C   UNL     1      -9.988   7.575  -4.014  1.00  0.00     0.074 A 
ATOM     56  C   UNL     1      -9.656   4.029  -9.442  1.00  0.00     0.029 A 
ATOM     57  N   UNL     1     -10.139   4.179  -7.293  1.00  0.00    -0.354 N 
ATOM     58  N   UNL     1     -10.768   7.794  -5.033  1.00  0.00    -0.248 NA
ATOM     59  C   UNL     1      -9.882   6.188  -3.594  1.00  0.00     0.031 C 
ATOM     60  C   UNL     1     -10.464   5.183  -9.203  1.00  0.00     0.029 A 
ATOM     61  C   UNL     1     -10.623   5.341  -7.825  1.00  0.00     0.049 A 
ATOM     62  H   UNL     1     -10.359   3.832  -6.398  1.00  0.00     0.167 HD
ATOM     63  C   UNL     1     -10.875   6.562  -5.656  1.00  0.00     0.074 A 
ATOM     64  C   UNL     1     -10.458   5.594  -4.643  1.00  0.00     0.031 C 
ATOM     65  C   UNL     1     -11.001   6.481  -7.014  1.00  0.00     0.031 A 
BRANCH  52  66
ATOM     66  C   UNL     1      -8.324   1.844  -6.551  1.00  0.00    -0.014 A 
ATOM     67  C   UNL     1      -9.546   1.143  -6.524  1.00  0.00     0.009 A 
ATOM     68  C   UNL     1      -7.502   1.705  -5.416  1.00  0.00     0.009 A 
ATOM     69  C   UNL     1      -9.966   0.443  -5.385  1.00  0.00     0.001 A 
ATOM     70  C   UNL     1      -7.901   0.975  -4.292  1.00  0.00     0.001 A 
ATOM     71  C   UNL     1      -9.148   0.373  -4.263  1.00  0.00     0.000 A 
ENDBRANCH  52  66
BRANCH  53  72
ATOM     72  C   UNL     1      -8.922   9.040  -2.169  1.00  0.00    -0.014 A 
ATOM     73  C   UNL     1     -10.101   9.191  -1.420  1.00  0.00     0.009 A 
ATOM     74  C   UNL     1      -7.697   9.089  -1.480  1.00  0.00     0.009 A 
ATOM     75  C   UNL     1     -10.056   9.335  -0.026  1.00  0.00     0.001 A 
ATOM     76  C   UNL     1      -7.652   9.232  -0.088  1.00  0.00     0.001 A 
ATOM     77  C   UNL     1      -8.833   9.338   0.641  1.00  0.00     0.000 A 
ENDBRANCH  53  72
BRANCH  65  78
ATOM     78  C   UNL     1     -11.359   7.747  -7.753  1.00  0.00    -0.014 A 
ATOM     79  C   UNL     1     -10.510   8.865  -7.835  1.00  0.00     0.009 A 
ATOM     80  C   UNL     1     -12.548   7.759  -8.495  1.00  0.00     0.009 A 
ATOM     81  C   UNL     1     -10.857   9.972  -8.619  1.00  0.00     0.001 A 
ATOM     82  C   UNL     1     -12.885   8.855  -9.292  1.00  0.00     0.001 A 
ATOM     83  C   UNL     1     -12.043   9.963  -9.350  1.00  0.00     0.000 A 
ENDBRANCH  65  78
ENDBRANCH  39  40
ENDBRANCH  31  34
ENDBRANCH  29  30
ENDBRANCH  28  29
ENDBRANCH   1  28
TORSDOF 15
