REMARK SMILES Cc1nc(-c2ccc3c(c2)CCN3S(=O)(=O)c2ccc(F)c(C(=O)NCCCNC(=O)c3ccc(-c4c5nc(c(-c6ccccc6)c6ccc([nH]6)c(-c6ccccc6)c6nc(c(-c7ccccc7)c7ccc4[nH]7)C=C6)C=C5)cc3)c2)cs1
REMARK SMILES IDX 26 1 25 2 23 3 24 4 22 6 17 7 18 8 80 9 19 10 20 11 21 12
REMARK SMILES IDX 14 13 15 14 16 15 13 16 5 17 6 18 10 19 7 20 9 21 8 22 11 23
REMARK SMILES IDX 12 24 4 25 1 26 2 27 3 28 82 29 81 30 27 31 28 32 29 33
REMARK SMILES IDX 30 34 31 36 32 37 33 38 79 39 34 40 78 41 35 42 36 43 37 44
REMARK SMILES IDX 72 45 38 46 77 47 71 48 73 49 39 50 76 51 70 52 69 53 40 55
REMARK SMILES IDX 62 56 47 57 61 58 48 59 51 60 60 61 74 62 49 63 50 64 59 66
REMARK SMILES IDX 75 67 52 68 41 69 42 70 46 71 43 72 45 73 44 74 63 75 64 76
REMARK SMILES IDX 68 77 65 78 67 79 66 80 53 81 54 82 58 83 55 84 57 85 56 86
REMARK H PARENT 25 5 29 35 73 54 51 65
REMARK Flexibility Score: inf
ROOT
ATOM      1  C   UNL     1      -0.689  -7.856  -5.402  1.00  0.00     0.118 C 
ENDROOT
BRANCH   1   2
ATOM      2  N   UNL     1      -0.071  -8.747  -4.440  1.00  0.00    -0.352 N 
ATOM      3  C   UNL     1       1.047  -8.707  -3.657  1.00  0.00     0.254 C 
ATOM      4  O   UNL     1       1.171  -9.665  -2.886  1.00  0.00    -0.269 OA
ATOM      5  H   UNL     1      -0.580  -9.582  -4.323  1.00  0.00     0.163 HD
BRANCH   3   6
ATOM      6  C   UNL     1       2.097  -7.646  -3.619  1.00  0.00     0.076 A 
ATOM      7  C   UNL     1       4.037  -6.796  -2.387  1.00  0.00     0.089 A 
ATOM      8  C   UNL     1       4.220  -5.784  -3.331  1.00  0.00     0.025 A 
ATOM      9  C   UNL     1       3.013  -7.739  -2.542  1.00  0.00     0.039 A 
ATOM     10  C   UNL     1       3.324  -5.676  -4.386  1.00  0.00     0.041 A 
ATOM     11  C   UNL     1       2.285  -6.603  -4.532  1.00  0.00     0.136 A 
ATOM     12  F   UNL     1       1.526  -6.440  -5.617  1.00  0.00    -0.206 F 
BRANCH   7  13
ATOM     13  S   UNL     1       5.125  -6.838  -0.989  1.00  0.00     0.264 S 
ATOM     14  O   UNL     1       6.351  -6.194  -1.415  1.00  0.00    -0.201 OA
ATOM     15  O   UNL     1       5.166  -8.204  -0.499  1.00  0.00    -0.201 OA
BRANCH  13  16
ATOM     16  N   UNL     1       4.413  -5.887   0.238  1.00  0.00    -0.266 N 
ATOM     17  C   UNL     1       2.080  -2.375   0.065  1.00  0.00     0.001 A 
ATOM     18  C   UNL     1       1.771  -3.410  -0.830  1.00  0.00     0.012 A 
ATOM     19  C   UNL     1       3.134  -2.546   0.972  1.00  0.00     0.016 A 
ATOM     20  C   UNL     1       2.512  -4.595  -0.844  1.00  0.00     0.028 A 
ATOM     21  C   UNL     1       3.870  -3.731   0.929  1.00  0.00    -0.021 A 
ATOM     22  C   UNL     1       3.613  -4.724  -0.016  1.00  0.00     0.055 A 
ATOM     23  C   UNL     1       4.862  -4.204   1.944  1.00  0.00     0.060 C 
ATOM     24  C   UNL     1       5.422  -5.473   1.285  1.00  0.00     0.140 C 
BRANCH  17  25
ATOM     25  C   UNL     1       1.214  -1.209   0.096  1.00  0.00     0.081 A 
ATOM     26  C   UNL     1      -2.216   0.033  -0.010  1.00  0.00     0.079 C 
ATOM     27  C   UNL     1      -0.743  -0.175   0.041  1.00  0.00     0.090 A 
ATOM     28  N   UNL     1      -0.160  -1.352  -0.014  1.00  0.00    -0.242 NA
ATOM     29  S   UNL     1       0.321   1.168   0.173  1.00  0.00    -0.127 S 
ATOM     30  C   UNL     1       1.660   0.093   0.191  1.00  0.00     0.095 A 
ENDBRANCH  17  25
ENDBRANCH  13  16
ENDBRANCH   7  13
ENDBRANCH   3   6
ENDBRANCH   1   2
BRANCH   1  31
ATOM     31  C   UNL     1      -0.363  -8.269  -6.838  1.00  0.00     0.042 C 
BRANCH  31  32
ATOM     32  C   UNL     1      -1.254  -9.406  -7.346  1.00  0.00     0.118 C 
BRANCH  32  33
ATOM     33  N   UNL     1      -2.659  -9.011  -7.424  1.00  0.00    -0.352 N 
ATOM     34  C   UNL     1      -3.468  -8.780  -8.508  1.00  0.00     0.251 C 
ATOM     35  H   UNL     1      -3.100  -8.891  -6.551  1.00  0.00     0.163 HD
ATOM     36  O   UNL     1      -4.536  -8.194  -8.358  1.00  0.00    -0.269 OA
BRANCH  34  37
ATOM     37  C   UNL     1      -3.060  -9.229  -9.853  1.00  0.00     0.039 A 
ATOM     38  C   UNL     1      -3.295  -8.397 -10.951  1.00  0.00     0.014 A 
ATOM     39  C   UNL     1      -2.473 -10.482 -10.034  1.00  0.00     0.014 A 
ATOM     40  C   UNL     1      -2.861  -8.788 -12.219  1.00  0.00     0.010 A 
ATOM     41  C   UNL     1      -1.966 -10.833 -11.279  1.00  0.00     0.010 A 
ATOM     42  C   UNL     1      -2.148  -9.987 -12.383  1.00  0.00    -0.014 A 
BRANCH  42  43
ATOM     43  C   UNL     1      -1.558 -10.368 -13.689  1.00  0.00     0.031 A 
ATOM     44  C   UNL     1      -1.996 -11.630 -14.378  1.00  0.00     0.074 A 
ATOM     45  C   UNL     1      -0.562  -9.622 -14.207  1.00  0.00     0.049 A 
ATOM     46  N   UNL     1      -1.525 -12.181 -15.467  1.00  0.00    -0.248 NA
ATOM     47  C   UNL     1      -3.088 -12.388 -13.745  1.00  0.00     0.031 C 
ATOM     48  C   UNL     1      -0.024  -8.396 -13.613  1.00  0.00     0.029 A 
ATOM     49  N   UNL     1       0.185  -9.795 -15.344  1.00  0.00    -0.354 N 
ATOM     50  C   UNL     1      -2.248 -13.354 -15.639  1.00  0.00     0.074 A 
ATOM     51  C   UNL     1      -3.152 -13.463 -14.515  1.00  0.00     0.031 C 
ATOM     52  C   UNL     1       0.946  -7.913 -14.405  1.00  0.00     0.029 A 
ATOM     53  C   UNL     1       1.137  -8.821 -15.530  1.00  0.00     0.049 A 
ATOM     54  H   UNL     1       0.052 -10.545 -15.968  1.00  0.00     0.167 HD
ATOM     55  C   UNL     1      -2.178 -14.251 -16.651  1.00  0.00     0.031 A 
ATOM     56  C   UNL     1       2.071  -8.684 -16.490  1.00  0.00     0.031 A 
ATOM     57  C   UNL     1      -1.278 -14.138 -17.767  1.00  0.00     0.049 A 
ATOM     58  C   UNL     1       2.155  -9.716 -17.579  1.00  0.00     0.074 A 
ATOM     59  C   UNL     1      -1.166 -14.964 -18.871  1.00  0.00     0.029 A 
ATOM     60  N   UNL     1      -0.328 -13.139 -17.915  1.00  0.00    -0.354 N 
ATOM     61  N   UNL     1       1.415 -10.782 -17.766  1.00  0.00    -0.248 NA
ATOM     62  C   UNL     1       3.203  -9.524 -18.592  1.00  0.00     0.031 C 
ATOM     63  C   UNL     1      -0.106 -14.502 -19.656  1.00  0.00     0.029 A 
ATOM     64  C   UNL     1       0.398 -13.348 -19.076  1.00  0.00     0.049 A 
ATOM     65  H   UNL     1      -0.189 -12.392 -17.289  1.00  0.00     0.167 HD
ATOM     66  C   UNL     1       1.889 -11.372 -18.931  1.00  0.00     0.074 A 
ATOM     67  C   UNL     1       2.967 -10.535 -19.416  1.00  0.00     0.031 C 
ATOM     68  C   UNL     1       1.469 -12.506 -19.543  1.00  0.00     0.031 A 
BRANCH  55  69
ATOM     69  C   UNL     1      -3.095 -15.442 -16.588  1.00  0.00    -0.014 A 
ATOM     70  C   UNL     1      -4.484 -15.302 -16.742  1.00  0.00     0.009 A 
ATOM     71  C   UNL     1      -2.561 -16.727 -16.409  1.00  0.00     0.009 A 
ATOM     72  C   UNL     1      -5.321 -16.419 -16.678  1.00  0.00     0.001 A 
ATOM     73  C   UNL     1      -3.396 -17.846 -16.379  1.00  0.00     0.001 A 
ATOM     74  C   UNL     1      -4.775 -17.690 -16.502  1.00  0.00     0.000 A 
ENDBRANCH  55  69
BRANCH  56  75
ATOM     75  C   UNL     1       3.002  -7.524 -16.466  1.00  0.00    -0.014 A 
ATOM     76  C   UNL     1       2.917  -6.523 -17.446  1.00  0.00     0.009 A 
ATOM     77  C   UNL     1       3.984  -7.414 -15.469  1.00  0.00     0.009 A 
ATOM     78  C   UNL     1       3.814  -5.453 -17.445  1.00  0.00     0.001 A 
ATOM     79  C   UNL     1       4.859  -6.326 -15.452  1.00  0.00     0.001 A 
ATOM     80  C   UNL     1       4.781  -5.352 -16.446  1.00  0.00     0.000 A 
ENDBRANCH  56  75
BRANCH  68  81
ATOM     81  C   UNL     1       2.154 -12.893 -20.824  1.00  0.00    -0.014 A 
ATOM     82  C   UNL     1       3.468 -13.385 -20.829  1.00  0.00     0.009 A 
ATOM     83  C   UNL     1       1.451 -12.816 -22.037  1.00  0.00     0.009 A 
ATOM     84  C   UNL     1       4.074 -13.766 -22.028  1.00  0.00     0.001 A 
ATOM     85  C   UNL     1       2.048 -13.228 -23.229  1.00  0.00     0.001 A 
ATOM     86  C   UNL     1       3.361 -13.695 -23.224  1.00  0.00     0.000 A 
ENDBRANCH  68  81
ENDBRANCH  42  43
ENDBRANCH  34  37
ENDBRANCH  32  33
ENDBRANCH  31  32
ENDBRANCH   1  31
TORSDOF 13
