REMARK SMILES O=C(NCCCNC(=O)c1cccc(Nc2ccnc3ccc(Cl)cc23)c1)c1ccc(-c2c3nc(c(-c4ccccc4)c4ccc([nH]4)c(-c4ccccc4)c4nc(c(-c5ccccc5)c5ccc2[nH]5)C=C4)C=C3)cc1
REMARK SMILES IDX 5 1 4 2 3 3 1 4 2 5 28 7 29 8 75 9 30 10 74 11 31 12 32 13
REMARK SMILES IDX 33 14 68 15 34 16 73 17 67 18 69 19 35 20 72 21 66 22 65 23
REMARK SMILES IDX 36 25 58 26 43 27 57 28 44 29 47 30 56 31 70 32 45 33 46 34
REMARK SMILES IDX 55 36 71 37 48 38 37 39 38 40 42 41 39 42 41 43 40 44 59 45
REMARK SMILES IDX 60 46 64 47 61 48 63 49 62 50 49 51 50 52 54 53 51 54 53 55
REMARK SMILES IDX 52 56 6 57 7 58 8 59 9 61 10 62 11 63 27 64 12 65 14 66
REMARK SMILES IDX 13 67 15 68 16 70 17 71 26 72 18 73 20 74 25 75 19 76 21 77
REMARK SMILES IDX 23 78 22 79 24 80
REMARK H PARENT 3 6 69 24 47 35 7 60 15 69
REMARK Flexibility Score: inf
ROOT
ATOM      1  C   UNL     1       4.871  -2.780  -0.670  1.00  0.00     0.042 C 
ENDROOT
BRANCH   1   2
ATOM      2  C   UNL     1       4.485  -1.344  -1.026  1.00  0.00     0.118 C 
BRANCH   2   3
ATOM      3  N   UNL     1       3.062  -1.052  -0.907  1.00  0.00    -0.352 N 
ATOM      4  O   UNL     1       1.148  -0.128  -0.177  1.00  0.00    -0.269 OA
ATOM      5  C   UNL     1       2.377  -0.131  -0.145  1.00  0.00     0.251 C 
ATOM      6  H   UNL     1       2.486  -1.614  -1.474  1.00  0.00     0.163 HD
BRANCH   5   7
ATOM      7  C   UNL     1       3.078   0.825   0.746  1.00  0.00     0.039 A 
ATOM      8  C   UNL     1       4.250   1.473   0.358  1.00  0.00     0.014 A 
ATOM      9  C   UNL     1       2.526   1.106   2.002  1.00  0.00     0.014 A 
ATOM     10  C   UNL     1       4.964   2.234   1.283  1.00  0.00     0.010 A 
ATOM     11  C   UNL     1       3.196   1.948   2.899  1.00  0.00     0.010 A 
ATOM     12  C   UNL     1       4.453   2.475   2.570  1.00  0.00    -0.014 A 
BRANCH  12  13
ATOM     13  C   UNL     1       5.251   3.277   3.540  1.00  0.00     0.031 A 
ATOM     14  C   UNL     1       5.763   2.667   4.821  1.00  0.00     0.074 A 
ATOM     15  C   UNL     1       5.567   4.553   3.242  1.00  0.00     0.049 A 
ATOM     16  N   UNL     1       6.542   3.196   5.734  1.00  0.00    -0.248 NA
ATOM     17  C   UNL     1       5.343   1.290   5.124  1.00  0.00     0.031 C 
ATOM     18  C   UNL     1       5.134   5.271   2.041  1.00  0.00     0.029 A 
ATOM     19  N   UNL     1       6.351   5.463   3.907  1.00  0.00    -0.354 N 
ATOM     20  C   UNL     1       6.687   2.229   6.723  1.00  0.00     0.074 A 
ATOM     21  C   UNL     1       5.891   1.092   6.315  1.00  0.00     0.031 C 
ATOM     22  C   UNL     1       5.706   6.484   2.024  1.00  0.00     0.029 A 
ATOM     23  C   UNL     1       6.496   6.654   3.238  1.00  0.00     0.049 A 
ATOM     24  H   UNL     1       6.768   5.279   4.780  1.00  0.00     0.167 HD
ATOM     25  C   UNL     1       7.420   2.276   7.862  1.00  0.00     0.031 A 
ATOM     26  C   UNL     1       7.185   7.765   3.562  1.00  0.00     0.031 A 
ATOM     27  C   UNL     1       8.217   3.404   8.272  1.00  0.00     0.049 A 
ATOM     28  C   UNL     1       7.966   7.800   4.844  1.00  0.00     0.074 A 
ATOM     29  C   UNL     1       9.026   3.528   9.390  1.00  0.00     0.029 A 
ATOM     30  N   UNL     1       8.300   4.606   7.587  1.00  0.00    -0.354 N 
ATOM     31  N   UNL     1       8.132   6.857   5.738  1.00  0.00    -0.248 NA
ATOM     32  C   UNL     1       8.664   9.056   5.154  1.00  0.00     0.031 C 
ATOM     33  C   UNL     1       9.550   4.824   9.412  1.00  0.00     0.029 A 
ATOM     34  C   UNL     1       9.124   5.485   8.271  1.00  0.00     0.049 A 
ATOM     35  H   UNL     1       7.842   4.805   6.738  1.00  0.00     0.167 HD
ATOM     36  C   UNL     1       8.977   7.393   6.701  1.00  0.00     0.074 A 
ATOM     37  C   UNL     1       9.304   8.737   6.270  1.00  0.00     0.031 C 
ATOM     38  C   UNL     1       9.444   6.821   7.837  1.00  0.00     0.031 A 
BRANCH  25  39
ATOM     39  C   UNL     1       7.373   1.077   8.773  1.00  0.00    -0.014 A 
ATOM     40  C   UNL     1       7.979  -0.140   8.419  1.00  0.00     0.009 A 
ATOM     41  C   UNL     1       6.749   1.181  10.026  1.00  0.00     0.009 A 
ATOM     42  C   UNL     1       7.928  -1.235   9.286  1.00  0.00     0.001 A 
ATOM     43  C   UNL     1       6.725   0.095  10.903  1.00  0.00     0.001 A 
ATOM     44  C   UNL     1       7.305  -1.115  10.528  1.00  0.00     0.000 A 
ENDBRANCH  25  39
BRANCH  26  45
ATOM     45  C   UNL     1       7.170   8.940   2.651  1.00  0.00    -0.014 A 
ATOM     46  C   UNL     1       8.332   9.329   1.965  1.00  0.00     0.009 A 
ATOM     47  C   UNL     1       5.995   9.685   2.468  1.00  0.00     0.009 A 
ATOM     48  C   UNL     1       8.322  10.454   1.138  1.00  0.00     0.001 A 
ATOM     49  C   UNL     1       5.979  10.789   1.615  1.00  0.00     0.001 A 
ATOM     50  C   UNL     1       7.145  11.180   0.959  1.00  0.00     0.000 A 
ENDBRANCH  26  45
BRANCH  38  51
ATOM     51  C   UNL     1      10.400   7.630   8.670  1.00  0.00    -0.014 A 
ATOM     52  C   UNL     1       9.977   8.760   9.388  1.00  0.00     0.009 A 
ATOM     53  C   UNL     1      11.747   7.242   8.748  1.00  0.00     0.009 A 
ATOM     54  C   UNL     1      10.894   9.509  10.130  1.00  0.00     0.001 A 
ATOM     55  C   UNL     1      12.653   7.972   9.517  1.00  0.00     0.001 A 
ATOM     56  C   UNL     1      12.229   9.113  10.196  1.00  0.00     0.000 A 
ENDBRANCH  38  51
ENDBRANCH  12  13
ENDBRANCH   5   7
ENDBRANCH   2   3
ENDBRANCH   1   2
BRANCH   1  57
ATOM     57  C   UNL     1       4.248  -3.885  -1.518  1.00  0.00     0.118 C 
BRANCH  57  58
ATOM     58  N   UNL     1       4.503  -3.777  -2.945  1.00  0.00    -0.352 N 
ATOM     59  C   UNL     1       5.123  -4.680  -3.774  1.00  0.00     0.251 C 
ATOM     60  H   UNL     1       4.191  -2.947  -3.373  1.00  0.00     0.163 HD
ATOM     61  O   UNL     1       5.036  -4.570  -4.997  1.00  0.00    -0.269 OA
BRANCH  59  62
ATOM     62  C   UNL     1       6.002  -5.716  -3.203  1.00  0.00     0.041 A 
ATOM     63  C   UNL     1       7.302  -5.305  -2.891  1.00  0.00     0.014 A 
ATOM     64  C   UNL     1       5.590  -7.053  -3.017  1.00  0.00     0.039 A 
ATOM     65  C   UNL     1       8.191  -6.212  -2.338  1.00  0.00     0.003 A 
ATOM     66  C   UNL     1       6.486  -7.978  -2.459  1.00  0.00     0.039 A 
ATOM     67  C   UNL     1       7.778  -7.524  -2.114  1.00  0.00     0.026 A 
BRANCH  66  68
ATOM     68  N   UNL     1       6.105  -9.295  -2.088  1.00  0.00    -0.355 N 
ATOM     69  H   UNL     1       5.540  -9.807  -2.710  1.00  0.00     0.167 HD
BRANCH  68  70
ATOM     70  C   UNL     1       6.494  -9.918  -0.868  1.00  0.00     0.050 A 
ATOM     71  C   UNL     1       6.511  -9.093   0.266  1.00  0.00     0.047 A 
ATOM     72  C   UNL     1       7.010 -11.244  -0.753  1.00  0.00     0.025 A 
ATOM     73  C   UNL     1       7.168  -9.514   1.394  1.00  0.00     0.114 A 
ATOM     74  C   UNL     1       7.488 -11.616   0.532  1.00  0.00     0.072 A 
ATOM     75  C   UNL     1       7.128 -12.207  -1.792  1.00  0.00     0.033 A 
ATOM     76  N   UNL     1       7.620 -10.764   1.553  1.00  0.00    -0.256 NA
ATOM     77  C   UNL     1       7.882 -12.920   0.784  1.00  0.00     0.030 A 
ATOM     78  C   UNL     1       7.600 -13.500  -1.520  1.00  0.00     0.041 A 
ATOM     79  C   UNL     1       7.927 -13.876  -0.224  1.00  0.00     0.023 A 
ATOM     80  Cl  UNL     1       7.802 -14.643  -2.791  1.00  0.00    -0.084 Cl
ENDBRANCH  68  70
ENDBRANCH  66  68
ENDBRANCH  59  62
ENDBRANCH  57  58
ENDBRANCH   1  57
TORSDOF 12
