REMARK SMILES Cc1c(CC(=O)NCCCNC(=O)c2ccc(-c3c4nc(c(-c5ccccc5)c5ccc([nH]5)c(-c5ccccc5)c5nc(c(-c6ccccc6)c6ccc3[nH]6)C=C5)C=C4)cc2)c2cc(O)ccc2n1C(=O)c1ccc(Cl)cc1
REMARK SMILES IDX 8 1 7 2 5 3 6 4 4 6 3 7 1 8 2 9 69 10 62 11 68 12 63 13
REMARK SMILES IDX 67 14 64 15 66 16 70 17 71 18 72 19 73 20 78 21 74 22 77 23
REMARK SMILES IDX 75 24 76 25 65 26 9 28 10 29 11 30 12 31 13 33 14 34 15 35
REMARK SMILES IDX 61 36 16 37 60 38 17 39 18 40 19 41 54 42 20 43 59 44 53 45
REMARK SMILES IDX 55 46 21 47 58 48 52 49 51 50 22 52 44 53 29 54 43 55 30 56
REMARK SMILES IDX 33 57 42 58 56 59 31 60 32 61 41 63 57 64 34 65 23 66 24 67
REMARK SMILES IDX 28 68 25 69 27 70 26 71 45 72 46 73 50 74 47 75 49 76 48 77
REMARK SMILES IDX 35 78 36 79 40 80 37 81 39 82 38 83
REMARK H PARENT 7 5 65 27 11 32 55 51 33 62
REMARK Flexibility Score: inf
ROOT
ATOM      1  C   UNL     1       0.783  -1.518   3.100  1.00  0.00     0.117 C 
ENDROOT
BRANCH   1   2
ATOM      2  N   UNL     1       1.631  -2.696   3.091  1.00  0.00    -0.356 N 
ATOM      3  C   UNL     1       2.418  -3.193   2.094  1.00  0.00     0.224 C 
ATOM      4  O   UNL     1       3.052  -4.227   2.321  1.00  0.00    -0.275 OA
ATOM      5  H   UNL     1       1.641  -3.212   3.929  1.00  0.00     0.163 HD
BRANCH   3   6
ATOM      6  C   UNL     1       2.550  -2.455   0.774  1.00  0.00     0.138 C 
BRANCH   6   7
ATOM      7  C   UNL     1       1.281  -2.430  -0.028  1.00  0.00    -0.009 A 
ATOM      8  C   UNL     1       1.021   0.126  -0.410  1.00  0.00     0.065 C 
ATOM      9  C   UNL     1       0.620  -1.313  -0.520  1.00  0.00     0.028 A 
ATOM     10  N   UNL     1      -0.572  -1.725  -1.131  1.00  0.00    -0.280 N 
ATOM     11  C   UNL     1       0.558  -3.575  -0.470  1.00  0.00     0.008 A 
ATOM     12  C   UNL     1      -0.535  -3.128  -1.222  1.00  0.00     0.057 A 
ATOM     13  C   UNL     1       0.766  -4.964  -0.308  1.00  0.00     0.056 A 
ATOM     14  C   UNL     1      -1.365  -4.064  -1.878  1.00  0.00     0.031 A 
ATOM     15  C   UNL     1      -0.108  -5.869  -0.900  1.00  0.00     0.116 A 
ATOM     16  C   UNL     1      -1.155  -5.433  -1.687  1.00  0.00     0.048 A 
BRANCH  10  17
ATOM     17  C   UNL     1      -1.624  -0.863  -1.560  1.00  0.00     0.262 C 
ATOM     18  O   UNL     1      -1.495   0.355  -1.415  1.00  0.00    -0.268 OA
BRANCH  17  19
ATOM     19  C   UNL     1      -2.882  -1.303  -2.178  1.00  0.00     0.040 A 
ATOM     20  C   UNL     1      -3.820  -2.043  -1.449  1.00  0.00     0.015 A 
ATOM     21  C   UNL     1      -3.093  -1.005  -3.529  1.00  0.00     0.015 A 
ATOM     22  C   UNL     1      -4.931  -2.572  -2.110  1.00  0.00     0.021 A 
ATOM     23  C   UNL     1      -4.210  -1.528  -4.179  1.00  0.00     0.021 A 
ATOM     24  C   UNL     1      -5.111  -2.328  -3.474  1.00  0.00     0.041 A 
ATOM     25  Cl  UNL     1      -6.437  -3.046  -4.300  1.00  0.00    -0.084 Cl
ENDBRANCH  17  19
ENDBRANCH  10  17
BRANCH  15  26
ATOM     26  O   UNL     1       0.116  -7.198  -0.690  1.00  0.00    -0.508 OA
ATOM     27  H   UNL     1       0.832  -7.473  -0.152  1.00  0.00     0.293 HD
ENDBRANCH  15  26
ENDBRANCH   6   7
ENDBRANCH   3   6
ENDBRANCH   1   2
BRANCH   1  28
ATOM     28  C   UNL     1      -0.706  -1.873   3.053  1.00  0.00     0.042 C 
BRANCH  28  29
ATOM     29  C   UNL     1      -1.171  -2.696   4.255  1.00  0.00     0.118 C 
BRANCH  29  30
ATOM     30  N   UNL     1      -0.899  -2.070   5.534  1.00  0.00    -0.352 N 
ATOM     31  C   UNL     1      -1.557  -1.204   6.359  1.00  0.00     0.251 C 
ATOM     32  H   UNL     1      -0.023  -2.334   5.898  1.00  0.00     0.163 HD
ATOM     33  O   UNL     1      -1.015  -0.980   7.444  1.00  0.00    -0.269 OA
BRANCH  31  34
ATOM     34  C   UNL     1      -2.802  -0.465   6.022  1.00  0.00     0.039 A 
ATOM     35  C   UNL     1      -3.546  -0.605   4.851  1.00  0.00     0.014 A 
ATOM     36  C   UNL     1      -3.186   0.522   6.951  1.00  0.00     0.014 A 
ATOM     37  C   UNL     1      -4.552   0.310   4.550  1.00  0.00     0.010 A 
ATOM     38  C   UNL     1      -4.200   1.425   6.666  1.00  0.00     0.010 A 
ATOM     39  C   UNL     1      -4.829   1.360   5.430  1.00  0.00    -0.014 A 
BRANCH  39  40
ATOM     40  C   UNL     1      -5.827   2.348   5.036  1.00  0.00     0.031 A 
ATOM     41  C   UNL     1      -7.205   1.812   4.846  1.00  0.00     0.074 A 
ATOM     42  C   UNL     1      -5.548   3.664   4.933  1.00  0.00     0.049 A 
ATOM     43  N   UNL     1      -7.936   1.838   3.780  1.00  0.00    -0.248 NA
ATOM     44  C   UNL     1      -7.801   1.059   5.961  1.00  0.00     0.031 C 
ATOM     45  C   UNL     1      -4.331   4.372   5.345  1.00  0.00     0.029 A 
ATOM     46  N   UNL     1      -6.356   4.677   4.514  1.00  0.00    -0.354 N 
ATOM     47  C   UNL     1      -9.143   1.227   4.118  1.00  0.00     0.074 A 
ATOM     48  C   UNL     1      -8.964   0.673   5.436  1.00  0.00     0.031 C 
ATOM     49  C   UNL     1      -4.574   5.704   5.380  1.00  0.00     0.029 A 
ATOM     50  C   UNL     1      -5.897   5.949   4.835  1.00  0.00     0.049 A 
ATOM     51  H   UNL     1      -7.197   4.521   4.025  1.00  0.00     0.167 HD
ATOM     52  C   UNL     1     -10.262   1.352   3.353  1.00  0.00     0.031 A 
ATOM     53  C   UNL     1      -6.578   7.113   4.701  1.00  0.00     0.031 A 
ATOM     54  C   UNL     1      -9.953   1.800   2.024  1.00  0.00     0.049 A 
ATOM     55  C   UNL     1      -7.675   6.879   3.737  1.00  0.00     0.074 A 
ATOM     56  C   UNL     1      -9.304   1.248   0.940  1.00  0.00     0.029 A 
ATOM     57  N   UNL     1     -10.025   3.149   1.783  1.00  0.00    -0.354 N 
ATOM     58  N   UNL     1      -7.483   6.626   2.475  1.00  0.00    -0.248 NA
ATOM     59  C   UNL     1      -8.974   6.501   4.264  1.00  0.00     0.031 C 
ATOM     60  C   UNL     1      -8.608   2.336   0.339  1.00  0.00     0.029 A 
ATOM     61  C   UNL     1      -8.926   3.500   1.043  1.00  0.00     0.049 A 
ATOM     62  H   UNL     1     -10.739   3.756   2.086  1.00  0.00     0.167 HD
ATOM     63  C   UNL     1      -8.446   5.681   2.156  1.00  0.00     0.074 A 
ATOM     64  C   UNL     1      -9.396   5.721   3.265  1.00  0.00     0.031 C 
ATOM     65  C   UNL     1      -8.235   4.768   1.163  1.00  0.00     0.031 A 
BRANCH  52  66
ATOM     66  C   UNL     1     -11.666   1.375   3.902  1.00  0.00    -0.014 A 
ATOM     67  C   UNL     1     -11.955   1.547   5.269  1.00  0.00     0.009 A 
ATOM     68  C   UNL     1     -12.749   1.491   3.011  1.00  0.00     0.009 A 
ATOM     69  C   UNL     1     -13.245   1.831   5.725  1.00  0.00     0.001 A 
ATOM     70  C   UNL     1     -14.037   1.813   3.461  1.00  0.00     0.001 A 
ATOM     71  C   UNL     1     -14.283   1.988   4.818  1.00  0.00     0.000 A 
ENDBRANCH  52  66
BRANCH  53  72
ATOM     72  C   UNL     1      -6.598   8.271   5.622  1.00  0.00    -0.014 A 
ATOM     73  C   UNL     1      -6.500   8.055   7.008  1.00  0.00     0.009 A 
ATOM     74  C   UNL     1      -7.028   9.534   5.184  1.00  0.00     0.009 A 
ATOM     75  C   UNL     1      -6.860   9.048   7.926  1.00  0.00     0.001 A 
ATOM     76  C   UNL     1      -7.384  10.531   6.104  1.00  0.00     0.001 A 
ATOM     77  C   UNL     1      -7.316  10.282   7.474  1.00  0.00     0.000 A 
ENDBRANCH  53  72
BRANCH  65  78
ATOM     78  C   UNL     1      -7.026   4.948   0.269  1.00  0.00    -0.014 A 
ATOM     79  C   UNL     1      -7.226   4.943  -1.120  1.00  0.00     0.009 A 
ATOM     80  C   UNL     1      -5.703   4.924   0.748  1.00  0.00     0.009 A 
ATOM     81  C   UNL     1      -6.146   4.886  -2.004  1.00  0.00     0.001 A 
ATOM     82  C   UNL     1      -4.619   4.894  -0.138  1.00  0.00     0.001 A 
ATOM     83  C   UNL     1      -4.843   4.861  -1.513  1.00  0.00     0.000 A 
ENDBRANCH  65  78
ENDBRANCH  39  40
ENDBRANCH  31  34
ENDBRANCH  29  30
ENDBRANCH  28  29
ENDBRANCH   1  28
TORSDOF 14
