REMARK SMILES O=C(NCCCNC(=O)c1ccccc1C(=O)N1CCOCCOCCOCC1)c1ccc(-c2c3nc(c(-c4ccccc4)c4ccc([nH]4)c(-c4ccccc4)c4nc(c(-c5ccccc5)c5ccc2[nH]5)C=C4)C=C3)cc1
REMARK SMILES IDX 10 1 11 2 12 3 13 4 14 5 15 6 8 7 7 8 9 10 6 11 5 12 4 13
REMARK SMILES IDX 3 14 1 15 2 16 30 18 31 19 77 20 32 21 76 22 33 23 34 24
REMARK SMILES IDX 35 25 70 26 36 27 75 28 69 29 71 30 37 31 74 32 68 33 67 34
REMARK SMILES IDX 38 36 60 37 45 38 59 39 46 40 49 41 58 42 72 43 47 44 48 45
REMARK SMILES IDX 57 47 73 48 50 49 39 50 40 51 44 52 41 53 43 54 42 55 61 56
REMARK SMILES IDX 62 57 66 58 63 59 65 60 64 61 51 62 52 63 56 64 53 65 55 66
REMARK SMILES IDX 54 67 16 68 17 69 18 70 19 71 20 72 21 73 22 74 29 76 28 77
REMARK SMILES IDX 27 78 26 79 25 80 24 81 23 82
REMARK H PARENT 7 9 3 17 71 35 49 46
REMARK Flexibility Score: 70.00
ROOT
ATOM      1  C   UNL     1       6.158  -2.916   5.303  1.00  0.00     0.052 A 
ATOM      2  C   UNL     1       7.376  -3.159   5.965  1.00  0.00     0.014 A 
ATOM      3  C   UNL     1       7.493  -2.975   7.341  1.00  0.00     0.001 A 
ATOM      4  C   UNL     1       6.388  -2.562   8.075  1.00  0.00     0.001 A 
ATOM      5  C   UNL     1       5.167  -2.356   7.433  1.00  0.00     0.014 A 
ATOM      6  C   UNL     1       5.029  -2.551   6.045  1.00  0.00     0.052 A 
ENDROOT
BRANCH   1   7
ATOM      7  C   UNL     1       6.207  -3.165   3.854  1.00  0.00     0.252 C 
ATOM      8  N   UNL     1       5.994  -2.187   2.930  1.00  0.00    -0.352 N 
ATOM      9  H   UNL     1       6.165  -2.459   1.999  1.00  0.00     0.163 HD
ATOM     10  O   UNL     1       6.541  -4.284   3.466  1.00  0.00    -0.269 OA
BRANCH   8  11
ATOM     11  C   UNL     1       5.559  -0.811   3.085  1.00  0.00     0.118 C 
BRANCH  11  12
ATOM     12  C   UNL     1       5.383  -0.063   1.761  1.00  0.00     0.042 C 
BRANCH  12  13
ATOM     13  C   UNL     1       4.816  -0.855   0.578  1.00  0.00     0.118 C 
BRANCH  13  14
ATOM     14  N   UNL     1       3.364  -0.902   0.455  1.00  0.00    -0.352 N 
ATOM     15  O   UNL     1       1.276  -0.342  -0.227  1.00  0.00    -0.269 OA
ATOM     16  C   UNL     1       2.494  -0.143  -0.280  1.00  0.00     0.251 C 
ATOM     17  H   UNL     1       2.934  -1.603   0.995  1.00  0.00     0.163 HD
BRANCH  16  18
ATOM     18  C   UNL     1       3.011   0.899  -1.172  1.00  0.00     0.039 A 
ATOM     19  C   UNL     1       4.038   0.588  -2.063  1.00  0.00     0.014 A 
ATOM     20  C   UNL     1       2.451   2.177  -1.146  1.00  0.00     0.014 A 
ATOM     21  C   UNL     1       4.637   1.596  -2.795  1.00  0.00     0.010 A 
ATOM     22  C   UNL     1       2.973   3.164  -1.979  1.00  0.00     0.010 A 
ATOM     23  C   UNL     1       4.090   2.885  -2.783  1.00  0.00    -0.014 A 
BRANCH  23  24
ATOM     24  C   UNL     1       4.659   3.910  -3.680  1.00  0.00     0.031 A 
ATOM     25  C   UNL     1       5.299   5.143  -3.120  1.00  0.00     0.074 A 
ATOM     26  C   UNL     1       4.590   3.704  -5.008  1.00  0.00     0.049 A 
ATOM     27  N   UNL     1       5.794   6.171  -3.758  1.00  0.00    -0.248 NA
ATOM     28  C   UNL     1       5.384   5.240  -1.655  1.00  0.00     0.031 C 
ATOM     29  C   UNL     1       3.997   2.525  -5.649  1.00  0.00     0.029 A 
ATOM     30  N   UNL     1       5.020   4.470  -6.057  1.00  0.00    -0.354 N 
ATOM     31  C   UNL     1       6.217   7.054  -2.773  1.00  0.00     0.074 A 
ATOM     32  C   UNL     1       5.907   6.448  -1.497  1.00  0.00     0.031 C 
ATOM     33  C   UNL     1       4.127   2.633  -6.977  1.00  0.00     0.029 A 
ATOM     34  C   UNL     1       4.734   3.921  -7.282  1.00  0.00     0.049 A 
ATOM     35  H   UNL     1       5.488   5.329  -5.945  1.00  0.00     0.167 HD
ATOM     36  C   UNL     1       6.805   8.264  -2.929  1.00  0.00     0.031 A 
ATOM     37  C   UNL     1       4.902   4.418  -8.520  1.00  0.00     0.031 A 
ATOM     38  C   UNL     1       7.093   8.851  -4.212  1.00  0.00     0.049 A 
ATOM     39  C   UNL     1       5.515   5.776  -8.667  1.00  0.00     0.074 A 
ATOM     40  C   UNL     1       7.707  10.058  -4.491  1.00  0.00     0.029 A 
ATOM     41  N   UNL     1       6.772   8.271  -5.432  1.00  0.00    -0.354 N 
ATOM     42  N   UNL     1       5.932   6.593  -7.730  1.00  0.00    -0.248 NA
ATOM     43  C   UNL     1       5.683   6.282 -10.034  1.00  0.00     0.031 C 
ATOM     44  C   UNL     1       7.706  10.235  -5.879  1.00  0.00     0.029 A 
ATOM     45  C   UNL     1       7.151   9.108  -6.467  1.00  0.00     0.049 A 
ATOM     46  H   UNL     1       6.340   7.394  -5.545  1.00  0.00     0.167 HD
ATOM     47  C   UNL     1       6.433   7.704  -8.392  1.00  0.00     0.074 A 
ATOM     48  C   UNL     1       6.274   7.449  -9.812  1.00  0.00     0.031 C 
ATOM     49  C   UNL     1       6.980   8.829  -7.872  1.00  0.00     0.031 A 
BRANCH  36  50
ATOM     50  C   UNL     1       7.113   9.047  -1.682  1.00  0.00    -0.014 A 
ATOM     51  C   UNL     1       8.109   8.638  -0.780  1.00  0.00     0.009 A 
ATOM     52  C   UNL     1       6.386  10.215  -1.402  1.00  0.00     0.009 A 
ATOM     53  C   UNL     1       8.333   9.354   0.399  1.00  0.00     0.001 A 
ATOM     54  C   UNL     1       6.634  10.946  -0.239  1.00  0.00     0.001 A 
ATOM     55  C   UNL     1       7.597  10.507   0.668  1.00  0.00     0.000 A 
ENDBRANCH  36  50
BRANCH  37  56
ATOM     56  C   UNL     1       4.448   3.621  -9.687  1.00  0.00    -0.014 A 
ATOM     57  C   UNL     1       5.374   3.001 -10.536  1.00  0.00     0.009 A 
ATOM     58  C   UNL     1       3.076   3.408  -9.906  1.00  0.00     0.009 A 
ATOM     59  C   UNL     1       4.935   2.188 -11.585  1.00  0.00     0.001 A 
ATOM     60  C   UNL     1       2.641   2.572 -10.935  1.00  0.00     0.001 A 
ATOM     61  C   UNL     1       3.572   1.966 -11.777  1.00  0.00     0.000 A 
ENDBRANCH  37  56
BRANCH  49  62
ATOM     62  C   UNL     1       7.488   9.853  -8.844  1.00  0.00    -0.014 A 
ATOM     63  C   UNL     1       6.609  10.683  -9.555  1.00  0.00     0.009 A 
ATOM     64  C   UNL     1       8.872  10.035  -8.990  1.00  0.00     0.009 A 
ATOM     65  C   UNL     1       7.111  11.666 -10.410  1.00  0.00     0.001 A 
ATOM     66  C   UNL     1       9.369  11.036  -9.823  1.00  0.00     0.001 A 
ATOM     67  C   UNL     1       8.488  11.847 -10.537  1.00  0.00     0.000 A 
ENDBRANCH  49  62
ENDBRANCH  23  24
ENDBRANCH  16  18
ENDBRANCH  13  14
ENDBRANCH  12  13
ENDBRANCH  11  12
ENDBRANCH   8  11
ENDBRANCH   1   7
BRANCH   6  68
ATOM     68  C   UNL     1       3.711  -2.171   5.488  1.00  0.00     0.254 C 
ATOM     69  O   UNL     1       3.263  -1.112   5.928  1.00  0.00    -0.269 OA
ATOM     70  N   UNL     1       3.055  -2.920   4.515  1.00  0.00    -0.334 N 
BRANCH  70  71
ATOM     71  C   UNL     1       2.179  -2.213   3.562  1.00  0.00     0.148 C 
BRANCH  71  72
ATOM     72  C   UNL     1       1.345  -0.999   4.009  1.00  0.00     0.181 C 
BRANCH  72  73
ATOM     73  O   UNL     1       0.640  -0.406   2.910  1.00  0.00    -0.377 OA
BRANCH  73  74
ATOM     74  C   UNL     1      -0.738  -0.772   2.785  1.00  0.00     0.188 CG0
ATOM     75  G   UNL     1      -0.913  -2.085   2.023  1.00  0.00     0.000 G0
ENDBRANCH  73  74
ENDBRANCH  72  73
ENDBRANCH  71  72
ENDBRANCH  70  71
BRANCH  70  76
ATOM     76  C   UNL     1       3.374  -4.331   4.198  1.00  0.00     0.148 C 
BRANCH  76  77
ATOM     77  C   UNL     1       2.210  -5.301   4.443  1.00  0.00     0.181 C 
BRANCH  77  78
ATOM     78  O   UNL     1       1.369  -5.316   3.292  1.00  0.00    -0.377 OA
BRANCH  78  79
ATOM     79  C   UNL     1      -0.029  -5.237   3.584  1.00  0.00     0.188 C 
BRANCH  79  80
ATOM     80  C   UNL     1      -0.687  -4.434   2.458  1.00  0.00     0.188 C 
BRANCH  80  81
ATOM     81  O   UNL     1      -0.929  -3.131   2.993  1.00  0.00    -0.377 OA
BRANCH  81  82
ATOM     82  C   UNL     1      -0.913  -2.085   2.023  1.00  0.00     0.188 CG0
ATOM     83  G   UNL     1      -0.738  -0.772   2.785  1.00  0.00     0.000 G0
ENDBRANCH  81  82
ENDBRANCH  80  81
ENDBRANCH  79  80
ENDBRANCH  78  79
ENDBRANCH  77  78
ENDBRANCH  76  77
ENDBRANCH  70  76
ENDBRANCH   6  68
TORSDOF 11
