REMARK SMILES CC1CC[NH+](CC2(CC(=O)NCCCNC(=O)c3ccc(-c4c5nc(c(-c6ccccc6)c6ccc([nH]6)c(-c6ccccc6)c6nc(c(-c7ccccc7)c7ccc4[nH]7)C=C6)C=C5)cc3)CCCCC2)CC1
REMARK SMILES IDX 12 1 11 2 9 3 10 4 8 6 7 7 66 8 70 9 67 10 69 11 68 12 6 13
REMARK SMILES IDX 5 14 1 15 2 16 3 17 72 18 4 19 71 20 13 22 14 23 15 24 16 25
REMARK SMILES IDX 17 27 18 28 19 29 65 30 20 31 64 32 21 33 22 34 23 35 58 36
REMARK SMILES IDX 24 37 63 38 57 39 59 40 25 41 62 42 56 43 55 44 26 46 48 47
REMARK SMILES IDX 33 48 47 49 34 50 37 51 46 52 60 53 35 54 36 55 45 57 61 58
REMARK SMILES IDX 38 59 27 60 28 61 32 62 29 63 31 64 30 65 49 66 50 67 54 68
REMARK SMILES IDX 51 69 53 70 52 71 39 72 40 73 44 74 41 75 43 76 42 77
REMARK H PARENT 11 5 5 21 15 26 59 45 37 56
REMARK Flexibility Score: inf
ROOT
ATOM      1  C   UNL     1       0.031   3.450  -4.309  1.00  0.00     0.117 C 
ENDROOT
BRANCH   1   2
ATOM      2  N   UNL     1       1.237   2.655  -4.473  1.00  0.00    -0.356 N 
ATOM      3  C   UNL     1       1.471   1.323  -4.311  1.00  0.00     0.220 C 
ATOM      4  O   UNL     1       2.643   0.945  -4.399  1.00  0.00    -0.275 OA
ATOM      5  H   UNL     1       2.027   3.172  -4.752  1.00  0.00     0.163 HD
BRANCH   3   6
ATOM      6  C   UNL     1       0.355   0.309  -4.078  1.00  0.00     0.112 C 
BRANCH   6   7
ATOM      7  C   UNL     1      -0.062  -0.013  -2.607  1.00  0.00     0.028 C 
ATOM      8  C   UNL     1      -0.793  -1.396  -2.575  1.00  0.00     0.013 C 
ATOM      9  C   UNL     1      -1.066   1.032  -2.078  1.00  0.00     0.013 C 
ATOM     10  C   UNL     1      -2.216  -1.401  -3.146  1.00  0.00     0.001 C 
ATOM     11  C   UNL     1      -2.428   1.055  -2.751  1.00  0.00     0.001 C 
ATOM     12  C   UNL     1      -3.088  -0.298  -2.555  1.00  0.00     0.000 C 
BRANCH   7  13
ATOM     13  C   UNL     1       1.210  -0.071  -1.666  1.00  0.00     0.269 C 
BRANCH  13  14
ATOM     14  N   UNL     1       0.821  -0.275  -0.279  1.00  0.00    -0.334 N 
ATOM     15  C   UNL     1      -2.325  -0.909   1.909  1.00  0.00     0.008 C 
ATOM     16  C   UNL     1      -0.799  -0.713   1.969  1.00  0.00    -0.003 C 
ATOM     17  C   UNL     1      -0.450   0.718   1.498  1.00  0.00     0.065 C 
ATOM     18  C   UNL     1      -0.112  -1.883   1.221  1.00  0.00     0.065 C 
ATOM     19  C   UNL     1       0.807   0.845   0.637  1.00  0.00     0.262 C 
ATOM     20  C   UNL     1       1.119  -1.519   0.391  1.00  0.00     0.262 C 
ATOM     21  H   UNL     1      -0.147  -0.385  -0.580  1.00  0.00     0.348 HD
ENDBRANCH  13  14
ENDBRANCH   7  13
ENDBRANCH   6   7
ENDBRANCH   3   6
ENDBRANCH   1   2
BRANCH   1  22
ATOM     22  C   UNL     1      -0.005   4.105  -2.927  1.00  0.00     0.042 C 
BRANCH  22  23
ATOM     23  C   UNL     1       0.502   5.532  -2.856  1.00  0.00     0.118 C 
BRANCH  23  24
ATOM     24  N   UNL     1      -0.518   6.503  -3.211  1.00  0.00    -0.352 N 
ATOM     25  C   UNL     1      -1.039   7.551  -2.495  1.00  0.00     0.251 C 
ATOM     26  H   UNL     1      -0.898   6.390  -4.112  1.00  0.00     0.163 HD
ATOM     27  O   UNL     1      -2.039   8.126  -2.941  1.00  0.00    -0.269 OA
BRANCH  25  28
ATOM     28  C   UNL     1      -0.455   8.014  -1.207  1.00  0.00     0.039 A 
ATOM     29  C   UNL     1      -1.296   8.643  -0.280  1.00  0.00     0.014 A 
ATOM     30  C   UNL     1       0.909   7.918  -0.919  1.00  0.00     0.014 A 
ATOM     31  C   UNL     1      -0.778   9.157   0.914  1.00  0.00     0.010 A 
ATOM     32  C   UNL     1       1.405   8.326   0.319  1.00  0.00     0.010 A 
ATOM     33  C   UNL     1       0.579   8.997   1.229  1.00  0.00    -0.014 A 
BRANCH  33  34
ATOM     34  C   UNL     1       1.167   9.604   2.452  1.00  0.00     0.031 A 
ATOM     35  C   UNL     1       2.235  10.665   2.326  1.00  0.00     0.074 A 
ATOM     36  C   UNL     1       0.773   9.191   3.673  1.00  0.00     0.049 A 
ATOM     37  N   UNL     1       2.885  11.302   3.267  1.00  0.00    -0.248 NA
ATOM     38  C   UNL     1       2.650  11.038   0.962  1.00  0.00     0.031 C 
ATOM     39  C   UNL     1      -0.210   8.138   3.937  1.00  0.00     0.029 A 
ATOM     40  N   UNL     1       1.153   9.611   4.923  1.00  0.00    -0.354 N 
ATOM     41  C   UNL     1       3.801  12.117   2.611  1.00  0.00     0.074 A 
ATOM     42  C   UNL     1       3.661  11.860   1.196  1.00  0.00     0.031 C 
ATOM     43  C   UNL     1      -0.378   8.018   5.265  1.00  0.00     0.029 A 
ATOM     44  C   UNL     1       0.503   8.962   5.945  1.00  0.00     0.049 A 
ATOM     45  H   UNL     1       1.828  10.312   5.074  1.00  0.00     0.167 HD
ATOM     46  C   UNL     1       4.665  13.021   3.132  1.00  0.00     0.031 A 
ATOM     47  C   UNL     1       0.602   9.115   7.279  1.00  0.00     0.031 A 
ATOM     48  C   UNL     1       4.775  13.313   4.535  1.00  0.00     0.049 A 
ATOM     49  C   UNL     1       1.529  10.163   7.830  1.00  0.00     0.074 A 
ATOM     50  C   UNL     1       5.566  14.262   5.159  1.00  0.00     0.029 A 
ATOM     51  N   UNL     1       4.062  12.666   5.530  1.00  0.00    -0.354 N 
ATOM     52  N   UNL     1       2.331  10.978   7.188  1.00  0.00    -0.248 NA
ATOM     53  C   UNL     1       1.543  10.330   9.290  1.00  0.00     0.031 C 
ATOM     54  C   UNL     1       5.360  14.161   6.539  1.00  0.00     0.029 A 
ATOM     55  C   UNL     1       4.402  13.186   6.766  1.00  0.00     0.049 A 
ATOM     56  H   UNL     1       3.410  11.943   5.381  1.00  0.00     0.167 HD
ATOM     57  C   UNL     1       2.919  11.775   8.163  1.00  0.00     0.074 A 
ATOM     58  C   UNL     1       2.367  11.358   9.435  1.00  0.00     0.031 C 
ATOM     59  C   UNL     1       3.835  12.764   8.019  1.00  0.00     0.031 A 
BRANCH  46  60
ATOM     60  C   UNL     1       5.560  13.763   2.177  1.00  0.00    -0.014 A 
ATOM     61  C   UNL     1       5.049  14.737   1.304  1.00  0.00     0.009 A 
ATOM     62  C   UNL     1       6.942  13.515   2.181  1.00  0.00     0.009 A 
ATOM     63  C   UNL     1       5.898  15.422   0.431  1.00  0.00     0.001 A 
ATOM     64  C   UNL     1       7.792  14.222   1.328  1.00  0.00     0.001 A 
ATOM     65  C   UNL     1       7.269  15.168   0.449  1.00  0.00     0.000 A 
ENDBRANCH  46  60
BRANCH  47  66
ATOM     66  C   UNL     1      -0.222   8.278   8.192  1.00  0.00    -0.014 A 
ATOM     67  C   UNL     1      -1.278   8.844   8.923  1.00  0.00     0.009 A 
ATOM     68  C   UNL     1       0.058   6.913   8.353  1.00  0.00     0.009 A 
ATOM     69  C   UNL     1      -2.013   8.068   9.823  1.00  0.00     0.001 A 
ATOM     70  C   UNL     1      -0.698   6.133   9.231  1.00  0.00     0.001 A 
ATOM     71  C   UNL     1      -1.724   6.713   9.974  1.00  0.00     0.000 A 
ENDBRANCH  47  66
BRANCH  59  72
ATOM     72  C   UNL     1       4.257  13.491   9.263  1.00  0.00    -0.014 A 
ATOM     73  C   UNL     1       5.072  12.880  10.228  1.00  0.00     0.009 A 
ATOM     74  C   UNL     1       3.850  14.821   9.458  1.00  0.00     0.009 A 
ATOM     75  C   UNL     1       5.434  13.572  11.385  1.00  0.00     0.001 A 
ATOM     76  C   UNL     1       4.238  15.520  10.601  1.00  0.00     0.001 A 
ATOM     77  C   UNL     1       5.019  14.891  11.569  1.00  0.00     0.000 A 
ENDBRANCH  59  72
ENDBRANCH  33  34
ENDBRANCH  25  28
ENDBRANCH  23  24
ENDBRANCH  22  23
ENDBRANCH   1  22
TORSDOF 13
