REMARK SMILES C[NH+]1CCC([NH+]2CCC(Oc3ccc4ccccc4c3)(C(=O)NCCCNC(=O)c3ccc(-c4c5nc(c(-c6ccccc6)c6ccc([nH]6)c(-c6ccccc6)c6nc(c(-c7ccccc7)c7ccc4[nH]7)C=C6)C=C5)cc3)CC2)CC1
REMARK SMILES IDX 25 1 24 2 23 3 21 4 22 5 9 7 6 8 7 9 79 10 8 12 78 13 5 14
REMARK SMILES IDX 1 15 2 16 3 17 81 18 4 20 80 21 10 22 11 23 12 24 20 25
REMARK SMILES IDX 13 26 19 27 14 28 18 29 15 30 17 31 16 32 26 33 27 34 28 35
REMARK SMILES IDX 29 37 30 38 31 39 77 40 32 41 76 42 33 43 34 44 35 45 70 46
REMARK SMILES IDX 36 47 75 48 69 49 71 50 37 51 74 52 68 53 67 54 38 56 60 57
REMARK SMILES IDX 45 58 59 59 46 60 49 61 58 62 72 63 47 64 48 65 57 67 73 68
REMARK SMILES IDX 50 69 39 70 40 71 44 72 41 73 43 74 42 75 61 76 62 77 66 78
REMARK SMILES IDX 63 79 65 80 64 81 51 82 52 83 56 84 53 85 55 86 54 87
REMARK H PARENT 23 6 6 11 2 19 27 36 71 55 49 66
REMARK Flexibility Score: inf
ROOT
ATOM      1  C   UNL     1       4.785  -1.156   5.546  1.00  0.00     0.042 C 
ENDROOT
BRANCH   1   2
ATOM      2  C   UNL     1       5.876  -1.658   4.605  1.00  0.00     0.118 C 
BRANCH   2   3
ATOM      3  N   UNL     1       5.348  -2.510   3.553  1.00  0.00    -0.353 N 
ATOM      4  C   UNL     1       5.251  -2.313   2.203  1.00  0.00     0.264 C 
ATOM      5  O   UNL     1       4.861  -3.288   1.551  1.00  0.00    -0.270 OA
ATOM      6  H   UNL     1       5.002  -3.376   3.865  1.00  0.00     0.163 HD
BRANCH   4   7
ATOM      7  C   UNL     1       5.593  -0.944   1.541  1.00  0.00     0.197 C 
ATOM      8  N   UNL     1       3.094  -0.107   0.219  1.00  0.00    -0.332 N 
ATOM      9  C   UNL     1       3.213  -0.122   1.680  1.00  0.00     0.267 C 
ATOM     10  C   UNL     1       3.927  -1.154  -0.398  1.00  0.00     0.267 C 
ATOM     11  H   UNL     1       3.456   0.797  -0.084  1.00  0.00     0.348 HD
ATOM     12  C   UNL     1       4.661   0.154   2.064  1.00  0.00     0.120 C 
ATOM     13  C   UNL     1       5.408  -1.045   0.011  1.00  0.00     0.120 C 
BRANCH   8  14
ATOM     14  C   UNL     1       1.692  -0.135  -0.271  1.00  0.00     0.195 C 
ATOM     15  C   UNL     1      -2.618   0.067  -0.266  1.00  0.00     0.332 C 
ATOM     16  N   UNL     1      -1.208   0.020   0.115  1.00  0.00    -0.337 N 
ATOM     17  C   UNL     1      -0.482   1.171  -0.437  1.00  0.00     0.268 C 
ATOM     18  C   UNL     1      -0.590  -1.238  -0.321  1.00  0.00     0.268 C 
ATOM     19  H   UNL     1      -1.154   0.065   1.133  1.00  0.00     0.347 HD
ATOM     20  C   UNL     1       0.962   1.182   0.065  1.00  0.00     0.126 C 
ATOM     21  C   UNL     1       0.849  -1.338   0.191  1.00  0.00     0.126 C 
ENDBRANCH   8  14
BRANCH   7  22
ATOM     22  O   UNL     1       6.987  -0.804   1.912  1.00  0.00    -0.477 OA
BRANCH  22  23
ATOM     23  C   UNL     1       7.696   0.277   1.484  1.00  0.00     0.121 A 
ATOM     24  C   UNL     1       7.481   1.557   1.982  1.00  0.00     0.047 A 
ATOM     25  C   UNL     1       8.789   0.031   0.653  1.00  0.00     0.055 A 
ATOM     26  C   UNL     1       8.286   2.616   1.562  1.00  0.00     0.012 A 
ATOM     27  C   UNL     1       9.633   1.079   0.251  1.00  0.00    -0.015 A 
ATOM     28  C   UNL     1       9.363   2.394   0.694  1.00  0.00    -0.018 A 
ATOM     29  C   UNL     1      10.748   0.850  -0.572  1.00  0.00     0.009 A 
ATOM     30  C   UNL     1      10.191   3.447   0.277  1.00  0.00     0.009 A 
ATOM     31  C   UNL     1      11.571   1.906  -0.966  1.00  0.00     0.001 A 
ATOM     32  C   UNL     1      11.289   3.203  -0.549  1.00  0.00     0.001 A 
ENDBRANCH  22  23
ENDBRANCH   7  22
ENDBRANCH   4   7
ENDBRANCH   2   3
ENDBRANCH   1   2
BRANCH   1  33
ATOM     33  C   UNL     1       4.073  -2.252   6.331  1.00  0.00     0.118 C 
BRANCH  33  34
ATOM     34  N   UNL     1       4.952  -2.932   7.269  1.00  0.00    -0.352 N 
ATOM     35  C   UNL     1       4.896  -3.024   8.636  1.00  0.00     0.251 C 
ATOM     36  H   UNL     1       5.710  -3.404   6.855  1.00  0.00     0.163 HD
ATOM     37  O   UNL     1       5.851  -3.503   9.247  1.00  0.00    -0.269 OA
BRANCH  35  38
ATOM     38  C   UNL     1       3.718  -2.542   9.392  1.00  0.00     0.039 A 
ATOM     39  C   UNL     1       3.930  -1.879  10.606  1.00  0.00     0.014 A 
ATOM     40  C   UNL     1       2.413  -2.778   8.950  1.00  0.00     0.014 A 
ATOM     41  C   UNL     1       2.842  -1.405  11.343  1.00  0.00     0.010 A 
ATOM     42  C   UNL     1       1.332  -2.243   9.650  1.00  0.00     0.010 A 
ATOM     43  C   UNL     1       1.535  -1.556  10.856  1.00  0.00    -0.014 A 
BRANCH  43  44
ATOM     44  C   UNL     1       0.373  -1.000  11.595  1.00  0.00     0.031 A 
ATOM     45  C   UNL     1      -0.668  -1.913  12.181  1.00  0.00     0.074 A 
ATOM     46  C   UNL     1       0.224   0.336  11.690  1.00  0.00     0.049 A 
ATOM     47  N   UNL     1      -1.771  -1.605  12.818  1.00  0.00    -0.248 NA
ATOM     48  C   UNL     1      -0.457  -3.359  12.010  1.00  0.00     0.031 C 
ATOM     49  C   UNL     1       1.138   1.333  11.130  1.00  0.00     0.029 A 
ATOM     50  N   UNL     1      -0.759   1.084  12.288  1.00  0.00    -0.354 N 
ATOM     51  C   UNL     1      -2.392  -2.814  13.103  1.00  0.00     0.074 A 
ATOM     52  C   UNL     1      -1.565  -3.858  12.537  1.00  0.00     0.031 C 
ATOM     53  C   UNL     1       0.685   2.561  11.430  1.00  0.00     0.029 A 
ATOM     54  C   UNL     1      -0.565   2.438  12.173  1.00  0.00     0.049 A 
ATOM     55  H   UNL     1      -1.529   0.687  12.756  1.00  0.00     0.167 HD
ATOM     56  C   UNL     1      -3.540  -3.039  13.787  1.00  0.00     0.031 A 
ATOM     57  C   UNL     1      -1.311   3.469  12.612  1.00  0.00     0.031 A 
ATOM     58  C   UNL     1      -4.356  -2.006  14.367  1.00  0.00     0.049 A 
ATOM     59  C   UNL     1      -2.575   3.194  13.375  1.00  0.00     0.074 A 
ATOM     60  C   UNL     1      -5.500  -2.140  15.135  1.00  0.00     0.029 A 
ATOM     61  N   UNL     1      -4.116  -0.647  14.242  1.00  0.00    -0.354 N 
ATOM     62  N   UNL     1      -3.111   2.042  13.696  1.00  0.00    -0.248 NA
ATOM     63  C   UNL     1      -3.329   4.364  13.847  1.00  0.00     0.031 C 
ATOM     64  C   UNL     1      -5.976  -0.860  15.439  1.00  0.00     0.029 A 
ATOM     65  C   UNL     1      -5.103   0.069  14.899  1.00  0.00     0.049 A 
ATOM     66  H   UNL     1      -3.357  -0.250  13.757  1.00  0.00     0.167 HD
ATOM     67  C   UNL     1      -4.253   2.347  14.424  1.00  0.00     0.074 A 
ATOM     68  C   UNL     1      -4.323   3.791  14.512  1.00  0.00     0.031 C 
ATOM     69  C   UNL     1      -5.163   1.505  14.972  1.00  0.00     0.031 A 
BRANCH  56  70
ATOM     70  C   UNL     1      -3.984  -4.466  13.939  1.00  0.00    -0.014 A 
ATOM     71  C   UNL     1      -3.306  -5.352  14.791  1.00  0.00     0.009 A 
ATOM     72  C   UNL     1      -5.115  -4.923  13.244  1.00  0.00     0.009 A 
ATOM     73  C   UNL     1      -3.730  -6.677  14.916  1.00  0.00     0.001 A 
ATOM     74  C   UNL     1      -5.552  -6.241  13.391  1.00  0.00     0.001 A 
ATOM     75  C   UNL     1      -4.854  -7.119  14.220  1.00  0.00     0.000 A 
ENDBRANCH  56  70
BRANCH  57  76
ATOM     76  C   UNL     1      -0.871   4.863  12.354  1.00  0.00    -0.014 A 
ATOM     77  C   UNL     1      -0.358   5.650  13.397  1.00  0.00     0.009 A 
ATOM     78  C   UNL     1      -0.960   5.413  11.067  1.00  0.00     0.009 A 
ATOM     79  C   UNL     1       0.037   6.968  13.159  1.00  0.00     0.001 A 
ATOM     80  C   UNL     1      -0.540   6.724  10.827  1.00  0.00     0.001 A 
ATOM     81  C   UNL     1      -0.051   7.502  11.875  1.00  0.00     0.000 A 
ENDBRANCH  57  76
BRANCH  69  82
ATOM     82  C   UNL     1      -6.297   2.127  15.735  1.00  0.00    -0.014 A 
ATOM     83  C   UNL     1      -7.351   2.773  15.070  1.00  0.00     0.009 A 
ATOM     84  C   UNL     1      -6.324   2.040  17.135  1.00  0.00     0.009 A 
ATOM     85  C   UNL     1      -8.395   3.348  15.796  1.00  0.00     0.001 A 
ATOM     86  C   UNL     1      -7.382   2.595  17.857  1.00  0.00     0.001 A 
ATOM     87  C   UNL     1      -8.412   3.255  17.188  1.00  0.00     0.000 A 
ENDBRANCH  69  82
ENDBRANCH  43  44
ENDBRANCH  35  38
ENDBRANCH  33  34
ENDBRANCH   1  33
TORSDOF 13
