REMARK SMILES O=C1OC(c2ccc(Cl)cc2)=N/C1=C/Nc1ccc(O)c(C(=O)NCCCNC(=O)c2ccc(-c3c4nc(c(-c5ccccc5)c5ccc([nH]5)c(-c5ccccc5)c5nc(c(-c6ccccc6)c6ccc3[nH]6)C=C5)C=C4)cc2)c1
REMARK SMILES IDX 25 1 24 2 22 3 23 4 21 6 16 7 17 8 79 9 18 10 19 11 15 12
REMARK SMILES IDX 14 14 1 15 2 16 3 17 13 18 4 19 12 20 5 21 6 22 11 23 7 24
REMARK SMILES IDX 10 25 8 26 9 27 20 28 26 30 27 31 28 32 29 33 30 35 31 36
REMARK SMILES IDX 32 37 78 38 33 39 77 40 34 41 35 42 36 43 71 44 37 45 76 46
REMARK SMILES IDX 70 47 72 48 38 49 75 50 69 51 68 52 39 54 61 55 46 56 60 57
REMARK SMILES IDX 47 58 50 59 59 60 73 61 48 62 49 63 58 65 74 66 51 67 40 68
REMARK SMILES IDX 41 69 45 70 42 71 44 72 43 73 62 74 63 75 67 76 64 77 66 78
REMARK SMILES IDX 65 79 52 80 53 81 57 82 54 83 56 84 55 85
REMARK H PARENT 24 5 15 13 20 29 28 34 72 53 50 64
REMARK Flexibility Score: inf
ROOT
ATOM      1  C   UNL     1      -1.969  -9.448  -1.328  1.00  0.00     0.118 C 
ENDROOT
BRANCH   1   2
ATOM      2  N   UNL     1      -2.819  -8.334  -1.687  1.00  0.00    -0.352 N 
ATOM      3  C   UNL     1      -2.872  -7.034  -1.261  1.00  0.00     0.255 C 
ATOM      4  O   UNL     1      -3.797  -6.359  -1.726  1.00  0.00    -0.269 OA
ATOM      5  H   UNL     1      -3.492  -8.554  -2.371  1.00  0.00     0.163 HD
BRANCH   3   6
ATOM      6  C   UNL     1      -1.867  -6.360  -0.381  1.00  0.00     0.083 A 
ATOM      7  C   UNL     1      -0.845  -4.169   0.095  1.00  0.00     0.039 A 
ATOM      8  C   UNL     1       0.009  -4.781   1.011  1.00  0.00     0.030 A 
ATOM      9  C   UNL     1      -1.753  -4.970  -0.605  1.00  0.00     0.043 A 
ATOM     10  C   UNL     1      -0.115  -6.137   1.294  1.00  0.00     0.049 A 
ATOM     11  C   UNL     1      -1.069  -6.915   0.626  1.00  0.00     0.128 A 
BRANCH   7  12
ATOM     12  N   UNL     1      -0.779  -2.799  -0.185  1.00  0.00    -0.360 N 
ATOM     13  H   UNL     1      -1.621  -2.357  -0.440  1.00  0.00     0.166 HD
BRANCH  12  14
ATOM     14  C   UNL     1       0.341  -2.013  -0.138  1.00  0.00     0.119 C 
ATOM     15  O   UNL     1      -1.897   0.013  -0.006  1.00  0.00    -0.244 OA
ATOM     16  C   UNL     1      -0.708   0.252  -0.011  1.00  0.00     0.365 C 
ATOM     17  O   UNL     1      -0.100   1.470   0.083  1.00  0.00    -0.402 OA
ATOM     18  C   UNL     1       0.446  -0.682  -0.109  1.00  0.00     0.168 C 
ATOM     19  C   UNL     1       1.228   1.230  -0.008  1.00  0.00     0.231 C 
ATOM     20  N   UNL     1       1.627   0.007  -0.127  1.00  0.00    -0.204 NA
BRANCH  19  21
ATOM     21  C   UNL     1       2.075   2.415  -0.025  1.00  0.00     0.037 A 
ATOM     22  C   UNL     1       1.978   3.372   0.988  1.00  0.00     0.015 A 
ATOM     23  C   UNL     1       3.013   2.548  -1.053  1.00  0.00     0.015 A 
ATOM     24  C   UNL     1       2.837   4.473   0.969  1.00  0.00     0.021 A 
ATOM     25  C   UNL     1       3.855   3.660  -1.077  1.00  0.00     0.021 A 
ATOM     26  C   UNL     1       3.767   4.614  -0.063  1.00  0.00     0.041 A 
ATOM     27  Cl  UNL     1       4.821   5.974  -0.083  1.00  0.00    -0.084 Cl
ENDBRANCH  19  21
ENDBRANCH  12  14
ENDBRANCH   7  12
BRANCH  11  28
ATOM     28  O   UNL     1      -1.211  -8.199   1.058  1.00  0.00    -0.507 OA
ATOM     29  H   UNL     1      -0.654  -8.530   1.736  1.00  0.00     0.293 HD
ENDBRANCH  11  28
ENDBRANCH   3   6
ENDBRANCH   1   2
BRANCH   1  30
ATOM     30  C   UNL     1      -2.623 -10.282  -0.225  1.00  0.00     0.042 C 
BRANCH  30  31
ATOM     31  C   UNL     1      -3.693 -11.232  -0.748  1.00  0.00     0.118 C 
BRANCH  31  32
ATOM     32  N   UNL     1      -3.110 -12.321  -1.522  1.00  0.00    -0.352 N 
ATOM     33  C   UNL     1      -3.107 -13.671  -1.278  1.00  0.00     0.251 C 
ATOM     34  H   UNL     1      -2.647 -12.046  -2.346  1.00  0.00     0.163 HD
ATOM     35  O   UNL     1      -2.337 -14.400  -1.896  1.00  0.00    -0.269 OA
BRANCH  33  36
ATOM     36  C   UNL     1      -4.019 -14.251  -0.270  1.00  0.00     0.039 A 
ATOM     37  C   UNL     1      -3.547 -15.273   0.558  1.00  0.00     0.014 A 
ATOM     38  C   UNL     1      -5.341 -13.813  -0.159  1.00  0.00     0.014 A 
ATOM     39  C   UNL     1      -4.380 -15.809   1.540  1.00  0.00     0.010 A 
ATOM     40  C   UNL     1      -6.145 -14.292   0.871  1.00  0.00     0.010 A 
ATOM     41  C   UNL     1      -5.672 -15.293   1.731  1.00  0.00    -0.014 A 
BRANCH  41  42
ATOM     42  C   UNL     1      -6.532 -15.763   2.844  1.00  0.00     0.031 A 
ATOM     43  C   UNL     1      -7.833 -16.457   2.561  1.00  0.00     0.074 A 
ATOM     44  C   UNL     1      -6.170 -15.495   4.113  1.00  0.00     0.049 A 
ATOM     45  N   UNL     1      -8.745 -16.877   3.401  1.00  0.00    -0.248 NA
ATOM     46  C   UNL     1      -8.165 -16.692   1.146  1.00  0.00     0.031 C 
ATOM     47  C   UNL     1      -4.944 -14.801   4.515  1.00  0.00     0.029 A 
ATOM     48  N   UNL     1      -6.802 -15.767   5.300  1.00  0.00    -0.354 N 
ATOM     49  C   UNL     1      -9.760 -17.413   2.619  1.00  0.00     0.074 A 
ATOM     50  C   UNL     1      -9.378 -17.216   1.238  1.00  0.00     0.031 C 
ATOM     51  C   UNL     1      -4.899 -14.731   5.855  1.00  0.00     0.029 A 
ATOM     52  C   UNL     1      -6.114 -15.324   6.403  1.00  0.00     0.049 A 
ATOM     53  H   UNL     1      -7.666 -16.235   5.356  1.00  0.00     0.167 HD
ATOM     54  C   UNL     1     -10.901 -18.027   3.016  1.00  0.00     0.031 A 
ATOM     55  C   UNL     1      -6.431 -15.375   7.710  1.00  0.00     0.031 A 
ATOM     56  C   UNL     1     -11.284 -18.204   4.392  1.00  0.00     0.049 A 
ATOM     57  C   UNL     1      -7.730 -16.008   8.122  1.00  0.00     0.074 A 
ATOM     58  C   UNL     1     -12.397 -18.851   4.901  1.00  0.00     0.029 A 
ATOM     59  N   UNL     1     -10.571 -17.720   5.479  1.00  0.00    -0.354 N 
ATOM     60  N   UNL     1      -8.647 -16.573   7.375  1.00  0.00    -0.248 NA
ATOM     61  C   UNL     1      -8.033 -16.014   9.560  1.00  0.00     0.031 C 
ATOM     62  C   UNL     1     -12.392 -18.698   6.292  1.00  0.00     0.029 A 
ATOM     63  C   UNL     1     -11.240 -18.019   6.655  1.00  0.00     0.049 A 
ATOM     64  H   UNL     1      -9.716 -17.235   5.423  1.00  0.00     0.167 HD
ATOM     65  C   UNL     1      -9.625 -17.024   8.253  1.00  0.00     0.074 A 
ATOM     66  C   UNL     1      -9.178 -16.683   9.588  1.00  0.00     0.031 C 
ATOM     67  C   UNL     1     -10.787 -17.665   7.976  1.00  0.00     0.031 A 
BRANCH  54  68
ATOM     68  C   UNL     1     -11.825 -18.529   1.939  1.00  0.00    -0.014 A 
ATOM     69  C   UNL     1     -11.459 -19.593   1.098  1.00  0.00     0.009 A 
ATOM     70  C   UNL     1     -13.089 -17.941   1.772  1.00  0.00     0.009 A 
ATOM     71  C   UNL     1     -12.316 -20.023   0.083  1.00  0.00     0.001 A 
ATOM     72  C   UNL     1     -13.959 -18.396   0.779  1.00  0.00     0.001 A 
ATOM     73  C   UNL     1     -13.566 -19.427  -0.073  1.00  0.00     0.000 A 
ENDBRANCH  54  68
BRANCH  55  74
ATOM     74  C   UNL     1      -5.495 -14.819   8.722  1.00  0.00    -0.014 A 
ATOM     75  C   UNL     1      -4.811 -15.672   9.601  1.00  0.00     0.009 A 
ATOM     76  C   UNL     1      -5.273 -13.435   8.810  1.00  0.00     0.009 A 
ATOM     77  C   UNL     1      -3.940 -15.150  10.560  1.00  0.00     0.001 A 
ATOM     78  C   UNL     1      -4.378 -12.919   9.749  1.00  0.00     0.001 A 
ATOM     79  C   UNL     1      -3.719 -13.775  10.629  1.00  0.00     0.000 A 
ENDBRANCH  55  74
BRANCH  67  80
ATOM     80  C   UNL     1     -11.647 -18.065   9.144  1.00  0.00    -0.014 A 
ATOM     81  C   UNL     1     -12.345 -17.109   9.899  1.00  0.00     0.009 A 
ATOM     82  C   UNL     1     -11.797 -19.424   9.462  1.00  0.00     0.009 A 
ATOM     83  C   UNL     1     -13.152 -17.506  10.967  1.00  0.00     0.001 A 
ATOM     84  C   UNL     1     -12.630 -19.820  10.508  1.00  0.00     0.001 A 
ATOM     85  C   UNL     1     -13.300 -18.860  11.266  1.00  0.00     0.000 A 
ENDBRANCH  67  80
ENDBRANCH  41  42
ENDBRANCH  33  36
ENDBRANCH  31  32
ENDBRANCH  30  31
ENDBRANCH   1  30
TORSDOF 14
