REMARK SMILES Cc1cccc(-c2cc(C[C@]3(C(=O)NCCCNC(=O)c4ccc(-c5c6nc(c(-c7ccccc7)c7ccc([nH]7)c(-c7ccccc7)c7nc(c(-c8ccccc8)c8ccc5[nH]8)C=C7)C=C6)cc4)CCCN(C(=O)C(C)C)C3)on2)c1
REMARK SMILES IDX 15 1 14 2 12 3 13 4 11 6 69 7 78 8 70 9 72 10 71 11 10 12
REMARK SMILES IDX 9 13 7 14 8 15 80 16 79 17 6 18 1 19 2 20 3 21 81 22 4 23
REMARK SMILES IDX 5 24 73 25 74 26 75 27 76 28 77 29 16 30 17 31 18 32 19 33
REMARK SMILES IDX 20 35 21 36 22 37 68 38 23 39 67 40 24 41 25 42 26 43 61 44
REMARK SMILES IDX 27 45 66 46 60 47 62 48 28 49 65 50 59 51 58 52 29 54 51 55
REMARK SMILES IDX 36 56 50 57 37 58 40 59 49 60 63 61 38 62 39 63 48 65 64 66
REMARK SMILES IDX 41 67 30 68 31 69 35 70 32 71 34 72 33 73 52 74 53 75 57 76
REMARK SMILES IDX 54 77 56 78 55 79 42 80 43 81 47 82 44 83 46 84 45 85
REMARK H PARENT 14 5 18 34 62 53 40 64
REMARK Flexibility Score: inf
ROOT
ATOM      1  C   UNL     1      -6.799   6.471  -3.059  1.00  0.00     0.117 C 
ENDROOT
BRANCH   1   2
ATOM      2  N   UNL     1      -5.578   7.254  -2.883  1.00  0.00    -0.355 N 
ATOM      3  C   UNL     1      -4.342   6.993  -2.357  1.00  0.00     0.228 C 
ATOM      4  O   UNL     1      -3.516   7.904  -2.487  1.00  0.00    -0.274 OA
ATOM      5  H   UNL     1      -5.664   8.177  -3.217  1.00  0.00     0.163 HD
BRANCH   3   6
ATOM      6  C   UNL     1      -3.979   5.694  -1.585  1.00  0.00     0.074 C 
ATOM      7  C   UNL     1      -4.807   5.704  -0.266  1.00  0.00     0.021 C 
ATOM      8  C   UNL     1      -4.178   4.474  -2.522  1.00  0.00     0.136 C 
ATOM      9  C   UNL     1      -5.349   4.361   0.209  1.00  0.00     0.023 C 
ATOM     10  N   UNL     1      -4.697   3.279  -1.850  1.00  0.00    -0.341 N 
ATOM     11  C   UNL     1      -5.815   3.511  -0.953  1.00  0.00     0.119 C 
BRANCH   6  12
ATOM     12  C   UNL     1      -2.451   5.787  -1.221  1.00  0.00     0.097 C 
BRANCH  12  13
ATOM     13  C   UNL     1      -1.860   4.570  -0.587  1.00  0.00     0.138 A 
ATOM     14  C   UNL     1      -0.890   2.691   0.075  1.00  0.00     0.114 A 
ATOM     15  C   UNL     1      -1.131   3.505  -1.061  1.00  0.00     0.077 A 
ATOM     16  N   UNL     1      -1.426   3.247   1.172  1.00  0.00    -0.080 NA
ATOM     17  O   UNL     1      -2.009   4.433   0.758  1.00  0.00    -0.361 OA
BRANCH  14  18
ATOM     18  C   UNL     1      -0.205   1.406   0.114  1.00  0.00     0.004 A 
ATOM     19  C   UNL     1       3.323  -0.021  -0.124  1.00  0.00     0.044 C 
ATOM     20  C   UNL     1       1.831   0.081  -0.010  1.00  0.00    -0.050 A 
ATOM     21  C   UNL     1       1.071  -1.090   0.111  1.00  0.00     0.003 A 
ATOM     22  C   UNL     1       1.185   1.328  -0.023  1.00  0.00     0.014 A 
ATOM     23  C   UNL     1      -0.311  -1.018   0.251  1.00  0.00     0.001 A 
ATOM     24  C   UNL     1      -0.939   0.226   0.266  1.00  0.00     0.010 A 
ENDBRANCH  14  18
ENDBRANCH  12  13
ENDBRANCH   6  12
BRANCH  10  25
ATOM     25  C   UNL     1      -4.103   2.059  -2.121  1.00  0.00     0.225 C 
ATOM     26  O   UNL     1      -3.266   1.956  -3.027  1.00  0.00    -0.275 OA
BRANCH  25  27
ATOM     27  C   UNL     1      -4.479   0.791  -1.346  1.00  0.00     0.072 C 
ATOM     28  C   UNL     1      -4.523   0.908   0.175  1.00  0.00     0.018 C 
ATOM     29  C   UNL     1      -5.726   0.132  -1.918  1.00  0.00     0.018 C 
ENDBRANCH  25  27
ENDBRANCH  10  25
ENDBRANCH   3   6
ENDBRANCH   1   2
BRANCH   1  30
ATOM     30  C   UNL     1      -7.852   6.716  -1.986  1.00  0.00     0.042 C 
BRANCH  30  31
ATOM     31  C   UNL     1      -8.897   7.741  -2.387  1.00  0.00     0.118 C 
BRANCH  31  32
ATOM     32  N   UNL     1     -10.053   7.191  -3.088  1.00  0.00    -0.352 N 
ATOM     33  C   UNL     1     -11.165   7.857  -3.590  1.00  0.00     0.251 C 
ATOM     34  H   UNL     1     -10.044   6.216  -3.224  1.00  0.00     0.163 HD
ATOM     35  O   UNL     1     -12.045   7.247  -4.166  1.00  0.00    -0.269 OA
BRANCH  33  36
ATOM     36  C   UNL     1     -11.187   9.341  -3.539  1.00  0.00     0.039 A 
ATOM     37  C   UNL     1     -11.421  10.027  -4.735  1.00  0.00     0.014 A 
ATOM     38  C   UNL     1     -10.697  10.013  -2.426  1.00  0.00     0.014 A 
ATOM     39  C   UNL     1     -10.892  11.303  -4.893  1.00  0.00     0.010 A 
ATOM     40  C   UNL     1     -10.049  11.212  -2.625  1.00  0.00     0.010 A 
ATOM     41  C   UNL     1     -10.091  11.826  -3.880  1.00  0.00    -0.014 A 
BRANCH  41  42
ATOM     42  C   UNL     1      -9.168  12.936  -4.084  1.00  0.00     0.031 A 
ATOM     43  C   UNL     1      -9.413  14.236  -3.432  1.00  0.00     0.074 A 
ATOM     44  C   UNL     1      -8.051  12.758  -4.823  1.00  0.00     0.049 A 
ATOM     45  N   UNL     1      -8.955  15.360  -3.868  1.00  0.00    -0.248 NA
ATOM     46  C   UNL     1     -10.258  14.379  -2.252  1.00  0.00     0.031 C 
ATOM     47  C   UNL     1      -6.888  13.637  -4.906  1.00  0.00     0.029 A 
ATOM     48  N   UNL     1      -7.840  11.817  -5.826  1.00  0.00    -0.354 N 
ATOM     49  C   UNL     1      -9.172  16.300  -2.889  1.00  0.00     0.074 A 
ATOM     50  C   UNL     1     -10.065  15.664  -1.949  1.00  0.00     0.031 C 
ATOM     51  C   UNL     1      -6.207  13.355  -6.029  1.00  0.00     0.029 A 
ATOM     52  C   UNL     1      -6.989  12.389  -6.784  1.00  0.00     0.049 A 
ATOM     53  H   UNL     1      -8.220  10.910  -5.858  1.00  0.00     0.167 HD
ATOM     54  C   UNL     1      -8.454  17.457  -2.900  1.00  0.00     0.031 A 
ATOM     55  C   UNL     1      -7.403  12.566  -8.073  1.00  0.00     0.031 A 
ATOM     56  C   UNL     1      -7.603  17.558  -4.084  1.00  0.00     0.049 A 
ATOM     57  C   UNL     1      -7.461  14.017  -8.501  1.00  0.00     0.074 A 
ATOM     58  C   UNL     1      -6.249  17.352  -4.293  1.00  0.00     0.029 A 
ATOM     59  N   UNL     1      -8.190  17.621  -5.343  1.00  0.00    -0.354 N 
ATOM     60  N   UNL     1      -7.454  15.024  -7.672  1.00  0.00    -0.248 NA
ATOM     61  C   UNL     1      -7.575  14.447  -9.893  1.00  0.00     0.031 C 
ATOM     62  C   UNL     1      -6.033  17.233  -5.691  1.00  0.00     0.029 A 
ATOM     63  C   UNL     1      -7.250  17.392  -6.329  1.00  0.00     0.049 A 
ATOM     64  H   UNL     1      -9.143  17.803  -5.509  1.00  0.00     0.167 HD
ATOM     65  C   UNL     1      -7.576  16.198  -8.369  1.00  0.00     0.074 A 
ATOM     66  C   UNL     1      -7.633  15.784  -9.759  1.00  0.00     0.031 C 
ATOM     67  C   UNL     1      -7.636  17.405  -7.734  1.00  0.00     0.031 A 
BRANCH  54  68
ATOM     68  C   UNL     1      -8.303  18.346  -1.686  1.00  0.00    -0.014 A 
ATOM     69  C   UNL     1      -7.141  19.125  -1.537  1.00  0.00     0.009 A 
ATOM     70  C   UNL     1      -9.225  18.417  -0.628  1.00  0.00     0.009 A 
ATOM     71  C   UNL     1      -6.868  19.841  -0.364  1.00  0.00     0.001 A 
ATOM     72  C   UNL     1      -8.943  19.096   0.565  1.00  0.00     0.001 A 
ATOM     73  C   UNL     1      -7.756  19.800   0.702  1.00  0.00     0.000 A 
ENDBRANCH  54  68
BRANCH  55  74
ATOM     74  C   UNL     1      -8.337  11.506  -8.546  1.00  0.00    -0.014 A 
ATOM     75  C   UNL     1      -7.832  10.201  -8.716  1.00  0.00     0.009 A 
ATOM     76  C   UNL     1      -9.725  11.681  -8.456  1.00  0.00     0.009 A 
ATOM     77  C   UNL     1      -8.684   9.093  -8.675  1.00  0.00     0.001 A 
ATOM     78  C   UNL     1     -10.575  10.568  -8.425  1.00  0.00     0.001 A 
ATOM     79  C   UNL     1     -10.052   9.276  -8.497  1.00  0.00     0.000 A 
ENDBRANCH  55  74
BRANCH  67  80
ATOM     80  C   UNL     1      -7.996  18.734  -8.360  1.00  0.00    -0.014 A 
ATOM     81  C   UNL     1      -8.684  18.884  -9.570  1.00  0.00     0.009 A 
ATOM     82  C   UNL     1      -7.747  19.919  -7.628  1.00  0.00     0.009 A 
ATOM     83  C   UNL     1      -9.064  20.149 -10.043  1.00  0.00     0.001 A 
ATOM     84  C   UNL     1      -8.165  21.176  -8.071  1.00  0.00     0.001 A 
ATOM     85  C   UNL     1      -8.815  21.292  -9.290  1.00  0.00     0.000 A 
ENDBRANCH  67  80
ENDBRANCH  41  42
ENDBRANCH  33  36
ENDBRANCH  31  32
ENDBRANCH  30  31
ENDBRANCH   1  30
TORSDOF 15
