REMARK SMILES CC[C@@H]1CCC[C@@](Cc2ccccn2)(C(=O)NCCCNC(=O)c2ccc(-c3c4nc(c(-c5ccccc5)c5ccc([nH]5)c(-c5ccccc5)c5nc(c(-c6ccccc6)c6ccc3[nH]6)C=C5)C=C4)cc2)C1
REMARK SMILES IDX 19 1 18 2 17 3 15 4 16 5 7 7 3 8 4 9 72 10 5 11 6 12 2 13
REMARK SMILES IDX 1 14 8 15 9 16 10 17 14 18 11 19 13 20 12 21 20 22 21 23
REMARK SMILES IDX 22 24 23 26 24 27 25 28 71 29 26 30 70 31 27 32 28 33 29 34
REMARK SMILES IDX 64 35 30 36 69 37 63 38 65 39 31 40 68 41 62 42 61 43 32 45
REMARK SMILES IDX 54 46 39 47 53 48 40 49 43 50 52 51 66 52 41 53 42 54 51 56
REMARK SMILES IDX 67 57 44 58 33 59 34 60 38 61 35 62 37 63 36 64 55 65 56 66
REMARK SMILES IDX 60 67 57 68 59 69 58 70 45 71 46 72 50 73 47 74 49 75 48 76
REMARK H PARENT 17 6 21 25 65 44 43 55
REMARK Flexibility Score: inf
ROOT
ATOM      1  C   UNL     1       2.661  -6.632  -4.232  1.00  0.00     0.042 C 
ENDROOT
BRANCH   1   2
ATOM      2  C   UNL     1       3.529  -5.530  -3.673  1.00  0.00     0.117 C 
BRANCH   2   3
ATOM      3  N   UNL     1       3.128  -4.196  -4.056  1.00  0.00    -0.356 N 
ATOM      4  C   UNL     1       3.106  -3.046  -3.333  1.00  0.00     0.226 C 
ATOM      5  O   UNL     1       3.136  -2.008  -4.005  1.00  0.00    -0.274 OA
ATOM      6  H   UNL     1       2.823  -4.106  -4.988  1.00  0.00     0.163 HD
BRANCH   4   7
ATOM      7  C   UNL     1       3.075  -2.998  -1.784  1.00  0.00     0.055 C 
ATOM      8  C   UNL     1       1.050  -1.335  -1.736  1.00  0.00    -0.010 C 
ATOM      9  C   UNL     1       0.139  -2.453  -1.213  1.00  0.00     0.003 C 
ATOM     10  C   UNL     1       2.529  -1.583  -1.370  1.00  0.00     0.021 C 
ATOM     11  C   UNL     1       0.663  -3.834  -1.582  1.00  0.00     0.001 C 
ATOM     12  C   UNL     1       2.110  -4.011  -1.119  1.00  0.00     0.017 C 
BRANCH   8  13
ATOM     13  C   UNL     1       0.557   0.054  -1.280  1.00  0.00     0.000 C 
ATOM     14  C   UNL     1       0.785   0.380   0.192  1.00  0.00     0.004 C 
ENDBRANCH   8  13
BRANCH   7  15
ATOM     15  C   UNL     1       4.534  -3.053  -1.221  1.00  0.00     0.073 C 
BRANCH  15  16
ATOM     16  C   UNL     1       5.346  -4.308  -1.421  1.00  0.00     0.041 A 
ATOM     17  C   UNL     1       6.304  -4.386  -2.433  1.00  0.00     0.024 A 
ATOM     18  N   UNL     1       5.066  -5.359  -0.612  1.00  0.00    -0.261 NA
ATOM     19  C   UNL     1       6.951  -5.601  -2.659  1.00  0.00     0.003 A 
ATOM     20  C   UNL     1       5.721  -6.521  -0.843  1.00  0.00     0.111 A 
ATOM     21  C   UNL     1       6.646  -6.695  -1.857  1.00  0.00     0.020 A 
ENDBRANCH  15  16
ENDBRANCH   7  15
ENDBRANCH   4   7
ENDBRANCH   2   3
ENDBRANCH   1   2
BRANCH   1  22
ATOM     22  C   UNL     1       2.892  -6.852  -5.716  1.00  0.00     0.118 C 
BRANCH  22  23
ATOM     23  N   UNL     1       4.275  -7.219  -6.033  1.00  0.00    -0.352 N 
ATOM     24  C   UNL     1       4.820  -8.414  -6.432  1.00  0.00     0.251 C 
ATOM     25  H   UNL     1       4.923  -6.484  -5.943  1.00  0.00     0.163 HD
ATOM     26  O   UNL     1       6.037  -8.569  -6.430  1.00  0.00    -0.269 OA
BRANCH  24  27
ATOM     27  C   UNL     1       3.933  -9.518  -6.845  1.00  0.00     0.039 A 
ATOM     28  C   UNL     1       4.229 -10.829  -6.462  1.00  0.00     0.014 A 
ATOM     29  C   UNL     1       2.788  -9.247  -7.591  1.00  0.00     0.014 A 
ATOM     30  C   UNL     1       3.317 -11.848  -6.744  1.00  0.00     0.010 A 
ATOM     31  C   UNL     1       1.825 -10.228  -7.747  1.00  0.00     0.010 A 
ATOM     32  C   UNL     1       2.083 -11.544  -7.340  1.00  0.00    -0.014 A 
BRANCH  32  33
ATOM     33  C   UNL     1       1.041 -12.570  -7.582  1.00  0.00     0.031 A 
ATOM     34  C   UNL     1       0.536 -12.795  -8.983  1.00  0.00     0.074 A 
ATOM     35  C   UNL     1       0.472 -13.210  -6.541  1.00  0.00     0.049 A 
ATOM     36  N   UNL     1      -0.473 -13.519  -9.392  1.00  0.00    -0.248 NA
ATOM     37  C   UNL     1       1.228 -12.068 -10.063  1.00  0.00     0.031 C 
ATOM     38  C   UNL     1       0.833 -13.038  -5.131  1.00  0.00     0.029 A 
ATOM     39  N   UNL     1      -0.545 -14.130  -6.511  1.00  0.00    -0.354 N 
ATOM     40  C   UNL     1      -0.563 -13.296 -10.760  1.00  0.00     0.074 A 
ATOM     41  C   UNL     1       0.454 -12.329 -11.104  1.00  0.00     0.031 C 
ATOM     42  C   UNL     1       0.074 -13.852  -4.379  1.00  0.00     0.029 A 
ATOM     43  C   UNL     1      -0.857 -14.566  -5.246  1.00  0.00     0.049 A 
ATOM     44  H   UNL     1      -1.008 -14.447  -7.319  1.00  0.00     0.167 HD
ATOM     45  C   UNL     1      -1.401 -13.865 -11.658  1.00  0.00     0.031 A 
ATOM     46  C   UNL     1      -1.794 -15.438  -4.832  1.00  0.00     0.031 A 
ATOM     47  C   UNL     1      -2.374 -14.865 -11.320  1.00  0.00     0.049 A 
ATOM     48  C   UNL     1      -2.690 -16.083  -5.854  1.00  0.00     0.074 A 
ATOM     49  C   UNL     1      -3.215 -15.569 -12.163  1.00  0.00     0.029 A 
ATOM     50  N   UNL     1      -2.625 -15.312 -10.033  1.00  0.00    -0.354 N 
ATOM     51  N   UNL     1      -2.718 -15.911  -7.153  1.00  0.00    -0.248 NA
ATOM     52  C   UNL     1      -3.676 -17.049  -5.351  1.00  0.00     0.031 C 
ATOM     53  C   UNL     1      -4.004 -16.416 -11.380  1.00  0.00     0.029 A 
ATOM     54  C   UNL     1      -3.619 -16.274 -10.056  1.00  0.00     0.049 A 
ATOM     55  H   UNL     1      -2.166 -14.993  -9.223  1.00  0.00     0.167 HD
ATOM     56  C   UNL     1      -3.700 -16.771  -7.627  1.00  0.00     0.074 A 
ATOM     57  C   UNL     1      -4.234 -17.472  -6.476  1.00  0.00     0.031 C 
ATOM     58  C   UNL     1      -4.123 -16.966  -8.899  1.00  0.00     0.031 A 
BRANCH  45  59
ATOM     59  C   UNL     1      -1.288 -13.423 -13.090  1.00  0.00    -0.014 A 
ATOM     60  C   UNL     1      -0.167 -13.751 -13.869  1.00  0.00     0.009 A 
ATOM     61  C   UNL     1      -2.330 -12.690 -13.678  1.00  0.00     0.009 A 
ATOM     62  C   UNL     1      -0.074 -13.321 -15.194  1.00  0.00     0.001 A 
ATOM     63  C   UNL     1      -2.249 -12.287 -15.012  1.00  0.00     0.001 A 
ATOM     64  C   UNL     1      -1.117 -12.594 -15.766  1.00  0.00     0.000 A 
ENDBRANCH  45  59
BRANCH  46  65
ATOM     65  C   UNL     1      -1.918 -15.781  -3.391  1.00  0.00    -0.014 A 
ATOM     66  C   UNL     1      -1.533 -17.050  -2.931  1.00  0.00     0.009 A 
ATOM     67  C   UNL     1      -2.430 -14.853  -2.471  1.00  0.00     0.009 A 
ATOM     68  C   UNL     1      -1.688 -17.394  -1.587  1.00  0.00     0.001 A 
ATOM     69  C   UNL     1      -2.557 -15.191  -1.122  1.00  0.00     0.001 A 
ATOM     70  C   UNL     1      -2.197 -16.464  -0.683  1.00  0.00     0.000 A 
ENDBRANCH  46  65
BRANCH  58  71
ATOM     71  C   UNL     1      -5.179 -18.009  -9.119  1.00  0.00    -0.014 A 
ATOM     72  C   UNL     1      -6.513 -17.786  -8.747  1.00  0.00     0.009 A 
ATOM     73  C   UNL     1      -4.838 -19.213  -9.755  1.00  0.00     0.009 A 
ATOM     74  C   UNL     1      -7.481 -18.764  -8.981  1.00  0.00     0.001 A 
ATOM     75  C   UNL     1      -5.813 -20.176 -10.013  1.00  0.00     0.001 A 
ATOM     76  C   UNL     1      -7.132 -19.954  -9.619  1.00  0.00     0.000 A 
ENDBRANCH  58  71
ENDBRANCH  32  33
ENDBRANCH  24  27
ENDBRANCH  22  23
ENDBRANCH   1  22
TORSDOF 13
