REMARK SMILES CC[C@@H](C)[C@@H](C(=O)NCCCNC(=O)c1ccc(-c2c3nc(c(-c4ccccc4)c4ccc([nH]4)c(-c4ccccc4)c4nc(c(-c5ccccc5)c5ccc2[nH]5)C=C4)C=C3)cc1)N1C(=O)/C(=C/c2ccc(O)cc2)SC1=S
REMARK SMILES IDX 9 1 8 2 6 3 7 4 5 6 3 7 4 8 2 9 1 10 63 11 64 12 76 13 65 14
REMARK SMILES IDX 66 15 75 16 77 17 67 18 68 19 69 20 74 21 70 22 73 23 71 24
REMARK SMILES IDX 72 25 10 27 11 28 12 29 13 30 14 32 15 33 16 34 62 35 17 36
REMARK SMILES IDX 61 37 18 38 19 39 20 40 55 41 21 42 60 43 54 44 56 45 22 46
REMARK SMILES IDX 59 47 53 48 52 49 23 51 45 52 30 53 44 54 31 55 34 56 43 57
REMARK SMILES IDX 57 58 32 59 33 60 42 62 58 63 35 64 24 65 25 66 29 67 26 68
REMARK SMILES IDX 28 69 27 70 46 71 47 72 51 73 48 74 50 75 49 76 36 77 37 78
REMARK SMILES IDX 41 79 38 80 40 81 39 82
REMARK H PARENT 8 5 72 26 12 31 56 50 34 61
REMARK Flexibility Score: inf
ROOT
ATOM      1  C   UNL     1      -0.566   3.253  -1.727  1.00  0.00     0.117 C 
ENDROOT
BRANCH   1   2
ATOM      2  N   UNL     1       0.693   3.177  -2.458  1.00  0.00    -0.354 N 
ATOM      3  C   UNL     1       1.294   2.165  -3.150  1.00  0.00     0.243 C 
ATOM      4  O   UNL     1       2.486   2.321  -3.439  1.00  0.00    -0.273 OA
ATOM      5  H   UNL     1       1.208   4.016  -2.451  1.00  0.00     0.163 HD
BRANCH   3   6
ATOM      6  C   UNL     1       0.552   0.836  -3.479  1.00  0.00     0.184 C 
BRANCH   6   7
ATOM      7  C   UNL     1       1.260  -0.237  -2.530  1.00  0.00     0.018 C 
ATOM      8  C   UNL     1       0.897  -1.705  -2.757  1.00  0.00     0.010 C 
BRANCH   7   9
ATOM      9  C   UNL     1       1.015   0.141  -1.046  1.00  0.00     0.002 C 
ATOM     10  C   UNL     1       1.474  -0.853   0.009  1.00  0.00     0.004 C 
ENDBRANCH   7   9
ENDBRANCH   6   7
BRANCH   6  11
ATOM     11  N   UNL     1       0.630   0.480  -4.937  1.00  0.00    -0.280 N 
ATOM     12  C   UNL     1       1.152   1.336  -5.898  1.00  0.00     0.266 C 
ATOM     13  C   UNL     1      -0.103  -0.523  -5.534  1.00  0.00     0.149 C 
ATOM     14  O   UNL     1       1.256   2.552  -5.826  1.00  0.00    -0.268 OA
ATOM     15  C   UNL     1       1.373   0.604  -7.184  1.00  0.00     0.081 C 
ATOM     16  S   UNL     1       0.631  -0.938  -7.076  1.00  0.00    -0.054 SA
ATOM     17  S   UNL     1      -1.539  -1.217  -5.037  1.00  0.00    -0.052 S 
ATOM     18  C   UNL     1       2.040   1.135  -8.220  1.00  0.00     0.029 C 
BRANCH  18  19
ATOM     19  C   UNL     1       2.353   0.466  -9.494  1.00  0.00    -0.024 A 
ATOM     20  C   UNL     1       3.682   0.441  -9.937  1.00  0.00     0.012 A 
ATOM     21  C   UNL     1       1.368  -0.146 -10.283  1.00  0.00     0.012 A 
ATOM     22  C   UNL     1       4.027  -0.236 -11.110  1.00  0.00     0.047 A 
ATOM     23  C   UNL     1       1.713  -0.836 -11.449  1.00  0.00     0.047 A 
ATOM     24  C   UNL     1       3.044  -0.885 -11.845  1.00  0.00     0.115 A 
BRANCH  24  25
ATOM     25  O   UNL     1       3.429  -1.571 -12.958  1.00  0.00    -0.508 OA
ATOM     26  H   UNL     1       4.332  -1.592 -13.207  1.00  0.00     0.293 HD
ENDBRANCH  24  25
ENDBRANCH  18  19
ENDBRANCH   6  11
ENDBRANCH   3   6
ENDBRANCH   1   2
BRANCH   1  27
ATOM     27  C   UNL     1      -0.361   3.288  -0.205  1.00  0.00     0.042 C 
BRANCH  27  28
ATOM     28  C   UNL     1       0.402   4.507   0.314  1.00  0.00     0.118 C 
BRANCH  28  29
ATOM     29  N   UNL     1      -0.496   5.532   0.818  1.00  0.00    -0.352 N 
ATOM     30  C   UNL     1      -0.693   5.995   2.096  1.00  0.00     0.251 C 
ATOM     31  H   UNL     1      -1.054   5.965   0.132  1.00  0.00     0.163 HD
ATOM     32  O   UNL     1      -1.675   6.699   2.325  1.00  0.00    -0.269 OA
BRANCH  30  33
ATOM     33  C   UNL     1       0.236   5.668   3.209  1.00  0.00     0.039 A 
ATOM     34  C   UNL     1      -0.303   5.471   4.487  1.00  0.00     0.014 A 
ATOM     35  C   UNL     1       1.624   5.656   3.047  1.00  0.00     0.014 A 
ATOM     36  C   UNL     1       0.535   5.236   5.583  1.00  0.00     0.010 A 
ATOM     37  C   UNL     1       2.459   5.361   4.130  1.00  0.00     0.010 A 
ATOM     38  C   UNL     1       1.927   5.165   5.414  1.00  0.00    -0.014 A 
BRANCH  38  39
ATOM     39  C   UNL     1       2.828   4.922   6.574  1.00  0.00     0.031 A 
ATOM     40  C   UNL     1       3.784   5.990   7.038  1.00  0.00     0.074 A 
ATOM     41  C   UNL     1       2.817   3.729   7.202  1.00  0.00     0.049 A 
ATOM     42  N   UNL     1       4.670   5.946   8.004  1.00  0.00    -0.248 NA
ATOM     43  C   UNL     1       3.754   7.269   6.312  1.00  0.00     0.031 C 
ATOM     44  C   UNL     1       1.964   2.593   6.851  1.00  0.00     0.029 A 
ATOM     45  N   UNL     1       3.553   3.275   8.269  1.00  0.00    -0.354 N 
ATOM     46  C   UNL     1       5.315   7.176   7.985  1.00  0.00     0.074 A 
ATOM     47  C   UNL     1       4.744   7.933   6.891  1.00  0.00     0.031 C 
ATOM     48  C   UNL     1       2.208   1.582   7.700  1.00  0.00     0.029 A 
ATOM     49  C   UNL     1       3.256   1.984   8.634  1.00  0.00     0.049 A 
ATOM     50  H   UNL     1       4.230   3.822   8.729  1.00  0.00     0.167 HD
ATOM     51  C   UNL     1       6.285   7.644   8.808  1.00  0.00     0.031 A 
ATOM     52  C   UNL     1       3.769   1.207   9.607  1.00  0.00     0.031 A 
ATOM     53  C   UNL     1       6.845   6.913   9.913  1.00  0.00     0.049 A 
ATOM     54  C   UNL     1       4.843   1.748  10.508  1.00  0.00     0.074 A 
ATOM     55  C   UNL     1       7.790   7.332  10.834  1.00  0.00     0.029 A 
ATOM     56  N   UNL     1       6.509   5.612  10.249  1.00  0.00    -0.354 N 
ATOM     57  N   UNL     1       5.403   2.932  10.505  1.00  0.00    -0.248 NA
ATOM     58  C   UNL     1       5.347   0.845  11.554  1.00  0.00     0.031 C 
ATOM     59  C   UNL     1       8.054   6.270  11.706  1.00  0.00     0.029 A 
ATOM     60  C   UNL     1       7.242   5.206  11.352  1.00  0.00     0.049 A 
ATOM     61  H   UNL     1       5.848   5.058   9.774  1.00  0.00     0.167 HD
ATOM     62  C   UNL     1       6.307   2.925  11.560  1.00  0.00     0.074 A 
ATOM     63  C   UNL     1       6.212   1.624  12.188  1.00  0.00     0.031 C 
ATOM     64  C   UNL     1       7.141   3.911  11.970  1.00  0.00     0.031 A 
BRANCH  51  65
ATOM     65  C   UNL     1       6.811   9.026   8.537  1.00  0.00    -0.014 A 
ATOM     66  C   UNL     1       6.045  10.165   8.829  1.00  0.00     0.009 A 
ATOM     67  C   UNL     1       8.105   9.190   8.018  1.00  0.00     0.009 A 
ATOM     68  C   UNL     1       6.551  11.441   8.572  1.00  0.00     0.001 A 
ATOM     69  C   UNL     1       8.618  10.468   7.785  1.00  0.00     0.001 A 
ATOM     70  C   UNL     1       7.837  11.591   8.054  1.00  0.00     0.000 A 
ENDBRANCH  51  65
BRANCH  52  71
ATOM     71  C   UNL     1       3.260  -0.176   9.795  1.00  0.00    -0.014 A 
ATOM     72  C   UNL     1       2.435  -0.485  10.886  1.00  0.00     0.009 A 
ATOM     73  C   UNL     1       3.602  -1.191   8.889  1.00  0.00     0.009 A 
ATOM     74  C   UNL     1       1.980  -1.791  11.079  1.00  0.00     0.001 A 
ATOM     75  C   UNL     1       3.125  -2.491   9.072  1.00  0.00     0.001 A 
ATOM     76  C   UNL     1       2.321  -2.791  10.170  1.00  0.00     0.000 A 
ENDBRANCH  52  71
BRANCH  64  77
ATOM     77  C   UNL     1       7.995   3.632  13.173  1.00  0.00    -0.014 A 
ATOM     78  C   UNL     1       9.120   2.797  13.087  1.00  0.00     0.009 A 
ATOM     79  C   UNL     1       7.690   4.241  14.400  1.00  0.00     0.009 A 
ATOM     80  C   UNL     1       9.906   2.555  14.216  1.00  0.00     0.001 A 
ATOM     81  C   UNL     1       8.490   4.015  15.521  1.00  0.00     0.001 A 
ATOM     82  C   UNL     1       9.592   3.166  15.430  1.00  0.00     0.000 A 
ENDBRANCH  64  77
ENDBRANCH  38  39
ENDBRANCH  30  33
ENDBRANCH  28  29
ENDBRANCH  27  28
ENDBRANCH   1  27
TORSDOF 15
