REMARK SMILES COc1ccc(/C=C/c2cc(OC)cc(OC)c2/C=C/C(=O)NCCCNC(=O)c2ccc(-c3c4nc(c(-c5ccccc5)c5ccc([nH]5)c(-c5ccccc5)c5nc(c(-c6ccccc6)c6ccc3[nH]6)C=C5)C=C4)cc2)cc1
REMARK SMILES IDX 24 1 23 2 21 3 22 4 20 6 19 7 18 8 9 9 10 10 11 11 15 12
REMARK SMILES IDX 14 13 8 14 7 15 6 16 3 17 4 18 79 19 5 20 78 21 2 22 1 23
REMARK SMILES IDX 12 24 13 25 16 26 17 27 25 28 26 29 27 30 28 31 29 33 30 34
REMARK SMILES IDX 31 35 77 36 32 37 76 38 33 39 34 40 35 41 70 42 36 43 75 44
REMARK SMILES IDX 69 45 71 46 37 47 74 48 68 49 67 50 38 52 60 53 45 54 59 55
REMARK SMILES IDX 46 56 49 57 58 58 72 59 47 60 48 61 57 63 73 64 50 65 39 66
REMARK SMILES IDX 40 67 44 68 41 69 43 70 42 71 61 72 62 73 66 74 63 75 65 76
REMARK SMILES IDX 64 77 51 78 52 79 56 80 53 81 55 82 54 83
REMARK H PARENT 23 5 27 32 71 51 49 62
REMARK Flexibility Score: inf
ROOT
ATOM      1  C   UNL     1       4.383  -4.324  -4.522  1.00  0.00     0.118 C 
ENDROOT
BRANCH   1   2
ATOM      2  N   UNL     1       5.356  -5.209  -5.122  1.00  0.00    -0.352 N 
ATOM      3  C   UNL     1       5.525  -5.462  -6.446  1.00  0.00     0.244 C 
ATOM      4  O   UNL     1       6.408  -6.211  -6.847  1.00  0.00    -0.270 OA
ATOM      5  H   UNL     1       5.962  -5.679  -4.505  1.00  0.00     0.163 HD
BRANCH   3   6
ATOM      6  C   UNL     1       4.645  -4.761  -7.398  1.00  0.00     0.072 C 
ATOM      7  C   UNL     1       3.364  -5.135  -7.529  1.00  0.00     0.018 C 
BRANCH   7   8
ATOM      8  C   UNL     1       2.485  -4.580  -8.568  1.00  0.00     0.024 A 
ATOM      9  C   UNL     1       1.383  -3.766  -8.163  1.00  0.00    -0.011 A 
ATOM     10  C   UNL     1       0.479  -3.280  -9.125  1.00  0.00     0.055 A 
ATOM     11  C   UNL     1       0.625  -3.598 -10.471  1.00  0.00     0.123 A 
ATOM     12  C   UNL     1       2.640  -4.876  -9.941  1.00  0.00     0.130 A 
ATOM     13  C   UNL     1       1.713  -4.365 -10.866  1.00  0.00     0.093 A 
BRANCH   9  14
ATOM     14  C   UNL     1       1.039  -3.445  -6.757  1.00  0.00     0.009 C 
ATOM     15  C   UNL     1       1.651  -2.502  -6.019  1.00  0.00     0.009 C 
BRANCH  15  16
ATOM     16  C   UNL     1       1.330  -2.178  -4.609  1.00  0.00    -0.025 A 
ATOM     17  C   UNL     1       0.848  -1.590  -1.879  1.00  0.00     0.118 A 
ATOM     18  C   UNL     1      -0.144  -2.172  -2.666  1.00  0.00     0.047 A 
ATOM     19  C   UNL     1       2.089  -1.311  -2.446  1.00  0.00     0.047 A 
ATOM     20  C   UNL     1       0.088  -2.453  -4.020  1.00  0.00     0.012 A 
ATOM     21  C   UNL     1       2.317  -1.584  -3.804  1.00  0.00     0.012 A 
BRANCH  17  22
ATOM     22  O   UNL     1       0.523  -1.377  -0.568  1.00  0.00    -0.497 OA
ATOM     23  C   UNL     1       1.091  -0.200   0.002  1.00  0.00     0.278 C 
ENDBRANCH  17  22
ENDBRANCH  15  16
ENDBRANCH   9  14
BRANCH  11  24
ATOM     24  O   UNL     1      -0.350  -3.125 -11.306  1.00  0.00    -0.497 OA
ATOM     25  C   UNL     1      -0.419  -3.738 -12.591  1.00  0.00     0.278 C 
ENDBRANCH  11  24
BRANCH  12  26
ATOM     26  O   UNL     1       3.549  -5.654 -10.607  1.00  0.00    -0.496 OA
ATOM     27  C   UNL     1       4.607  -6.347  -9.977  1.00  0.00     0.278 C 
ENDBRANCH  12  26
ENDBRANCH   7   8
ENDBRANCH   3   6
ENDBRANCH   1   2
BRANCH   1  28
ATOM     28  C   UNL     1       3.371  -5.099  -3.696  1.00  0.00     0.042 C 
BRANCH  28  29
ATOM     29  C   UNL     1       3.954  -5.576  -2.379  1.00  0.00     0.118 C 
BRANCH  29  30
ATOM     30  N   UNL     1       4.407  -4.465  -1.548  1.00  0.00    -0.352 N 
ATOM     31  C   UNL     1       4.007  -4.096  -0.292  1.00  0.00     0.251 C 
ATOM     32  H   UNL     1       5.103  -3.897  -1.951  1.00  0.00     0.163 HD
ATOM     33  O   UNL     1       4.301  -2.990   0.147  1.00  0.00    -0.269 OA
BRANCH  31  34
ATOM     34  C   UNL     1       3.247  -5.053   0.533  1.00  0.00     0.039 A 
ATOM     35  C   UNL     1       2.229  -4.584   1.364  1.00  0.00     0.014 A 
ATOM     36  C   UNL     1       3.572  -6.413   0.509  1.00  0.00     0.014 A 
ATOM     37  C   UNL     1       1.530  -5.487   2.163  1.00  0.00     0.010 A 
ATOM     38  C   UNL     1       2.798  -7.322   1.211  1.00  0.00     0.010 A 
ATOM     39  C   UNL     1       1.804  -6.864   2.083  1.00  0.00    -0.014 A 
BRANCH  39  40
ATOM     40  C   UNL     1       1.120  -7.840   2.961  1.00  0.00     0.031 A 
ATOM     41  C   UNL     1       1.926  -8.644   3.946  1.00  0.00     0.074 A 
ATOM     42  C   UNL     1      -0.206  -8.034   2.839  1.00  0.00     0.049 A 
ATOM     43  N   UNL     1       1.528  -9.572   4.778  1.00  0.00    -0.248 NA
ATOM     44  C   UNL     1       3.380  -8.399   3.977  1.00  0.00     0.031 C 
ATOM     45  C   UNL     1      -1.082  -7.347   1.887  1.00  0.00     0.029 A 
ATOM     46  N   UNL     1      -1.048  -8.867   3.527  1.00  0.00    -0.354 N 
ATOM     47  C   UNL     1       2.680 -10.032   5.407  1.00  0.00     0.074 A 
ATOM     48  C   UNL     1       3.797  -9.336   4.812  1.00  0.00     0.031 C 
ATOM     49  C   UNL     1      -2.346  -7.756   2.082  1.00  0.00     0.029 A 
ATOM     50  C   UNL     1      -2.361  -8.759   3.142  1.00  0.00     0.049 A 
ATOM     51  H   UNL     1      -0.741  -9.484   4.230  1.00  0.00     0.167 HD
ATOM     52  C   UNL     1       2.797 -10.930   6.413  1.00  0.00     0.031 A 
ATOM     53  C   UNL     1      -3.454  -9.396   3.600  1.00  0.00     0.031 A 
ATOM     54  C   UNL     1       1.679 -11.605   7.013  1.00  0.00     0.049 A 
ATOM     55  C   UNL     1      -3.301 -10.383   4.723  1.00  0.00     0.074 A 
ATOM     56  C   UNL     1       1.674 -12.496   8.071  1.00  0.00     0.029 A 
ATOM     57  N   UNL     1       0.362 -11.455   6.606  1.00  0.00    -0.354 N 
ATOM     58  N   UNL     1      -2.214 -10.761   5.353  1.00  0.00    -0.248 NA
ATOM     59  C   UNL     1      -4.533 -11.014   5.214  1.00  0.00     0.031 C 
ATOM     60  C   UNL     1       0.357 -12.925   8.271  1.00  0.00     0.029 A 
ATOM     61  C   UNL     1      -0.465 -12.248   7.383  1.00  0.00     0.049 A 
ATOM     62  H   UNL     1       0.059 -10.871   5.873  1.00  0.00     0.167 HD
ATOM     63  C   UNL     1      -2.635 -11.642   6.341  1.00  0.00     0.074 A 
ATOM     64  C   UNL     1      -4.078 -11.728   6.234  1.00  0.00     0.031 C 
ATOM     65  C   UNL     1      -1.898 -12.315   7.259  1.00  0.00     0.031 A 
BRANCH  52  66
ATOM     66  C   UNL     1       4.184 -11.227   6.917  1.00  0.00    -0.014 A 
ATOM     67  C   UNL     1       4.940 -10.256   7.594  1.00  0.00     0.009 A 
ATOM     68  C   UNL     1       4.741 -12.500   6.720  1.00  0.00     0.009 A 
ATOM     69  C   UNL     1       6.240 -10.538   8.021  1.00  0.00     0.001 A 
ATOM     70  C   UNL     1       6.027 -12.791   7.179  1.00  0.00     0.001 A 
ATOM     71  C   UNL     1       6.780 -11.807   7.818  1.00  0.00     0.000 A 
ENDBRANCH  52  66
BRANCH  53  72
ATOM     72  C   UNL     1      -4.791  -9.089   3.028  1.00  0.00    -0.014 A 
ATOM     73  C   UNL     1      -5.753  -8.408   3.791  1.00  0.00     0.009 A 
ATOM     74  C   UNL     1      -5.117  -9.480   1.720  1.00  0.00     0.009 A 
ATOM     75  C   UNL     1      -7.023  -8.156   3.269  1.00  0.00     0.001 A 
ATOM     76  C   UNL     1      -6.378  -9.198   1.189  1.00  0.00     0.001 A 
ATOM     77  C   UNL     1      -7.333  -8.547   1.968  1.00  0.00     0.000 A 
ENDBRANCH  53  72
BRANCH  65  78
ATOM     78  C   UNL     1      -2.650 -13.153   8.255  1.00  0.00    -0.014 A 
ATOM     79  C   UNL     1      -3.312 -14.332   7.878  1.00  0.00     0.009 A 
ATOM     80  C   UNL     1      -2.675 -12.760   9.603  1.00  0.00     0.009 A 
ATOM     81  C   UNL     1      -4.029 -15.070   8.822  1.00  0.00     0.001 A 
ATOM     82  C   UNL     1      -3.361 -13.519  10.551  1.00  0.00     0.001 A 
ATOM     83  C   UNL     1      -4.050 -14.665  10.157  1.00  0.00     0.000 A 
ENDBRANCH  65  78
ENDBRANCH  39  40
ENDBRANCH  31  34
ENDBRANCH  29  30
ENDBRANCH  28  29
ENDBRANCH   1  28
TORSDOF 16
