REMARK SMILES O=C(NCCCNC(=O)[C@H]1CCCC[C@@H]1C(=O)Nc1ccc(Br)c(Cl)c1)c1ccc(-c2c3nc(c(-c4ccccc4)c4ccc([nH]4)c(-c4ccccc4)c4nc(c(-c5ccccc5)c5ccc2[nH]5)C=C4)C=C3)cc1
REMARK SMILES IDX 5 1 4 2 3 3 1 4 2 5 27 7 28 8 74 9 29 10 73 11 30 12 31 13
REMARK SMILES IDX 32 14 67 15 33 16 72 17 66 18 68 19 34 20 71 21 65 22 64 23
REMARK SMILES IDX 35 25 57 26 42 27 56 28 43 29 46 30 55 31 69 32 44 33 45 34
REMARK SMILES IDX 54 36 70 37 47 38 36 39 37 40 41 41 38 42 40 43 39 44 58 45
REMARK SMILES IDX 59 46 63 47 60 48 62 49 61 50 48 51 49 52 53 53 50 54 52 55
REMARK SMILES IDX 51 56 6 57 7 58 8 59 9 61 10 62 11 63 15 64 12 65 14 66
REMARK SMILES IDX 13 67 16 68 17 69 18 70 19 72 20 73 26 74 21 75 24 76 22 77
REMARK SMILES IDX 25 78 23 79
REMARK H PARENT 3 6 68 24 46 35 7 60 18 71
REMARK Flexibility Score: inf
ROOT
ATOM      1  C   UNL     1       6.626  -4.073   0.337  1.00  0.00     0.042 C 
ENDROOT
BRANCH   1   2
ATOM      2  C   UNL     1       7.776  -4.247   1.317  1.00  0.00     0.118 C 
BRANCH   2   3
ATOM      3  N   UNL     1       8.270  -2.970   1.804  1.00  0.00    -0.352 N 
ATOM      4  O   UNL     1       8.509  -1.232   3.192  1.00  0.00    -0.269 OA
ATOM      5  C   UNL     1       8.250  -2.425   3.062  1.00  0.00     0.251 C 
ATOM      6  H   UNL     1       8.688  -2.403   1.117  1.00  0.00     0.163 HD
BRANCH   5   7
ATOM      7  C   UNL     1       7.942  -3.241   4.260  1.00  0.00     0.039 A 
ATOM      8  C   UNL     1       7.326  -2.614   5.348  1.00  0.00     0.014 A 
ATOM      9  C   UNL     1       8.351  -4.573   4.376  1.00  0.00     0.014 A 
ATOM     10  C   UNL     1       7.135  -3.311   6.544  1.00  0.00     0.010 A 
ATOM     11  C   UNL     1       8.074  -5.297   5.533  1.00  0.00     0.010 A 
ATOM     12  C   UNL     1       7.515  -4.658   6.647  1.00  0.00    -0.014 A 
BRANCH  12  13
ATOM     13  C   UNL     1       7.454  -5.370   7.948  1.00  0.00     0.031 A 
ATOM     14  C   UNL     1       8.734  -5.802   8.618  1.00  0.00     0.074 A 
ATOM     15  C   UNL     1       6.267  -5.626   8.529  1.00  0.00     0.049 A 
ATOM     16  N   UNL     1       8.900  -6.442   9.748  1.00  0.00    -0.248 NA
ATOM     17  C   UNL     1       9.994  -5.496   7.918  1.00  0.00     0.031 C 
ATOM     18  C   UNL     1       4.958  -5.272   7.977  1.00  0.00     0.029 A 
ATOM     19  N   UNL     1       5.972  -6.231   9.726  1.00  0.00    -0.354 N 
ATOM     20  C   UNL     1      10.270  -6.636   9.874  1.00  0.00     0.074 A 
ATOM     21  C   UNL     1      10.890  -6.094   8.688  1.00  0.00     0.031 C 
ATOM     22  C   UNL     1       4.004  -5.619   8.857  1.00  0.00     0.029 A 
ATOM     23  C   UNL     1       4.630  -6.247  10.017  1.00  0.00     0.049 A 
ATOM     24  H   UNL     1       6.657  -6.616  10.319  1.00  0.00     0.167 HD
ATOM     25  C   UNL     1      10.957  -7.190  10.899  1.00  0.00     0.031 A 
ATOM     26  C   UNL     1       3.979  -6.698  11.107  1.00  0.00     0.031 A 
ATOM     27  C   UNL     1      10.348  -7.683  12.103  1.00  0.00     0.049 A 
ATOM     28  C   UNL     1       4.766  -7.283  12.247  1.00  0.00     0.074 A 
ATOM     29  C   UNL     1      10.962  -8.227  13.216  1.00  0.00     0.029 A 
ATOM     30  N   UNL     1       8.986  -7.668  12.357  1.00  0.00    -0.354 N 
ATOM     31  N   UNL     1       6.064  -7.434  12.361  1.00  0.00    -0.248 NA
ATOM     32  C   UNL     1       4.003  -7.742  13.417  1.00  0.00     0.031 C 
ATOM     33  C   UNL     1       9.968  -8.573  14.134  1.00  0.00     0.029 A 
ATOM     34  C   UNL     1       8.741  -8.194  13.612  1.00  0.00     0.049 A 
ATOM     35  H   UNL     1       8.298  -7.334  11.738  1.00  0.00     0.167 HD
ATOM     36  C   UNL     1       6.274  -7.967  13.626  1.00  0.00     0.074 A 
ATOM     37  C   UNL     1       4.972  -8.110  14.244  1.00  0.00     0.031 C 
ATOM     38  C   UNL     1       7.443  -8.304  14.222  1.00  0.00     0.031 A 
BRANCH  25  39
ATOM     39  C   UNL     1      12.453  -7.278  10.778  1.00  0.00    -0.014 A 
ATOM     40  C   UNL     1      13.070  -8.531  10.639  1.00  0.00     0.009 A 
ATOM     41  C   UNL     1      13.256  -6.132  10.876  1.00  0.00     0.009 A 
ATOM     42  C   UNL     1      14.461  -8.636  10.609  1.00  0.00     0.001 A 
ATOM     43  C   UNL     1      14.647  -6.236  10.816  1.00  0.00     0.001 A 
ATOM     44  C   UNL     1      15.248  -7.488  10.692  1.00  0.00     0.000 A 
ENDBRANCH  25  39
BRANCH  26  45
ATOM     45  C   UNL     1       2.504  -6.544  11.200  1.00  0.00    -0.014 A 
ATOM     46  C   UNL     1       1.645  -7.318  10.406  1.00  0.00     0.009 A 
ATOM     47  C   UNL     1       1.949  -5.594  12.073  1.00  0.00     0.009 A 
ATOM     48  C   UNL     1       0.261  -7.139  10.476  1.00  0.00     0.001 A 
ATOM     49  C   UNL     1       0.564  -5.435  12.160  1.00  0.00     0.001 A 
ATOM     50  C   UNL     1      -0.278  -6.202  11.357  1.00  0.00     0.000 A 
ENDBRANCH  26  45
BRANCH  38  51
ATOM     51  C   UNL     1       7.393  -8.813  15.633  1.00  0.00    -0.014 A 
ATOM     52  C   UNL     1       7.899  -8.014  16.672  1.00  0.00     0.009 A 
ATOM     53  C   UNL     1       6.957 -10.114  15.923  1.00  0.00     0.009 A 
ATOM     54  C   UNL     1       7.979  -8.511  17.973  1.00  0.00     0.001 A 
ATOM     55  C   UNL     1       7.014 -10.599  17.230  1.00  0.00     0.001 A 
ATOM     56  C   UNL     1       7.533  -9.802  18.251  1.00  0.00     0.000 A 
ENDBRANCH  38  51
ENDBRANCH  12  13
ENDBRANCH   5   7
ENDBRANCH   2   3
ENDBRANCH   1   2
BRANCH   1  57
ATOM     57  C   UNL     1       7.053  -3.456  -0.989  1.00  0.00     0.117 C 
BRANCH  57  58
ATOM     58  N   UNL     1       7.848  -4.359  -1.787  1.00  0.00    -0.356 N 
ATOM     59  C   UNL     1       7.551  -5.127  -2.865  1.00  0.00     0.223 C 
ATOM     60  H   UNL     1       8.785  -4.430  -1.493  1.00  0.00     0.163 HD
ATOM     61  O   UNL     1       8.513  -5.737  -3.342  1.00  0.00    -0.275 OA
BRANCH  59  62
ATOM     62  C   UNL     1       6.153  -5.174  -3.521  1.00  0.00     0.091 C 
ATOM     63  C   UNL     1       6.169  -6.191  -4.686  1.00  0.00     0.014 C 
ATOM     64  C   UNL     1       4.975  -5.481  -2.581  1.00  0.00     0.091 C 
ATOM     65  C   UNL     1       6.257  -7.640  -4.202  1.00  0.00     0.001 C 
ATOM     66  C   UNL     1       5.029  -6.944  -2.089  1.00  0.00     0.014 C 
ATOM     67  C   UNL     1       5.165  -7.985  -3.200  1.00  0.00     0.001 C 
BRANCH  64  68
ATOM     68  C   UNL     1       3.595  -5.163  -3.196  1.00  0.00     0.228 C 
ATOM     69  O   UNL     1       2.973  -5.994  -3.862  1.00  0.00    -0.274 OA
ATOM     70  N   UNL     1       2.945  -3.994  -2.898  1.00  0.00    -0.326 N 
ATOM     71  H   UNL     1       1.980  -4.000  -3.093  1.00  0.00     0.169 HD
BRANCH  70  72
ATOM     72  C   UNL     1       3.421  -2.795  -2.364  1.00  0.00     0.042 A 
ATOM     73  C   UNL     1       4.460  -2.087  -2.966  1.00  0.00     0.027 A 
ATOM     74  C   UNL     1       2.766  -2.248  -1.260  1.00  0.00     0.047 A 
ATOM     75  C   UNL     1       4.922  -0.895  -2.397  1.00  0.00     0.019 A 
ATOM     76  C   UNL     1       3.237  -1.066  -0.675  1.00  0.00     0.057 A 
ATOM     77  C   UNL     1       4.332  -0.399  -1.233  1.00  0.00     0.036 A 
ATOM     78  Cl  UNL     1       2.429  -0.506   0.746  1.00  0.00    -0.083 Cl
ATOM     79  Br  UNL     1       5.082   1.169  -0.471  1.00  0.00    -0.049 Br
ENDBRANCH  70  72
ENDBRANCH  64  68
ENDBRANCH  59  62
ENDBRANCH  57  58
ENDBRANCH   1  57
TORSDOF 12
