REMARK SMILES CC[C@]1(C(=O)NCCCNC(=O)c2ccc(-c3c4nc(c(-c5ccccc5)c5ccc([nH]5)c(-c5ccccc5)c5nc(c(-c6ccccc6)c6ccc3[nH]6)C=C5)C=C4)cc2)CCCN(S(=O)(=O)CCOC(C)C)C1
REMARK SMILES IDX 4 1 5 2 6 3 3 5 61 6 74 7 62 8 64 9 63 10 2 11 1 12 65 13
REMARK SMILES IDX 66 14 67 15 68 16 69 17 70 18 71 19 72 20 73 21 7 22 8 23
REMARK SMILES IDX 9 24 10 25 11 26 12 28 13 29 14 30 60 31 15 32 59 33 16 34
REMARK SMILES IDX 17 35 18 36 53 37 19 38 58 39 52 40 54 41 20 42 57 43 51 44
REMARK SMILES IDX 50 45 21 47 43 48 28 49 42 50 29 51 32 52 41 53 55 54 30 55
REMARK SMILES IDX 31 56 40 58 56 59 33 60 22 61 23 62 27 63 24 64 26 65 25 66
REMARK SMILES IDX 44 67 45 68 49 69 46 70 48 71 47 72 34 73 35 74 39 75 36 76
REMARK SMILES IDX 38 77 37 78
REMARK H PARENT 6 4 10 27 54 46 32 57
REMARK Flexibility Score: inf
ROOT
ATOM      1  C   UNL     1       1.035   1.848  -2.476  1.00  0.00     0.227 C 
ATOM      2  O   UNL     1       0.625   0.723  -2.764  1.00  0.00    -0.274 OA
ATOM      3  N   UNL     1       1.516   2.580  -3.517  1.00  0.00    -0.356 N 
ATOM      4  H   UNL     1       1.572   2.086  -4.366  1.00  0.00     0.163 HD
ENDROOT
BRANCH   1   5
ATOM      5  C   UNL     1       0.961   2.432  -1.051  1.00  0.00     0.063 C 
ATOM      6  C   UNL     1       2.369   2.843  -0.543  1.00  0.00     0.019 C 
ATOM      7  C   UNL     1      -0.054   3.616  -1.165  1.00  0.00     0.119 C 
ATOM      8  C   UNL     1       2.343   3.941   0.512  1.00  0.00     0.018 C 
ATOM      9  N   UNL     1       0.156   4.755  -0.218  1.00  0.00    -0.201 NA
ATOM     10  C   UNL     1       1.558   5.147   0.034  1.00  0.00     0.102 C 
BRANCH   5  11
ATOM     11  C   UNL     1       0.386   1.361  -0.058  1.00  0.00     0.015 C 
ATOM     12  C   UNL     1       1.025  -0.031  -0.045  1.00  0.00     0.005 C 
ENDBRANCH   5  11
BRANCH   9  13
ATOM     13  S   UNL     1      -0.926   6.064  -0.456  1.00  0.00     0.216 S 
ATOM     14  O   UNL     1      -0.181   7.093  -1.149  1.00  0.00    -0.212 OA
ATOM     15  O   UNL     1      -2.147   5.537  -1.030  1.00  0.00    -0.212 OA
BRANCH  13  16
ATOM     16  C   UNL     1      -1.255   6.620   1.222  1.00  0.00     0.182 C 
BRANCH  16  17
ATOM     17  C   UNL     1      -2.562   6.091   1.798  1.00  0.00     0.178 C 
BRANCH  17  18
ATOM     18  O   UNL     1      -2.411   5.354   3.017  1.00  0.00    -0.378 OA
BRANCH  18  19
ATOM     19  C   UNL     1      -2.285   3.932   2.956  1.00  0.00     0.112 C 
ATOM     20  C   UNL     1      -3.473   3.201   2.323  1.00  0.00     0.038 C 
ATOM     21  C   UNL     1      -0.986   3.510   2.316  1.00  0.00     0.038 C 
ENDBRANCH  18  19
ENDBRANCH  17  18
ENDBRANCH  16  17
ENDBRANCH  13  16
ENDBRANCH   9  13
ENDBRANCH   1   5
BRANCH   3  22
ATOM     22  C   UNL     1       1.962   3.961  -3.599  1.00  0.00     0.117 C 
BRANCH  22  23
ATOM     23  C   UNL     1       3.412   4.064  -4.018  1.00  0.00     0.042 C 
BRANCH  23  24
ATOM     24  C   UNL     1       3.655   3.458  -5.385  1.00  0.00     0.118 C 
BRANCH  24  25
ATOM     25  N   UNL     1       2.874   4.121  -6.423  1.00  0.00    -0.352 N 
ATOM     26  C   UNL     1       3.305   4.911  -7.458  1.00  0.00     0.251 C 
ATOM     27  H   UNL     1       1.901   3.983  -6.373  1.00  0.00     0.163 HD
ATOM     28  O   UNL     1       2.513   5.595  -8.095  1.00  0.00    -0.269 OA
BRANCH  26  29
ATOM     29  C   UNL     1       4.743   4.936  -7.778  1.00  0.00     0.039 A 
ATOM     30  C   UNL     1       5.370   6.155  -8.029  1.00  0.00     0.014 A 
ATOM     31  C   UNL     1       5.473   3.745  -7.782  1.00  0.00     0.014 A 
ATOM     32  C   UNL     1       6.751   6.184  -8.216  1.00  0.00     0.010 A 
ATOM     33  C   UNL     1       6.855   3.791  -7.841  1.00  0.00     0.010 A 
ATOM     34  C   UNL     1       7.507   5.007  -8.082  1.00  0.00    -0.014 A 
BRANCH  34  35
ATOM     35  C   UNL     1       8.982   5.011  -8.220  1.00  0.00     0.031 A 
ATOM     36  C   UNL     1       9.628   4.188  -9.302  1.00  0.00     0.074 A 
ATOM     37  C   UNL     1       9.735   5.693  -7.335  1.00  0.00     0.049 A 
ATOM     38  N   UNL     1      10.900   4.001  -9.546  1.00  0.00    -0.248 NA
ATOM     39  C   UNL     1       8.731   3.448 -10.207  1.00  0.00     0.031 C 
ATOM     40  C   UNL     1       9.225   6.489  -6.215  1.00  0.00     0.029 A 
ATOM     41  N   UNL     1      11.097   5.823  -7.239  1.00  0.00    -0.354 N 
ATOM     42  C   UNL     1      10.950   3.106 -10.607  1.00  0.00     0.074 A 
ATOM     43  C   UNL     1       9.589   2.741 -10.925  1.00  0.00     0.031 C 
ATOM     44  C   UNL     1      10.258   7.058  -5.573  1.00  0.00     0.029 A 
ATOM     45  C   UNL     1      11.502   6.630  -6.203  1.00  0.00     0.049 A 
ATOM     46  H   UNL     1      11.725   5.380  -7.854  1.00  0.00     0.167 HD
ATOM     47  C   UNL     1      12.033   2.647 -11.275  1.00  0.00     0.031 A 
ATOM     48  C   UNL     1      12.739   6.981  -5.807  1.00  0.00     0.031 A 
ATOM     49  C   UNL     1      13.382   3.039 -10.979  1.00  0.00     0.049 A 
ATOM     50  C   UNL     1      13.924   6.450  -6.566  1.00  0.00     0.074 A 
ATOM     51  C   UNL     1      14.544   2.695 -11.646  1.00  0.00     0.029 A 
ATOM     52  N   UNL     1      13.749   3.865  -9.929  1.00  0.00    -0.354 N 
ATOM     53  N   UNL     1      13.950   5.672  -7.621  1.00  0.00    -0.248 NA
ATOM     54  C   UNL     1      15.252   6.856  -6.084  1.00  0.00     0.031 C 
ATOM     55  C   UNL     1      15.621   3.265 -10.963  1.00  0.00     0.029 A 
ATOM     56  C   UNL     1      15.124   4.017  -9.910  1.00  0.00     0.049 A 
ATOM     57  H   UNL     1      13.125   4.282  -9.291  1.00  0.00     0.167 HD
ATOM     58  C   UNL     1      15.292   5.526  -7.950  1.00  0.00     0.074 A 
ATOM     59  C   UNL     1      16.045   6.309  -6.993  1.00  0.00     0.031 C 
ATOM     60  C   UNL     1      15.852   4.809  -8.954  1.00  0.00     0.031 A 
BRANCH  47  61
ATOM     61  C   UNL     1      11.803   1.666 -12.391  1.00  0.00    -0.014 A 
ATOM     62  C   UNL     1      11.196   2.056 -13.595  1.00  0.00     0.009 A 
ATOM     63  C   UNL     1      12.248   0.342 -12.254  1.00  0.00     0.009 A 
ATOM     64  C   UNL     1      11.014   1.133 -14.627  1.00  0.00     0.001 A 
ATOM     65  C   UNL     1      12.092  -0.571 -13.298  1.00  0.00     0.001 A 
ATOM     66  C   UNL     1      11.469  -0.176 -14.480  1.00  0.00     0.000 A 
ENDBRANCH  47  61
BRANCH  48  67
ATOM     67  C   UNL     1      12.932   7.892  -4.647  1.00  0.00    -0.014 A 
ATOM     68  C   UNL     1      13.452   9.183  -4.837  1.00  0.00     0.009 A 
ATOM     69  C   UNL     1      12.635   7.468  -3.343  1.00  0.00     0.009 A 
ATOM     70  C   UNL     1      13.708  10.013  -3.743  1.00  0.00     0.001 A 
ATOM     71  C   UNL     1      12.860   8.313  -2.254  1.00  0.00     0.001 A 
ATOM     72  C   UNL     1      13.410   9.578  -2.453  1.00  0.00     0.000 A 
ENDBRANCH  48  67
BRANCH  60  73
ATOM     73  C   UNL     1      17.346   4.878  -9.098  1.00  0.00    -0.014 A 
ATOM     74  C   UNL     1      18.199   4.254  -8.175  1.00  0.00     0.009 A 
ATOM     75  C   UNL     1      17.903   5.542 -10.202  1.00  0.00     0.009 A 
ATOM     76  C   UNL     1      19.584   4.326  -8.337  1.00  0.00     0.001 A 
ATOM     77  C   UNL     1      19.286   5.583 -10.379  1.00  0.00     0.001 A 
ATOM     78  C   UNL     1      20.125   4.985  -9.441  1.00  0.00     0.000 A 
ENDBRANCH  60  73
ENDBRANCH  34  35
ENDBRANCH  26  29
ENDBRANCH  24  25
ENDBRANCH  23  24
ENDBRANCH  22  23
ENDBRANCH   3  22
TORSDOF 16
