REMARK SMILES Cc1nn(C)c(C)c1C[C@@H](C)C(=O)N[C@@H](C(=O)NCCCNC(=O)c1ccc(-c2c3nc(c(-c4ccccc4)c4ccc([nH]4)c(-c4ccccc4)c4nc(c(-c5ccccc5)c5ccc2[nH]5)C=C4)C=C3)cc1)c1ccccc1Cl
REMARK SMILES IDX 19 1 18 2 16 3 17 4 15 6 14 7 12 8 13 9 10 11 11 12 9 13
REMARK SMILES IDX 8 14 1 15 2 16 3 17 4 18 6 19 5 20 7 21 73 22 74 23 78 24
REMARK SMILES IDX 75 25 77 26 79 27 76 28 20 29 21 30 22 31 23 32 24 34 25 35
REMARK SMILES IDX 26 36 72 37 27 38 71 39 28 40 29 41 30 42 65 43 31 44 70 45
REMARK SMILES IDX 64 46 66 47 32 48 69 49 63 50 62 51 33 53 55 54 40 55 54 56
REMARK SMILES IDX 41 57 44 58 53 59 67 60 42 61 43 62 52 64 68 65 45 66 34 67
REMARK SMILES IDX 35 68 39 69 36 70 38 71 37 72 56 73 57 74 61 75 58 76 60 77
REMARK SMILES IDX 59 78 46 79 47 80 51 81 48 82 50 83 49 84
REMARK H PARENT 18 5 14 10 22 33 66 52 44 63
REMARK Flexibility Score: inf
ROOT
ATOM      1  C   UNL     1      -2.173   4.424  -1.530  1.00  0.00     0.117 C 
ENDROOT
BRANCH   1   2
ATOM      2  N   UNL     1      -1.385   5.324  -2.330  1.00  0.00    -0.354 N 
ATOM      3  C   UNL     1      -0.070   5.674  -2.167  1.00  0.00     0.247 C 
ATOM      4  O   UNL     1       0.489   6.119  -3.175  1.00  0.00    -0.272 OA
ATOM      5  H   UNL     1      -1.850   5.741  -3.091  1.00  0.00     0.163 HD
BRANCH   3   6
ATOM      6  C   UNL     1       0.726   5.346  -0.843  1.00  0.00     0.203 C 
BRANCH   6   7
ATOM      7  N   UNL     1      -0.026   5.542   0.405  1.00  0.00    -0.340 N 
ATOM      8  C   UNL     1      -0.403   4.722   1.424  1.00  0.00     0.224 C 
ATOM      9  O   UNL     1      -1.154   5.213   2.273  1.00  0.00    -0.275 OA
ATOM     10  H   UNL     1      -0.322   6.473   0.533  1.00  0.00     0.164 HD
BRANCH   8  11
ATOM     11  C   UNL     1       0.039   3.256   1.563  1.00  0.00     0.080 C 
ATOM     12  C   UNL     1       1.523   3.208   1.883  1.00  0.00     0.018 C 
BRANCH  11  13
ATOM     13  C   UNL     1      -0.473   2.384   0.409  1.00  0.00     0.052 C 
BRANCH  13  14
ATOM     14  C   UNL     1      -0.174   0.926   0.368  1.00  0.00    -0.003 A 
ATOM     15  C   UNL     1      -2.607  -0.102   0.286  1.00  0.00     0.069 C 
ATOM     16  C   UNL     1      -1.119  -0.145   0.329  1.00  0.00     0.063 A 
ATOM     17  N   UNL     1      -0.513  -1.331   0.223  1.00  0.00    -0.178 NA
ATOM     18  N   UNL     1       0.790  -1.033   0.116  1.00  0.00    -0.272 N 
ATOM     19  C   UNL     1       1.038   0.314   0.080  1.00  0.00     0.038 A 
ATOM     20  C   UNL     1       1.729  -2.119  -0.032  1.00  0.00     0.174 C 
ATOM     21  C   UNL     1       2.361   0.882  -0.279  1.00  0.00     0.066 C 
ENDBRANCH  13  14
ENDBRANCH  11  13
ENDBRANCH   8  11
ENDBRANCH   6   7
BRANCH   6  22
ATOM     22  C   UNL     1       2.041   6.114  -0.792  1.00  0.00     0.002 A 
ATOM     23  C   UNL     1       3.249   5.390  -0.843  1.00  0.00     0.008 A 
ATOM     24  C   UNL     1       2.112   7.517  -0.741  1.00  0.00     0.046 A 
ATOM     25  C   UNL     1       4.483   6.041  -0.828  1.00  0.00     0.000 A 
ATOM     26  C   UNL     1       3.351   8.167  -0.740  1.00  0.00     0.021 A 
ATOM     27  Cl  UNL     1       0.696   8.507  -0.670  1.00  0.00    -0.084 Cl
ATOM     28  C   UNL     1       4.534   7.430  -0.780  1.00  0.00     0.002 A 
ENDBRANCH   6  22
ENDBRANCH   3   6
ENDBRANCH   1   2
BRANCH   1  29
ATOM     29  C   UNL     1      -3.494   4.973  -1.047  1.00  0.00     0.042 C 
BRANCH  29  30
ATOM     30  C   UNL     1      -4.551   5.009  -2.129  1.00  0.00     0.118 C 
BRANCH  30  31
ATOM     31  N   UNL     1      -4.918   3.680  -2.610  1.00  0.00    -0.352 N 
ATOM     32  C   UNL     1      -6.128   3.030  -2.596  1.00  0.00     0.251 C 
ATOM     33  H   UNL     1      -4.178   3.168  -3.010  1.00  0.00     0.163 HD
ATOM     34  O   UNL     1      -6.183   1.843  -2.907  1.00  0.00    -0.269 OA
BRANCH  32  35
ATOM     35  C   UNL     1      -7.353   3.743  -2.177  1.00  0.00     0.039 A 
ATOM     36  C   UNL     1      -8.299   3.070  -1.400  1.00  0.00     0.014 A 
ATOM     37  C   UNL     1      -7.564   5.075  -2.532  1.00  0.00     0.014 A 
ATOM     38  C   UNL     1      -9.405   3.764  -0.908  1.00  0.00     0.010 A 
ATOM     39  C   UNL     1      -8.593   5.794  -1.940  1.00  0.00     0.010 A 
ATOM     40  C   UNL     1      -9.533   5.145  -1.130  1.00  0.00    -0.014 A 
BRANCH  40  41
ATOM     41  C   UNL     1     -10.643   5.928  -0.532  1.00  0.00     0.031 A 
ATOM     42  C   UNL     1     -11.610   6.665  -1.420  1.00  0.00     0.074 A 
ATOM     43  C   UNL     1     -10.742   6.027   0.808  1.00  0.00     0.049 A 
ATOM     44  N   UNL     1     -12.609   7.442  -1.085  1.00  0.00    -0.248 NA
ATOM     45  C   UNL     1     -11.412   6.540  -2.875  1.00  0.00     0.031 C 
ATOM     46  C   UNL     1      -9.834   5.406   1.778  1.00  0.00     0.029 A 
ATOM     47  N   UNL     1     -11.654   6.691   1.589  1.00  0.00    -0.354 N 
ATOM     48  C   UNL     1     -13.143   7.906  -2.281  1.00  0.00     0.074 A 
ATOM     49  C   UNL     1     -12.322   7.379  -3.347  1.00  0.00     0.031 C 
ATOM     50  C   UNL     1     -10.260   5.684   3.020  1.00  0.00     0.029 A 
ATOM     51  C   UNL     1     -11.439   6.538   2.938  1.00  0.00     0.049 A 
ATOM     52  H   UNL     1     -12.392   7.226   1.218  1.00  0.00     0.167 HD
ATOM     53  C   UNL     1     -14.237   8.678  -2.478  1.00  0.00     0.031 A 
ATOM     54  C   UNL     1     -12.115   7.035   3.991  1.00  0.00     0.031 A 
ATOM     55  C   UNL     1     -15.064   9.188  -1.419  1.00  0.00     0.049 A 
ATOM     56  C   UNL     1     -13.320   7.899   3.742  1.00  0.00     0.074 A 
ATOM     57  C   UNL     1     -16.225   9.934  -1.517  1.00  0.00     0.029 A 
ATOM     58  N   UNL     1     -14.817   9.004  -0.068  1.00  0.00    -0.354 N 
ATOM     59  N   UNL     1     -13.855   8.265   2.602  1.00  0.00    -0.248 NA
ATOM     60  C   UNL     1     -14.021   8.409   4.928  1.00  0.00     0.031 C 
ATOM     61  C   UNL     1     -16.653  10.245  -0.223  1.00  0.00     0.029 A 
ATOM     62  C   UNL     1     -15.791   9.641   0.679  1.00  0.00     0.049 A 
ATOM     63  H   UNL     1     -14.060   8.495   0.304  1.00  0.00     0.167 HD
ATOM     64  C   UNL     1     -14.970   9.023   2.934  1.00  0.00     0.074 A 
ATOM     65  C   UNL     1     -15.048   9.043   4.381  1.00  0.00     0.031 C 
ATOM     66  C   UNL     1     -15.852   9.649   2.117  1.00  0.00     0.031 A 
BRANCH  53  67
ATOM     67  C   UNL     1     -14.606   9.010  -3.898  1.00  0.00    -0.014 A 
ATOM     68  C   UNL     1     -15.100   8.025  -4.769  1.00  0.00     0.009 A 
ATOM     69  C   UNL     1     -14.502  10.332  -4.357  1.00  0.00     0.009 A 
ATOM     70  C   UNL     1     -15.453   8.352  -6.080  1.00  0.00     0.001 A 
ATOM     71  C   UNL     1     -14.884  10.661  -5.659  1.00  0.00     0.001 A 
ATOM     72  C   UNL     1     -15.351   9.670  -6.521  1.00  0.00     0.000 A 
ENDBRANCH  53  67
BRANCH  54  73
ATOM     73  C   UNL     1     -11.683   6.722   5.379  1.00  0.00    -0.014 A 
ATOM     74  C   UNL     1     -12.479   5.918   6.210  1.00  0.00     0.009 A 
ATOM     75  C   UNL     1     -10.487   7.249   5.892  1.00  0.00     0.009 A 
ATOM     76  C   UNL     1     -12.107   5.681   7.536  1.00  0.00     0.001 A 
ATOM     77  C   UNL     1     -10.101   6.983   7.208  1.00  0.00     0.001 A 
ATOM     78  C   UNL     1     -10.918   6.211   8.033  1.00  0.00     0.000 A 
ENDBRANCH  54  73
BRANCH  66  79
ATOM     79  C   UNL     1     -16.994  10.375   2.770  1.00  0.00    -0.014 A 
ATOM     80  C   UNL     1     -16.790  11.566   3.484  1.00  0.00     0.009 A 
ATOM     81  C   UNL     1     -18.298   9.872   2.643  1.00  0.00     0.009 A 
ATOM     82  C   UNL     1     -17.865  12.217   4.091  1.00  0.00     0.001 A 
ATOM     83  C   UNL     1     -19.375  10.543   3.223  1.00  0.00     0.001 A 
ATOM     84  C   UNL     1     -19.157  11.707   3.956  1.00  0.00     0.000 A 
ENDBRANCH  66  79
ENDBRANCH  40  41
ENDBRANCH  32  35
ENDBRANCH  30  31
ENDBRANCH  29  30
ENDBRANCH   1  29
TORSDOF 15
