REMARK SMILES COCCC(=O)N1Cc2ccccc2C[C@H]1C(=O)NCCCNC(=O)c1ccc(-c2c3nc(c(-c4ccccc4)c4ccc([nH]4)c(-c4ccccc4)c4nc(c(-c5ccccc5)c5ccc2[nH]5)C=C4)C=C3)cc1
REMARK SMILES IDX 20 1 19 2 17 3 18 4 16 6 7 7 8 8 9 9 15 10 10 11 14 12 11 13
REMARK SMILES IDX 13 14 12 15 5 16 6 17 4 18 3 19 2 20 1 21 21 22 22 23 23 24
REMARK SMILES IDX 24 25 25 27 26 28 27 29 73 30 28 31 72 32 29 33 30 34 31 35
REMARK SMILES IDX 66 36 32 37 71 38 65 39 67 40 33 41 70 42 64 43 63 44 34 46
REMARK SMILES IDX 56 47 41 48 55 49 42 50 45 51 54 52 68 53 43 54 44 55 53 57
REMARK SMILES IDX 69 58 46 59 35 60 36 61 40 62 37 63 39 64 38 65 57 66 58 67
REMARK SMILES IDX 62 68 59 69 61 70 60 71 47 72 48 73 52 74 49 75 51 76 50 77
REMARK H PARENT 19 5 23 26 67 45 45 56
REMARK Flexibility Score: inf
ROOT
ATOM      1  C   UNL     1      -2.716  -0.779  -0.240  1.00  0.00     0.117 C 
ENDROOT
BRANCH   1   2
ATOM      2  N   UNL     1      -1.946   0.367   0.200  1.00  0.00    -0.354 N 
ATOM      3  C   UNL     1      -0.662   0.727  -0.065  1.00  0.00     0.243 C 
ATOM      4  O   UNL     1      -0.337   1.876   0.250  1.00  0.00    -0.273 OA
ATOM      5  H   UNL     1      -2.434   0.987   0.788  1.00  0.00     0.163 HD
BRANCH   3   6
ATOM      6  C   UNL     1       0.267  -0.153  -0.917  1.00  0.00     0.179 C 
ATOM      7  N   UNL     1       0.359  -1.611  -0.613  1.00  0.00    -0.326 N 
ATOM      8  C   UNL     1       0.273  -2.563  -1.728  1.00  0.00     0.156 C 
ATOM      9  C   UNL     1       0.704  -2.035  -3.070  1.00  0.00    -0.025 A 
ATOM     10  C   UNL     1      -0.145   0.196  -2.368  1.00  0.00     0.071 C 
ATOM     11  C   UNL     1       1.215  -2.898  -4.049  1.00  0.00     0.006 A 
ATOM     12  C   UNL     1       0.478  -0.695  -3.396  1.00  0.00    -0.040 A 
ATOM     13  C   UNL     1       1.487  -2.429  -5.335  1.00  0.00     0.000 A 
ATOM     14  C   UNL     1       0.733  -0.231  -4.692  1.00  0.00     0.004 A 
ATOM     15  C   UNL     1       1.240  -1.097  -5.657  1.00  0.00     0.000 A 
BRANCH   7  16
ATOM     16  C   UNL     1       0.929  -2.105   0.564  1.00  0.00     0.225 C 
ATOM     17  O   UNL     1       1.550  -3.172   0.595  1.00  0.00    -0.275 OA
BRANCH  16  18
ATOM     18  C   UNL     1       0.666  -1.404   1.882  1.00  0.00     0.128 C 
BRANCH  18  19
ATOM     19  C   UNL     1       1.898  -0.729   2.446  1.00  0.00     0.169 C 
BRANCH  19  20
ATOM     20  O   UNL     1       2.021   0.560   1.856  1.00  0.00    -0.384 OA
ATOM     21  C   UNL     1       3.241   0.732   1.153  1.00  0.00     0.194 C 
ENDBRANCH  19  20
ENDBRANCH  18  19
ENDBRANCH  16  18
ENDBRANCH   7  16
ENDBRANCH   3   6
ENDBRANCH   1   2
BRANCH   1  22
ATOM     22  C   UNL     1      -2.902  -1.827   0.846  1.00  0.00     0.042 C 
BRANCH  22  23
ATOM     23  C   UNL     1      -3.380  -1.257   2.176  1.00  0.00     0.118 C 
BRANCH  23  24
ATOM     24  N   UNL     1      -4.615  -0.498   2.039  1.00  0.00    -0.352 N 
ATOM     25  C   UNL     1      -5.902  -0.821   2.377  1.00  0.00     0.251 C 
ATOM     26  H   UNL     1      -4.506   0.394   1.637  1.00  0.00     0.163 HD
ATOM     27  O   UNL     1      -6.829  -0.151   1.933  1.00  0.00    -0.269 OA
BRANCH  25  28
ATOM     28  C   UNL     1      -6.182  -1.965   3.268  1.00  0.00     0.039 A 
ATOM     29  C   UNL     1      -7.307  -2.754   3.015  1.00  0.00     0.014 A 
ATOM     30  C   UNL     1      -5.384  -2.222   4.385  1.00  0.00     0.014 A 
ATOM     31  C   UNL     1      -7.610  -3.818   3.865  1.00  0.00     0.010 A 
ATOM     32  C   UNL     1      -5.632  -3.338   5.176  1.00  0.00     0.010 A 
ATOM     33  C   UNL     1      -6.765  -4.128   4.943  1.00  0.00    -0.014 A 
BRANCH  33  34
ATOM     34  C   UNL     1      -7.087  -5.242   5.866  1.00  0.00     0.031 A 
ATOM     35  C   UNL     1      -7.404  -4.958   7.310  1.00  0.00     0.074 A 
ATOM     36  C   UNL     1      -7.059  -6.510   5.415  1.00  0.00     0.049 A 
ATOM     37  N   UNL     1      -7.723  -5.794   8.265  1.00  0.00    -0.248 NA
ATOM     38  C   UNL     1      -7.324  -3.554   7.746  1.00  0.00     0.031 C 
ATOM     39  C   UNL     1      -6.718  -6.919   4.051  1.00  0.00     0.029 A 
ATOM     40  N   UNL     1      -7.334  -7.689   6.059  1.00  0.00    -0.354 N 
ATOM     41  C   UNL     1      -7.853  -5.022   9.414  1.00  0.00     0.074 A 
ATOM     42  C   UNL     1      -7.528  -3.662   9.049  1.00  0.00     0.031 C 
ATOM     43  C   UNL     1      -6.853  -8.251   3.947  1.00  0.00     0.029 A 
ATOM     44  C   UNL     1      -7.259  -8.790   5.241  1.00  0.00     0.049 A 
ATOM     45  H   UNL     1      -7.563  -7.742   7.015  1.00  0.00     0.167 HD
ATOM     46  C   UNL     1      -8.232  -5.404  10.656  1.00  0.00     0.031 A 
ATOM     47  C   UNL     1      -7.509 -10.085   5.502  1.00  0.00     0.031 A 
ATOM     48  C   UNL     1      -8.582  -6.753  11.012  1.00  0.00     0.049 A 
ATOM     49  C   UNL     1      -7.958 -10.482   6.880  1.00  0.00     0.074 A 
ATOM     50  C   UNL     1      -9.047  -7.235  12.223  1.00  0.00     0.029 A 
ATOM     51  N   UNL     1      -8.506  -7.836  10.151  1.00  0.00    -0.354 N 
ATOM     52  N   UNL     1      -8.153  -9.729   7.935  1.00  0.00    -0.248 NA
ATOM     53  C   UNL     1      -8.242 -11.908   7.092  1.00  0.00     0.031 C 
ATOM     54  C   UNL     1      -9.214  -8.619  12.105  1.00  0.00     0.029 A 
ATOM     55  C   UNL     1      -8.901  -8.990  10.807  1.00  0.00     0.049 A 
ATOM     56  H   UNL     1      -8.216  -7.792   9.211  1.00  0.00     0.167 HD
ATOM     57  C   UNL     1      -8.616 -10.583   8.928  1.00  0.00     0.074 A 
ATOM     58  C   UNL     1      -8.683 -11.907   8.342  1.00  0.00     0.031 C 
ATOM     59  C   UNL     1      -8.960 -10.297  10.207  1.00  0.00     0.031 A 
BRANCH  46  60
ATOM     60  C   UNL     1      -8.274  -4.341  11.720  1.00  0.00    -0.014 A 
ATOM     61  C   UNL     1      -9.240  -3.321  11.695  1.00  0.00     0.009 A 
ATOM     62  C   UNL     1      -7.336  -4.362  12.763  1.00  0.00     0.009 A 
ATOM     63  C   UNL     1      -9.235  -2.318  12.667  1.00  0.00     0.001 A 
ATOM     64  C   UNL     1      -7.353  -3.374  13.750  1.00  0.00     0.001 A 
ATOM     65  C   UNL     1      -8.293  -2.347  13.694  1.00  0.00     0.000 A 
ENDBRANCH  46  60
BRANCH  47  66
ATOM     66  C   UNL     1      -7.404 -11.095   4.418  1.00  0.00    -0.014 A 
ATOM     67  C   UNL     1      -8.565 -11.660   3.867  1.00  0.00     0.009 A 
ATOM     68  C   UNL     1      -6.153 -11.494   3.925  1.00  0.00     0.009 A 
ATOM     69  C   UNL     1      -8.474 -12.625   2.862  1.00  0.00     0.001 A 
ATOM     70  C   UNL     1      -6.066 -12.441   2.902  1.00  0.00     0.001 A 
ATOM     71  C   UNL     1      -7.226 -13.011   2.377  1.00  0.00     0.000 A 
ENDBRANCH  47  66
BRANCH  59  72
ATOM     72  C   UNL     1      -9.480 -11.433  11.041  1.00  0.00    -0.014 A 
ATOM     73  C   UNL     1      -8.631 -12.451  11.503  1.00  0.00     0.009 A 
ATOM     74  C   UNL     1     -10.841 -11.474  11.382  1.00  0.00     0.009 A 
ATOM     75  C   UNL     1      -9.145 -13.511  12.252  1.00  0.00     0.001 A 
ATOM     76  C   UNL     1     -11.346 -12.518  12.156  1.00  0.00     0.001 A 
ATOM     77  C   UNL     1     -10.500 -13.542  12.581  1.00  0.00     0.000 A 
ENDBRANCH  59  72
ENDBRANCH  33  34
ENDBRANCH  25  28
ENDBRANCH  23  24
ENDBRANCH  22  23
ENDBRANCH   1  22
TORSDOF 14
