REMARK SMILES C[C@@H](C(=O)NCCCNC(=O)c1ccc(-c2c3nc(c(-c4ccccc4)c4ccc([nH]4)c(-c4ccccc4)c4nc(c(-c5ccccc5)c5ccc2[nH]5)C=C4)C=C3)cc1)c1cc(C(=O)c2ccccc2)ccc1O
REMARK SMILES IDX 6 1 5 2 3 3 4 4 2 6 1 7 60 8 61 9 73 10 62 11 72 12 71 13
REMARK SMILES IDX 74 14 63 16 64 17 65 18 66 19 70 20 67 21 69 22 68 23 7 24
REMARK SMILES IDX 8 25 9 26 10 27 11 29 12 30 13 31 59 32 14 33 58 34 15 35
REMARK SMILES IDX 16 36 17 37 52 38 18 39 57 40 51 41 53 42 19 43 56 44 50 45
REMARK SMILES IDX 49 46 20 48 42 49 27 50 41 51 28 52 31 53 40 54 54 55 29 56
REMARK SMILES IDX 30 57 39 59 55 60 32 61 21 62 22 63 26 64 23 65 25 66 24 67
REMARK SMILES IDX 43 68 44 69 48 70 45 71 47 72 46 73 33 74 34 75 38 76 35 77
REMARK SMILES IDX 37 78 36 79
REMARK H PARENT 5 5 74 15 9 28 53 47 31 58
REMARK Flexibility Score: inf
ROOT
ATOM      1  C   UNL     1       3.535  -0.314   1.945  1.00  0.00     0.117 C 
ENDROOT
BRANCH   1   2
ATOM      2  N   UNL     1       2.498   0.443   2.617  1.00  0.00    -0.356 N 
ATOM      3  C   UNL     1       1.156   0.523   2.385  1.00  0.00     0.227 C 
ATOM      4  O   UNL     1       0.528   1.290   3.116  1.00  0.00    -0.274 OA
ATOM      5  H   UNL     1       2.817   0.993   3.369  1.00  0.00     0.163 HD
BRANCH   3   6
ATOM      6  C   UNL     1       0.513  -0.339   1.285  1.00  0.00     0.109 C 
ATOM      7  C   UNL     1       0.859   0.161  -0.120  1.00  0.00     0.023 C 
BRANCH   6   8
ATOM      8  C   UNL     1      -1.004  -0.464   1.399  1.00  0.00     0.007 A 
ATOM      9  C   UNL     1      -1.797   0.701   1.483  1.00  0.00     0.020 A 
ATOM     10  C   UNL     1      -1.671  -1.697   1.379  1.00  0.00     0.119 A 
ATOM     11  C   UNL     1      -3.193   0.640   1.590  1.00  0.00     0.023 A 
ATOM     12  C   UNL     1      -3.062  -1.768   1.466  1.00  0.00     0.047 A 
ATOM     13  C   UNL     1      -3.825  -0.605   1.558  1.00  0.00     0.016 A 
BRANCH  10  14
ATOM     14  O   UNL     1      -1.037  -2.900   1.255  1.00  0.00    -0.508 OA
ATOM     15  H   UNL     1      -0.103  -2.933   1.191  1.00  0.00     0.293 HD
ENDBRANCH  10  14
BRANCH  11  16
ATOM     16  C   UNL     1      -3.950   1.920   1.679  1.00  0.00     0.193 C 
ATOM     17  O   UNL     1      -3.450   2.954   1.241  1.00  0.00    -0.289 OA
BRANCH  16  18
ATOM     18  C   UNL     1      -5.319   1.976   2.244  1.00  0.00     0.022 A 
ATOM     19  C   UNL     1      -6.263   2.786   1.604  1.00  0.00     0.012 A 
ATOM     20  C   UNL     1      -5.676   1.257   3.391  1.00  0.00     0.012 A 
ATOM     21  C   UNL     1      -7.576   2.831   2.074  1.00  0.00     0.001 A 
ATOM     22  C   UNL     1      -6.992   1.301   3.854  1.00  0.00     0.001 A 
ATOM     23  C   UNL     1      -7.942   2.080   3.191  1.00  0.00     0.000 A 
ENDBRANCH  16  18
ENDBRANCH  11  16
ENDBRANCH   6   8
ENDBRANCH   3   6
ENDBRANCH   1   2
BRANCH   1  24
ATOM     24  C   UNL     1       4.410   0.579   1.071  1.00  0.00     0.042 C 
BRANCH  24  25
ATOM     25  C   UNL     1       5.147   1.670   1.840  1.00  0.00     0.118 C 
BRANCH  25  26
ATOM     26  N   UNL     1       6.149   1.138   2.752  1.00  0.00    -0.352 N 
ATOM     27  C   UNL     1       7.502   1.377   2.792  1.00  0.00     0.251 C 
ATOM     28  H   UNL     1       5.810   0.518   3.438  1.00  0.00     0.163 HD
ATOM     29  O   UNL     1       8.227   0.710   3.523  1.00  0.00    -0.269 OA
BRANCH  27  30
ATOM     30  C   UNL     1       8.084   2.427   1.932  1.00  0.00     0.039 A 
ATOM     31  C   UNL     1       9.227   2.139   1.182  1.00  0.00     0.014 A 
ATOM     32  C   UNL     1       7.489   3.689   1.858  1.00  0.00     0.014 A 
ATOM     33  C   UNL     1       9.731   3.093   0.295  1.00  0.00     0.010 A 
ATOM     34  C   UNL     1       7.946   4.608   0.922  1.00  0.00     0.010 A 
ATOM     35  C   UNL     1       9.071   4.320   0.132  1.00  0.00    -0.014 A 
BRANCH  35  36
ATOM     36  C   UNL     1       9.526   5.340  -0.845  1.00  0.00     0.031 A 
ATOM     37  C   UNL     1       9.968   6.689  -0.355  1.00  0.00     0.074 A 
ATOM     38  C   UNL     1       9.422   5.101  -2.166  1.00  0.00     0.049 A 
ATOM     39  N   UNL     1      10.214   7.778  -1.037  1.00  0.00    -0.248 NA
ATOM     40  C   UNL     1      10.116   6.840   1.101  1.00  0.00     0.031 C 
ATOM     41  C   UNL     1       8.979   3.844  -2.771  1.00  0.00     0.029 A 
ATOM     42  N   UNL     1       9.651   5.926  -3.239  1.00  0.00    -0.354 N 
ATOM     43  C   UNL     1      10.506   8.752  -0.091  1.00  0.00     0.074 A 
ATOM     44  C   UNL     1      10.369   8.134   1.210  1.00  0.00     0.031 C 
ATOM     45  C   UNL     1       8.967   3.981  -4.106  1.00  0.00     0.029 A 
ATOM     46  C   UNL     1       9.352   5.347  -4.448  1.00  0.00     0.049 A 
ATOM     47  H   UNL     1       9.996   6.843  -3.151  1.00  0.00     0.167 HD
ATOM     48  C   UNL     1      10.865  10.043  -0.288  1.00  0.00     0.031 A 
ATOM     49  C   UNL     1       9.358   5.864  -5.692  1.00  0.00     0.031 A 
ATOM     50  C   UNL     1      11.011  10.650  -1.583  1.00  0.00     0.049 A 
ATOM     51  C   UNL     1       9.753   7.300  -5.892  1.00  0.00     0.074 A 
ATOM     52  C   UNL     1      11.428  11.932  -1.893  1.00  0.00     0.029 A 
ATOM     53  N   UNL     1      10.739  10.014  -2.785  1.00  0.00    -0.354 N 
ATOM     54  N   UNL     1      10.079   8.197  -4.993  1.00  0.00    -0.248 NA
ATOM     55  C   UNL     1       9.787   7.793  -7.276  1.00  0.00     0.031 C 
ATOM     56  C   UNL     1      11.363  12.088  -3.281  1.00  0.00     0.029 A 
ATOM     57  C   UNL     1      10.960  10.884  -3.839  1.00  0.00     0.049 A 
ATOM     58  H   UNL     1      10.434   9.082  -2.876  1.00  0.00     0.167 HD
ATOM     59  C   UNL     1      10.387   9.350  -5.702  1.00  0.00     0.074 A 
ATOM     60  C   UNL     1      10.211   9.039  -7.106  1.00  0.00     0.031 C 
ATOM     61  C   UNL     1      10.786  10.557  -5.231  1.00  0.00     0.031 A 
BRANCH  48  62
ATOM     62  C   UNL     1      11.096  10.884   0.937  1.00  0.00    -0.014 A 
ATOM     63  C   UNL     1      12.188  10.651   1.790  1.00  0.00     0.009 A 
ATOM     64  C   UNL     1      10.204  11.922   1.246  1.00  0.00     0.009 A 
ATOM     65  C   UNL     1      12.349  11.404   2.955  1.00  0.00     0.001 A 
ATOM     66  C   UNL     1      10.387  12.696   2.394  1.00  0.00     0.001 A 
ATOM     67  C   UNL     1      11.450  12.426   3.255  1.00  0.00     0.000 A 
ENDBRANCH  48  62
BRANCH  49  68
ATOM     68  C   UNL     1       8.977   5.005  -6.842  1.00  0.00    -0.014 A 
ATOM     69  C   UNL     1       9.955   4.529  -7.728  1.00  0.00     0.009 A 
ATOM     70  C   UNL     1       7.640   4.625  -7.038  1.00  0.00     0.009 A 
ATOM     71  C   UNL     1       9.599   3.699  -8.794  1.00  0.00     0.001 A 
ATOM     72  C   UNL     1       7.291   3.775  -8.089  1.00  0.00     0.001 A 
ATOM     73  C   UNL     1       8.270   3.317  -8.969  1.00  0.00     0.000 A 
ENDBRANCH  49  68
BRANCH  61  74
ATOM     74  C   UNL     1      11.109  11.624  -6.237  1.00  0.00    -0.014 A 
ATOM     75  C   UNL     1      10.098  12.310  -6.926  1.00  0.00     0.009 A 
ATOM     76  C   UNL     1      12.447  12.000  -6.437  1.00  0.00     0.009 A 
ATOM     77  C   UNL     1      10.424  13.343  -7.808  1.00  0.00     0.001 A 
ATOM     78  C   UNL     1      12.768  13.049  -7.299  1.00  0.00     0.001 A 
ATOM     79  C   UNL     1      11.756  13.716  -7.988  1.00  0.00     0.000 A 
ENDBRANCH  61  74
ENDBRANCH  35  36
ENDBRANCH  27  30
ENDBRANCH  25  26
ENDBRANCH  24  25
ENDBRANCH   1  24
TORSDOF 14
