REMARK SMILES Cc1ccccc1OCc1nc2cc(C(=O)NCCCNC(=O)c3ccc(-c4c5nc(c(-c6ccccc6)c6ccc([nH]6)c(-c6ccccc6)c6nc(c(-c7ccccc7)c7ccc4[nH]7)C=C6)C=C5)cc3)ccc2n1C[C@H](C)O
REMARK SMILES IDX 18 1 17 2 15 3 16 4 14 6 10 7 11 8 75 9 12 10 74 11 13 12
REMARK SMILES IDX 73 13 72 14 9 15 8 16 7 17 1 18 2 19 3 20 4 21 6 22 5 23
REMARK SMILES IDX 76 24 77 25 78 26 79 27 19 29 20 30 21 31 22 32 23 34 24 35
REMARK SMILES IDX 25 36 71 37 26 38 70 39 27 40 28 41 29 42 64 43 30 44 69 45
REMARK SMILES IDX 63 46 65 47 31 48 68 49 62 50 61 51 32 53 54 54 39 55 53 56
REMARK SMILES IDX 40 57 43 58 52 59 66 60 41 61 42 62 51 64 67 65 44 66 33 67
REMARK SMILES IDX 34 68 38 69 35 70 37 71 36 72 55 73 56 74 60 75 57 76 59 77
REMARK SMILES IDX 58 78 45 79 46 80 50 81 47 82 49 83 48 84
REMARK H PARENT 17 5 79 28 21 33 65 52 43 63
REMARK Flexibility Score: inf
ROOT
ATOM      1  C   UNL     1      -1.499   3.737  -0.048  1.00  0.00     0.118 C 
ENDROOT
BRANCH   1   2
ATOM      2  N   UNL     1      -2.863   3.763   0.495  1.00  0.00    -0.352 N 
ATOM      3  C   UNL     1      -3.649   2.689   0.890  1.00  0.00     0.251 C 
ATOM      4  O   UNL     1      -4.789   2.830   1.310  1.00  0.00    -0.269 OA
ATOM      5  H   UNL     1      -3.272   4.654   0.592  1.00  0.00     0.163 HD
BRANCH   3   6
ATOM      6  C   UNL     1      -3.015   1.358   0.832  1.00  0.00     0.042 A 
ATOM      7  C   UNL     1      -0.220  -1.086  -1.593  1.00  0.00     0.148 A 
ATOM      8  N   UNL     1      -1.488  -0.763  -1.823  1.00  0.00    -0.229 NA
ATOM      9  N   UNL     1       0.272  -0.230  -0.641  1.00  0.00    -0.322 N 
ATOM     10  C   UNL     1      -1.863  -0.038  -0.708  1.00  0.00     0.090 A 
ATOM     11  C   UNL     1      -0.798   0.032   0.186  1.00  0.00     0.068 A 
ATOM     12  C   UNL     1      -3.031   0.662  -0.391  1.00  0.00     0.044 A 
ATOM     13  C   UNL     1      -0.888   0.470   1.506  1.00  0.00     0.029 A 
ATOM     14  C   UNL     1      -2.062   1.130   1.832  1.00  0.00     0.016 A 
BRANCH   7  15
ATOM     15  C   UNL     1       0.456  -2.405  -1.820  1.00  0.00     0.304 C 
BRANCH  15  16
ATOM     16  O   UNL     1       0.536  -2.980  -0.497  1.00  0.00    -0.485 OA
BRANCH  16  17
ATOM     17  C   UNL     1       1.727  -3.557  -0.161  1.00  0.00     0.122 A 
ATOM     18  C   UNL     1       1.946  -1.968   1.835  1.00  0.00     0.048 C 
ATOM     19  C   UNL     1       2.420  -3.102   0.978  1.00  0.00    -0.009 A 
ATOM     20  C   UNL     1       3.573  -3.783   1.390  1.00  0.00     0.007 A 
ATOM     21  C   UNL     1       4.013  -4.908   0.700  1.00  0.00     0.001 A 
ATOM     22  C   UNL     1       2.167  -4.687  -0.847  1.00  0.00     0.047 A 
ATOM     23  C   UNL     1       3.308  -5.363  -0.412  1.00  0.00     0.004 A 
ENDBRANCH  16  17
ENDBRANCH  15  16
ENDBRANCH   7  15
BRANCH   9  24
ATOM     24  C   UNL     1       1.429   0.650  -0.727  1.00  0.00     0.155 C 
BRANCH  24  25
ATOM     25  C   UNL     1       2.742   0.061  -1.242  1.00  0.00     0.131 C 
ATOM     26  C   UNL     1       3.925   0.801  -0.627  1.00  0.00     0.040 C 
BRANCH  25  27
ATOM     27  O   UNL     1       2.790   0.212  -2.661  1.00  0.00    -0.392 OA
ATOM     28  H   UNL     1       2.741   1.153  -2.889  1.00  0.00     0.211 HD
ENDBRANCH  25  27
ENDBRANCH  24  25
ENDBRANCH   9  24
ENDBRANCH   3   6
ENDBRANCH   1   2
BRANCH   1  29
ATOM     29  C   UNL     1      -1.458   3.311  -1.517  1.00  0.00     0.042 C 
BRANCH  29  30
ATOM     30  C   UNL     1      -1.291   4.473  -2.474  1.00  0.00     0.118 C 
BRANCH  30  31
ATOM     31  N   UNL     1       0.003   4.539  -3.152  1.00  0.00    -0.352 N 
ATOM     32  C   UNL     1       0.467   5.545  -3.987  1.00  0.00     0.251 C 
ATOM     33  H   UNL     1       0.615   3.783  -2.999  1.00  0.00     0.163 HD
ATOM     34  O   UNL     1       1.585   5.492  -4.486  1.00  0.00    -0.269 OA
BRANCH  32  35
ATOM     35  C   UNL     1      -0.371   6.757  -4.145  1.00  0.00     0.039 A 
ATOM     36  C   UNL     1       0.183   7.968  -3.725  1.00  0.00     0.014 A 
ATOM     37  C   UNL     1      -1.744   6.628  -4.340  1.00  0.00     0.014 A 
ATOM     38  C   UNL     1      -0.661   8.945  -3.213  1.00  0.00     0.010 A 
ATOM     39  C   UNL     1      -2.575   7.544  -3.726  1.00  0.00     0.010 A 
ATOM     40  C   UNL     1      -2.020   8.659  -3.087  1.00  0.00    -0.014 A 
BRANCH  40  41
ATOM     41  C   UNL     1      -2.889   9.395  -2.178  1.00  0.00     0.031 A 
ATOM     42  C   UNL     1      -3.902  10.322  -2.706  1.00  0.00     0.074 A 
ATOM     43  C   UNL     1      -2.764   9.250  -0.839  1.00  0.00     0.049 A 
ATOM     44  N   UNL     1      -4.355  11.332  -2.041  1.00  0.00    -0.248 NA
ATOM     45  C   UNL     1      -4.416  10.252  -4.071  1.00  0.00     0.031 C 
ATOM     46  C   UNL     1      -3.683   9.717   0.198  1.00  0.00     0.029 A 
ATOM     47  N   UNL     1      -1.626   8.854  -0.137  1.00  0.00    -0.354 N 
ATOM     48  C   UNL     1      -5.443  11.803  -2.728  1.00  0.00     0.074 A 
ATOM     49  C   UNL     1      -5.324  11.233  -4.047  1.00  0.00     0.031 C 
ATOM     50  C   UNL     1      -3.012   9.827   1.355  1.00  0.00     0.029 A 
ATOM     51  C   UNL     1      -1.610   9.575   1.073  1.00  0.00     0.049 A 
ATOM     52  H   UNL     1      -0.958   8.194  -0.432  1.00  0.00     0.167 HD
ATOM     53  C   UNL     1      -6.413  12.470  -2.046  1.00  0.00     0.031 A 
ATOM     54  C   UNL     1      -0.584  10.421   1.376  1.00  0.00     0.031 A 
ATOM     55  C   UNL     1      -5.989  12.844  -0.692  1.00  0.00     0.049 A 
ATOM     56  C   UNL     1      -0.992  11.871   1.563  1.00  0.00     0.074 A 
ATOM     57  C   UNL     1      -6.396  12.498   0.586  1.00  0.00     0.029 A 
ATOM     58  N   UNL     1      -4.812  13.565  -0.533  1.00  0.00    -0.354 N 
ATOM     59  N   UNL     1      -2.192  12.341   1.362  1.00  0.00    -0.248 NA
ATOM     60  C   UNL     1      -0.035  12.926   1.886  1.00  0.00     0.031 C 
ATOM     61  C   UNL     1      -5.444  13.017   1.513  1.00  0.00     0.029 A 
ATOM     62  C   UNL     1      -4.476  13.699   0.800  1.00  0.00     0.049 A 
ATOM     63  H   UNL     1      -4.283  13.934  -1.278  1.00  0.00     0.167 HD
ATOM     64  C   UNL     1      -2.173  13.713   1.437  1.00  0.00     0.074 A 
ATOM     65  C   UNL     1      -0.796  14.028   1.777  1.00  0.00     0.031 C 
ATOM     66  C   UNL     1      -3.283  14.463   1.156  1.00  0.00     0.031 A 
BRANCH  53  67
ATOM     67  C   UNL     1      -7.843  12.594  -2.534  1.00  0.00    -0.014 A 
ATOM     68  C   UNL     1      -8.804  13.217  -1.717  1.00  0.00     0.009 A 
ATOM     69  C   UNL     1      -8.340  12.021  -3.721  1.00  0.00     0.009 A 
ATOM     70  C   UNL     1     -10.167  13.239  -2.052  1.00  0.00     0.001 A 
ATOM     71  C   UNL     1      -9.693  12.066  -4.080  1.00  0.00     0.001 A 
ATOM     72  C   UNL     1     -10.612  12.665  -3.236  1.00  0.00     0.000 A 
ENDBRANCH  53  67
BRANCH  54  73
ATOM     73  C   UNL     1       0.728   9.982   0.823  1.00  0.00    -0.014 A 
ATOM     74  C   UNL     1       1.305   8.797   1.323  1.00  0.00     0.009 A 
ATOM     75  C   UNL     1       1.211  10.504  -0.384  1.00  0.00     0.009 A 
ATOM     76  C   UNL     1       2.255   8.094   0.578  1.00  0.00     0.001 A 
ATOM     77  C   UNL     1       2.173   9.803  -1.122  1.00  0.00     0.001 A 
ATOM     78  C   UNL     1       2.667   8.583  -0.659  1.00  0.00     0.000 A 
ENDBRANCH  54  73
BRANCH  66  79
ATOM     79  C   UNL     1      -3.376  15.980   1.121  1.00  0.00    -0.014 A 
ATOM     80  C   UNL     1      -2.483  16.862   1.741  1.00  0.00     0.009 A 
ATOM     81  C   UNL     1      -4.476  16.584   0.463  1.00  0.00     0.009 A 
ATOM     82  C   UNL     1      -2.630  18.256   1.637  1.00  0.00     0.001 A 
ATOM     83  C   UNL     1      -4.639  17.969   0.369  1.00  0.00     0.001 A 
ATOM     84  C   UNL     1      -3.702  18.809   0.945  1.00  0.00     0.000 A 
ENDBRANCH  66  79
ENDBRANCH  40  41
ENDBRANCH  32  35
ENDBRANCH  30  31
ENDBRANCH  29  30
ENDBRANCH   1  29
TORSDOF 16
