REMARK SMILES O=C(CSc1ccnc(C(=O)NCCCNC(=O)c2ccc(-c3c4nc(c(-c5ccccc5)c5ccc([nH]5)c(-c5ccccc5)c5nc(c(-c6ccccc6)c6ccc3[nH]6)C=C5)C=C4)cc2)c1)NCC(F)(F)F
REMARK SMILES IDX 10 1 11 2 12 3 9 5 5 6 6 7 67 8 7 9 8 10 4 11 3 12 2 13 1 14
REMARK SMILES IDX 68 15 69 17 70 18 71 19 72 20 73 21 13 22 14 23 15 24 16 25
REMARK SMILES IDX 17 26 18 28 19 29 20 30 66 31 21 32 65 33 22 34 23 35 24 36
REMARK SMILES IDX 59 37 25 38 64 39 58 40 60 41 26 42 63 43 57 44 56 45 27 47
REMARK SMILES IDX 49 48 34 49 48 50 35 51 38 52 47 53 61 54 36 55 37 56 46 58
REMARK SMILES IDX 62 59 39 60 28 61 29 62 33 63 30 64 32 65 31 66 50 67 51 68
REMARK SMILES IDX 55 69 52 70 54 71 53 72 40 73 41 74 45 75 42 76 44 77 43 78
REMARK H PARENT 12 4 68 16 16 27 60 46 38 57
REMARK Flexibility Score: inf
ROOT
ATOM      1  C   UNL     1      -0.123   4.384   1.410  1.00  0.00     0.269 C 
ATOM      2  O   UNL     1      -0.494   5.444   1.920  1.00  0.00    -0.268 OA
ATOM      3  N   UNL     1      -0.976   3.313   1.563  1.00  0.00    -0.351 N 
ATOM      4  H   UNL     1      -1.776   3.515   2.099  1.00  0.00     0.163 HD
ENDROOT
BRANCH   1   5
ATOM      5  C   UNL     1       1.190   4.329   0.667  1.00  0.00     0.129 A 
ATOM      6  C   UNL     1       3.218   3.293  -0.101  1.00  0.00     0.012 A 
ATOM      7  C   UNL     1       3.633   4.530  -0.585  1.00  0.00     0.035 A 
ATOM      8  C   UNL     1       1.989   3.196   0.559  1.00  0.00     0.049 A 
ATOM      9  C   UNL     1       2.792   5.612  -0.421  1.00  0.00     0.113 A 
ATOM     10  N   UNL     1       1.589   5.533   0.176  1.00  0.00    -0.251 NA
BRANCH   6  11
ATOM     11  S   UNL     1       4.351   1.916  -0.247  1.00  0.00    -0.116 SA
BRANCH  11  12
ATOM     12  C   UNL     1       3.322   0.668  -1.104  1.00  0.00     0.174 C 
BRANCH  12  13
ATOM     13  C   UNL     1       2.522  -0.175  -0.126  1.00  0.00     0.230 C 
ATOM     14  O   UNL     1       1.354  -0.480  -0.354  1.00  0.00    -0.274 OA
ATOM     15  N   UNL     1       3.196  -0.596   0.997  1.00  0.00    -0.346 N 
ATOM     16  H   UNL     1       4.155  -0.386   1.073  1.00  0.00     0.163 HD
BRANCH  15  17
ATOM     17  C   UNL     1       2.558  -1.343   2.086  1.00  0.00     0.231 C 
BRANCH  17  18
ATOM     18  C   UNL     1       3.267  -2.627   2.509  1.00  0.00     0.405 C 
ATOM     19  F   UNL     1       4.566  -2.383   2.799  1.00  0.00    -0.169 F 
ATOM     20  F   UNL     1       2.692  -3.143   3.619  1.00  0.00    -0.169 F 
ATOM     21  F   UNL     1       3.225  -3.567   1.544  1.00  0.00    -0.169 F 
ENDBRANCH  17  18
ENDBRANCH  15  17
ENDBRANCH  12  13
ENDBRANCH  11  12
ENDBRANCH   6  11
ENDBRANCH   1   5
BRANCH   3  22
ATOM     22  C   UNL     1      -0.920   1.947   1.085  1.00  0.00     0.118 C 
BRANCH  22  23
ATOM     23  C   UNL     1      -0.306   1.030   2.141  1.00  0.00     0.042 C 
BRANCH  23  24
ATOM     24  C   UNL     1      -1.304   0.310   3.039  1.00  0.00     0.118 C 
BRANCH  24  25
ATOM     25  N   UNL     1      -2.083  -0.680   2.314  1.00  0.00    -0.352 N 
ATOM     26  C   UNL     1      -2.334  -2.006   2.549  1.00  0.00     0.251 C 
ATOM     27  H   UNL     1      -2.513  -0.332   1.500  1.00  0.00     0.163 HD
ATOM     28  O   UNL     1      -2.936  -2.643   1.681  1.00  0.00    -0.269 OA
BRANCH  26  29
ATOM     29  C   UNL     1      -1.901  -2.708   3.783  1.00  0.00     0.039 A 
ATOM     30  C   UNL     1      -1.640  -4.082   3.689  1.00  0.00     0.014 A 
ATOM     31  C   UNL     1      -1.823  -2.089   5.033  1.00  0.00     0.014 A 
ATOM     32  C   UNL     1      -1.285  -4.817   4.824  1.00  0.00     0.010 A 
ATOM     33  C   UNL     1      -1.388  -2.806   6.152  1.00  0.00     0.010 A 
ATOM     34  C   UNL     1      -1.135  -4.181   6.065  1.00  0.00    -0.014 A 
BRANCH  34  35
ATOM     35  C   UNL     1      -0.737  -4.961   7.267  1.00  0.00     0.031 A 
ATOM     36  C   UNL     1      -1.682  -5.121   8.430  1.00  0.00     0.074 A 
ATOM     37  C   UNL     1       0.486  -5.523   7.320  1.00  0.00     0.049 A 
ATOM     38  N   UNL     1      -1.515  -5.793   9.543  1.00  0.00    -0.248 NA
ATOM     39  C   UNL     1      -2.973  -4.420   8.342  1.00  0.00     0.031 C 
ATOM     40  C   UNL     1       1.514  -5.412   6.283  1.00  0.00     0.029 A 
ATOM     41  N   UNL     1       1.068  -6.309   8.283  1.00  0.00    -0.354 N 
ATOM     42  C   UNL     1      -2.668  -5.582  10.290  1.00  0.00     0.074 A 
ATOM     43  C   UNL     1      -3.506  -4.683   9.526  1.00  0.00     0.031 C 
ATOM     44  C   UNL     1       2.583  -6.140   6.645  1.00  0.00     0.029 A 
ATOM     45  C   UNL     1       2.328  -6.742   7.950  1.00  0.00     0.049 A 
ATOM     46  H   UNL     1       0.624  -6.541   9.130  1.00  0.00     0.167 HD
ATOM     47  C   UNL     1      -3.011  -6.103  11.493  1.00  0.00     0.031 A 
ATOM     48  C   UNL     1       3.182  -7.544   8.614  1.00  0.00     0.031 A 
ATOM     49  C   UNL     1      -2.189  -7.008  12.252  1.00  0.00     0.049 A 
ATOM     50  C   UNL     1       2.771  -8.126   9.937  1.00  0.00     0.074 A 
ATOM     51  C   UNL     1      -2.470  -7.626  13.459  1.00  0.00     0.029 A 
ATOM     52  N   UNL     1      -0.923  -7.428  11.874  1.00  0.00    -0.354 N 
ATOM     53  N   UNL     1       1.651  -7.964  10.599  1.00  0.00    -0.248 NA
ATOM     54  C   UNL     1       3.737  -9.017  10.592  1.00  0.00     0.031 C 
ATOM     55  C   UNL     1      -1.357  -8.389  13.831  1.00  0.00     0.029 A 
ATOM     56  C   UNL     1      -0.404  -8.285  12.831  1.00  0.00     0.049 A 
ATOM     57  H   UNL     1      -0.461  -7.157  11.048  1.00  0.00     0.167 HD
ATOM     58  C   UNL     1       1.767  -8.754  11.735  1.00  0.00     0.074 A 
ATOM     59  C   UNL     1       3.058  -9.408  11.661  1.00  0.00     0.031 C 
ATOM     60  C   UNL     1       0.883  -8.924  12.748  1.00  0.00     0.031 A 
BRANCH  47  61
ATOM     61  C   UNL     1      -4.341  -5.696  12.068  1.00  0.00    -0.014 A 
ATOM     62  C   UNL     1      -5.545  -6.152  11.509  1.00  0.00     0.009 A 
ATOM     63  C   UNL     1      -4.390  -4.869  13.201  1.00  0.00     0.009 A 
ATOM     64  C   UNL     1      -6.772  -5.757  12.048  1.00  0.00     0.001 A 
ATOM     65  C   UNL     1      -5.617  -4.498  13.755  1.00  0.00     0.001 A 
ATOM     66  C   UNL     1      -6.806  -4.933  13.172  1.00  0.00     0.000 A 
ENDBRANCH  47  61
BRANCH  48  67
ATOM     67  C   UNL     1       4.500  -7.879   8.017  1.00  0.00    -0.014 A 
ATOM     68  C   UNL     1       4.747  -9.166   7.516  1.00  0.00     0.009 A 
ATOM     69  C   UNL     1       5.518  -6.915   7.946  1.00  0.00     0.009 A 
ATOM     70  C   UNL     1       5.995  -9.489   6.978  1.00  0.00     0.001 A 
ATOM     71  C   UNL     1       6.755  -7.234   7.383  1.00  0.00     0.001 A 
ATOM     72  C   UNL     1       6.996  -8.522   6.909  1.00  0.00     0.000 A 
ENDBRANCH  48  67
BRANCH  60  73
ATOM     73  C   UNL     1       1.273  -9.881  13.839  1.00  0.00    -0.014 A 
ATOM     74  C   UNL     1       2.274  -9.560  14.769  1.00  0.00     0.009 A 
ATOM     75  C   UNL     1       0.621 -11.119  13.942  1.00  0.00     0.009 A 
ATOM     76  C   UNL     1       2.644 -10.479  15.753  1.00  0.00     0.001 A 
ATOM     77  C   UNL     1       0.972 -12.024  14.944  1.00  0.00     0.001 A 
ATOM     78  C   UNL     1       1.992 -11.708  15.841  1.00  0.00     0.000 A 
ENDBRANCH  60  73
ENDBRANCH  34  35
ENDBRANCH  26  29
ENDBRANCH  24  25
ENDBRANCH  23  24
ENDBRANCH  22  23
ENDBRANCH   3  22
TORSDOF 15
