REMARK SMILES CC1(C)O[C@H]2C[C@H]3[C@@H]4CCC5=CC(=O)C=C[C@]5(C)[C@@]4(F)[C@H](O)C[C@@]3(C)[C@@]2(C(=O)NCCCNC(=O)c2ccc(-c3c4nc(c(-c5ccccc5)c5ccc([nH]5)c(-c5ccccc5)c5nc(c(-c6ccccc6)c6ccc3[nH]6)C=C5)C=C4)cc2)O1
REMARK SMILES IDX 31 1 30 2 29 3 27 4 28 5 26 7 1 8 2 9 3 10 4 11 84 12 5 13
REMARK SMILES IDX 6 14 24 15 7 16 23 17 25 18 8 19 21 20 9 21 19 22 10 23
REMARK SMILES IDX 17 24 20 25 11 26 16 27 18 28 12 29 15 30 13 31 14 32 22 33
REMARK SMILES IDX 32 35 33 36 34 37 35 39 36 40 37 41 83 42 38 43 82 44 39 45
REMARK SMILES IDX 40 46 41 47 76 48 42 49 81 50 75 51 77 52 43 53 80 54 74 55
REMARK SMILES IDX 73 56 44 58 66 59 51 60 65 61 52 62 55 63 64 64 78 65 53 66
REMARK SMILES IDX 54 67 63 69 79 70 56 71 45 72 46 73 50 74 47 75 49 76 48 77
REMARK SMILES IDX 67 78 68 79 72 80 69 81 71 82 70 83 57 84 58 85 62 86 59 87
REMARK SMILES IDX 61 88 60 89
REMARK H PARENT 29 6 22 34 33 38 77 57 55 68
REMARK Flexibility Score: inf
ROOT
ATOM      1  C   UNL     1       0.105   4.177   3.912  1.00  0.00     0.042 C 
ENDROOT
BRANCH   1   2
ATOM      2  C   UNL     1       0.885   3.053   4.556  1.00  0.00     0.117 C 
BRANCH   2   3
ATOM      3  N   UNL     1       0.178   1.914   5.082  1.00  0.00    -0.353 N 
ATOM      4  C   UNL     1       0.543   0.590   4.913  1.00  0.00     0.255 C 
ATOM      5  O   UNL     1       0.016  -0.252   5.642  1.00  0.00    -0.272 OA
ATOM      6  H   UNL     1      -0.635   2.093   5.607  1.00  0.00     0.163 HD
BRANCH   4   7
ATOM      7  C   UNL     1       1.539   0.206   3.785  1.00  0.00     0.181 C 
ATOM      8  C   UNL     1       0.661  -0.375   0.401  1.00  0.00     0.075 C 
ATOM      9  C   UNL     1       0.290  -0.361   1.890  1.00  0.00     0.164 C 
ATOM     10  C   UNL     1      -1.219  -0.209   2.024  1.00  0.00     0.075 C 
ATOM     11  O   UNL     1       0.671  -1.612   2.463  1.00  0.00    -0.344 OA
ATOM     12  O   UNL     1       0.955   0.738   2.554  1.00  0.00    -0.331 OA
ATOM     13  C   UNL     1       1.633  -1.343   3.484  1.00  0.00     0.164 C 
ATOM     14  C   UNL     1       3.104  -1.619   2.902  1.00  0.00     0.040 C 
ATOM     15  C   UNL     1       3.094   0.547   3.966  1.00  0.00     0.014 C 
ATOM     16  C   UNL     1       3.595  -0.181   2.673  1.00  0.00     0.008 C 
ATOM     17  C   UNL     1       3.773   1.924   4.049  1.00  0.00     0.046 C 
ATOM     18  C   UNL     1       3.524  -0.103   5.328  1.00  0.00     0.015 C 
ATOM     19  C   UNL     1       4.157   0.629   1.447  1.00  0.00     0.035 C 
ATOM     20  C   UNL     1       3.857   2.745   2.777  1.00  0.00     0.154 C 
ATOM     21  C   UNL     1       4.996  -0.150   0.446  1.00  0.00     0.012 C 
ATOM     22  C   UNL     1       4.714   2.049   1.689  1.00  0.00     0.152 C 
ATOM     23  C   UNL     1       4.864   0.540  -0.920  1.00  0.00     0.032 C 
ATOM     24  C   UNL     1       4.749   2.877   0.321  1.00  0.00     0.044 C 
ATOM     25  F   UNL     1       5.989   1.896   2.162  1.00  0.00    -0.239 F 
ATOM     26  C   UNL     1       5.171   2.021  -0.898  1.00  0.00    -0.053 C 
ATOM     27  C   UNL     1       5.655   4.107   0.402  1.00  0.00    -0.009 C 
ATOM     28  C   UNL     1       3.328   3.442  -0.018  1.00  0.00     0.024 C 
ATOM     29  C   UNL     1       5.723   2.597  -1.986  1.00  0.00     0.052 C 
ATOM     30  C   UNL     1       6.217   4.677  -0.674  1.00  0.00     0.048 C 
ATOM     31  C   UNL     1       6.060   4.039  -1.996  1.00  0.00     0.178 C 
ATOM     32  O   UNL     1       6.247   4.652  -3.038  1.00  0.00    -0.290 OA
BRANCH  20  33
ATOM     33  O   UNL     1       4.369   4.037   3.114  1.00  0.00    -0.390 OA
ATOM     34  H   UNL     1       5.255   3.943   3.499  1.00  0.00     0.211 HD
ENDBRANCH  20  33
ENDBRANCH   4   7
ENDBRANCH   2   3
ENDBRANCH   1   2
BRANCH   1  35
ATOM     35  C   UNL     1      -0.360   5.252   4.878  1.00  0.00     0.118 C 
BRANCH  35  36
ATOM     36  N   UNL     1       0.727   5.903   5.613  1.00  0.00    -0.352 N 
ATOM     37  C   UNL     1       1.165   7.208   5.643  1.00  0.00     0.251 C 
ATOM     38  H   UNL     1       1.239   5.295   6.193  1.00  0.00     0.163 HD
ATOM     39  O   UNL     1       2.186   7.480   6.272  1.00  0.00    -0.269 OA
BRANCH  37  40
ATOM     40  C   UNL     1       0.456   8.272   4.900  1.00  0.00     0.039 A 
ATOM     41  C   UNL     1       1.198   9.275   4.266  1.00  0.00     0.014 A 
ATOM     42  C   UNL     1      -0.934   8.280   4.803  1.00  0.00     0.014 A 
ATOM     43  C   UNL     1       0.556  10.194   3.431  1.00  0.00     0.010 A 
ATOM     44  C   UNL     1      -1.557   9.111   3.881  1.00  0.00     0.010 A 
ATOM     45  C   UNL     1      -0.817  10.068   3.171  1.00  0.00    -0.014 A 
BRANCH  45  46
ATOM     46  C   UNL     1      -1.505  10.882   2.137  1.00  0.00     0.031 A 
ATOM     47  C   UNL     1      -2.678  11.747   2.507  1.00  0.00     0.074 A 
ATOM     48  C   UNL     1      -1.148  10.749   0.844  1.00  0.00     0.049 A 
ATOM     49  N   UNL     1      -3.489  12.417   1.728  1.00  0.00    -0.248 NA
ATOM     50  C   UNL     1      -3.006  11.841   3.939  1.00  0.00     0.031 C 
ATOM     51  C   UNL     1      -0.058   9.908   0.343  1.00  0.00     0.029 A 
ATOM     52  N   UNL     1      -1.677  11.312  -0.291  1.00  0.00    -0.354 N 
ATOM     53  C   UNL     1      -4.432  12.990   2.571  1.00  0.00     0.074 A 
ATOM     54  C   UNL     1      -4.128  12.543   3.913  1.00  0.00     0.031 C 
ATOM     55  C   UNL     1       0.022  10.037  -0.990  1.00  0.00     0.029 A 
ATOM     56  C   UNL     1      -1.043  10.921  -1.447  1.00  0.00     0.049 A 
ATOM     57  H   UNL     1      -2.439  11.935  -0.279  1.00  0.00     0.167 HD
ATOM     58  C   UNL     1      -5.449  13.829   2.261  1.00  0.00     0.031 A 
ATOM     59  C   UNL     1      -1.298  11.227  -2.732  1.00  0.00     0.031 A 
ATOM     60  C   UNL     1      -5.744  14.282   0.928  1.00  0.00     0.049 A 
ATOM     61  C   UNL     1      -2.452  12.132  -3.056  1.00  0.00     0.074 A 
ATOM     62  C   UNL     1      -6.708  15.185   0.518  1.00  0.00     0.029 A 
ATOM     63  N   UNL     1      -5.080  13.858  -0.212  1.00  0.00    -0.354 N 
ATOM     64  N   UNL     1      -3.292  12.721  -2.240  1.00  0.00    -0.248 NA
ATOM     65  C   UNL     1      -2.693  12.414  -4.478  1.00  0.00     0.031 C 
ATOM     66  C   UNL     1      -6.666  15.264  -0.878  1.00  0.00     0.029 A 
ATOM     67  C   UNL     1      -5.637  14.454  -1.331  1.00  0.00     0.049 A 
ATOM     68  H   UNL     1      -4.324  13.228  -0.225  1.00  0.00     0.167 HD
ATOM     69  C   UNL     1      -4.149  13.458  -3.046  1.00  0.00     0.074 A 
ATOM     70  C   UNL     1      -3.716  13.255  -4.414  1.00  0.00     0.031 C 
ATOM     71  C   UNL     1      -5.202  14.232  -2.686  1.00  0.00     0.031 A 
BRANCH  58  72
ATOM     72  C   UNL     1      -6.321  14.302   3.392  1.00  0.00    -0.014 A 
ATOM     73  C   UNL     1      -5.828  15.172   4.379  1.00  0.00     0.009 A 
ATOM     74  C   UNL     1      -7.659  13.884   3.465  1.00  0.00     0.009 A 
ATOM     75  C   UNL     1      -6.642  15.574   5.440  1.00  0.00     0.001 A 
ATOM     76  C   UNL     1      -8.480  14.315   4.509  1.00  0.00     0.001 A 
ATOM     77  C   UNL     1      -7.968  15.148   5.502  1.00  0.00     0.000 A 
ENDBRANCH  58  72
BRANCH  59  78
ATOM     78  C   UNL     1      -0.434  10.679  -3.811  1.00  0.00    -0.014 A 
ATOM     79  C   UNL     1       0.447  11.521  -4.506  1.00  0.00     0.009 A 
ATOM     80  C   UNL     1      -0.471   9.315  -4.141  1.00  0.00     0.009 A 
ATOM     81  C   UNL     1       1.260  11.013  -5.521  1.00  0.00     0.001 A 
ATOM     82  C   UNL     1       0.364   8.804  -5.137  1.00  0.00     0.001 A 
ATOM     83  C   UNL     1       1.223   9.654  -5.831  1.00  0.00     0.000 A 
ENDBRANCH  59  78
BRANCH  71  84
ATOM     84  C   UNL     1      -5.949  14.930  -3.786  1.00  0.00    -0.014 A 
ATOM     85  C   UNL     1      -6.799  14.220  -4.649  1.00  0.00     0.009 A 
ATOM     86  C   UNL     1      -5.840  16.322  -3.929  1.00  0.00     0.009 A 
ATOM     87  C   UNL     1      -7.507  14.890  -5.649  1.00  0.00     0.001 A 
ATOM     88  C   UNL     1      -6.571  16.992  -4.911  1.00  0.00     0.001 A 
ATOM     89  C   UNL     1      -7.398  16.274  -5.775  1.00  0.00     0.000 A 
ENDBRANCH  71  84
ENDBRANCH  45  46
ENDBRANCH  37  40
ENDBRANCH  35  36
ENDBRANCH   1  35
TORSDOF 11
