REMARK SMILES CC[C@@H]1SC[C@H](C(=O)NCCCNC(=O)c2ccc(-c3c4nc(c(-c5ccccc5)c5ccc([nH]5)c(-c5ccccc5)c5nc(c(-c6ccccc6)c6ccc3[nH]6)C=C5)C=C4)cc2)N1C(=O)[C@](C)([NH3+])C(F)(F)F
REMARK SMILES IDX 10 1 9 2 7 3 8 4 6 6 3 7 4 8 64 9 5 10 2 11 1 12 65 13 66 14
REMARK SMILES IDX 67 15 68 16 69 17 70 21 71 22 72 23 73 24 11 25 12 26 13 27
REMARK SMILES IDX 14 28 15 30 16 31 17 32 63 33 18 34 62 35 19 36 20 37 21 38
REMARK SMILES IDX 56 39 22 40 61 41 55 42 57 43 23 44 60 45 54 46 53 47 24 49
REMARK SMILES IDX 46 50 31 51 45 52 32 53 35 54 44 55 58 56 33 57 34 58 43 60
REMARK SMILES IDX 59 61 36 62 25 63 26 64 30 65 27 66 29 67 28 68 47 69 48 70
REMARK SMILES IDX 52 71 49 72 51 73 50 74 37 75 38 76 42 77 39 78 41 79 40 80
REMARK H PARENT 9 5 69 18 69 19 69 20 13 29 57 48 35 59
REMARK Flexibility Score: inf
ROOT
ATOM      1  C   UNL     1      -3.238  -3.660   2.155  1.00  0.00     0.117 C 
ENDROOT
BRANCH   1   2
ATOM      2  N   UNL     1      -2.979  -3.047   3.445  1.00  0.00    -0.354 N 
ATOM      3  C   UNL     1      -2.364  -1.857   3.747  1.00  0.00     0.243 C 
ATOM      4  O   UNL     1      -2.525  -1.421   4.890  1.00  0.00    -0.273 OA
ATOM      5  H   UNL     1      -3.292  -3.564   4.223  1.00  0.00     0.163 HD
BRANCH   3   6
ATOM      6  C   UNL     1      -1.498  -1.110   2.696  1.00  0.00     0.185 C 
ATOM      7  C   UNL     1      -0.681   1.218   2.408  1.00  0.00     0.144 C 
ATOM      8  S   UNL     1      -1.394   0.705   0.811  1.00  0.00    -0.134 SA
ATOM      9  N   UNL     1      -0.752   0.052   3.294  1.00  0.00    -0.312 N 
ATOM     10  C   UNL     1      -2.365  -0.608   1.550  1.00  0.00     0.107 C 
BRANCH   7  11
ATOM     11  C   UNL     1      -1.385   2.514   2.840  1.00  0.00     0.033 C 
ATOM     12  C   UNL     1      -2.811   2.401   3.350  1.00  0.00     0.007 C 
ENDBRANCH   7  11
BRANCH   9  13
ATOM     13  C   UNL     1       0.234  -0.293   4.215  1.00  0.00     0.294 C 
ATOM     14  O   UNL     1       0.572  -1.491   4.283  1.00  0.00    -0.267 OA
BRANCH  13  15
ATOM     15  C   UNL     1       0.915   0.683   5.233  1.00  0.00     0.267 C 
ATOM     16  C   UNL     1       1.209   2.129   4.851  1.00  0.00     0.100 C 
BRANCH  15  17
ATOM     17  N   UNL     1       2.299   0.105   5.496  1.00  0.00    -0.337 N 
ATOM     18  H   UNL     1       2.797   0.701   6.157  1.00  0.00     0.345 HD
ATOM     19  H   UNL     1       2.820   0.059   4.620  1.00  0.00     0.345 HD
ATOM     20  H   UNL     1       2.207  -0.833   5.886  1.00  0.00     0.345 HD
ENDBRANCH  15  17
BRANCH  15  21
ATOM     21  C   UNL     1      -0.018   0.669   6.474  1.00  0.00     0.453 C 
ATOM     22  F   UNL     1       0.487   1.449   7.467  1.00  0.00    -0.164 F 
ATOM     23  F   UNL     1      -1.241   1.169   6.183  1.00  0.00    -0.164 F 
ATOM     24  F   UNL     1      -0.176  -0.567   6.994  1.00  0.00    -0.164 F 
ENDBRANCH  15  21
ENDBRANCH  13  15
ENDBRANCH   9  13
ENDBRANCH   3   6
ENDBRANCH   1   2
BRANCH   1  25
ATOM     25  C   UNL     1      -3.081  -5.175   2.104  1.00  0.00     0.042 C 
BRANCH  25  26
ATOM     26  C   UNL     1      -3.941  -5.991   3.059  1.00  0.00     0.118 C 
BRANCH  26  27
ATOM     27  N   UNL     1      -5.372  -5.865   2.828  1.00  0.00    -0.352 N 
ATOM     28  C   UNL     1      -6.329  -6.782   2.458  1.00  0.00     0.251 C 
ATOM     29  H   UNL     1      -5.720  -4.954   2.961  1.00  0.00     0.163 HD
ATOM     30  O   UNL     1      -7.471  -6.380   2.243  1.00  0.00    -0.269 OA
BRANCH  28  31
ATOM     31  C   UNL     1      -6.029  -8.227   2.280  1.00  0.00     0.039 A 
ATOM     32  C   UNL     1      -6.726  -8.933   1.290  1.00  0.00     0.014 A 
ATOM     33  C   UNL     1      -5.133  -8.918   3.097  1.00  0.00     0.014 A 
ATOM     34  C   UNL     1      -6.484 -10.296   1.087  1.00  0.00     0.010 A 
ATOM     35  C   UNL     1      -4.817 -10.251   2.829  1.00  0.00     0.010 A 
ATOM     36  C   UNL     1      -5.503 -10.964   1.835  1.00  0.00    -0.014 A 
BRANCH  36  37
ATOM     37  C   UNL     1      -5.220 -12.410   1.625  1.00  0.00     0.031 A 
ATOM     38  C   UNL     1      -5.447 -13.400   2.739  1.00  0.00     0.074 A 
ATOM     39  C   UNL     1      -4.716 -12.837   0.450  1.00  0.00     0.049 A 
ATOM     40  N   UNL     1      -5.227 -14.692   2.757  1.00  0.00    -0.248 NA
ATOM     41  C   UNL     1      -5.960 -12.865   4.011  1.00  0.00     0.031 C 
ATOM     42  C   UNL     1      -4.399 -11.986  -0.699  1.00  0.00     0.029 A 
ATOM     43  N   UNL     1      -4.381 -14.101   0.028  1.00  0.00    -0.354 N 
ATOM     44  C   UNL     1      -5.546 -15.113   4.043  1.00  0.00     0.074 A 
ATOM     45  C   UNL     1      -5.923 -13.934   4.791  1.00  0.00     0.031 C 
ATOM     46  C   UNL     1      -3.953 -12.755  -1.706  1.00  0.00     0.029 A 
ATOM     47  C   UNL     1      -3.922 -14.146  -1.267  1.00  0.00     0.049 A 
ATOM     48  H   UNL     1      -4.463 -14.898   0.599  1.00  0.00     0.167 HD
ATOM     49  C   UNL     1      -5.552 -16.367   4.555  1.00  0.00     0.031 A 
ATOM     50  C   UNL     1      -3.530 -15.191  -2.020  1.00  0.00     0.031 A 
ATOM     51  C   UNL     1      -5.211 -17.549   3.810  1.00  0.00     0.049 A 
ATOM     52  C   UNL     1      -3.581 -16.579  -1.443  1.00  0.00     0.074 A 
ATOM     53  C   UNL     1      -5.241 -18.870   4.224  1.00  0.00     0.029 A 
ATOM     54  N   UNL     1      -4.787 -17.552   2.492  1.00  0.00    -0.354 N 
ATOM     55  N   UNL     1      -3.945 -16.963  -0.244  1.00  0.00    -0.248 NA
ATOM     56  C   UNL     1      -3.186 -17.678  -2.335  1.00  0.00     0.031 C 
ATOM     57  C   UNL     1      -4.804 -19.671   3.163  1.00  0.00     0.029 A 
ATOM     58  C   UNL     1      -4.546 -18.851   2.076  1.00  0.00     0.049 A 
ATOM     59  H   UNL     1      -4.673 -16.750   1.933  1.00  0.00     0.167 HD
ATOM     60  C   UNL     1      -3.855 -18.349  -0.248  1.00  0.00     0.074 A 
ATOM     61  C   UNL     1      -3.415 -18.738  -1.572  1.00  0.00     0.031 C 
ATOM     62  C   UNL     1      -4.116 -19.222   0.755  1.00  0.00     0.031 A 
BRANCH  49  63
ATOM     63  C   UNL     1      -5.948 -16.520   5.998  1.00  0.00    -0.014 A 
ATOM     64  C   UNL     1      -7.274 -16.317   6.413  1.00  0.00     0.009 A 
ATOM     65  C   UNL     1      -4.987 -16.886   6.953  1.00  0.00     0.009 A 
ATOM     66  C   UNL     1      -7.621 -16.436   7.761  1.00  0.00     0.001 A 
ATOM     67  C   UNL     1      -5.342 -17.033   8.295  1.00  0.00     0.001 A 
ATOM     68  C   UNL     1      -6.656 -16.797   8.700  1.00  0.00     0.000 A 
ENDBRANCH  49  63
BRANCH  50  69
ATOM     69  C   UNL     1      -3.096 -14.976  -3.425  1.00  0.00    -0.014 A 
ATOM     70  C   UNL     1      -3.921 -15.373  -4.489  1.00  0.00     0.009 A 
ATOM     71  C   UNL     1      -1.857 -14.385  -3.710  1.00  0.00     0.009 A 
ATOM     72  C   UNL     1      -3.501 -15.209  -5.810  1.00  0.00     0.001 A 
ATOM     73  C   UNL     1      -1.450 -14.198  -5.034  1.00  0.00     0.001 A 
ATOM     74  C   UNL     1      -2.268 -14.618  -6.082  1.00  0.00     0.000 A 
ENDBRANCH  50  69
BRANCH  62  75
ATOM     75  C   UNL     1      -3.978 -20.685   0.442  1.00  0.00    -0.014 A 
ATOM     76  C   UNL     1      -2.718 -21.282   0.281  1.00  0.00     0.009 A 
ATOM     77  C   UNL     1      -5.129 -21.480   0.332  1.00  0.00     0.009 A 
ATOM     78  C   UNL     1      -2.617 -22.641  -0.024  1.00  0.00     0.001 A 
ATOM     79  C   UNL     1      -5.023 -22.844   0.055  1.00  0.00     0.001 A 
ATOM     80  C   UNL     1      -3.768 -23.421  -0.134  1.00  0.00     0.000 A 
ENDBRANCH  62  75
ENDBRANCH  36  37
ENDBRANCH  28  31
ENDBRANCH  26  27
ENDBRANCH  25  26
ENDBRANCH   1  25
TORSDOF 15
