REMARK SMILES C[C@H]1[C@@H](C(=O)NCCCNC(=O)c2ccc(-c3c4nc(c(-c5ccccc5)c5ccc([nH]5)c(-c5ccccc5)c5nc(c(-c6ccccc6)c6ccc3[nH]6)C=C5)C=C4)cc2)CCN1C(=O)c1n[nH]c(N)n1
REMARK SMILES IDX 7 1 6 2 4 3 5 4 3 6 1 7 2 8 63 9 61 10 62 11 64 12 65 13
REMARK SMILES IDX 66 14 67 15 71 16 68 17 69 18 70 20 8 23 9 24 10 25 11 26
REMARK SMILES IDX 12 28 13 29 14 30 60 31 15 32 59 33 16 34 17 35 18 36 53 37
REMARK SMILES IDX 19 38 58 39 52 40 54 41 20 42 57 43 51 44 50 45 21 47 43 48
REMARK SMILES IDX 28 49 42 50 29 51 32 52 41 53 55 54 30 55 31 56 40 58 56 59
REMARK SMILES IDX 33 60 22 61 23 62 27 63 24 64 26 65 25 66 44 67 45 68 49 69
REMARK SMILES IDX 46 70 48 71 47 72 34 73 35 74 39 75 36 76 38 77 37 78
REMARK H PARENT 6 5 68 19 70 21 70 22 10 27 54 46 32 57
REMARK Flexibility Score: inf
ROOT
ATOM      1  C   UNL     1       2.763   1.959  -1.194  1.00  0.00     0.117 C 
ENDROOT
BRANCH   1   2
ATOM      2  N   UNL     1       1.559   1.567  -1.911  1.00  0.00    -0.356 N 
ATOM      3  C   UNL     1       0.390   1.039  -1.438  1.00  0.00     0.225 C 
ATOM      4  O   UNL     1      -0.510   0.821  -2.249  1.00  0.00    -0.275 OA
ATOM      5  H   UNL     1       1.591   1.703  -2.885  1.00  0.00     0.163 HD
BRANCH   3   6
ATOM      6  C   UNL     1       0.246   0.739   0.049  1.00  0.00     0.102 C 
ATOM      7  C   UNL     1       1.862  -1.260  -0.411  1.00  0.00     0.032 C 
ATOM      8  C   UNL     1       0.820  -0.624   0.509  1.00  0.00     0.095 C 
ATOM      9  N   UNL     1      -0.350  -1.483   0.719  1.00  0.00    -0.332 N 
ATOM     10  C   UNL     1      -1.234   0.651   0.464  1.00  0.00     0.037 C 
ATOM     11  C   UNL     1      -1.569  -0.823   0.305  1.00  0.00     0.121 C 
BRANCH   9  12
ATOM     12  C   UNL     1      -0.384  -2.721   1.367  1.00  0.00     0.293 C 
ATOM     13  O   UNL     1      -1.414  -3.394   1.427  1.00  0.00    -0.265 OA
BRANCH  12  14
ATOM     14  C   UNL     1       0.879  -3.177   1.989  1.00  0.00     0.241 A 
ATOM     15  N   UNL     1       1.480  -2.521   3.006  1.00  0.00    -0.147 NA
ATOM     16  N   UNL     1       1.630  -4.228   1.487  1.00  0.00    -0.187 NA
ATOM     17  N   UNL     1       2.616  -3.223   3.146  1.00  0.00    -0.245 N 
ATOM     18  C   UNL     1       2.722  -4.202   2.201  1.00  0.00     0.216 A 
ATOM     19  H   UNL     1       3.289  -3.053   3.843  1.00  0.00     0.193 HD
BRANCH  18  20
ATOM     20  N   UNL     1       3.817  -4.954   2.058  1.00  0.00    -0.368 N 
ATOM     21  H   UNL     1       4.580  -4.834   2.669  1.00  0.00     0.159 HD
ATOM     22  H   UNL     1       3.860  -5.628   1.342  1.00  0.00     0.159 HD
ENDBRANCH  18  20
ENDBRANCH  12  14
ENDBRANCH   9  12
ENDBRANCH   3   6
ENDBRANCH   1   2
BRANCH   1  23
ATOM     23  C   UNL     1       4.032   1.301  -1.747  1.00  0.00     0.042 C 
BRANCH  23  24
ATOM     24  C   UNL     1       4.376   1.758  -3.164  1.00  0.00     0.118 C 
BRANCH  24  25
ATOM     25  N   UNL     1       5.737   2.257  -3.248  1.00  0.00    -0.352 N 
ATOM     26  C   UNL     1       6.938   1.666  -3.539  1.00  0.00     0.251 C 
ATOM     27  H   UNL     1       5.812   3.220  -3.058  1.00  0.00     0.163 HD
ATOM     28  O   UNL     1       7.959   2.309  -3.293  1.00  0.00    -0.269 OA
BRANCH  26  29
ATOM     29  C   UNL     1       7.078   0.308  -4.128  1.00  0.00     0.039 A 
ATOM     30  C   UNL     1       8.242  -0.410  -3.812  1.00  0.00     0.014 A 
ATOM     31  C   UNL     1       6.211  -0.211  -5.092  1.00  0.00     0.014 A 
ATOM     32  C   UNL     1       8.538  -1.619  -4.452  1.00  0.00     0.010 A 
ATOM     33  C   UNL     1       6.479  -1.450  -5.694  1.00  0.00     0.010 A 
ATOM     34  C   UNL     1       7.661  -2.151  -5.406  1.00  0.00    -0.014 A 
BRANCH  34  35
ATOM     35  C   UNL     1       8.018  -3.384  -6.161  1.00  0.00     0.031 A 
ATOM     36  C   UNL     1       8.339  -3.312  -7.632  1.00  0.00     0.074 A 
ATOM     37  C   UNL     1       8.060  -4.580  -5.543  1.00  0.00     0.049 A 
ATOM     38  N   UNL     1       8.629  -4.283  -8.464  1.00  0.00    -0.248 NA
ATOM     39  C   UNL     1       8.317  -1.978  -8.252  1.00  0.00     0.031 C 
ATOM     40  C   UNL     1       7.764  -4.819  -4.130  1.00  0.00     0.029 A 
ATOM     41  N   UNL     1       8.372  -5.824  -6.035  1.00  0.00    -0.354 N 
ATOM     42  C   UNL     1       8.781  -3.684  -9.708  1.00  0.00     0.074 A 
ATOM     43  C   UNL     1       8.547  -2.267  -9.525  1.00  0.00     0.031 C 
ATOM     44  C   UNL     1       7.928  -6.126  -3.865  1.00  0.00     0.029 A 
ATOM     45  C   UNL     1       8.322  -6.818  -5.090  1.00  0.00     0.049 A 
ATOM     46  H   UNL     1       8.610  -5.986  -6.976  1.00  0.00     0.167 HD
ATOM     47  C   UNL     1       9.092  -4.253 -10.898  1.00  0.00     0.031 A 
ATOM     48  C   UNL     1       8.564  -8.138  -5.193  1.00  0.00     0.031 A 
ATOM     49  C   UNL     1       9.384  -5.646 -11.099  1.00  0.00     0.049 A 
ATOM     50  C   UNL     1       8.966  -8.737  -6.508  1.00  0.00     0.074 A 
ATOM     51  C   UNL     1       9.754  -6.290 -12.268  1.00  0.00     0.029 A 
ATOM     52  N   UNL     1       9.354  -6.608 -10.105  1.00  0.00    -0.354 N 
ATOM     53  N   UNL     1       9.116  -8.151  -7.669  1.00  0.00    -0.248 NA
ATOM     54  C   UNL     1       9.239 -10.184  -6.522  1.00  0.00     0.031 C 
ATOM     55  C   UNL     1       9.944  -7.647 -11.981  1.00  0.00     0.029 A 
ATOM     56  C   UNL     1       9.702  -7.840 -10.632  1.00  0.00     0.049 A 
ATOM     57  H   UNL     1       9.120  -6.441  -9.163  1.00  0.00     0.167 HD
ATOM     58  C   UNL     1       9.508  -9.152  -8.548  1.00  0.00     0.074 A 
ATOM     59  C   UNL     1       9.583 -10.381  -7.787  1.00  0.00     0.031 C 
ATOM     60  C   UNL     1       9.780  -9.055  -9.871  1.00  0.00     0.031 A 
BRANCH  47  61
ATOM     61  C   UNL     1       9.125  -3.351 -12.094  1.00  0.00    -0.014 A 
ATOM     62  C   UNL     1      10.237  -2.537 -12.354  1.00  0.00     0.009 A 
ATOM     63  C   UNL     1       8.039  -3.338 -12.983  1.00  0.00     0.009 A 
ATOM     64  C   UNL     1      10.249  -1.702 -13.472  1.00  0.00     0.001 A 
ATOM     65  C   UNL     1       8.061  -2.514 -14.108  1.00  0.00     0.001 A 
ATOM     66  C   UNL     1       9.162  -1.692 -14.348  1.00  0.00     0.000 A 
ENDBRANCH  47  61
BRANCH  48  67
ATOM     67  C   UNL     1       8.450  -8.998  -3.992  1.00  0.00    -0.014 A 
ATOM     68  C   UNL     1       9.600  -9.361  -3.275  1.00  0.00     0.009 A 
ATOM     69  C   UNL     1       7.197  -9.460  -3.566  1.00  0.00     0.009 A 
ATOM     70  C   UNL     1       9.497 -10.186  -2.155  1.00  0.00     0.001 A 
ATOM     71  C   UNL     1       7.098 -10.277  -2.438  1.00  0.00     0.001 A 
ATOM     72  C   UNL     1       8.247 -10.642  -1.737  1.00  0.00     0.000 A 
ENDBRANCH  48  67
BRANCH  60  73
ATOM     73  C   UNL     1      10.200 -10.308 -10.576  1.00  0.00    -0.014 A 
ATOM     74  C   UNL     1       9.246 -11.237 -11.017  1.00  0.00     0.009 A 
ATOM     75  C   UNL     1      11.560 -10.547 -10.828  1.00  0.00     0.009 A 
ATOM     76  C   UNL     1       9.649 -12.395 -11.685  1.00  0.00     0.001 A 
ATOM     77  C   UNL     1      11.958 -11.701 -11.504  1.00  0.00     0.001 A 
ATOM     78  C   UNL     1      11.003 -12.625 -11.928  1.00  0.00     0.000 A 
ENDBRANCH  60  73
ENDBRANCH  34  35
ENDBRANCH  26  29
ENDBRANCH  24  25
ENDBRANCH  23  24
ENDBRANCH   1  23
TORSDOF 13
