REMARK SMILES COC(=O)c1ccccc1N1C(=O)/C(=C\c2ccc(-c3ccc(Cl)c(C(=O)NCCCNC(=O)c4ccc(-c5c6nc(c(-c7ccccc7)c7ccc([nH]7)c(-c7ccccc7)c7nc(c(-c8ccccc8)c8ccc5[nH]8)C=C7)C=C6)cc4)c3)o2)SC1=S
REMARK SMILES IDX 26 1 27 2 28 3 25 5 20 6 21 7 83 8 22 9 23 10 24 11 19 12
REMARK SMILES IDX 16 13 17 14 84 15 18 16 15 17 11 18 12 19 86 20 13 21 14 22
REMARK SMILES IDX 85 23 87 24 10 25 5 26 6 27 7 28 9 29 8 30 3 31 4 32 2 33
REMARK SMILES IDX 1 34 29 35 30 36 31 37 32 38 33 39 34 41 35 42 36 43 82 44
REMARK SMILES IDX 37 45 81 46 38 47 39 48 40 49 75 50 41 51 80 52 74 53 76 54
REMARK SMILES IDX 42 55 79 56 73 57 72 58 43 60 65 61 50 62 64 63 51 64 54 65
REMARK SMILES IDX 63 66 77 67 52 68 53 69 62 71 78 72 55 73 44 74 45 75 49 76
REMARK SMILES IDX 46 77 48 78 47 79 66 80 67 81 71 82 68 83 70 84 69 85 56 86
REMARK SMILES IDX 57 87 61 88 58 89 60 90 59 91
REMARK H PARENT 28 4 32 40 76 59 54 70
REMARK Flexibility Score: inf
ROOT
ATOM      1  C   UNL     1      -6.340   8.388   6.414  1.00  0.00     0.252 C 
ATOM      2  O   UNL     1      -6.832   9.032   7.338  1.00  0.00    -0.269 OA
ATOM      3  N   UNL     1      -5.861   9.116   5.340  1.00  0.00    -0.352 N 
ATOM      4  H   UNL     1      -6.047  10.079   5.421  1.00  0.00     0.163 HD
ENDROOT
BRANCH   1   5
ATOM      5  C   UNL     1      -6.289   6.898   6.472  1.00  0.00     0.059 A 
ATOM      6  C   UNL     1      -5.273   4.865   5.585  1.00  0.00     0.018 A 
ATOM      7  C   UNL     1      -6.282   4.100   6.166  1.00  0.00     0.013 A 
ATOM      8  C   UNL     1      -5.220   6.233   5.872  1.00  0.00     0.027 A 
ATOM      9  C   UNL     1      -7.251   4.720   6.959  1.00  0.00     0.022 A 
ATOM     10  C   UNL     1      -7.287   6.120   7.077  1.00  0.00     0.053 A 
ATOM     11  Cl  UNL     1      -8.622   6.773   7.960  1.00  0.00    -0.083 Cl
BRANCH   6  12
ATOM     12  C   UNL     1      -4.358   4.342   4.582  1.00  0.00     0.134 A 
ATOM     13  C   UNL     1      -3.901   3.085   2.810  1.00  0.00     0.128 A 
ATOM     14  C   UNL     1      -2.846   3.971   2.985  1.00  0.00     0.051 A 
ATOM     15  O   UNL     1      -4.840   3.348   3.780  1.00  0.00    -0.457 OA
ATOM     16  C   UNL     1      -3.120   4.743   4.132  1.00  0.00     0.051 A 
BRANCH  13  17
ATOM     17  C   UNL     1      -4.030   2.045   1.855  1.00  0.00     0.068 C 
ATOM     18  N   UNL     1      -1.790  -0.673   2.817  1.00  0.00    -0.260 N 
ATOM     19  C   UNL     1      -2.352   0.576   3.042  1.00  0.00     0.270 C 
ATOM     20  C   UNL     1      -2.217  -1.357   1.694  1.00  0.00     0.152 C 
ATOM     21  O   UNL     1      -2.105   1.303   3.996  1.00  0.00    -0.268 OA
ATOM     22  C   UNL     1      -3.304   0.922   1.948  1.00  0.00     0.084 C 
ATOM     23  S   UNL     1      -3.357  -0.353   0.791  1.00  0.00    -0.054 SA
ATOM     24  S   UNL     1      -1.873  -2.922   1.219  1.00  0.00    -0.051 S 
BRANCH  18  25
ATOM     25  C   UNL     1      -0.848  -1.157   3.770  1.00  0.00     0.065 A 
ATOM     26  C   UNL     1       0.494  -1.458   3.472  1.00  0.00     0.084 A 
ATOM     27  C   UNL     1       1.350  -1.886   4.505  1.00  0.00     0.018 A 
ATOM     28  C   UNL     1       0.894  -1.986   5.821  1.00  0.00     0.001 A 
ATOM     29  C   UNL     1      -1.284  -1.255   5.108  1.00  0.00     0.028 A 
ATOM     30  C   UNL     1      -0.422  -1.665   6.123  1.00  0.00     0.002 A 
BRANCH  26  31
ATOM     31  C   UNL     1       1.139  -1.281   2.143  1.00  0.00     0.339 C 
ATOM     32  O   UNL     1       2.094  -1.937   1.772  1.00  0.00    -0.246 OA
BRANCH  31  33
ATOM     33  O   UNL     1       0.566  -0.256   1.458  1.00  0.00    -0.465 OA
ATOM     34  C   UNL     1       1.141  -0.037   0.167  1.00  0.00     0.282 C 
ENDBRANCH  31  33
ENDBRANCH  26  31
ENDBRANCH  18  25
ENDBRANCH  13  17
ENDBRANCH   6  12
ENDBRANCH   1   5
BRANCH   3  35
ATOM     35  C   UNL     1      -5.142   8.779   4.113  1.00  0.00     0.118 C 
BRANCH  35  36
ATOM     36  C   UNL     1      -5.838   9.208   2.832  1.00  0.00     0.042 C 
BRANCH  36  37
ATOM     37  C   UNL     1      -5.973  10.709   2.646  1.00  0.00     0.118 C 
BRANCH  37  38
ATOM     38  N   UNL     1      -4.688  11.390   2.541  1.00  0.00    -0.352 N 
ATOM     39  C   UNL     1      -4.032  11.941   1.467  1.00  0.00     0.251 C 
ATOM     40  H   UNL     1      -4.203  11.470   3.394  1.00  0.00     0.163 HD
ATOM     41  O   UNL     1      -2.861  12.292   1.600  1.00  0.00    -0.269 OA
BRANCH  39  42
ATOM     42  C   UNL     1      -4.692  12.102   0.150  1.00  0.00     0.039 A 
ATOM     43  C   UNL     1      -3.931  11.932  -1.012  1.00  0.00     0.014 A 
ATOM     44  C   UNL     1      -6.034  12.469   0.042  1.00  0.00     0.014 A 
ATOM     45  C   UNL     1      -4.532  12.059  -2.268  1.00  0.00     0.010 A 
ATOM     46  C   UNL     1      -6.656  12.492  -1.203  1.00  0.00     0.010 A 
ATOM     47  C   UNL     1      -5.910  12.299  -2.374  1.00  0.00    -0.014 A 
BRANCH  47  48
ATOM     48  C   UNL     1      -6.589  12.372  -3.694  1.00  0.00     0.031 A 
ATOM     49  C   UNL     1      -7.279  13.641  -4.123  1.00  0.00     0.074 A 
ATOM     50  C   UNL     1      -6.643  11.278  -4.480  1.00  0.00     0.049 A 
ATOM     51  N   UNL     1      -7.982  13.874  -5.203  1.00  0.00    -0.248 NA
ATOM     52  C   UNL     1      -7.191  14.790  -3.206  1.00  0.00     0.031 C 
ATOM     53  C   UNL     1      -6.051   9.976  -4.165  1.00  0.00     0.029 A 
ATOM     54  N   UNL     1      -7.229  11.088  -5.706  1.00  0.00    -0.354 N 
ATOM     55  C   UNL     1      -8.434  15.183  -5.084  1.00  0.00     0.074 A 
ATOM     56  C   UNL     1      -7.974  15.675  -3.804  1.00  0.00     0.031 C 
ATOM     57  C   UNL     1      -6.274   9.133  -5.186  1.00  0.00     0.029 A 
ATOM     58  C   UNL     1      -7.059   9.819  -6.206  1.00  0.00     0.049 A 
ATOM     59  H   UNL     1      -7.723  11.793  -6.183  1.00  0.00     0.167 HD
ATOM     60  C   UNL     1      -9.147  15.921  -5.968  1.00  0.00     0.031 A 
ATOM     61  C   UNL     1      -7.492   9.267  -7.356  1.00  0.00     0.031 A 
ATOM     62  C   UNL     1      -9.591  15.440  -7.248  1.00  0.00     0.049 A 
ATOM     63  C   UNL     1      -8.294  10.102  -8.314  1.00  0.00     0.074 A 
ATOM     64  C   UNL     1     -10.274  16.126  -8.238  1.00  0.00     0.029 A 
ATOM     65  N   UNL     1      -9.393  14.151  -7.717  1.00  0.00    -0.354 N 
ATOM     66  N   UNL     1      -8.659  11.357  -8.211  1.00  0.00    -0.248 NA
ATOM     67  C   UNL     1      -8.736   9.445  -9.552  1.00  0.00     0.031 C 
ATOM     68  C   UNL     1     -10.531  15.237  -9.286  1.00  0.00     0.029 A 
ATOM     69  C   UNL     1      -9.959  14.014  -8.973  1.00  0.00     0.049 A 
ATOM     70  H   UNL     1      -8.921  13.438  -7.229  1.00  0.00     0.167 HD
ATOM     71  C   UNL     1      -9.345  11.649  -9.383  1.00  0.00     0.074 A 
ATOM     72  C   UNL     1      -9.331  10.444 -10.188  1.00  0.00     0.031 C 
ATOM     73  C   UNL     1      -9.934  12.809  -9.760  1.00  0.00     0.031 A 
BRANCH  60  74
ATOM     74  C   UNL     1      -9.488  17.333  -5.576  1.00  0.00    -0.014 A 
ATOM     75  C   UNL     1      -8.497  18.324  -5.494  1.00  0.00     0.009 A 
ATOM     76  C   UNL     1     -10.822  17.685  -5.316  1.00  0.00     0.009 A 
ATOM     77  C   UNL     1      -8.828  19.629  -5.123  1.00  0.00     0.001 A 
ATOM     78  C   UNL     1     -11.155  18.997  -4.974  1.00  0.00     0.001 A 
ATOM     79  C   UNL     1     -10.157  19.965  -4.868  1.00  0.00     0.000 A 
ENDBRANCH  60  74
BRANCH  61  80
ATOM     80  C   UNL     1      -7.160   7.855  -7.679  1.00  0.00    -0.014 A 
ATOM     81  C   UNL     1      -6.258   7.557  -8.713  1.00  0.00     0.009 A 
ATOM     82  C   UNL     1      -7.750   6.798  -6.969  1.00  0.00     0.009 A 
ATOM     83  C   UNL     1      -5.978   6.230  -9.049  1.00  0.00     0.001 A 
ATOM     84  C   UNL     1      -7.444   5.472  -7.287  1.00  0.00     0.001 A 
ATOM     85  C   UNL     1      -6.568   5.190  -8.334  1.00  0.00     0.000 A 
ENDBRANCH  61  80
BRANCH  73  86
ATOM     86  C   UNL     1     -10.576  12.844 -11.118  1.00  0.00    -0.014 A 
ATOM     87  C   UNL     1     -11.779  12.167 -11.373  1.00  0.00     0.009 A 
ATOM     88  C   UNL     1      -9.987  13.597 -12.145  1.00  0.00     0.009 A 
ATOM     89  C   UNL     1     -12.360  12.217 -12.642  1.00  0.00     0.001 A 
ATOM     90  C   UNL     1     -10.585  13.669 -13.403  1.00  0.00     0.001 A 
ATOM     91  C   UNL     1     -11.765  12.972 -13.653  1.00  0.00     0.000 A 
ENDBRANCH  73  86
ENDBRANCH  47  48
ENDBRANCH  39  42
ENDBRANCH  37  38
ENDBRANCH  36  37
ENDBRANCH  35  36
ENDBRANCH   3  35
TORSDOF 15
