REMARK SMILES Cc1nc(C(=O)N[C@H](CCC(N)=O)C(=O)NCCCNC(=O)c2ccc(-c3c4nc(c(-c5ccccc5)c5ccc([nH]5)c(-c5ccccc5)c5nc(c(-c6ccccc6)c6ccc3[nH]6)C=C5)C=C4)cc2)ccc1C#N
REMARK SMILES IDX 17 1 16 2 14 3 15 4 8 6 7 7 5 8 6 9 4 11 1 12 2 13 3 14
REMARK SMILES IDX 73 15 72 16 71 17 74 18 75 19 9 20 10 21 11 22 12 23 13 24
REMARK SMILES IDX 18 27 19 28 20 29 21 30 22 32 23 33 24 34 70 35 25 36 69 37
REMARK SMILES IDX 26 38 27 39 28 40 63 41 29 42 68 43 62 44 64 45 30 46 67 47
REMARK SMILES IDX 61 48 60 49 31 51 53 52 38 53 52 54 39 55 42 56 51 57 65 58
REMARK SMILES IDX 40 59 41 60 50 62 66 63 43 64 32 65 33 66 37 67 34 68 36 69
REMARK SMILES IDX 35 70 54 71 55 72 59 73 56 74 58 75 57 76 44 77 45 78 49 79
REMARK SMILES IDX 46 80 48 81 47 82
REMARK H PARENT 16 5 7 10 12 25 12 26 20 31 64 50 42 61
REMARK Flexibility Score: inf
ROOT
ATOM      1  C   UNL     1       1.072  -5.620   4.574  1.00  0.00     0.117 C 
ENDROOT
BRANCH   1   2
ATOM      2  N   UNL     1       1.829  -4.482   4.075  1.00  0.00    -0.354 N 
ATOM      3  C   UNL     1       1.706  -3.730   2.938  1.00  0.00     0.242 C 
ATOM      4  O   UNL     1       2.540  -2.835   2.773  1.00  0.00    -0.273 OA
ATOM      5  H   UNL     1       2.566  -4.202   4.664  1.00  0.00     0.163 HD
BRANCH   3   6
ATOM      6  C   UNL     1       0.549  -3.954   1.921  1.00  0.00     0.172 C 
BRANCH   6   7
ATOM      7  N   UNL     1      -0.691  -3.596   2.622  1.00  0.00    -0.339 N 
ATOM      8  C   UNL     1      -1.897  -3.119   2.174  1.00  0.00     0.270 C 
ATOM      9  O   UNL     1      -2.794  -2.959   3.005  1.00  0.00    -0.267 OA
ATOM     10  H   UNL     1      -0.649  -3.723   3.597  1.00  0.00     0.164 HD
BRANCH   8  11
ATOM     11  C   UNL     1      -2.189  -2.864   0.729  1.00  0.00     0.128 A 
ATOM     12  C   UNL     1      -0.259  -2.251  -2.355  1.00  0.00     0.068 C 
ATOM     13  C   UNL     1      -1.437  -2.496  -1.449  1.00  0.00     0.056 A 
ATOM     14  N   UNL     1      -1.163  -2.607  -0.118  1.00  0.00    -0.247 NA
ATOM     15  C   UNL     1      -2.723  -2.680  -1.961  1.00  0.00     0.073 A 
ATOM     16  C   UNL     1      -3.772  -2.898  -1.065  1.00  0.00     0.024 A 
ATOM     17  C   UNL     1      -3.506  -2.979   0.300  1.00  0.00     0.035 A 
BRANCH  15  18
ATOM     18  C   UNL     1      -2.976  -2.727  -3.370  1.00  0.00     0.101 C 
ATOM     19  N   UNL     1      -3.180  -2.820  -4.507  1.00  0.00    -0.192 NA
ENDBRANCH  15  18
ENDBRANCH   8  11
ENDBRANCH   6   7
BRANCH   6  20
ATOM     20  C   UNL     1       0.591  -5.396   1.392  1.00  0.00     0.045 C 
BRANCH  20  21
ATOM     21  C   UNL     1      -0.464  -5.847   0.397  1.00  0.00     0.102 C 
BRANCH  21  22
ATOM     22  C   UNL     1      -0.144  -5.502  -1.030  1.00  0.00     0.217 C 
ATOM     23  N   UNL     1      -1.143  -5.823  -1.905  1.00  0.00    -0.370 N 
ATOM     24  O   UNL     1       0.913  -5.020  -1.412  1.00  0.00    -0.275 OA
ATOM     25  H   UNL     1      -1.984  -6.210  -1.570  1.00  0.00     0.159 HD
ATOM     26  H   UNL     1      -1.023  -5.666  -2.869  1.00  0.00     0.159 HD
ENDBRANCH  21  22
ENDBRANCH  20  21
ENDBRANCH   6  20
ENDBRANCH   3   6
ENDBRANCH   1   2
BRANCH   1  27
ATOM     27  C   UNL     1       1.735  -6.954   4.225  1.00  0.00     0.042 C 
BRANCH  27  28
ATOM     28  C   UNL     1       3.016  -7.218   4.999  1.00  0.00     0.118 C 
BRANCH  28  29
ATOM     29  N   UNL     1       2.761  -7.411   6.417  1.00  0.00    -0.352 N 
ATOM     30  C   UNL     1       2.869  -8.554   7.168  1.00  0.00     0.251 C 
ATOM     31  H   UNL     1       2.471  -6.609   6.908  1.00  0.00     0.163 HD
ATOM     32  O   UNL     1       2.380  -8.607   8.290  1.00  0.00    -0.269 OA
BRANCH  30  33
ATOM     33  C   UNL     1       3.570  -9.726   6.608  1.00  0.00     0.039 A 
ATOM     34  C   UNL     1       2.988 -10.990   6.728  1.00  0.00     0.014 A 
ATOM     35  C   UNL     1       4.805  -9.569   5.970  1.00  0.00     0.014 A 
ATOM     36  C   UNL     1       3.622 -12.093   6.157  1.00  0.00     0.010 A 
ATOM     37  C   UNL     1       5.399 -10.655   5.341  1.00  0.00     0.010 A 
ATOM     38  C   UNL     1       4.818 -11.927   5.441  1.00  0.00    -0.014 A 
BRANCH  38  39
ATOM     39  C   UNL     1       5.506 -13.078   4.815  1.00  0.00     0.031 A 
ATOM     40  C   UNL     1       6.829 -13.534   5.355  1.00  0.00     0.074 A 
ATOM     41  C   UNL     1       4.965 -13.677   3.738  1.00  0.00     0.049 A 
ATOM     42  N   UNL     1       7.610 -14.486   4.914  1.00  0.00    -0.248 NA
ATOM     43  C   UNL     1       7.351 -12.824   6.536  1.00  0.00     0.031 C 
ATOM     44  C   UNL     1       3.689 -13.313   3.119  1.00  0.00     0.029 A 
ATOM     45  N   UNL     1       5.424 -14.718   2.971  1.00  0.00    -0.354 N 
ATOM     46  C   UNL     1       8.709 -14.489   5.761  1.00  0.00     0.074 A 
ATOM     47  C   UNL     1       8.524 -13.417   6.712  1.00  0.00     0.031 C 
ATOM     48  C   UNL     1       3.456 -14.135   2.084  1.00  0.00     0.029 A 
ATOM     49  C   UNL     1       4.582 -15.055   1.941  1.00  0.00     0.049 A 
ATOM     50  H   UNL     1       6.277 -15.179   3.144  1.00  0.00     0.167 HD
ATOM     51  C   UNL     1       9.768 -15.329   5.758  1.00  0.00     0.031 A 
ATOM     52  C   UNL     1       4.702 -15.996   0.985  1.00  0.00     0.031 A 
ATOM     53  C   UNL     1       9.948 -16.397   4.815  1.00  0.00     0.049 A 
ATOM     54  C   UNL     1       5.913 -16.885   0.972  1.00  0.00     0.074 A 
ATOM     55  C   UNL     1      10.977 -17.319   4.757  1.00  0.00     0.029 A 
ATOM     56  N   UNL     1       9.084 -16.687   3.772  1.00  0.00    -0.354 N 
ATOM     57  N   UNL     1       6.931 -16.895   1.797  1.00  0.00    -0.248 NA
ATOM     58  C   UNL     1       5.990 -17.895  -0.093  1.00  0.00     0.031 C 
ATOM     59  C   UNL     1      10.767 -18.133   3.643  1.00  0.00     0.029 A 
ATOM     60  C   UNL     1       9.570 -17.762   3.050  1.00  0.00     0.049 A 
ATOM     61  H   UNL     1       8.251 -16.201   3.574  1.00  0.00     0.167 HD
ATOM     62  C   UNL     1       7.753 -17.931   1.373  1.00  0.00     0.074 A 
ATOM     63  C   UNL     1       7.117 -18.526   0.217  1.00  0.00     0.031 C 
ATOM     64  C   UNL     1       8.925 -18.352   1.906  1.00  0.00     0.031 A 
BRANCH  51  65
ATOM     65  C   UNL     1      10.818 -15.149   6.814  1.00  0.00    -0.014 A 
ATOM     66  C   UNL     1      10.576 -15.540   8.140  1.00  0.00     0.009 A 
ATOM     67  C   UNL     1      12.100 -14.705   6.456  1.00  0.00     0.009 A 
ATOM     68  C   UNL     1      11.600 -15.493   9.086  1.00  0.00     0.001 A 
ATOM     69  C   UNL     1      13.128 -14.682   7.399  1.00  0.00     0.001 A 
ATOM     70  C   UNL     1      12.878 -15.078   8.712  1.00  0.00     0.000 A 
ENDBRANCH  51  65
BRANCH  52  71
ATOM     71  C   UNL     1       3.613 -16.159  -0.011  1.00  0.00    -0.014 A 
ATOM     72  C   UNL     1       2.735 -17.250   0.074  1.00  0.00     0.009 A 
ATOM     73  C   UNL     1       3.401 -15.191  -1.006  1.00  0.00     0.009 A 
ATOM     74  C   UNL     1       1.664 -17.366  -0.816  1.00  0.00     0.001 A 
ATOM     75  C   UNL     1       2.316 -15.298  -1.878  1.00  0.00     0.001 A 
ATOM     76  C   UNL     1       1.450 -16.385  -1.783  1.00  0.00     0.000 A 
ENDBRANCH  52  71
BRANCH  64  77
ATOM     77  C   UNL     1       9.603 -19.539   1.285  1.00  0.00    -0.014 A 
ATOM     78  C   UNL     1      10.295 -19.428   0.070  1.00  0.00     0.009 A 
ATOM     79  C   UNL     1       9.666 -20.747   2.000  1.00  0.00     0.009 A 
ATOM     80  C   UNL     1      11.033 -20.508  -0.418  1.00  0.00     0.001 A 
ATOM     81  C   UNL     1      10.428 -21.814   1.522  1.00  0.00     0.001 A 
ATOM     82  C   UNL     1      11.109 -21.694   0.313  1.00  0.00     0.000 A 
ENDBRANCH  64  77
ENDBRANCH  38  39
ENDBRANCH  30  33
ENDBRANCH  28  29
ENDBRANCH  27  28
ENDBRANCH   1  27
TORSDOF 16
