REMARK SMILES CC[C@@H](C(=O)NCCCNC(=O)c1ccc(-c2c3nc(c(-c4ccccc4)c4ccc([nH]4)c(-c4ccccc4)c4nc(c(-c5ccccc5)c5ccc2[nH]5)C=C4)C=C3)cc1)N1C(=O)/C(=C/C(C)=C/c2ccccc2)SC1=S
REMARK SMILES IDX 7 1 6 2 4 3 5 4 3 6 2 7 1 8 61 9 62 10 76 11 63 12 64 13
REMARK SMILES IDX 75 14 77 15 65 16 66 17 67 18 68 19 69 20 70 21 74 22 71 23
REMARK SMILES IDX 73 24 72 25 8 26 9 27 10 28 11 29 12 31 13 32 14 33 60 34
REMARK SMILES IDX 15 35 59 36 16 37 17 38 18 39 53 40 19 41 58 42 52 43 54 44
REMARK SMILES IDX 20 45 57 46 51 47 50 48 21 50 43 51 28 52 42 53 29 54 32 55
REMARK SMILES IDX 41 56 55 57 30 58 31 59 40 61 56 62 33 63 22 64 23 65 27 66
REMARK SMILES IDX 24 67 26 68 25 69 44 70 45 71 49 72 46 73 48 74 47 75 34 76
REMARK SMILES IDX 35 77 39 78 36 79 38 80 37 81
REMARK H PARENT 6 5 10 30 54 49 32 60
REMARK Flexibility Score: inf
ROOT
ATOM      1  C   UNL     1       1.834   1.854  -1.377  1.00  0.00     0.117 C 
ENDROOT
BRANCH   1   2
ATOM      2  N   UNL     1       0.661   2.480  -0.781  1.00  0.00    -0.354 N 
ATOM      3  C   UNL     1       0.130   2.381   0.475  1.00  0.00     0.243 C 
ATOM      4  O   UNL     1      -0.964   2.917   0.671  1.00  0.00    -0.273 OA
ATOM      5  H   UNL     1       0.166   3.078  -1.387  1.00  0.00     0.163 HD
BRANCH   3   6
ATOM      6  C   UNL     1       0.906   1.671   1.605  1.00  0.00     0.181 C 
BRANCH   6   7
ATOM      7  C   UNL     1       0.501   0.190   1.744  1.00  0.00     0.032 C 
ATOM      8  C   UNL     1       0.874  -0.756   0.625  1.00  0.00     0.006 C 
ENDBRANCH   6   7
BRANCH   6   9
ATOM      9  N   UNL     1       0.673   2.477   2.849  1.00  0.00    -0.280 N 
ATOM     10  C   UNL     1      -0.179   2.042   3.855  1.00  0.00     0.266 C 
ATOM     11  C   UNL     1       1.239   3.724   3.056  1.00  0.00     0.149 C 
ATOM     12  O   UNL     1      -0.814   1.003   3.895  1.00  0.00    -0.268 OA
ATOM     13  C   UNL     1      -0.202   3.002   4.995  1.00  0.00     0.080 C 
ATOM     14  S   UNL     1       0.723   4.381   4.606  1.00  0.00    -0.054 SA
ATOM     15  S   UNL     1       2.283   4.570   2.061  1.00  0.00    -0.052 S 
ATOM     16  C   UNL     1      -0.868   2.659   6.108  1.00  0.00     0.024 C 
BRANCH  16  17
ATOM     17  C   UNL     1      -1.092   3.319   7.393  1.00  0.00    -0.049 C 
ATOM     18  C   UNL     1      -1.677   2.410   8.457  1.00  0.00     0.044 C 
ATOM     19  C   UNL     1      -0.917   4.640   7.595  1.00  0.00     0.011 C 
BRANCH  19  20
ATOM     20  C   UNL     1      -1.162   5.397   8.831  1.00  0.00    -0.025 A 
ATOM     21  C   UNL     1      -1.881   6.595   8.735  1.00  0.00     0.008 A 
ATOM     22  C   UNL     1      -0.632   5.019  10.069  1.00  0.00     0.008 A 
ATOM     23  C   UNL     1      -2.086   7.392   9.862  1.00  0.00     0.001 A 
ATOM     24  C   UNL     1      -0.844   5.812  11.199  1.00  0.00     0.001 A 
ATOM     25  C   UNL     1      -1.569   6.998  11.095  1.00  0.00     0.000 A 
ENDBRANCH  19  20
ENDBRANCH  16  17
ENDBRANCH   6   9
ENDBRANCH   3   6
ENDBRANCH   1   2
BRANCH   1  26
ATOM     26  C   UNL     1       1.418   0.779  -2.377  1.00  0.00     0.042 C 
BRANCH  26  27
ATOM     27  C   UNL     1       0.839   1.342  -3.666  1.00  0.00     0.118 C 
BRANCH  27  28
ATOM     28  N   UNL     1       1.871   1.632  -4.645  1.00  0.00    -0.352 N 
ATOM     29  C   UNL     1       2.126   1.016  -5.847  1.00  0.00     0.251 C 
ATOM     30  H   UNL     1       2.473   2.376  -4.415  1.00  0.00     0.163 HD
ATOM     31  O   UNL     1       3.178   1.245  -6.437  1.00  0.00    -0.269 OA
BRANCH  29  32
ATOM     32  C   UNL     1       1.151   0.060  -6.425  1.00  0.00     0.039 A 
ATOM     33  C   UNL     1       1.624  -1.102  -7.041  1.00  0.00     0.014 A 
ATOM     34  C   UNL     1      -0.222   0.316  -6.391  1.00  0.00     0.014 A 
ATOM     35  C   UNL     1       0.720  -2.027  -7.573  1.00  0.00     0.010 A 
ATOM     36  C   UNL     1      -1.123  -0.649  -6.833  1.00  0.00     0.010 A 
ATOM     37  C   UNL     1      -0.663  -1.824  -7.448  1.00  0.00    -0.014 A 
BRANCH  37  38
ATOM     38  C   UNL     1      -1.650  -2.789  -8.000  1.00  0.00     0.031 A 
ATOM     39  C   UNL     1      -2.604  -2.345  -9.080  1.00  0.00     0.074 A 
ATOM     40  C   UNL     1      -1.732  -4.041  -7.504  1.00  0.00     0.049 A 
ATOM     41  N   UNL     1      -3.608  -2.993  -9.616  1.00  0.00    -0.248 NA
ATOM     42  C   UNL     1      -2.418  -0.984  -9.612  1.00  0.00     0.031 C 
ATOM     43  C   UNL     1      -0.882  -4.597  -6.450  1.00  0.00     0.029 A 
ATOM     44  N   UNL     1      -2.582  -5.072  -7.821  1.00  0.00    -0.354 N 
ATOM     45  C   UNL     1      -4.176  -2.115 -10.532  1.00  0.00     0.074 A 
ATOM     46  C   UNL     1      -3.447  -0.871 -10.438  1.00  0.00     0.031 C 
ATOM     47  C   UNL     1      -1.239  -5.873  -6.223  1.00  0.00     0.029 A 
ATOM     48  C   UNL     1      -2.372  -6.210  -7.079  1.00  0.00     0.049 A 
ATOM     49  H   UNL     1      -3.277  -5.003  -8.515  1.00  0.00     0.167 HD
ATOM     50  C   UNL     1      -5.194  -2.332 -11.398  1.00  0.00     0.031 A 
ATOM     51  C   UNL     1      -3.029  -7.386  -7.076  1.00  0.00     0.031 A 
ATOM     52  C   UNL     1      -5.914  -3.571 -11.507  1.00  0.00     0.049 A 
ATOM     53  C   UNL     1      -4.191  -7.581  -8.014  1.00  0.00     0.074 A 
ATOM     54  C   UNL     1      -6.951  -3.892 -12.366  1.00  0.00     0.029 A 
ATOM     55  N   UNL     1      -5.665  -4.696 -10.738  1.00  0.00    -0.354 N 
ATOM     56  N   UNL     1      -4.689  -6.752  -8.899  1.00  0.00    -0.248 NA
ATOM     57  C   UNL     1      -4.876  -8.881  -7.959  1.00  0.00     0.031 C 
ATOM     58  C   UNL     1      -7.357  -5.201 -12.088  1.00  0.00     0.029 A 
ATOM     59  C   UNL     1      -6.533  -5.711 -11.098  1.00  0.00     0.049 A 
ATOM     60  H   UNL     1      -4.973  -4.763 -10.040  1.00  0.00     0.167 HD
ATOM     61  C   UNL     1      -5.713  -7.446  -9.534  1.00  0.00     0.074 A 
ATOM     62  C   UNL     1      -5.756  -8.766  -8.942  1.00  0.00     0.031 C 
ATOM     63  C   UNL     1      -6.543  -7.028 -10.520  1.00  0.00     0.031 A 
BRANCH  50  64
ATOM     64  C   UNL     1      -5.581  -1.203 -12.313  1.00  0.00    -0.014 A 
ATOM     65  C   UNL     1      -4.739  -0.807 -13.365  1.00  0.00     0.009 A 
ATOM     66  C   UNL     1      -6.822  -0.565 -12.160  1.00  0.00     0.009 A 
ATOM     67  C   UNL     1      -5.119   0.223 -14.227  1.00  0.00     0.001 A 
ATOM     68  C   UNL     1      -7.212   0.444 -13.043  1.00  0.00     0.001 A 
ATOM     69  C   UNL     1      -6.358   0.842 -14.070  1.00  0.00     0.000 A 
ENDBRANCH  50  64
BRANCH  51  70
ATOM     70  C   UNL     1      -2.621  -8.483  -6.156  1.00  0.00    -0.014 A 
ATOM     71  C   UNL     1      -2.096  -9.683  -6.663  1.00  0.00     0.009 A 
ATOM     72  C   UNL     1      -2.812  -8.363  -4.771  1.00  0.00     0.009 A 
ATOM     73  C   UNL     1      -1.817 -10.753  -5.810  1.00  0.00     0.001 A 
ATOM     74  C   UNL     1      -2.498  -9.421  -3.916  1.00  0.00     0.001 A 
ATOM     75  C   UNL     1      -2.017 -10.621  -4.437  1.00  0.00     0.000 A 
ENDBRANCH  51  70
BRANCH  63  76
ATOM     76  C   UNL     1      -7.520  -8.026 -11.074  1.00  0.00    -0.014 A 
ATOM     77  C   UNL     1      -8.638  -8.447 -10.339  1.00  0.00     0.009 A 
ATOM     78  C   UNL     1      -7.341  -8.511 -12.380  1.00  0.00     0.009 A 
ATOM     79  C   UNL     1      -9.541  -9.358 -10.891  1.00  0.00     0.001 A 
ATOM     80  C   UNL     1      -8.262  -9.396 -12.941  1.00  0.00     0.001 A 
ATOM     81  C   UNL     1      -9.357  -9.825 -12.192  1.00  0.00     0.000 A 
ENDBRANCH  63  76
ENDBRANCH  37  38
ENDBRANCH  29  32
ENDBRANCH  27  28
ENDBRANCH  26  27
ENDBRANCH   1  26
TORSDOF 14
