REMARK SMILES Cn1ccnc1NCCOCC(=O)NCCCNC(=O)c1ccc(-c2c3nc(c(-c4ccccc4)c4ccc([nH]4)c(-c4ccccc4)c4nc(c(-c5ccccc5)c5ccc2[nH]5)C=C4)C=C3)cc1
REMARK SMILES IDX 12 1 13 2 14 3 11 5 10 6 9 7 8 8 7 9 6 11 1 12 2 13 3 14
REMARK SMILES IDX 4 15 5 16 15 17 16 18 17 19 18 20 19 21 20 23 21 24 22 25
REMARK SMILES IDX 68 26 23 27 67 28 24 29 25 30 26 31 61 32 27 33 66 34 60 35
REMARK SMILES IDX 62 36 28 37 65 38 59 39 58 40 29 42 51 43 36 44 50 45 37 46
REMARK SMILES IDX 40 47 49 48 63 49 38 50 39 51 48 53 64 54 41 55 30 56 31 57
REMARK SMILES IDX 35 58 32 59 34 60 33 61 52 62 53 63 57 64 54 65 56 66 55 67
REMARK SMILES IDX 42 68 43 69 47 70 44 71 46 72 45 73
REMARK H PARENT 14 4 7 10 18 22 62 41 40 52
REMARK Flexibility Score: inf
ROOT
ATOM      1  C   UNL     1       2.117   3.177   2.556  1.00  0.00     0.245 C 
ATOM      2  O   UNL     1       2.154   1.947   2.498  1.00  0.00    -0.272 OA
ATOM      3  N   UNL     1       2.205   3.787   3.775  1.00  0.00    -0.354 N 
ATOM      4  H   UNL     1       2.194   3.190   4.558  1.00  0.00     0.163 HD
ENDROOT
BRANCH   1   5
ATOM      5  C   UNL     1       2.003   4.046   1.298  1.00  0.00     0.260 C 
BRANCH   5   6
ATOM      6  O   UNL     1       0.822   4.818   1.155  1.00  0.00    -0.370 OA
BRANCH   6   7
ATOM      7  C   UNL     1      -0.393   4.053   1.089  1.00  0.00     0.182 C 
BRANCH   7   8
ATOM      8  C   UNL     1      -0.671   3.440  -0.296  1.00  0.00     0.144 C 
BRANCH   8   9
ATOM      9  N   UNL     1       0.151   2.266  -0.541  1.00  0.00    -0.353 N 
ATOM     10  H   UNL     1       1.040   2.373  -0.950  1.00  0.00     0.163 HD
BRANCH   9  11
ATOM     11  C   UNL     1      -0.287   1.035  -0.216  1.00  0.00     0.202 A 
ATOM     12  C   UNL     1       2.006  -0.041  -0.149  1.00  0.00     0.153 C 
ATOM     13  N   UNL     1       0.565  -0.041  -0.117  1.00  0.00    -0.321 N 
ATOM     14  C   UNL     1      -0.196  -1.159   0.107  1.00  0.00     0.109 A 
ATOM     15  C   UNL     1      -1.485  -0.694   0.198  1.00  0.00     0.133 A 
ATOM     16  N   UNL     1      -1.524   0.666   0.030  1.00  0.00    -0.222 NA
ENDBRANCH   9  11
ENDBRANCH   8   9
ENDBRANCH   7   8
ENDBRANCH   6   7
ENDBRANCH   5   6
ENDBRANCH   1   5
BRANCH   3  17
ATOM     17  C   UNL     1       2.314   5.205   4.059  1.00  0.00     0.117 C 
BRANCH  17  18
ATOM     18  C   UNL     1       1.075   5.774   4.735  1.00  0.00     0.042 C 
BRANCH  18  19
ATOM     19  C   UNL     1       0.730   5.130   6.075  1.00  0.00     0.118 C 
BRANCH  19  20
ATOM     20  N   UNL     1       1.812   5.217   7.048  1.00  0.00    -0.352 N 
ATOM     21  C   UNL     1       1.870   5.819   8.280  1.00  0.00     0.251 C 
ATOM     22  H   UNL     1       2.643   4.766   6.775  1.00  0.00     0.163 HD
ATOM     23  O   UNL     1       2.950   5.900   8.859  1.00  0.00    -0.269 OA
BRANCH  21  24
ATOM     24  C   UNL     1       0.660   6.391   8.910  1.00  0.00     0.039 A 
ATOM     25  C   UNL     1       0.773   7.606   9.593  1.00  0.00     0.014 A 
ATOM     26  C   UNL     1      -0.568   5.727   8.871  1.00  0.00     0.014 A 
ATOM     27  C   UNL     1      -0.357   8.188  10.171  1.00  0.00     0.010 A 
ATOM     28  C   UNL     1      -1.709   6.345   9.379  1.00  0.00     0.010 A 
ATOM     29  C   UNL     1      -1.615   7.581  10.035  1.00  0.00    -0.014 A 
BRANCH  29  30
ATOM     30  C   UNL     1      -2.842   8.231  10.560  1.00  0.00     0.031 A 
ATOM     31  C   UNL     1      -3.644   7.581  11.653  1.00  0.00     0.074 A 
ATOM     32  C   UNL     1      -3.275   9.378  10.002  1.00  0.00     0.049 A 
ATOM     33  N   UNL     1      -4.769   7.974  12.197  1.00  0.00    -0.248 NA
ATOM     34  C   UNL     1      -3.129   6.311  12.187  1.00  0.00     0.031 C 
ATOM     35  C   UNL     1      -2.619  10.084   8.900  1.00  0.00     0.029 A 
ATOM     36  N   UNL     1      -4.378  10.145  10.280  1.00  0.00    -0.354 N 
ATOM     37  C   UNL     1      -5.102   6.995  13.123  1.00  0.00     0.074 A 
ATOM     38  C   UNL     1      -4.089   5.965  13.031  1.00  0.00     0.031 C 
ATOM     39  C   UNL     1      -3.321  11.190   8.608  1.00  0.00     0.029 A 
ATOM     40  C   UNL     1      -4.493  11.252   9.476  1.00  0.00     0.049 A 
ATOM     41  H   UNL     1      -5.026   9.923  10.987  1.00  0.00     0.167 HD
ATOM     42  C   UNL     1      -6.145   6.962  13.988  1.00  0.00     0.031 A 
ATOM     43  C   UNL     1      -5.439  12.209   9.433  1.00  0.00     0.031 A 
ATOM     44  C   UNL     1      -7.153   7.984  14.082  1.00  0.00     0.049 A 
ATOM     45  C   UNL     1      -6.586  12.154  10.399  1.00  0.00     0.074 A 
ATOM     46  C   UNL     1      -8.220   8.066  14.960  1.00  0.00     0.029 A 
ATOM     47  N   UNL     1      -7.223   9.100  13.263  1.00  0.00    -0.354 N 
ATOM     48  N   UNL     1      -6.849  11.256  11.318  1.00  0.00    -0.248 NA
ATOM     49  C   UNL     1      -7.560  13.253  10.332  1.00  0.00     0.031 C 
ATOM     50  C   UNL     1      -8.961   9.210  14.642  1.00  0.00     0.029 A 
ATOM     51  C   UNL     1      -8.326   9.867  13.600  1.00  0.00     0.049 A 
ATOM     52  H   UNL     1      -6.582   9.316  12.547  1.00  0.00     0.167 HD
ATOM     53  C   UNL     1      -8.008  11.689  11.949  1.00  0.00     0.074 A 
ATOM     54  C   UNL     1      -8.384  12.940  11.322  1.00  0.00     0.031 C 
ATOM     55  C   UNL     1      -8.697  11.102  12.958  1.00  0.00     0.031 A 
BRANCH  42  56
ATOM     56  C   UNL     1      -6.243   5.766  14.896  1.00  0.00    -0.014 A 
ATOM     57  C   UNL     1      -5.318   5.565  15.934  1.00  0.00     0.009 A 
ATOM     58  C   UNL     1      -7.276   4.834  14.718  1.00  0.00     0.009 A 
ATOM     59  C   UNL     1      -5.398   4.431  16.744  1.00  0.00     0.001 A 
ATOM     60  C   UNL     1      -7.372   3.716  15.549  1.00  0.00     0.001 A 
ATOM     61  C   UNL     1      -6.426   3.509  16.553  1.00  0.00     0.000 A 
ENDBRANCH  42  56
BRANCH  43  62
ATOM     62  C   UNL     1      -5.324  13.311   8.444  1.00  0.00    -0.014 A 
ATOM     63  C   UNL     1      -4.963  14.602   8.855  1.00  0.00     0.009 A 
ATOM     64  C   UNL     1      -5.551  13.068   7.080  1.00  0.00     0.009 A 
ATOM     65  C   UNL     1      -4.848  15.634   7.920  1.00  0.00     0.001 A 
ATOM     66  C   UNL     1      -5.410  14.096   6.146  1.00  0.00     0.001 A 
ATOM     67  C   UNL     1      -5.065  15.379   6.567  1.00  0.00     0.000 A 
ENDBRANCH  43  62
BRANCH  55  68
ATOM     68  C   UNL     1      -9.920  11.818  13.457  1.00  0.00    -0.014 A 
ATOM     69  C   UNL     1     -11.100  11.857  12.698  1.00  0.00     0.009 A 
ATOM     70  C   UNL     1      -9.900  12.435  14.717  1.00  0.00     0.009 A 
ATOM     71  C   UNL     1     -12.226  12.529  13.178  1.00  0.00     0.001 A 
ATOM     72  C   UNL     1     -11.035  13.082  15.206  1.00  0.00     0.001 A 
ATOM     73  C   UNL     1     -12.194  13.137  14.433  1.00  0.00     0.000 A 
ENDBRANCH  55  68
ENDBRANCH  29  30
ENDBRANCH  21  24
ENDBRANCH  19  20
ENDBRANCH  18  19
ENDBRANCH  17  18
ENDBRANCH   3  17
TORSDOF 15
