REMARK SMILES CC1(C)[C@@](C)(C(=O)NCCCNC(=O)c2ccc(-c3c4nc(c(-c5ccccc5)c5ccc([nH]5)c(-c5ccccc5)c5nc(c(-c6ccccc6)c6ccc3[nH]6)C=C5)C=C4)cc2)CC[C@]1(C)C(=O)Nc1ccc(Cl)cc1Cl
REMARK SMILES IDX 10 1 9 2 8 3 6 4 7 5 4 7 1 8 2 9 3 10 65 11 5 12 63 13 64 14
REMARK SMILES IDX 66 15 67 16 68 17 69 18 70 20 71 21 76 22 72 23 75 24 77 25
REMARK SMILES IDX 73 26 74 27 11 28 12 29 13 30 14 32 15 33 16 34 62 35 17 36
REMARK SMILES IDX 61 37 18 38 19 39 20 40 55 41 21 42 60 43 54 44 56 45 22 46
REMARK SMILES IDX 59 47 53 48 52 49 23 51 45 52 30 53 44 54 31 55 34 56 43 57
REMARK SMILES IDX 57 58 32 59 33 60 42 62 58 63 35 64 24 65 25 66 29 67 26 68
REMARK SMILES IDX 28 69 27 70 46 71 47 72 51 73 48 74 50 75 49 76 36 77 37 78
REMARK SMILES IDX 41 79 38 80 40 81 39 82
REMARK H PARENT 8 6 69 19 12 31 56 50 34 61
REMARK Flexibility Score: inf
ROOT
ATOM      1  C   UNL     1       2.485  -1.319   2.446  1.00  0.00     0.042 C 
ENDROOT
BRANCH   1   2
ATOM      2  C   UNL     1       2.235  -2.507   1.506  1.00  0.00     0.117 C 
BRANCH   2   3
ATOM      3  N   UNL     1       0.822  -2.788   1.260  1.00  0.00    -0.356 N 
ATOM      4  C   UNL     1      -0.016  -2.777   0.186  1.00  0.00     0.226 C 
ATOM      5  O   UNL     1      -1.152  -3.199   0.441  1.00  0.00    -0.274 OA
ATOM      6  H   UNL     1       0.354  -3.054   2.085  1.00  0.00     0.163 HD
BRANCH   4   7
ATOM      7  C   UNL     1       0.355  -2.299  -1.258  1.00  0.00     0.052 C 
ATOM      8  C   UNL     1       1.169  -0.077  -0.307  1.00  0.00     0.013 C 
ATOM      9  C   UNL     1       0.459  -0.731  -1.476  1.00  0.00    -0.007 C 
ATOM     10  C   UNL     1       1.302  -0.436  -2.749  1.00  0.00     0.013 C 
ATOM     11  C   UNL     1      -1.032  -0.204  -1.663  1.00  0.00     0.053 C 
ATOM     12  C   UNL     1       1.587  -3.115  -1.715  1.00  0.00     0.022 C 
ATOM     13  C   UNL     1      -0.808  -2.655  -2.227  1.00  0.00     0.018 C 
ATOM     14  C   UNL     1      -1.681  -1.410  -2.422  1.00  0.00     0.018 C 
ATOM     15  C   UNL     1      -1.851  -0.026  -0.373  1.00  0.00     0.022 C 
BRANCH  11  16
ATOM     16  C   UNL     1      -1.175   1.098  -2.551  1.00  0.00     0.230 C 
ATOM     17  O   UNL     1      -1.750   1.046  -3.647  1.00  0.00    -0.274 OA
ATOM     18  N   UNL     1      -0.609   2.314  -2.269  1.00  0.00    -0.324 N 
ATOM     19  H   UNL     1      -0.560   2.913  -3.049  1.00  0.00     0.170 HD
BRANCH  18  20
ATOM     20  C   UNL     1      -0.085   2.881  -1.099  1.00  0.00     0.060 A 
ATOM     21  C   UNL     1      -0.895   3.052   0.024  1.00  0.00     0.029 A 
ATOM     22  C   UNL     1       1.245   3.346  -1.055  1.00  0.00     0.066 A 
ATOM     23  C   UNL     1      -0.349   3.527   1.221  1.00  0.00     0.023 A 
ATOM     24  C   UNL     1       1.808   3.761   0.156  1.00  0.00     0.043 A 
ATOM     25  Cl  UNL     1       2.281   3.269  -2.436  1.00  0.00    -0.082 Cl
ATOM     26  C   UNL     1       1.009   3.829   1.294  1.00  0.00     0.042 A 
ATOM     27  Cl  UNL     1       1.706   4.272   2.804  1.00  0.00    -0.084 Cl
ENDBRANCH  18  20
ENDBRANCH  11  16
ENDBRANCH   4   7
ENDBRANCH   2   3
ENDBRANCH   1   2
BRANCH   1  28
ATOM     28  C   UNL     1       1.897  -1.466   3.844  1.00  0.00     0.118 C 
BRANCH  28  29
ATOM     29  N   UNL     1       2.853  -2.059   4.759  1.00  0.00    -0.352 N 
ATOM     30  C   UNL     1       3.591  -1.488   5.764  1.00  0.00     0.251 C 
ATOM     31  H   UNL     1       2.994  -3.026   4.640  1.00  0.00     0.163 HD
ATOM     32  O   UNL     1       4.555  -2.118   6.210  1.00  0.00    -0.269 OA
BRANCH  30  33
ATOM     33  C   UNL     1       3.276  -0.153   6.334  1.00  0.00     0.039 A 
ATOM     34  C   UNL     1       4.334   0.619   6.829  1.00  0.00     0.014 A 
ATOM     35  C   UNL     1       1.966   0.308   6.503  1.00  0.00     0.014 A 
ATOM     36  C   UNL     1       4.084   1.832   7.480  1.00  0.00     0.010 A 
ATOM     37  C   UNL     1       1.721   1.559   7.080  1.00  0.00     0.010 A 
ATOM     38  C   UNL     1       2.774   2.318   7.609  1.00  0.00    -0.014 A 
BRANCH  38  39
ATOM     39  C   UNL     1       2.510   3.587   8.342  1.00  0.00     0.031 A 
ATOM     40  C   UNL     1       1.734   3.584   9.635  1.00  0.00     0.074 A 
ATOM     41  C   UNL     1       2.960   4.756   7.846  1.00  0.00     0.049 A 
ATOM     42  N   UNL     1       1.464   4.585  10.439  1.00  0.00    -0.248 NA
ATOM     43  C   UNL     1       1.167   2.299  10.071  1.00  0.00     0.031 C 
ATOM     44  C   UNL     1       3.670   4.919   6.577  1.00  0.00     0.029 A 
ATOM     45  N   UNL     1       2.893   6.028   8.358  1.00  0.00    -0.354 N 
ATOM     46  C   UNL     1       0.679   4.055  11.455  1.00  0.00     0.074 A 
ATOM     47  C   UNL     1       0.479   2.656  11.146  1.00  0.00     0.031 C 
ATOM     48  C   UNL     1       4.007   6.210   6.427  1.00  0.00     0.029 A 
ATOM     49  C   UNL     1       3.521   6.967   7.577  1.00  0.00     0.049 A 
ATOM     50  H   UNL     1       2.438   6.247   9.203  1.00  0.00     0.167 HD
ATOM     51  C   UNL     1       0.182   4.666  12.558  1.00  0.00     0.031 A 
ATOM     52  C   UNL     1       3.703   8.288   7.769  1.00  0.00     0.031 A 
ATOM     53  C   UNL     1       0.398   6.049  12.891  1.00  0.00     0.049 A 
ATOM     54  C   UNL     1       3.195   8.935   9.025  1.00  0.00     0.074 A 
ATOM     55  C   UNL     1       0.002   6.736  14.026  1.00  0.00     0.029 A 
ATOM     56  N   UNL     1       1.068   6.957  12.088  1.00  0.00    -0.354 N 
ATOM     57  N   UNL     1       2.534   8.398  10.021  1.00  0.00    -0.248 NA
ATOM     58  C   UNL     1       3.481  10.368   9.193  1.00  0.00     0.031 C 
ATOM     59  C   UNL     1       0.400   8.071  13.891  1.00  0.00     0.029 A 
ATOM     60  C   UNL     1       1.082   8.203  12.692  1.00  0.00     0.049 A 
ATOM     61  H   UNL     1       1.475   6.747  11.216  1.00  0.00     0.167 HD
ATOM     62  C   UNL     1       2.342   9.419  10.942  1.00  0.00     0.074 A 
ATOM     63  C   UNL     1       2.970  10.604  10.394  1.00  0.00     0.031 C 
ATOM     64  C   UNL     1       1.703   9.376  12.137  1.00  0.00     0.031 A 
BRANCH  51  65
ATOM     65  C   UNL     1      -0.658   3.833  13.488  1.00  0.00    -0.014 A 
ATOM     66  C   UNL     1      -0.086   2.831  14.288  1.00  0.00     0.009 A 
ATOM     67  C   UNL     1      -2.039   4.068  13.579  1.00  0.00     0.009 A 
ATOM     68  C   UNL     1      -0.886   2.053  15.127  1.00  0.00     0.001 A 
ATOM     69  C   UNL     1      -2.832   3.307  14.440  1.00  0.00     0.001 A 
ATOM     70  C   UNL     1      -2.258   2.293  15.204  1.00  0.00     0.000 A 
ENDBRANCH  51  65
BRANCH  52  71
ATOM     71  C   UNL     1       4.448   9.076   6.755  1.00  0.00    -0.014 A 
ATOM     72  C   UNL     1       5.767   9.485   7.002  1.00  0.00     0.009 A 
ATOM     73  C   UNL     1       3.854   9.399   5.526  1.00  0.00     0.009 A 
ATOM     74  C   UNL     1       6.473  10.213   6.042  1.00  0.00     0.001 A 
ATOM     75  C   UNL     1       4.569  10.108   4.559  1.00  0.00     0.001 A 
ATOM     76  C   UNL     1       5.876  10.519   4.820  1.00  0.00     0.000 A 
ENDBRANCH  52  71
BRANCH  64  77
ATOM     77  C   UNL     1       1.671  10.642  12.944  1.00  0.00    -0.014 A 
ATOM     78  C   UNL     1       0.840  11.713  12.584  1.00  0.00     0.009 A 
ATOM     79  C   UNL     1       2.458  10.749  14.102  1.00  0.00     0.009 A 
ATOM     80  C   UNL     1       0.822  12.881  13.349  1.00  0.00     0.001 A 
ATOM     81  C   UNL     1       2.420  11.909  14.878  1.00  0.00     0.001 A 
ATOM     82  C   UNL     1       1.609  12.976  14.496  1.00  0.00     0.000 A 
ENDBRANCH  64  77
ENDBRANCH  38  39
ENDBRANCH  30  33
ENDBRANCH  28  29
ENDBRANCH   1  28
TORSDOF 12
