REMARK SMILES COC(=O)C1=C(C)N(c2ccc(Br)cc2)C(=O)/C1=C\c1ccc(C(=O)NCCCNC(=O)c2ccc(-c3c4nc(c(-c5ccccc5)c5ccc([nH]5)c(-c5ccccc5)c5nc(c(-c6ccccc6)c6ccc3[nH]6)C=C5)C=C4)cc2)cc1
REMARK SMILES IDX 27 1 26 2 24 3 25 4 23 6 20 7 21 8 82 9 22 10 81 11 19 12
REMARK SMILES IDX 5 13 6 14 18 15 7 16 8 17 16 18 17 19 3 20 4 21 2 22 1 23
REMARK SMILES IDX 9 24 10 25 15 26 11 27 14 28 12 29 13 30 28 31 29 32 30 33
REMARK SMILES IDX 31 34 32 36 33 37 34 38 80 39 35 40 79 41 36 42 37 43 38 44
REMARK SMILES IDX 73 45 39 46 78 47 72 48 74 49 40 50 77 51 71 52 70 53 41 55
REMARK SMILES IDX 63 56 48 57 62 58 49 59 52 60 61 61 75 62 50 63 51 64 60 66
REMARK SMILES IDX 76 67 53 68 42 69 43 70 47 71 44 72 46 73 45 74 64 75 65 76
REMARK SMILES IDX 69 77 66 78 68 79 67 80 54 81 55 82 59 83 56 84 58 85 57 86
REMARK H PARENT 26 5 30 35 74 54 52 65
REMARK Flexibility Score: inf
ROOT
ATOM      1  C   UNL     1       3.739  -6.199  -9.496  1.00  0.00     0.118 C 
ENDROOT
BRANCH   1   2
ATOM      2  N   UNL     1       4.917  -6.685  -8.800  1.00  0.00    -0.352 N 
ATOM      3  C   UNL     1       5.343  -6.533  -7.503  1.00  0.00     0.251 C 
ATOM      4  O   UNL     1       6.368  -7.123  -7.164  1.00  0.00    -0.269 OA
ATOM      5  H   UNL     1       5.523  -7.222  -9.360  1.00  0.00     0.163 HD
BRANCH   3   6
ATOM      6  C   UNL     1       4.600  -5.727  -6.496  1.00  0.00     0.039 A 
ATOM      7  C   UNL     1       3.198  -4.334  -4.499  1.00  0.00    -0.025 A 
ATOM      8  C   UNL     1       4.014  -5.409  -4.149  1.00  0.00     0.009 A 
ATOM      9  C   UNL     1       3.122  -3.928  -5.833  1.00  0.00     0.009 A 
ATOM     10  C   UNL     1       4.708  -6.105  -5.147  1.00  0.00     0.014 A 
ATOM     11  C   UNL     1       3.843  -4.600  -6.816  1.00  0.00     0.014 A 
BRANCH   7  12
ATOM     12  C   UNL     1       2.449  -3.553  -3.520  1.00  0.00     0.023 C 
ATOM     13  C   UNL     1       0.316  -2.783  -2.474  1.00  0.00     0.092 C 
ATOM     14  C   UNL     1      -0.931  -3.296  -2.394  1.00  0.00     0.039 C 
ATOM     15  C   UNL     1       1.134  -3.673  -3.278  1.00  0.00     0.057 C 
ATOM     16  C   UNL     1      -2.049  -2.711  -1.593  1.00  0.00     0.066 C 
ATOM     17  N   UNL     1      -1.008  -4.495  -3.113  1.00  0.00    -0.280 N 
ATOM     18  C   UNL     1       0.230  -4.774  -3.748  1.00  0.00     0.263 C 
ATOM     19  O   UNL     1       0.527  -5.679  -4.503  1.00  0.00    -0.268 OA
BRANCH  13  20
ATOM     20  C   UNL     1       0.805  -1.501  -1.937  1.00  0.00     0.340 C 
ATOM     21  O   UNL     1       1.552  -0.756  -2.556  1.00  0.00    -0.246 OA
BRANCH  20  22
ATOM     22  O   UNL     1       0.365  -1.299  -0.672  1.00  0.00    -0.465 OA
ATOM     23  C   UNL     1       0.862  -0.095  -0.085  1.00  0.00     0.282 C 
ENDBRANCH  20  22
ENDBRANCH  13  20
BRANCH  17  24
ATOM     24  C   UNL     1      -2.090  -5.415  -3.210  1.00  0.00     0.049 A 
ATOM     25  C   UNL     1      -1.833  -6.791  -3.095  1.00  0.00     0.028 A 
ATOM     26  C   UNL     1      -3.416  -4.999  -3.380  1.00  0.00     0.028 A 
ATOM     27  C   UNL     1      -2.875  -7.722  -3.079  1.00  0.00     0.018 A 
ATOM     28  C   UNL     1      -4.463  -5.930  -3.377  1.00  0.00     0.018 A 
ATOM     29  C   UNL     1      -4.188  -7.285  -3.209  1.00  0.00     0.018 A 
ATOM     30  Br  UNL     1      -5.602  -8.537  -3.151  1.00  0.00    -0.051 Br
ENDBRANCH  17  24
ENDBRANCH   7  12
ENDBRANCH   3   6
ENDBRANCH   1   2
BRANCH   1  31
ATOM     31  C   UNL     1       4.078  -4.994 -10.376  1.00  0.00     0.042 C 
BRANCH  31  32
ATOM     32  C   UNL     1       4.822  -5.369 -11.654  1.00  0.00     0.118 C 
BRANCH  32  33
ATOM     33  N   UNL     1       3.990  -6.157 -12.551  1.00  0.00    -0.352 N 
ATOM     34  C   UNL     1       3.586  -5.917 -13.837  1.00  0.00     0.251 C 
ATOM     35  H   UNL     1       3.662  -7.003 -12.169  1.00  0.00     0.163 HD
ATOM     36  O   UNL     1       2.675  -6.590 -14.312  1.00  0.00    -0.269 OA
BRANCH  34  37
ATOM     37  C   UNL     1       4.223  -4.866 -14.659  1.00  0.00     0.039 A 
ATOM     38  C   UNL     1       3.423  -4.159 -15.561  1.00  0.00     0.014 A 
ATOM     39  C   UNL     1       5.597  -4.616 -14.605  1.00  0.00     0.014 A 
ATOM     40  C   UNL     1       3.991  -3.178 -16.373  1.00  0.00     0.010 A 
ATOM     41  C   UNL     1       6.150  -3.581 -15.359  1.00  0.00     0.010 A 
ATOM     42  C   UNL     1       5.354  -2.856 -16.256  1.00  0.00    -0.014 A 
BRANCH  42  43
ATOM     43  C   UNL     1       5.926  -1.737 -17.045  1.00  0.00     0.031 A 
ATOM     44  C   UNL     1       6.987  -1.976 -18.082  1.00  0.00     0.074 A 
ATOM     45  C   UNL     1       5.492  -0.484 -16.802  1.00  0.00     0.049 A 
ATOM     46  N   UNL     1       7.549  -1.118 -18.897  1.00  0.00    -0.248 NA
ATOM     47  C   UNL     1       7.500  -3.349 -18.209  1.00  0.00     0.031 C 
ATOM     48  C   UNL     1       4.510  -0.115 -15.779  1.00  0.00     0.029 A 
ATOM     49  N   UNL     1       5.812   0.707 -17.401  1.00  0.00    -0.354 N 
ATOM     50  C   UNL     1       8.486  -1.843 -19.624  1.00  0.00     0.074 A 
ATOM     51  C   UNL     1       8.453  -3.198 -19.119  1.00  0.00     0.031 C 
ATOM     52  C   UNL     1       4.272   1.202 -15.854  1.00  0.00     0.029 A 
ATOM     53  C   UNL     1       5.114   1.777 -16.898  1.00  0.00     0.049 A 
ATOM     54  H   UNL     1       6.477   0.787 -18.122  1.00  0.00     0.167 HD
ATOM     55  C   UNL     1       9.289  -1.422 -20.632  1.00  0.00     0.031 A 
ATOM     56  C   UNL     1       5.143   3.079 -17.238  1.00  0.00     0.031 A 
ATOM     57  C   UNL     1       9.325  -0.069 -21.125  1.00  0.00     0.049 A 
ATOM     58  C   UNL     1       6.039   3.519 -18.359  1.00  0.00     0.074 A 
ATOM     59  C   UNL     1      10.057   0.445 -22.182  1.00  0.00     0.029 A 
ATOM     60  N   UNL     1       8.609   0.990 -20.585  1.00  0.00    -0.354 N 
ATOM     61  N   UNL     1       6.851   2.803 -19.099  1.00  0.00    -0.248 NA
ATOM     62  C   UNL     1       6.006   4.946 -18.703  1.00  0.00     0.031 C 
ATOM     63  C   UNL     1       9.837   1.826 -22.237  1.00  0.00     0.029 A 
ATOM     64  C   UNL     1       8.910   2.161 -21.263  1.00  0.00     0.049 A 
ATOM     65  H   UNL     1       7.980   0.919 -19.831  1.00  0.00     0.167 HD
ATOM     66  C   UNL     1       7.412   3.688 -20.009  1.00  0.00     0.074 A 
ATOM     67  C   UNL     1       6.821   4.985 -19.748  1.00  0.00     0.031 C 
ATOM     68  C   UNL     1       8.336   3.451 -20.974  1.00  0.00     0.031 A 
BRANCH  55  69
ATOM     69  C   UNL     1      10.214  -2.436 -21.253  1.00  0.00    -0.014 A 
ATOM     70  C   UNL     1       9.722  -3.510 -22.014  1.00  0.00     0.009 A 
ATOM     71  C   UNL     1      11.602  -2.297 -21.101  1.00  0.00     0.009 A 
ATOM     72  C   UNL     1      10.598  -4.444 -22.572  1.00  0.00     0.001 A 
ATOM     73  C   UNL     1      12.478  -3.213 -21.689  1.00  0.00     0.001 A 
ATOM     74  C   UNL     1      11.975  -4.292 -22.413  1.00  0.00     0.000 A 
ENDBRANCH  55  69
BRANCH  56  75
ATOM     75  C   UNL     1       4.284   4.053 -16.514  1.00  0.00    -0.014 A 
ATOM     76  C   UNL     1       3.197   4.666 -17.155  1.00  0.00     0.009 A 
ATOM     77  C   UNL     1       4.544   4.367 -15.171  1.00  0.00     0.009 A 
ATOM     78  C   UNL     1       2.406   5.594 -16.474  1.00  0.00     0.001 A 
ATOM     79  C   UNL     1       3.731   5.268 -14.482  1.00  0.00     0.001 A 
ATOM     80  C   UNL     1       2.669   5.889 -15.137  1.00  0.00     0.000 A 
ENDBRANCH  56  75
BRANCH  68  81
ATOM     81  C   UNL     1       8.745   4.625 -21.823  1.00  0.00    -0.014 A 
ATOM     82  C   UNL     1       9.475   5.699 -21.287  1.00  0.00     0.009 A 
ATOM     83  C   UNL     1       8.386   4.661 -23.180  1.00  0.00     0.009 A 
ATOM     84  C   UNL     1       9.784   6.809 -22.077  1.00  0.00     0.001 A 
ATOM     85  C   UNL     1       8.730   5.754 -23.976  1.00  0.00     0.001 A 
ATOM     86  C   UNL     1       9.413   6.834 -23.420  1.00  0.00     0.000 A 
ENDBRANCH  68  81
ENDBRANCH  42  43
ENDBRANCH  34  37
ENDBRANCH  32  33
ENDBRANCH  31  32
ENDBRANCH   1  31
TORSDOF 14
