REMARK SMILES O=C(C[C@H](NC(=O)[C@]12C[C@H]3C[C@H](C[C@H](C3)C1)C2)c1ccc(Cl)cc1Cl)NCCCNC(=O)c1ccc(-c2c3nc(c(-c4ccccc4)c4ccc([nH]4)c(-c4ccccc4)c4nc(c(-c5ccccc5)c5ccc2[nH]5)C=C4)C=C3)cc1
REMARK SMILES IDX 27 1 26 2 1 3 2 4 3 6 4 7 18 8 19 9 24 10 20 11 23 12 25 13
REMARK SMILES IDX 21 14 22 15 5 16 6 17 7 19 8 20 9 21 16 22 17 23 10 24 14 25
REMARK SMILES IDX 12 26 11 27 15 28 13 29 28 30 29 31 30 32 31 33 32 35 33 36
REMARK SMILES IDX 34 37 80 38 35 39 79 40 36 41 37 42 38 43 73 44 39 45 78 46
REMARK SMILES IDX 72 47 74 48 40 49 77 50 71 51 70 52 41 54 63 55 48 56 62 57
REMARK SMILES IDX 49 58 52 59 61 60 75 61 50 62 51 63 60 65 76 66 53 67 42 68
REMARK SMILES IDX 43 69 47 70 44 71 46 72 45 73 64 74 65 75 69 76 66 77 68 78
REMARK SMILES IDX 67 79 54 80 55 81 59 82 56 83 58 84 57 85
REMARK H PARENT 26 5 5 18 30 34 74 53 52 64
REMARK Flexibility Score: inf
ROOT
ATOM      1  C   UNL     1       5.765   2.059  -1.907  1.00  0.00     0.117 C 
ENDROOT
BRANCH   1   2
ATOM      2  N   UNL     1       5.277   1.062  -0.982  1.00  0.00    -0.356 N 
ATOM      3  O   UNL     1       7.244   0.785   0.174  1.00  0.00    -0.275 OA
ATOM      4  C   UNL     1       6.070   0.498  -0.014  1.00  0.00     0.222 C 
ATOM      5  H   UNL     1       4.337   0.775  -1.048  1.00  0.00     0.163 HD
BRANCH   4   6
ATOM      6  C   UNL     1       5.356  -0.552   0.786  1.00  0.00     0.129 C 
BRANCH   6   7
ATOM      7  C   UNL     1       4.361   0.010   1.809  1.00  0.00     0.123 C 
BRANCH   7   8
ATOM      8  C   UNL     1       4.941   0.937   2.865  1.00  0.00    -0.006 A 
ATOM      9  C   UNL     1       4.713   2.329   2.810  1.00  0.00     0.009 A 
ATOM     10  C   UNL     1       5.701   0.444   3.946  1.00  0.00     0.047 A 
ATOM     11  C   UNL     1       5.200   3.183   3.802  1.00  0.00     0.021 A 
ATOM     12  C   UNL     1       6.199   1.302   4.931  1.00  0.00     0.041 A 
ATOM     13  Cl  UNL     1       6.030  -1.243   4.149  1.00  0.00    -0.084 Cl
ATOM     14  C   UNL     1       5.941   2.666   4.857  1.00  0.00     0.042 A 
ATOM     15  Cl  UNL     1       6.529   3.715   6.085  1.00  0.00    -0.084 Cl
ENDBRANCH   7   8
BRANCH   7  16
ATOM     16  N   UNL     1       3.159   0.572   1.180  1.00  0.00    -0.348 N 
ATOM     17  C   UNL     1       1.823   0.444   1.372  1.00  0.00     0.226 C 
ATOM     18  H   UNL     1       3.374   1.190   0.444  1.00  0.00     0.164 HD
ATOM     19  O   UNL     1       1.141   1.145   0.611  1.00  0.00    -0.274 OA
BRANCH  17  20
ATOM     20  C   UNL     1       1.139  -0.406   2.467  1.00  0.00     0.050 C 
ATOM     21  C   UNL     1       1.946  -1.595   3.016  1.00  0.00     0.020 C 
ATOM     22  C   UNL     1      -0.194  -0.958   1.875  1.00  0.00     0.020 C 
ATOM     23  C   UNL     1       0.760   0.502   3.665  1.00  0.00     0.020 C 
ATOM     24  C   UNL     1       1.163  -2.415   4.040  1.00  0.00    -0.010 C 
ATOM     25  C   UNL     1      -0.979  -1.768   2.920  1.00  0.00    -0.010 C 
ATOM     26  C   UNL     1      -0.016  -0.302   4.732  1.00  0.00    -0.010 C 
ATOM     27  C   UNL     1       0.835  -1.486   5.221  1.00  0.00     0.007 C 
ATOM     28  C   UNL     1      -0.117  -2.945   3.393  1.00  0.00     0.007 C 
ATOM     29  C   UNL     1      -1.310  -0.863   4.119  1.00  0.00     0.007 C 
ENDBRANCH  17  20
ENDBRANCH   7  16
ENDBRANCH   6   7
ENDBRANCH   4   6
ENDBRANCH   1   2
BRANCH   1  30
ATOM     30  C   UNL     1       5.466   1.656  -3.343  1.00  0.00     0.042 C 
BRANCH  30  31
ATOM     31  C   UNL     1       3.978   1.512  -3.643  1.00  0.00     0.118 C 
BRANCH  31  32
ATOM     32  N   UNL     1       3.248   2.764  -3.514  1.00  0.00    -0.352 N 
ATOM     33  C   UNL     1       2.521   3.443  -4.465  1.00  0.00     0.251 C 
ATOM     34  H   UNL     1       3.277   3.183  -2.624  1.00  0.00     0.163 HD
ATOM     35  O   UNL     1       2.115   4.575  -4.251  1.00  0.00    -0.269 OA
BRANCH  33  36
ATOM     36  C   UNL     1       2.270   2.794  -5.767  1.00  0.00     0.039 A 
ATOM     37  C   UNL     1       2.562   3.491  -6.940  1.00  0.00     0.014 A 
ATOM     38  C   UNL     1       1.800   1.479  -5.819  1.00  0.00     0.014 A 
ATOM     39  C   UNL     1       2.468   2.835  -8.169  1.00  0.00     0.010 A 
ATOM     40  C   UNL     1       1.790   0.804  -7.033  1.00  0.00     0.010 A 
ATOM     41  C   UNL     1       2.131   1.473  -8.220  1.00  0.00    -0.014 A 
BRANCH  41  42
ATOM     42  C   UNL     1       2.139   0.714  -9.495  1.00  0.00     0.031 A 
ATOM     43  C   UNL     1       0.870   0.088 -10.003  1.00  0.00     0.074 A 
ATOM     44  C   UNL     1       3.302   0.508 -10.146  1.00  0.00     0.049 A 
ATOM     45  N   UNL     1       0.696  -0.713 -11.023  1.00  0.00    -0.248 NA
ATOM     46  C   UNL     1      -0.360   0.379  -9.249  1.00  0.00     0.031 C 
ATOM     47  C   UNL     1       4.607   1.038  -9.743  1.00  0.00     0.029 A 
ATOM     48  N   UNL     1       3.575  -0.218 -11.278  1.00  0.00    -0.354 N 
ATOM     49  C   UNL     1      -0.655  -1.037 -11.019  1.00  0.00     0.074 A 
ATOM     50  C   UNL     1      -1.244  -0.388  -9.869  1.00  0.00     0.031 C 
ATOM     51  C   UNL     1       5.535   0.636 -10.626  1.00  0.00     0.029 A 
ATOM     52  C   UNL     1       4.905  -0.222 -11.624  1.00  0.00     0.049 A 
ATOM     53  H   UNL     1       2.883  -0.691 -11.795  1.00  0.00     0.167 HD
ATOM     54  C   UNL     1      -1.347  -1.795 -11.902  1.00  0.00     0.031 A 
ATOM     55  C   UNL     1       5.549  -0.860 -12.620  1.00  0.00     0.031 A 
ATOM     56  C   UNL     1      -0.760  -2.436 -13.048  1.00  0.00     0.049 A 
ATOM     57  C   UNL     1       4.765  -1.729 -13.565  1.00  0.00     0.074 A 
ATOM     58  C   UNL     1      -1.387  -3.184 -14.030  1.00  0.00     0.029 A 
ATOM     59  N   UNL     1       0.589  -2.410 -13.364  1.00  0.00    -0.354 N 
ATOM     60  N   UNL     1       3.478  -1.978 -13.581  1.00  0.00    -0.248 NA
ATOM     61  C   UNL     1       5.521  -2.399 -14.633  1.00  0.00     0.031 C 
ATOM     62  C   UNL     1      -0.408  -3.662 -14.905  1.00  0.00     0.029 A 
ATOM     63  C   UNL     1       0.819  -3.152 -14.509  1.00  0.00     0.049 A 
ATOM     64  H   UNL     1       1.281  -1.934 -12.849  1.00  0.00     0.167 HD
ATOM     65  C   UNL     1       3.265  -2.800 -14.681  1.00  0.00     0.074 A 
ATOM     66  C   UNL     1       4.554  -3.002 -15.309  1.00  0.00     0.031 C 
ATOM     67  C   UNL     1       2.105  -3.334 -15.132  1.00  0.00     0.031 A 
BRANCH  54  68
ATOM     68  C   UNL     1      -2.818  -1.983 -11.653  1.00  0.00    -0.014 A 
ATOM     69  C   UNL     1      -3.724  -0.918 -11.787  1.00  0.00     0.009 A 
ATOM     70  C   UNL     1      -3.310  -3.253 -11.316  1.00  0.00     0.009 A 
ATOM     71  C   UNL     1      -5.086  -1.114 -11.551  1.00  0.00     0.001 A 
ATOM     72  C   UNL     1      -4.677  -3.453 -11.113  1.00  0.00     0.001 A 
ATOM     73  C   UNL     1      -5.562  -2.381 -11.220  1.00  0.00     0.000 A 
ENDBRANCH  54  68
BRANCH  55  74
ATOM     74  C   UNL     1       7.020  -0.702 -12.780  1.00  0.00    -0.014 A 
ATOM     75  C   UNL     1       7.546  -0.009 -13.880  1.00  0.00     0.009 A 
ATOM     76  C   UNL     1       7.905  -1.252 -11.839  1.00  0.00     0.009 A 
ATOM     77  C   UNL     1       8.928   0.103 -14.052  1.00  0.00     0.001 A 
ATOM     78  C   UNL     1       9.286  -1.110 -11.996  1.00  0.00     0.001 A 
ATOM     79  C   UNL     1       9.796  -0.442 -13.108  1.00  0.00     0.000 A 
ENDBRANCH  55  74
BRANCH  67  80
ATOM     80  C   UNL     1       2.155  -4.143 -16.398  1.00  0.00    -0.014 A 
ATOM     81  C   UNL     1       2.721  -5.426 -16.429  1.00  0.00     0.009 A 
ATOM     82  C   UNL     1       1.556  -3.634 -17.562  1.00  0.00     0.009 A 
ATOM     83  C   UNL     1       2.707  -6.173 -17.609  1.00  0.00     0.001 A 
ATOM     84  C   UNL     1       1.516  -4.396 -18.730  1.00  0.00     0.001 A 
ATOM     85  C   UNL     1       2.097  -5.662 -18.755  1.00  0.00     0.000 A 
ENDBRANCH  67  80
ENDBRANCH  41  42
ENDBRANCH  33  36
ENDBRANCH  31  32
ENDBRANCH  30  31
ENDBRANCH   1  30
TORSDOF 14
