REMARK SMILES N#Cc1ccccc1C[C@@H](NC(=O)OCC1c2ccccc2-c2ccccc21)C(=O)NCCCNC(=O)c1ccc(-c2c3nc(c(-c4ccccc4)c4ccc([nH]4)c(-c4ccccc4)c4nc(c(-c5ccccc5)c5ccc2[nH]5)C=C4)C=C3)cc1
REMARK SMILES IDX 32 1 31 2 29 3 30 4 10 6 9 7 8 8 3 9 4 10 5 11 7 12 6 13
REMARK SMILES IDX 2 14 1 15 11 16 12 17 13 19 14 20 15 21 16 22 17 23 28 24
REMARK SMILES IDX 18 25 22 26 23 27 27 28 19 29 21 30 24 31 26 32 20 33 25 34
REMARK SMILES IDX 33 35 34 36 35 37 36 38 37 40 38 41 39 42 85 43 40 44 84 45
REMARK SMILES IDX 41 46 42 47 43 48 78 49 44 50 83 51 77 52 79 53 45 54 82 55
REMARK SMILES IDX 76 56 75 57 46 59 68 60 53 61 67 62 54 63 57 64 66 65 80 66
REMARK SMILES IDX 55 67 56 68 65 70 81 71 58 72 47 73 48 74 52 75 49 76 51 77
REMARK SMILES IDX 50 78 69 79 70 80 74 81 71 82 73 83 72 84 59 85 60 86 64 87
REMARK SMILES IDX 61 88 63 89 62 90
REMARK H PARENT 31 5 11 18 35 39 79 58 57 69
REMARK Flexibility Score: inf
ROOT
ATOM      1  C   UNL     1      -0.145  -5.343   0.913  1.00  0.00     0.117 C 
ENDROOT
BRANCH   1   2
ATOM      2  N   UNL     1      -1.088  -5.301  -0.197  1.00  0.00    -0.354 N 
ATOM      3  C   UNL     1      -1.121  -4.462  -1.280  1.00  0.00     0.243 C 
ATOM      4  O   UNL     1      -1.961  -4.671  -2.156  1.00  0.00    -0.273 OA
ATOM      5  H   UNL     1      -1.807  -5.973  -0.164  1.00  0.00     0.163 HD
BRANCH   3   6
ATOM      6  C   UNL     1      -0.167  -3.252  -1.346  1.00  0.00     0.179 C 
BRANCH   6   7
ATOM      7  C   UNL     1      -0.539  -2.295  -0.172  1.00  0.00     0.072 C 
BRANCH   7   8
ATOM      8  C   UNL     1       0.192  -0.968  -0.092  1.00  0.00    -0.028 A 
ATOM      9  C   UNL     1      -0.480   0.267  -0.176  1.00  0.00     0.055 A 
ATOM     10  C   UNL     1       0.244   1.466  -0.111  1.00  0.00     0.020 A 
ATOM     11  C   UNL     1       1.628   1.452   0.057  1.00  0.00     0.001 A 
ATOM     12  C   UNL     1       1.575  -0.954   0.174  1.00  0.00     0.005 A 
ATOM     13  C   UNL     1       2.291   0.241   0.215  1.00  0.00     0.000 A 
BRANCH   9  14
ATOM     14  C   UNL     1      -1.915   0.350  -0.257  1.00  0.00     0.099 C 
ATOM     15  N   UNL     1      -3.071   0.402  -0.286  1.00  0.00    -0.192 NA
ENDBRANCH   9  14
ENDBRANCH   7   8
ENDBRANCH   6   7
BRANCH   6  16
ATOM     16  N   UNL     1       1.259  -3.595  -1.426  1.00  0.00    -0.309 N 
ATOM     17  C   UNL     1       1.838  -4.807  -1.214  1.00  0.00     0.407 C 
ATOM     18  H   UNL     1       1.868  -2.858  -1.663  1.00  0.00     0.167 HD
ATOM     19  O   UNL     1       2.873  -4.899  -0.570  1.00  0.00    -0.225 OA
BRANCH  17  20
ATOM     20  O   UNL     1       1.168  -5.826  -1.806  1.00  0.00    -0.449 OA
BRANCH  20  21
ATOM     21  C   UNL     1       1.733  -7.144  -1.667  1.00  0.00     0.248 C 
BRANCH  21  22
ATOM     22  C   UNL     1       2.533  -7.551  -2.915  1.00  0.00     0.088 C 
ATOM     23  C   UNL     1       3.790  -6.700  -3.068  1.00  0.00    -0.029 A 
ATOM     24  C   UNL     1       3.132  -8.941  -2.727  1.00  0.00    -0.029 A 
ATOM     25  C   UNL     1       3.882  -5.350  -3.374  1.00  0.00     0.005 A 
ATOM     26  C   UNL     1       4.932  -7.463  -2.759  1.00  0.00    -0.014 A 
ATOM     27  C   UNL     1       4.539  -8.849  -2.623  1.00  0.00    -0.014 A 
ATOM     28  C   UNL     1       2.481 -10.163  -2.658  1.00  0.00     0.005 A 
ATOM     29  C   UNL     1       5.112  -4.721  -3.201  1.00  0.00     0.000 A 
ATOM     30  C   UNL     1       6.160  -6.843  -2.614  1.00  0.00     0.009 A 
ATOM     31  C   UNL     1       5.308  -9.991  -2.473  1.00  0.00     0.009 A 
ATOM     32  C   UNL     1       3.258 -11.313  -2.503  1.00  0.00     0.000 A 
ATOM     33  C   UNL     1       6.237  -5.458  -2.802  1.00  0.00     0.001 A 
ATOM     34  C   UNL     1       4.659 -11.228  -2.418  1.00  0.00     0.001 A 
ENDBRANCH  21  22
ENDBRANCH  20  21
ENDBRANCH  17  20
ENDBRANCH   6  16
ENDBRANCH   3   6
ENDBRANCH   1   2
BRANCH   1  35
ATOM     35  C   UNL     1      -0.847  -5.369   2.249  1.00  0.00     0.042 C 
BRANCH  35  36
ATOM     36  C   UNL     1      -1.540  -6.696   2.479  1.00  0.00     0.118 C 
BRANCH  36  37
ATOM     37  N   UNL     1      -0.598  -7.808   2.567  1.00  0.00    -0.352 N 
ATOM     38  C   UNL     1      -0.381  -8.680   3.603  1.00  0.00     0.251 C 
ATOM     39  H   UNL     1      -0.039  -7.952   1.770  1.00  0.00     0.163 HD
ATOM     40  O   UNL     1       0.585  -9.434   3.594  1.00  0.00    -0.269 OA
BRANCH  38  41
ATOM     41  C   UNL     1      -1.316  -8.673   4.741  1.00  0.00     0.039 A 
ATOM     42  C   UNL     1      -0.808  -8.702   6.039  1.00  0.00     0.014 A 
ATOM     43  C   UNL     1      -2.690  -8.574   4.514  1.00  0.00     0.014 A 
ATOM     44  C   UNL     1      -1.684  -8.557   7.112  1.00  0.00     0.010 A 
ATOM     45  C   UNL     1      -3.538  -8.297   5.572  1.00  0.00     0.010 A 
ATOM     46  C   UNL     1      -3.048  -8.307   6.885  1.00  0.00    -0.014 A 
BRANCH  46  47
ATOM     47  C   UNL     1      -3.985  -8.071   8.007  1.00  0.00     0.031 A 
ATOM     48  C   UNL     1      -5.157  -8.992   8.208  1.00  0.00     0.074 A 
ATOM     49  C   UNL     1      -3.812  -7.000   8.805  1.00  0.00     0.049 A 
ATOM     50  N   UNL     1      -6.106  -8.931   9.107  1.00  0.00    -0.248 NA
ATOM     51  C   UNL     1      -5.302 -10.110   7.260  1.00  0.00     0.031 C 
ATOM     52  C   UNL     1      -2.742  -6.006   8.676  1.00  0.00     0.029 A 
ATOM     53  N   UNL     1      -4.537  -6.566   9.885  1.00  0.00    -0.354 N 
ATOM     54  C   UNL     1      -6.963  -9.986   8.819  1.00  0.00     0.074 A 
ATOM     55  C   UNL     1      -6.461 -10.632   7.629  1.00  0.00     0.031 C 
ATOM     56  C   UNL     1      -2.857  -5.105   9.663  1.00  0.00     0.029 A 
ATOM     57  C   UNL     1      -4.038  -5.422  10.459  1.00  0.00     0.049 A 
ATOM     58  H   UNL     1      -5.339  -7.030  10.217  1.00  0.00     0.167 HD
ATOM     59  C   UNL     1      -8.059 -10.394   9.498  1.00  0.00     0.031 A 
ATOM     60  C   UNL     1      -4.488  -4.703  11.504  1.00  0.00     0.031 A 
ATOM     61  C   UNL     1      -8.550  -9.751  10.687  1.00  0.00     0.049 A 
ATOM     62  C   UNL     1      -5.721  -5.167  12.229  1.00  0.00     0.074 A 
ATOM     63  C   UNL     1      -9.614 -10.124  11.488  1.00  0.00     0.029 A 
ATOM     64  N   UNL     1      -8.016  -8.596  11.237  1.00  0.00    -0.354 N 
ATOM     65  N   UNL     1      -6.470  -6.219  11.998  1.00  0.00    -0.248 NA
ATOM     66  C   UNL     1      -6.164  -4.351  13.367  1.00  0.00     0.031 C 
ATOM     67  C   UNL     1      -9.773  -9.152  12.478  1.00  0.00     0.029 A 
ATOM     68  C   UNL     1      -8.755  -8.220  12.346  1.00  0.00     0.049 A 
ATOM     69  H   UNL     1      -7.230  -8.115  10.892  1.00  0.00     0.167 HD
ATOM     70  C   UNL     1      -7.452  -6.208  12.980  1.00  0.00     0.074 A 
ATOM     71  C   UNL     1      -7.189  -5.059  13.821  1.00  0.00     0.031 C 
ATOM     72  C   UNL     1      -8.480  -7.071  13.170  1.00  0.00     0.031 A 
BRANCH  59  73
ATOM     73  C   UNL     1      -8.812 -11.581   8.962  1.00  0.00    -0.014 A 
ATOM     74  C   UNL     1      -8.256 -12.870   8.973  1.00  0.00     0.009 A 
ATOM     75  C   UNL     1     -10.118 -11.411   8.478  1.00  0.00     0.009 A 
ATOM     76  C   UNL     1      -8.980 -13.957   8.479  1.00  0.00     0.001 A 
ATOM     77  C   UNL     1     -10.853 -12.504   8.018  1.00  0.00     0.001 A 
ATOM     78  C   UNL     1     -10.280 -13.775   8.010  1.00  0.00     0.000 A 
ENDBRANCH  59  73
BRANCH  60  79
ATOM     79  C   UNL     1      -3.776  -3.466  11.926  1.00  0.00    -0.014 A 
ATOM     80  C   UNL     1      -3.127  -3.397  13.168  1.00  0.00     0.009 A 
ATOM     81  C   UNL     1      -3.763  -2.336  11.093  1.00  0.00     0.009 A 
ATOM     82  C   UNL     1      -2.515  -2.211  13.584  1.00  0.00     0.001 A 
ATOM     83  C   UNL     1      -3.117  -1.164  11.494  1.00  0.00     0.001 A 
ATOM     84  C   UNL     1      -2.507  -1.098  12.745  1.00  0.00     0.000 A 
ENDBRANCH  60  79
BRANCH  72  85
ATOM     85  C   UNL     1      -9.371  -6.832  14.358  1.00  0.00    -0.014 A 
ATOM     86  C   UNL     1     -10.239  -5.731  14.419  1.00  0.00     0.009 A 
ATOM     87  C   UNL     1      -9.368  -7.753  15.418  1.00  0.00     0.009 A 
ATOM     88  C   UNL     1     -11.053  -5.535  15.536  1.00  0.00     0.001 A 
ATOM     89  C   UNL     1     -10.212  -7.576  16.515  1.00  0.00     0.001 A 
ATOM     90  C   UNL     1     -11.044  -6.460  16.579  1.00  0.00     0.000 A 
ENDBRANCH  72  85
ENDBRANCH  46  47
ENDBRANCH  38  41
ENDBRANCH  36  37
ENDBRANCH  35  36
ENDBRANCH   1  35
TORSDOF 17
