REMARK SMILES COc1ccccc1C(=O)N/C(=C/c1ccc2c(c1)OCO2)C(=O)Nc1ccc(C(=O)NCCCNC(=O)c2ccc(-c3c4nc(c(-c5ccccc5)c5ccc([nH]5)c(-c5ccccc5)c5nc(c(-c6ccccc6)c6ccc3[nH]6)C=C5)C=C4)cc2)cc1
REMARK SMILES IDX 30 1 31 2 32 3 29 5 26 6 27 7 88 8 28 9 87 10 25 11 23 12
REMARK SMILES IDX 24 13 12 15 13 16 11 17 9 18 10 19 8 21 3 22 4 23 5 24 7 25
REMARK SMILES IDX 6 26 2 27 1 28 14 29 15 30 19 31 16 32 18 33 17 34 20 35
REMARK SMILES IDX 22 36 21 37 33 38 34 39 35 40 36 41 37 42 38 44 39 45 40 46
REMARK SMILES IDX 86 47 41 48 85 49 42 50 43 51 44 52 79 53 45 54 84 55 78 56
REMARK SMILES IDX 80 57 46 58 83 59 77 60 76 61 47 63 69 64 54 65 68 66 55 67
REMARK SMILES IDX 58 68 67 69 81 70 56 71 57 72 66 74 82 75 59 76 48 77 49 78
REMARK SMILES IDX 53 79 50 80 52 81 51 82 70 83 71 84 75 85 72 86 74 87 73 88
REMARK SMILES IDX 60 89 61 90 65 91 62 92 64 93 63 94
REMARK H PARENT 32 4 25 14 11 20 36 43 80 62 58 73
REMARK Flexibility Score: inf
ROOT
ATOM      1  C   UNL     1      -2.782  -4.369  -2.845  1.00  0.00     0.251 C 
ATOM      2  O   UNL     1      -3.511  -4.477  -3.824  1.00  0.00    -0.269 OA
ATOM      3  N   UNL     1      -2.056  -5.437  -2.399  1.00  0.00    -0.352 N 
ATOM      4  H   UNL     1      -2.213  -6.279  -2.884  1.00  0.00     0.163 HD
ENDROOT
BRANCH   1   5
ATOM      5  C   UNL     1      -2.626  -3.061  -2.211  1.00  0.00     0.039 A 
ATOM      6  C   UNL     1      -1.976   0.244  -0.628  1.00  0.00     0.041 A 
ATOM      7  C   UNL     1      -1.837   0.108  -2.386  1.00  0.00     0.027 A 
ATOM      8  C   UNL     1      -2.494  -1.166   0.286  1.00  0.00     0.027 A 
ATOM      9  C   UNL     1      -2.128  -1.691  -3.265  1.00  0.00     0.016 A 
ATOM     10  C   UNL     1      -2.813  -2.753  -0.477  1.00  0.00     0.016 A 
BRANCH   6  11
ATOM     11  N   UNL     1      -1.006   1.113  -0.099  1.00  0.00    -0.321 N 
ATOM     12  C   UNL     1       0.105   1.491  -0.846  1.00  0.00     0.272 C 
ATOM     13  O   UNL     1       0.319   2.678  -1.098  1.00  0.00    -0.267 OA
ATOM     14  H   UNL     1      -1.114   1.459   0.816  1.00  0.00     0.170 HD
BRANCH  12  15
ATOM     15  C   UNL     1       1.194   0.443  -1.176  1.00  0.00     0.108 C 
ATOM     16  C   UNL     1       1.124  -0.550  -2.111  1.00  0.00     0.040 C 
BRANCH  15  17
ATOM     17  N   UNL     1       2.404   0.530  -0.492  1.00  0.00    -0.317 N 
ATOM     18  C   UNL     1       2.905   1.304   0.532  1.00  0.00     0.259 C 
ATOM     19  O   UNL     1       4.064   1.083   0.897  1.00  0.00    -0.269 OA
ATOM     20  H   UNL     1       3.064  -0.122  -0.822  1.00  0.00     0.170 HD
BRANCH  18  21
ATOM     21  C   UNL     1       2.186   2.400   1.205  1.00  0.00     0.082 A 
ATOM     22  C   UNL     1       1.023   2.280   1.977  1.00  0.00     0.131 A 
ATOM     23  C   UNL     1       0.391   3.451   2.426  1.00  0.00     0.047 A 
ATOM     24  C   UNL     1       0.961   4.708   2.223  1.00  0.00     0.004 A 
ATOM     25  C   UNL     1       2.789   3.665   1.061  1.00  0.00     0.018 A 
ATOM     26  C   UNL     1       2.184   4.812   1.573  1.00  0.00     0.001 A 
BRANCH  22  27
ATOM     27  O   UNL     1       0.339   1.151   2.335  1.00  0.00    -0.496 OA
ATOM     28  C   UNL     1       1.070  -0.056   2.490  1.00  0.00     0.278 C 
ENDBRANCH  22  27
ENDBRANCH  18  21
ENDBRANCH  15  17
BRANCH  16  29
ATOM     29  C   UNL     1      -0.104  -0.999  -2.807  1.00  0.00    -0.019 A 
ATOM     30  C   UNL     1      -1.304  -1.522  -1.576  1.00  0.00     0.012 A 
ATOM     31  C   UNL     1      -0.701  -0.204  -4.277  1.00  0.00     0.058 A 
ATOM     32  C   UNL     1      -3.251  -1.041  -1.865  1.00  0.00     0.051 A 
ATOM     33  C   UNL     1      -2.423   0.155  -4.517  1.00  0.00     0.166 A 
ATOM     34  C   UNL     1      -3.673  -0.218  -3.391  1.00  0.00     0.165 A 
ATOM     35  O   UNL     1      -2.918   1.170  -5.299  1.00  0.00    -0.454 OA
ATOM     36  O   UNL     1      -4.731   0.595  -3.640  1.00  0.00    -0.454 OA
ATOM     37  C   UNL     1      -4.107   1.575  -4.534  1.00  0.00     0.468 C 
ENDBRANCH  16  29
ENDBRANCH  12  15
ENDBRANCH   6  11
ENDBRANCH   1   5
BRANCH   3  38
ATOM     38  C   UNL     1      -1.090  -5.519  -1.321  1.00  0.00     0.118 C 
BRANCH  38  39
ATOM     39  C   UNL     1      -1.690  -6.189  -0.092  1.00  0.00     0.042 C 
BRANCH  39  40
ATOM     40  C   UNL     1      -2.165  -7.612  -0.350  1.00  0.00     0.118 C 
BRANCH  40  41
ATOM     41  N   UNL     1      -1.063  -8.522  -0.612  1.00  0.00    -0.352 N 
ATOM     42  C   UNL     1      -0.685  -9.646   0.078  1.00  0.00     0.251 C 
ATOM     43  H   UNL     1      -0.509  -8.301  -1.396  1.00  0.00     0.163 HD
ATOM     44  O   UNL     1       0.403 -10.166  -0.149  1.00  0.00    -0.269 OA
BRANCH  42  45
ATOM     45  C   UNL     1      -1.583 -10.224   1.099  1.00  0.00     0.039 A 
ATOM     46  C   UNL     1      -1.032 -10.710   2.287  1.00  0.00     0.014 A 
ATOM     47  C   UNL     1      -2.959 -10.321   0.873  1.00  0.00     0.014 A 
ATOM     48  C   UNL     1      -1.865 -11.269   3.258  1.00  0.00     0.010 A 
ATOM     49  C   UNL     1      -3.797 -10.791   1.878  1.00  0.00     0.010 A 
ATOM     50  C   UNL     1      -3.256 -11.301   3.066  1.00  0.00    -0.014 A 
BRANCH  50  51
ATOM     51  C   UNL     1      -4.154 -11.928   4.066  1.00  0.00     0.031 A 
ATOM     52  C   UNL     1      -4.948 -13.152   3.689  1.00  0.00     0.074 A 
ATOM     53  C   UNL     1      -4.291 -11.376   5.288  1.00  0.00     0.049 A 
ATOM     54  N   UNL     1      -5.817 -13.824   4.401  1.00  0.00    -0.248 NA
ATOM     55  C   UNL     1      -4.767 -13.672   2.322  1.00  0.00     0.031 C 
ATOM     56  C   UNL     1      -3.615 -10.163   5.755  1.00  0.00     0.029 A 
ATOM     57  N   UNL     1      -5.051 -11.766   6.361  1.00  0.00    -0.354 N 
ATOM     58  C   UNL     1      -6.306 -14.817   3.559  1.00  0.00     0.074 A 
ATOM     59  C   UNL     1      -5.674 -14.636   2.273  1.00  0.00     0.031 C 
ATOM     60  C   UNL     1      -3.969  -9.926   7.029  1.00  0.00     0.029 A 
ATOM     61  C   UNL     1      -4.918 -10.948   7.457  1.00  0.00     0.049 A 
ATOM     62  H   UNL     1      -5.637 -12.557   6.348  1.00  0.00     0.167 HD
ATOM     63  C   UNL     1      -7.186 -15.806   3.839  1.00  0.00     0.031 A 
ATOM     64  C   UNL     1      -5.496 -11.019   8.671  1.00  0.00     0.031 A 
ATOM     65  C   UNL     1      -7.775 -16.015   5.132  1.00  0.00     0.049 A 
ATOM     66  C   UNL     1      -6.436 -12.155   8.965  1.00  0.00     0.074 A 
ATOM     67  C   UNL     1      -8.614 -17.036   5.542  1.00  0.00     0.029 A 
ATOM     68  N   UNL     1      -7.577 -15.191   6.228  1.00  0.00    -0.354 N 
ATOM     69  N   UNL     1      -6.821 -13.135   8.183  1.00  0.00    -0.248 NA
ATOM     70  C   UNL     1      -7.004 -12.208  10.320  1.00  0.00     0.031 C 
ATOM     71  C   UNL     1      -8.958 -16.806   6.878  1.00  0.00     0.029 A 
ATOM     72  C   UNL     1      -8.290 -15.672   7.311  1.00  0.00     0.049 A 
ATOM     73  H   UNL     1      -7.013 -14.384   6.234  1.00  0.00     0.167 HD
ATOM     74  C   UNL     1      -7.643 -13.939   8.961  1.00  0.00     0.074 A 
ATOM     75  C   UNL     1      -7.688 -13.342  10.280  1.00  0.00     0.031 C 
ATOM     76  C   UNL     1      -8.303 -15.072   8.618  1.00  0.00     0.031 A 
BRANCH  63  77
ATOM     77  C   UNL     1      -7.563 -16.745   2.727  1.00  0.00    -0.014 A 
ATOM     78  C   UNL     1      -6.656 -17.697   2.236  1.00  0.00     0.009 A 
ATOM     79  C   UNL     1      -8.866 -16.715   2.205  1.00  0.00     0.009 A 
ATOM     80  C   UNL     1      -7.039 -18.582   1.225  1.00  0.00     0.001 A 
ATOM     81  C   UNL     1      -9.254 -17.619   1.214  1.00  0.00     0.001 A 
ATOM     82  C   UNL     1      -8.338 -18.547   0.721  1.00  0.00     0.000 A 
ENDBRANCH  63  77
BRANCH  64  83
ATOM     83  C   UNL     1      -5.192 -10.003   9.713  1.00  0.00    -0.014 A 
ATOM     84  C   UNL     1      -4.460 -10.353  10.859  1.00  0.00     0.009 A 
ATOM     85  C   UNL     1      -5.666  -8.688   9.589  1.00  0.00     0.009 A 
ATOM     86  C   UNL     1      -4.248  -9.421  11.878  1.00  0.00     0.001 A 
ATOM     87  C   UNL     1      -5.425  -7.749  10.595  1.00  0.00     0.001 A 
ATOM     88  C   UNL     1      -4.729  -8.120  11.744  1.00  0.00     0.000 A 
ENDBRANCH  64  83
BRANCH  76  89
ATOM     89  C   UNL     1      -9.078 -15.768   9.700  1.00  0.00    -0.014 A 
ATOM     90  C   UNL     1     -10.276 -15.236  10.200  1.00  0.00     0.009 A 
ATOM     91  C   UNL     1      -8.614 -16.995  10.199  1.00  0.00     0.009 A 
ATOM     92  C   UNL     1     -10.972 -15.901  11.211  1.00  0.00     0.001 A 
ATOM     93  C   UNL     1      -9.328 -17.673  11.186  1.00  0.00     0.001 A 
ATOM     94  C   UNL     1     -10.500 -17.120  11.700  1.00  0.00     0.000 A 
ENDBRANCH  76  89
ENDBRANCH  50  51
ENDBRANCH  42  45
ENDBRANCH  40  41
ENDBRANCH  39  40
ENDBRANCH  38  39
ENDBRANCH   3  38
TORSDOF 16
