REMARK SMILES O=C(NCCCNC(=O)c1c(C2CC2)nn(-c2ccc(Cl)c(F)c2)c1Cl)c1ccc(-c2c3nc(c(-c4ccccc4)c4ccc([nH]4)c(-c4ccccc4)c4nc(c(-c5ccccc5)c5ccc2[nH]5)C=C4)C=C3)cc1
REMARK SMILES IDX 4 1 3 2 1 3 2 4 27 6 28 7 74 8 29 9 73 10 30 11 31 12 32 13
REMARK SMILES IDX 67 14 33 15 72 16 66 17 68 18 34 19 71 20 65 21 64 22 35 24
REMARK SMILES IDX 57 25 42 26 56 27 43 28 46 29 55 30 69 31 44 32 45 33 54 35
REMARK SMILES IDX 70 36 47 37 36 38 37 39 41 40 38 41 40 42 39 43 58 44 59 45
REMARK SMILES IDX 63 46 60 47 62 48 61 49 48 50 49 51 53 52 50 53 52 54 51 55
REMARK SMILES IDX 5 56 6 57 7 58 8 59 9 61 10 62 11 63 25 64 15 65 16 66 26 67
REMARK SMILES IDX 12 68 13 69 14 70 17 71 18 72 24 73 19 74 22 75 20 76 23 77
REMARK SMILES IDX 21 78
REMARK H PARENT 3 5 68 23 46 34 7 60
REMARK Flexibility Score: inf
ROOT
ATOM      1  C   UNL     1       4.819  -0.751  -0.845  1.00  0.00     0.118 C 
ENDROOT
BRANCH   1   2
ATOM      2  N   UNL     1       3.416  -0.538  -1.142  1.00  0.00    -0.352 N 
ATOM      3  O   UNL     1       1.312   0.121  -1.078  1.00  0.00    -0.269 OA
ATOM      4  C   UNL     1       2.324  -0.139  -0.422  1.00  0.00     0.251 C 
ATOM      5  H   UNL     1       3.198  -0.725  -2.083  1.00  0.00     0.163 HD
BRANCH   4   6
ATOM      6  C   UNL     1       2.247  -0.057   1.063  1.00  0.00     0.039 A 
ATOM      7  C   UNL     1       3.311  -0.230   1.947  1.00  0.00     0.014 A 
ATOM      8  C   UNL     1       0.966   0.177   1.603  1.00  0.00     0.014 A 
ATOM      9  C   UNL     1       3.095  -0.264   3.324  1.00  0.00     0.010 A 
ATOM     10  C   UNL     1       0.747   0.173   2.978  1.00  0.00     0.010 A 
ATOM     11  C   UNL     1       1.810  -0.084   3.840  1.00  0.00    -0.014 A 
BRANCH  11  12
ATOM     12  C   UNL     1       1.648  -0.055   5.293  1.00  0.00     0.031 A 
ATOM     13  C   UNL     1       2.269   1.100   6.002  1.00  0.00     0.074 A 
ATOM     14  C   UNL     1       0.845  -0.894   5.976  1.00  0.00     0.049 A 
ATOM     15  N   UNL     1       3.122   1.085   6.976  1.00  0.00    -0.248 NA
ATOM     16  C   UNL     1       1.909   2.449   5.538  1.00  0.00     0.031 C 
ATOM     17  C   UNL     1      -0.101  -1.867   5.427  1.00  0.00     0.029 A 
ATOM     18  N   UNL     1       0.617  -0.956   7.323  1.00  0.00    -0.354 N 
ATOM     19  C   UNL     1       3.285   2.414   7.365  1.00  0.00     0.074 A 
ATOM     20  C   UNL     1       2.602   3.215   6.380  1.00  0.00     0.031 C 
ATOM     21  C   UNL     1      -0.954  -2.250   6.403  1.00  0.00     0.029 A 
ATOM     22  C   UNL     1      -0.537  -1.647   7.659  1.00  0.00     0.049 A 
ATOM     23  H   UNL     1       1.215  -0.548   7.990  1.00  0.00     0.167 HD
ATOM     24  C   UNL     1       3.791   2.763   8.581  1.00  0.00     0.031 A 
ATOM     25  C   UNL     1      -1.155  -1.670   8.864  1.00  0.00     0.031 A 
ATOM     26  C   UNL     1       4.518   1.692   9.206  1.00  0.00     0.049 A 
ATOM     27  C   UNL     1      -0.198  -1.215   9.895  1.00  0.00     0.074 A 
ATOM     28  C   UNL     1       5.607   0.912   8.875  1.00  0.00     0.029 A 
ATOM     29  N   UNL     1       3.940   1.078  10.290  1.00  0.00    -0.354 N 
ATOM     30  N   UNL     1       0.824  -1.909  10.301  1.00  0.00    -0.248 NA
ATOM     31  C   UNL     1      -0.184   0.192  10.264  1.00  0.00     0.031 C 
ATOM     32  C   UNL     1       5.348  -0.360   9.466  1.00  0.00     0.029 A 
ATOM     33  C   UNL     1       4.126  -0.267  10.133  1.00  0.00     0.049 A 
ATOM     34  H   UNL     1       3.480   1.523  11.038  1.00  0.00     0.167 HD
ATOM     35  C   UNL     1       1.795  -0.966  10.597  1.00  0.00     0.074 A 
ATOM     36  C   UNL     1       1.076   0.300  10.691  1.00  0.00     0.031 C 
ATOM     37  C   UNL     1       3.123  -1.256  10.454  1.00  0.00     0.031 A 
BRANCH  24  38
ATOM     38  C   UNL     1       3.283   3.944   9.381  1.00  0.00    -0.014 A 
ATOM     39  C   UNL     1       3.882   4.228  10.624  1.00  0.00     0.009 A 
ATOM     40  C   UNL     1       2.056   4.581   9.115  1.00  0.00     0.009 A 
ATOM     41  C   UNL     1       3.237   5.018  11.584  1.00  0.00     0.001 A 
ATOM     42  C   UNL     1       1.434   5.412  10.051  1.00  0.00     0.001 A 
ATOM     43  C   UNL     1       2.007   5.601  11.300  1.00  0.00     0.000 A 
ENDBRANCH  24  38
BRANCH  25  44
ATOM     44  C   UNL     1      -2.590  -1.862   9.161  1.00  0.00    -0.014 A 
ATOM     45  C   UNL     1      -3.016  -2.224  10.448  1.00  0.00     0.009 A 
ATOM     46  C   UNL     1      -3.568  -1.451   8.238  1.00  0.00     0.009 A 
ATOM     47  C   UNL     1      -4.369  -2.151  10.804  1.00  0.00     0.001 A 
ATOM     48  C   UNL     1      -4.920  -1.388   8.588  1.00  0.00     0.001 A 
ATOM     49  C   UNL     1      -5.318  -1.725   9.877  1.00  0.00     0.000 A 
ENDBRANCH  25  44
BRANCH  37  50
ATOM     50  C   UNL     1       3.523  -2.698  10.288  1.00  0.00    -0.014 A 
ATOM     51  C   UNL     1       3.055  -3.500   9.233  1.00  0.00     0.009 A 
ATOM     52  C   UNL     1       4.509  -3.221  11.138  1.00  0.00     0.009 A 
ATOM     53  C   UNL     1       3.530  -4.802   9.060  1.00  0.00     0.001 A 
ATOM     54  C   UNL     1       5.001  -4.514  10.950  1.00  0.00     0.001 A 
ATOM     55  C   UNL     1       4.506  -5.307   9.917  1.00  0.00     0.000 A 
ENDBRANCH  37  50
ENDBRANCH  11  12
ENDBRANCH   4   6
ENDBRANCH   1   2
BRANCH   1  56
ATOM     56  C   UNL     1       5.165  -2.121  -0.263  1.00  0.00     0.042 C 
BRANCH  56  57
ATOM     57  C   UNL     1       4.713  -3.314  -1.094  1.00  0.00     0.118 C 
BRANCH  57  58
ATOM     58  N   UNL     1       5.340  -3.378  -2.405  1.00  0.00    -0.352 N 
ATOM     59  C   UNL     1       6.020  -4.416  -3.005  1.00  0.00     0.256 C 
ATOM     60  H   UNL     1       5.267  -2.558  -2.945  1.00  0.00     0.163 HD
ATOM     61  O   UNL     1       6.421  -4.271  -4.154  1.00  0.00    -0.269 OA
BRANCH  59  62
ATOM     62  C   UNL     1       6.210  -5.631  -2.251  1.00  0.00     0.100 A 
ATOM     63  C   UNL     1       7.376  -6.269  -1.764  1.00  0.00     0.080 A 
ATOM     64  C   UNL     1       5.199  -6.484  -1.860  1.00  0.00     0.145 A 
ATOM     65  N   UNL     1       7.086  -7.271  -0.922  1.00  0.00    -0.170 NA
ATOM     66  N   UNL     1       5.738  -7.396  -0.981  1.00  0.00    -0.221 N 
ATOM     67  Cl  UNL     1       3.516  -6.371  -2.158  1.00  0.00    -0.061 Cl
BRANCH  63  68
ATOM     68  C   UNL     1       8.850  -5.954  -2.007  1.00  0.00     0.041 C 
ATOM     69  C   UNL     1       9.325  -5.312  -3.291  1.00  0.00     0.011 C 
ATOM     70  C   UNL     1       9.348  -4.529  -2.022  1.00  0.00     0.011 C 
ENDBRANCH  63  68
BRANCH  66  71
ATOM     71  C   UNL     1       5.073  -8.258  -0.073  1.00  0.00     0.069 A 
ATOM     72  C   UNL     1       5.487  -8.265   1.269  1.00  0.00     0.030 A 
ATOM     73  C   UNL     1       3.981  -9.031  -0.475  1.00  0.00     0.069 A 
ATOM     74  C   UNL     1       4.752  -8.980   2.220  1.00  0.00     0.026 A 
ATOM     75  C   UNL     1       3.279  -9.766   0.476  1.00  0.00     0.143 A 
ATOM     76  C   UNL     1       3.642  -9.726   1.822  1.00  0.00     0.076 A 
ATOM     77  F   UNL     1       2.235 -10.504   0.071  1.00  0.00    -0.205 F 
ATOM     78  Cl  UNL     1       2.725 -10.577   3.003  1.00  0.00    -0.081 Cl
ENDBRANCH  66  71
ENDBRANCH  59  62
ENDBRANCH  57  58
ENDBRANCH  56  57
ENDBRANCH   1  56
TORSDOF 12
