REMARK SMILES C[C@@H]1C[N@@H+](Cc2cccc(C(=O)NCCCNC(=O)c3ccc(-c4c5nc(c(-c6ccccc6)c6ccc([nH]6)c(-c6ccccc6)c6nc(c(-c7ccccc7)c7ccc4[nH]7)C=C6)C=C5)cc3)c2)CCN1C(=O)OC(C)(C)C
REMARK SMILES IDX 11 1 12 2 13 3 10 5 6 6 7 7 68 8 8 9 9 10 5 11 4 12 1 13
REMARK SMILES IDX 2 14 3 15 71 16 70 17 69 18 72 20 73 21 74 22 75 23 76 24
REMARK SMILES IDX 77 25 78 26 14 27 15 28 16 29 17 30 18 31 19 33 20 34 21 35
REMARK SMILES IDX 67 36 22 37 66 38 23 39 24 40 25 41 60 42 26 43 65 44 59 45
REMARK SMILES IDX 61 46 27 47 64 48 58 49 57 50 28 52 50 53 35 54 49 55 36 56
REMARK SMILES IDX 39 57 48 58 62 59 37 60 38 61 47 63 63 64 40 65 29 66 30 67
REMARK SMILES IDX 34 68 31 69 33 70 32 71 51 72 52 73 56 74 53 75 55 76 54 77
REMARK SMILES IDX 41 78 42 79 46 80 43 81 45 82 44 83
REMARK H PARENT 13 4 4 19 17 32 61 51 39 62
REMARK Flexibility Score: inf
ROOT
ATOM      1  C   UNL     1      -4.970  -3.007   4.204  1.00  0.00     0.251 C 
ATOM      2  O   UNL     1      -5.582  -3.597   5.095  1.00  0.00    -0.269 OA
ATOM      3  N   UNL     1      -5.470  -1.792   3.800  1.00  0.00    -0.352 N 
ATOM      4  H   UNL     1      -6.340  -1.562   4.201  1.00  0.00     0.163 HD
ENDROOT
BRANCH   1   5
ATOM      5  C   UNL     1      -3.707  -3.606   3.672  1.00  0.00     0.040 A 
ATOM      6  C   UNL     1      -1.913  -3.837   2.015  1.00  0.00     0.007 A 
ATOM      7  C   UNL     1      -1.226  -4.682   2.895  1.00  0.00     0.009 A 
ATOM      8  C   UNL     1      -3.197  -3.388   2.388  1.00  0.00     0.023 A 
ATOM      9  C   UNL     1      -1.778  -5.012   4.133  1.00  0.00     0.001 A 
ATOM     10  C   UNL     1      -2.994  -4.453   4.530  1.00  0.00     0.014 A 
BRANCH   6  11
ATOM     11  C   UNL     1      -1.270  -3.404   0.703  1.00  0.00     0.299 C 
BRANCH  11  12
ATOM     12  N   UNL     1      -0.802  -2.001   0.602  1.00  0.00    -0.328 N 
ATOM     13  C   UNL     1       1.501   0.141   0.195  1.00  0.00     0.037 C 
ATOM     14  C   UNL     1       0.729  -0.158   1.485  1.00  0.00     0.140 C 
ATOM     15  C   UNL     1       0.281  -1.658   1.557  1.00  0.00     0.287 C 
ATOM     16  N   UNL     1      -0.455   0.714   1.590  1.00  0.00    -0.294 N 
ATOM     17  C   UNL     1      -1.493   0.439   0.604  1.00  0.00     0.185 C 
ATOM     18  C   UNL     1      -1.907  -1.032   0.708  1.00  0.00     0.284 C 
ATOM     19  H   UNL     1      -0.402  -1.932  -0.334  1.00  0.00     0.348 HD
BRANCH  16  20
ATOM     20  C   UNL     1      -0.737   1.556   2.652  1.00  0.00     0.410 C 
ATOM     21  O   UNL     1      -1.823   2.102   2.796  1.00  0.00    -0.224 OA
BRANCH  20  22
ATOM     22  O   UNL     1       0.312   1.712   3.505  1.00  0.00    -0.444 OA
BRANCH  22  23
ATOM     23  C   UNL     1       0.222   2.646   4.618  1.00  0.00     0.106 C 
ATOM     24  C   UNL     1       0.023   4.084   4.121  1.00  0.00     0.056 C 
ATOM     25  C   UNL     1      -0.861   2.239   5.625  1.00  0.00     0.056 C 
ATOM     26  C   UNL     1       1.586   2.566   5.323  1.00  0.00     0.056 C 
ENDBRANCH  22  23
ENDBRANCH  20  22
ENDBRANCH  16  20
ENDBRANCH  11  12
ENDBRANCH   6  11
ENDBRANCH   1   5
BRANCH   3  27
ATOM     27  C   UNL     1      -4.954  -0.787   2.893  1.00  0.00     0.118 C 
BRANCH  27  28
ATOM     28  C   UNL     1      -5.601  -0.896   1.514  1.00  0.00     0.042 C 
BRANCH  28  29
ATOM     29  C   UNL     1      -6.894  -0.099   1.416  1.00  0.00     0.118 C 
BRANCH  29  30
ATOM     30  N   UNL     1      -6.644   1.337   1.387  1.00  0.00    -0.352 N 
ATOM     31  C   UNL     1      -7.080   2.290   0.500  1.00  0.00     0.251 C 
ATOM     32  H   UNL     1      -6.074   1.676   2.115  1.00  0.00     0.163 HD
ATOM     33  O   UNL     1      -6.610   3.423   0.536  1.00  0.00    -0.269 OA
BRANCH  31  34
ATOM     34  C   UNL     1      -8.097   1.951  -0.516  1.00  0.00     0.039 A 
ATOM     35  C   UNL     1      -7.953   2.462  -1.810  1.00  0.00     0.014 A 
ATOM     36  C   UNL     1      -9.193   1.146  -0.198  1.00  0.00     0.014 A 
ATOM     37  C   UNL     1      -8.875   2.113  -2.798  1.00  0.00     0.010 A 
ATOM     38  C   UNL     1     -10.056   0.727  -1.202  1.00  0.00     0.010 A 
ATOM     39  C   UNL     1      -9.912   1.213  -2.510  1.00  0.00    -0.014 A 
BRANCH  39  40
ATOM     40  C   UNL     1     -10.869   0.771  -3.554  1.00  0.00     0.031 A 
ATOM     41  C   UNL     1     -12.333   1.082  -3.408  1.00  0.00     0.074 A 
ATOM     42  C   UNL     1     -10.432   0.030  -4.590  1.00  0.00     0.049 A 
ATOM     43  N   UNL     1     -13.336   0.707  -4.160  1.00  0.00    -0.248 NA
ATOM     44  C   UNL     1     -12.725   1.897  -2.245  1.00  0.00     0.031 C 
ATOM     45  C   UNL     1      -9.041  -0.360  -4.828  1.00  0.00     0.029 A 
ATOM     46  N   UNL     1     -11.119  -0.535  -5.634  1.00  0.00    -0.354 N 
ATOM     47  C   UNL     1     -14.474   1.223  -3.552  1.00  0.00     0.074 A 
ATOM     48  C   UNL     1     -14.045   1.884  -2.340  1.00  0.00     0.031 C 
ATOM     49  C   UNL     1      -8.973  -1.073  -5.963  1.00  0.00     0.029 A 
ATOM     50  C   UNL     1     -10.318  -1.234  -6.504  1.00  0.00     0.049 A 
ATOM     51  H   UNL     1     -12.093  -0.447  -5.750  1.00  0.00     0.167 HD
ATOM     52  C   UNL     1     -15.759   1.170  -3.975  1.00  0.00     0.031 A 
ATOM     53  C   UNL     1     -10.634  -1.936  -7.609  1.00  0.00     0.031 A 
ATOM     54  C   UNL     1     -16.181   0.511  -5.182  1.00  0.00     0.049 A 
ATOM     55  C   UNL     1     -12.074  -2.017  -8.035  1.00  0.00     0.074 A 
ATOM     56  C   UNL     1     -17.452   0.437  -5.725  1.00  0.00     0.029 A 
ATOM     57  N   UNL     1     -15.340  -0.192  -6.030  1.00  0.00    -0.354 N 
ATOM     58  N   UNL     1     -13.132  -1.474  -7.483  1.00  0.00    -0.248 NA
ATOM     59  C   UNL     1     -12.360  -2.803  -9.244  1.00  0.00     0.031 C 
ATOM     60  C   UNL     1     -17.389  -0.364  -6.869  1.00  0.00     0.029 A 
ATOM     61  C   UNL     1     -16.069  -0.729  -7.078  1.00  0.00     0.049 A 
ATOM     62  H   UNL     1     -14.369  -0.295  -5.906  1.00  0.00     0.167 HD
ATOM     63  C   UNL     1     -14.204  -1.823  -8.295  1.00  0.00     0.074 A 
ATOM     64  C   UNL     1     -13.665  -2.614  -9.383  1.00  0.00     0.031 C 
ATOM     65  C   UNL     1     -15.516  -1.512  -8.154  1.00  0.00     0.031 A 
BRANCH  52  66
ATOM     66  C   UNL     1     -16.798   1.833  -3.111  1.00  0.00    -0.014 A 
ATOM     67  C   UNL     1     -16.833   3.228  -2.950  1.00  0.00     0.009 A 
ATOM     68  C   UNL     1     -17.767   1.054  -2.460  1.00  0.00     0.009 A 
ATOM     69  C   UNL     1     -17.782   3.823  -2.117  1.00  0.00     0.001 A 
ATOM     70  C   UNL     1     -18.738   1.654  -1.656  1.00  0.00     0.001 A 
ATOM     71  C   UNL     1     -18.737   3.036  -1.474  1.00  0.00     0.000 A 
ENDBRANCH  52  66
BRANCH  53  72
ATOM     72  C   UNL     1      -9.566  -2.603  -8.398  1.00  0.00    -0.014 A 
ATOM     73  C   UNL     1      -9.229  -2.132  -9.677  1.00  0.00     0.009 A 
ATOM     74  C   UNL     1      -8.876  -3.711  -7.882  1.00  0.00     0.009 A 
ATOM     75  C   UNL     1      -8.243  -2.773 -10.431  1.00  0.00     0.001 A 
ATOM     76  C   UNL     1      -7.869  -4.330  -8.626  1.00  0.00     0.001 A 
ATOM     77  C   UNL     1      -7.560  -3.867  -9.903  1.00  0.00     0.000 A 
ENDBRANCH  53  72
BRANCH  65  78
ATOM     78  C   UNL     1     -16.457  -1.987  -9.226  1.00  0.00    -0.014 A 
ATOM     79  C   UNL     1     -16.798  -3.341  -9.355  1.00  0.00     0.009 A 
ATOM     80  C   UNL     1     -17.053  -1.050 -10.085  1.00  0.00     0.009 A 
ATOM     81  C   UNL     1     -17.695  -3.751 -10.344  1.00  0.00     0.001 A 
ATOM     82  C   UNL     1     -17.974  -1.458 -11.050  1.00  0.00     0.001 A 
ATOM     83  C   UNL     1     -18.288  -2.809 -11.185  1.00  0.00     0.000 A 
ENDBRANCH  65  78
ENDBRANCH  39  40
ENDBRANCH  31  34
ENDBRANCH  29  30
ENDBRANCH  28  29
ENDBRANCH  27  28
ENDBRANCH   3  27
TORSDOF 15
