REMARK SMILES COc1cccc(N2/C(=[NH+]/C(=O)CCC(=O)NCCCNC(=O)c3ccc(-c4c5nc(c(-c6ccccc6)c6ccc([nH]6)c(-c6ccccc6)c6nc(c(-c7ccccc7)c7ccc4[nH]7)C=C6)C=C5)cc3)S[C@@H]3CS(=O)(=O)C[C@H]32)c1
REMARK SMILES IDX 18 1 17 2 15 3 16 4 14 6 13 7 11 8 8 9 9 10 79 11 10 12
REMARK SMILES IDX 72 13 73 14 78 15 74 17 75 18 12 19 76 20 77 21 7 22 3 23
REMARK SMILES IDX 4 24 80 25 5 26 6 27 2 28 1 29 19 30 20 31 21 32 22 33 23 35
REMARK SMILES IDX 24 36 25 37 71 38 26 39 70 40 27 41 28 42 29 43 64 44 30 45
REMARK SMILES IDX 69 46 63 47 65 48 31 49 68 50 62 51 61 52 32 54 54 55 39 56
REMARK SMILES IDX 53 57 40 58 43 59 52 60 66 61 41 62 42 63 51 65 67 66 44 67
REMARK SMILES IDX 33 68 34 69 38 70 35 71 37 72 36 73 55 74 56 75 60 76 57 77
REMARK SMILES IDX 59 78 58 79 45 80 46 81 50 82 47 83 49 84 48 85
REMARK H PARENT 17 5 10 16 21 34 65 53 43 64
REMARK Flexibility Score: inf
ROOT
ATOM      1  C   UNL     1       5.624   0.521   0.637  1.00  0.00     0.117 C 
ENDROOT
BRANCH   1   2
ATOM      2  N   UNL     1       4.582   0.614  -0.388  1.00  0.00    -0.356 N 
ATOM      3  C   UNL     1       4.593   0.813  -1.738  1.00  0.00     0.220 C 
ATOM      4  O   UNL     1       3.530   0.646  -2.343  1.00  0.00    -0.275 OA
ATOM      5  H   UNL     1       3.673   0.511  -0.023  1.00  0.00     0.163 HD
BRANCH   3   6
ATOM      6  C   UNL     1       5.833   1.227  -2.496  1.00  0.00     0.112 C 
BRANCH   6   7
ATOM      7  C   UNL     1       5.640   2.620  -3.096  1.00  0.00     0.138 C 
BRANCH   7   8
ATOM      8  C   UNL     1       6.052   3.592  -2.038  1.00  0.00     0.308 C 
ATOM      9  N   UNL     1       4.317   5.372   0.595  1.00  0.00    -0.216 N 
ATOM     10  C   UNL     1       5.178   5.057  -0.477  1.00  0.00     0.319 C 
ATOM     11  C   UNL     1       5.242   5.420   1.778  1.00  0.00     0.212 C 
ATOM     12  N   UNL     1       5.000   4.092  -1.315  1.00  0.00    -0.204 N 
ATOM     13  S   UNL     1       6.686   6.009  -0.344  1.00  0.00    -0.029 SA
ATOM     14  C   UNL     1       6.386   6.375   1.368  1.00  0.00     0.120 C 
ATOM     15  C   UNL     1       4.989   5.952   3.148  1.00  0.00     0.188 C 
ATOM     16  H   UNL     1       4.101   3.710  -1.435  1.00  0.00     0.316 HD
ATOM     17  C   UNL     1       7.506   6.129   2.364  1.00  0.00     0.156 C 
ATOM     18  S   UNL     1       6.606   6.187   3.896  1.00  0.00     0.155 S 
ATOM     19  O   UNL     1       7.247   3.671  -1.750  1.00  0.00    -0.247 OA
ATOM     20  O   UNL     1       6.686   7.532   4.437  1.00  0.00    -0.229 OA
ATOM     21  O   UNL     1       6.934   5.025   4.685  1.00  0.00    -0.229 OA
BRANCH   9  22
ATOM     22  C   UNL     1       2.940   5.132   0.416  1.00  0.00     0.132 A 
ATOM     23  C   UNL     1       0.867   3.707   0.272  1.00  0.00     0.123 A 
ATOM     24  C   UNL     1       0.174   4.706  -0.370  1.00  0.00     0.047 A 
ATOM     25  C   UNL     1       2.187   3.966   0.699  1.00  0.00     0.098 A 
ATOM     26  C   UNL     1       0.828   5.908  -0.624  1.00  0.00     0.008 A 
ATOM     27  C   UNL     1       2.186   6.099  -0.269  1.00  0.00     0.052 A 
BRANCH  23  28
ATOM     28  O   UNL     1       0.159   2.587   0.626  1.00  0.00    -0.497 OA
ATOM     29  C   UNL     1       0.808   1.329   0.418  1.00  0.00     0.278 C 
ENDBRANCH  23  28
ENDBRANCH   9  22
ENDBRANCH   7   8
ENDBRANCH   6   7
ENDBRANCH   3   6
ENDBRANCH   1   2
BRANCH   1  30
ATOM     30  C   UNL     1       5.664   1.647   1.720  1.00  0.00     0.042 C 
BRANCH  30  31
ATOM     31  C   UNL     1       4.281   2.064   2.282  1.00  0.00     0.118 C 
BRANCH  31  32
ATOM     32  N   UNL     1       4.127   2.957   3.503  1.00  0.00    -0.352 N 
ATOM     33  C   UNL     1       2.871   3.328   4.115  1.00  0.00     0.251 C 
ATOM     34  H   UNL     1       4.950   3.311   3.911  1.00  0.00     0.163 HD
ATOM     35  O   UNL     1       2.175   2.465   4.642  1.00  0.00    -0.269 OA
BRANCH  33  36
ATOM     36  C   UNL     1       2.469   4.830   4.304  1.00  0.00     0.039 A 
ATOM     37  C   UNL     1       2.903   5.624   5.385  1.00  0.00     0.014 A 
ATOM     38  C   UNL     1       1.725   5.524   3.347  1.00  0.00     0.014 A 
ATOM     39  C   UNL     1       2.775   7.065   5.377  1.00  0.00     0.010 A 
ATOM     40  C   UNL     1       1.663   6.952   3.292  1.00  0.00     0.010 A 
ATOM     41  C   UNL     1       2.210   7.771   4.295  1.00  0.00    -0.014 A 
BRANCH  41  42
ATOM     42  C   UNL     1       2.056   9.296   4.251  1.00  0.00     0.031 A 
ATOM     43  C   UNL     1       0.668   9.896   4.402  1.00  0.00     0.074 A 
ATOM     44  C   UNL     1       3.053  10.197   4.031  1.00  0.00     0.049 A 
ATOM     45  N   UNL     1       0.304  11.154   4.512  1.00  0.00    -0.248 NA
ATOM     46  C   UNL     1      -0.455   8.950   4.403  1.00  0.00     0.031 C 
ATOM     47  C   UNL     1       4.449   9.884   3.758  1.00  0.00     0.029 A 
ATOM     48  N   UNL     1       3.042  11.589   3.994  1.00  0.00    -0.354 N 
ATOM     49  C   UNL     1      -1.081  11.141   4.627  1.00  0.00     0.074 A 
ATOM     50  C   UNL     1      -1.495   9.763   4.474  1.00  0.00     0.031 C 
ATOM     51  C   UNL     1       5.160  11.019   3.614  1.00  0.00     0.029 A 
ATOM     52  C   UNL     1       4.280  12.173   3.781  1.00  0.00     0.049 A 
ATOM     53  H   UNL     1       2.220  12.117   4.110  1.00  0.00     0.167 HD
ATOM     54  C   UNL     1      -1.948  12.154   4.879  1.00  0.00     0.031 A 
ATOM     55  C   UNL     1       4.686  13.467   3.746  1.00  0.00     0.031 A 
ATOM     56  C   UNL     1      -1.605  13.545   4.992  1.00  0.00     0.049 A 
ATOM     57  C   UNL     1       3.701  14.593   3.989  1.00  0.00     0.074 A 
ATOM     58  C   UNL     1      -2.434  14.614   5.294  1.00  0.00     0.029 A 
ATOM     59  N   UNL     1      -0.343  14.070   4.779  1.00  0.00    -0.354 N 
ATOM     60  N   UNL     1       2.421  14.532   4.257  1.00  0.00    -0.248 NA
ATOM     61  C   UNL     1       4.231  15.971   3.953  1.00  0.00     0.031 C 
ATOM     62  C   UNL     1      -1.687  15.793   5.201  1.00  0.00     0.029 A 
ATOM     63  C   UNL     1      -0.377  15.450   4.915  1.00  0.00     0.049 A 
ATOM     64  H   UNL     1       0.460  13.543   4.563  1.00  0.00     0.167 HD
ATOM     65  C   UNL     1       2.010  15.847   4.467  1.00  0.00     0.074 A 
ATOM     66  C   UNL     1       3.174  16.687   4.310  1.00  0.00     0.031 C 
ATOM     67  C   UNL     1       0.771  16.308   4.770  1.00  0.00     0.031 A 
BRANCH  54  68
ATOM     68  C   UNL     1      -3.391  11.764   5.065  1.00  0.00    -0.014 A 
ATOM     69  C   UNL     1      -3.790  11.012   6.184  1.00  0.00     0.009 A 
ATOM     70  C   UNL     1      -4.356  12.147   4.123  1.00  0.00     0.009 A 
ATOM     71  C   UNL     1      -5.115  10.598   6.322  1.00  0.00     0.001 A 
ATOM     72  C   UNL     1      -5.688  11.762   4.283  1.00  0.00     0.001 A 
ATOM     73  C   UNL     1      -6.063  10.976   5.372  1.00  0.00     0.000 A 
ENDBRANCH  54  68
BRANCH  55  74
ATOM     74  C   UNL     1       6.123  13.832   3.509  1.00  0.00    -0.014 A 
ATOM     75  C   UNL     1       6.891  14.427   4.528  1.00  0.00     0.009 A 
ATOM     76  C   UNL     1       6.702  13.697   2.237  1.00  0.00     0.009 A 
ATOM     77  C   UNL     1       8.179  14.912   4.270  1.00  0.00     0.001 A 
ATOM     78  C   UNL     1       8.003  14.153   1.990  1.00  0.00     0.001 A 
ATOM     79  C   UNL     1       8.736  14.772   3.002  1.00  0.00     0.000 A 
ENDBRANCH  55  74
BRANCH  67  80
ATOM     80  C   UNL     1       0.600  17.786   5.014  1.00  0.00    -0.014 A 
ATOM     81  C   UNL     1       0.736  18.733   3.986  1.00  0.00     0.009 A 
ATOM     82  C   UNL     1       0.256  18.239   6.300  1.00  0.00     0.009 A 
ATOM     83  C   UNL     1       0.575  20.097   4.249  1.00  0.00     0.001 A 
ATOM     84  C   UNL     1       0.062  19.599   6.553  1.00  0.00     0.001 A 
ATOM     85  C   UNL     1       0.234  20.529   5.530  1.00  0.00     0.000 A 
ENDBRANCH  67  80
ENDBRANCH  41  42
ENDBRANCH  33  36
ENDBRANCH  31  32
ENDBRANCH  30  31
ENDBRANCH   1  30
TORSDOF 14
