REMARK SMILES O=C(Cc1c(C(=O)c2cc3c(cn2)CCCC3)[nH]c2cc(Cl)ccc12)NCCCNC(=O)c1ccc(-c2c3nc(c(-c4ccccc4)c4ccc([nH]4)c(-c4ccccc4)c4nc(c(-c5ccccc5)c5ccc2[nH]5)C=C4)C=C3)cc1
REMARK SMILES IDX 27 1 26 2 1 3 2 4 3 6 4 7 5 8 25 9 18 10 19 11 24 12 20 14
REMARK SMILES IDX 23 15 21 16 22 17 6 18 7 19 8 20 9 21 13 22 10 23 12 24
REMARK SMILES IDX 11 25 17 26 14 27 16 28 15 29 28 30 29 31 30 32 31 33 32 35
REMARK SMILES IDX 33 36 34 37 80 38 35 39 79 40 36 41 37 42 38 43 73 44 39 45
REMARK SMILES IDX 78 46 72 47 74 48 40 49 77 50 71 51 70 52 41 54 63 55 48 56
REMARK SMILES IDX 62 57 49 58 52 59 61 60 75 61 50 62 51 63 60 65 76 66 53 67
REMARK SMILES IDX 42 68 43 69 47 70 44 71 46 72 45 73 64 74 65 75 69 76 66 77
REMARK SMILES IDX 68 78 67 79 54 80 55 81 59 82 56 83 58 84 57 85
REMARK H PARENT 26 5 18 13 30 34 74 53 52 64
REMARK Flexibility Score: inf
ROOT
ATOM      1  C   UNL     1       2.221   1.249   2.095  1.00  0.00     0.117 C 
ENDROOT
BRANCH   1   2
ATOM      2  N   UNL     1       2.950   0.693   0.976  1.00  0.00    -0.356 N 
ATOM      3  O   UNL     1       1.463  -0.989   0.547  1.00  0.00    -0.275 OA
ATOM      4  C   UNL     1       2.391  -0.274   0.166  1.00  0.00     0.224 C 
ATOM      5  H   UNL     1       3.863   1.010   0.788  1.00  0.00     0.163 HD
BRANCH   4   6
ATOM      6  C   UNL     1       3.024  -0.471  -1.209  1.00  0.00     0.138 C 
BRANCH   6   7
ATOM      7  C   UNL     1       3.799   0.696  -1.781  1.00  0.00    -0.002 A 
ATOM      8  C   UNL     1       3.420   2.040  -1.829  1.00  0.00     0.093 A 
ATOM      9  C   UNL     1       5.046   0.588  -2.483  1.00  0.00     0.004 A 
ATOM     10  N   UNL     1       4.497   2.737  -2.336  1.00  0.00    -0.351 N 
ATOM     11  C   UNL     1       5.447   1.876  -2.826  1.00  0.00     0.048 A 
ATOM     12  C   UNL     1       5.860  -0.495  -2.884  1.00  0.00     0.012 A 
ATOM     13  H   UNL     1       4.574   3.718  -2.345  1.00  0.00     0.167 HD
ATOM     14  C   UNL     1       6.616   2.145  -3.550  1.00  0.00     0.047 A 
ATOM     15  C   UNL     1       7.021  -0.250  -3.629  1.00  0.00     0.021 A 
ATOM     16  C   UNL     1       7.386   1.052  -3.954  1.00  0.00     0.043 A 
ATOM     17  Cl  UNL     1       8.809   1.327  -4.886  1.00  0.00    -0.084 Cl
BRANCH   8  18
ATOM     18  C   UNL     1       2.153   2.646  -1.438  1.00  0.00     0.227 C 
ATOM     19  O   UNL     1       1.129   1.999  -1.212  1.00  0.00    -0.285 OA
BRANCH  18  20
ATOM     20  C   UNL     1       2.059   4.121  -1.375  1.00  0.00     0.113 A 
ATOM     21  C   UNL     1       1.847   4.825  -2.553  1.00  0.00     0.036 A 
ATOM     22  N   UNL     1       2.195   4.690  -0.153  1.00  0.00    -0.252 NA
ATOM     23  C   UNL     1       1.731   6.213  -2.479  1.00  0.00    -0.041 A 
ATOM     24  C   UNL     1       2.046   6.032  -0.106  1.00  0.00     0.115 A 
ATOM     25  C   UNL     1       1.824   6.836  -1.224  1.00  0.00    -0.026 A 
ATOM     26  C   UNL     1       1.560   7.012  -3.745  1.00  0.00     0.036 C 
ATOM     27  C   UNL     1       1.597   8.315  -1.057  1.00  0.00     0.037 C 
ATOM     28  C   UNL     1       1.000   8.410  -3.496  1.00  0.00     0.005 C 
ATOM     29  C   UNL     1       1.754   9.096  -2.362  1.00  0.00     0.005 C 
ENDBRANCH  18  20
ENDBRANCH   8  18
ENDBRANCH   6   7
ENDBRANCH   4   6
ENDBRANCH   1   2
BRANCH   1  30
ATOM     30  C   UNL     1       2.434   0.499   3.400  1.00  0.00     0.042 C 
BRANCH  30  31
ATOM     31  C   UNL     1       3.886   0.416   3.849  1.00  0.00     0.118 C 
BRANCH  31  32
ATOM     32  N   UNL     1       4.499   1.713   4.116  1.00  0.00    -0.352 N 
ATOM     33  C   UNL     1       5.223   2.151   5.198  1.00  0.00     0.251 C 
ATOM     34  H   UNL     1       4.372   2.383   3.405  1.00  0.00     0.163 HD
ATOM     35  O   UNL     1       5.586   3.325   5.251  1.00  0.00    -0.269 OA
BRANCH  33  36
ATOM     36  C   UNL     1       5.534   1.240   6.323  1.00  0.00     0.039 A 
ATOM     37  C   UNL     1       5.929  -0.081   6.107  1.00  0.00     0.014 A 
ATOM     38  C   UNL     1       5.423   1.724   7.631  1.00  0.00     0.014 A 
ATOM     39  C   UNL     1       6.034  -0.958   7.183  1.00  0.00     0.010 A 
ATOM     40  C   UNL     1       5.613   0.863   8.717  1.00  0.00     0.010 A 
ATOM     41  C   UNL     1       5.866  -0.499   8.500  1.00  0.00    -0.014 A 
BRANCH  41  42
ATOM     42  C   UNL     1       5.945  -1.466   9.627  1.00  0.00     0.031 A 
ATOM     43  C   UNL     1       4.733  -1.774  10.465  1.00  0.00     0.074 A 
ATOM     44  C   UNL     1       7.100  -2.120   9.856  1.00  0.00     0.049 A 
ATOM     45  N   UNL     1       4.609  -2.634  11.446  1.00  0.00    -0.248 NA
ATOM     46  C   UNL     1       3.502  -1.023  10.171  1.00  0.00     0.031 C 
ATOM     47  C   UNL     1       8.343  -1.924   9.107  1.00  0.00     0.029 A 
ATOM     48  N   UNL     1       7.407  -3.108  10.758  1.00  0.00    -0.354 N 
ATOM     49  C   UNL     1       3.298  -2.518  11.891  1.00  0.00     0.074 A 
ATOM     50  C   UNL     1       2.672  -1.484  11.097  1.00  0.00     0.031 C 
ATOM     51  C   UNL     1       9.257  -2.807   9.537  1.00  0.00     0.029 A 
ATOM     52  C   UNL     1       8.685  -3.593  10.626  1.00  0.00     0.049 A 
ATOM     53  H   UNL     1       6.772  -3.437  11.435  1.00  0.00     0.167 HD
ATOM     54  C   UNL     1       2.668  -3.219  12.863  1.00  0.00     0.031 A 
ATOM     55  C   UNL     1       9.331  -4.561  11.302  1.00  0.00     0.031 A 
ATOM     56  C   UNL     1       3.280  -4.260  13.644  1.00  0.00     0.049 A 
ATOM     57  C   UNL     1       8.622  -5.296  12.401  1.00  0.00     0.074 A 
ATOM     58  C   UNL     1       2.706  -5.040  14.634  1.00  0.00     0.029 A 
ATOM     59  N   UNL     1       4.597  -4.670  13.524  1.00  0.00    -0.354 N 
ATOM     60  N   UNL     1       7.380  -5.178  12.801  1.00  0.00    -0.248 NA
ATOM     61  C   UNL     1       9.404  -6.294  13.146  1.00  0.00     0.031 C 
ATOM     62  C   UNL     1       3.690  -5.889  15.146  1.00  0.00     0.029 A 
ATOM     63  C   UNL     1       4.862  -5.675  14.439  1.00  0.00     0.049 A 
ATOM     64  H   UNL     1       5.248  -4.302  12.883  1.00  0.00     0.167 HD
ATOM     65  C   UNL     1       7.228  -6.089  13.837  1.00  0.00     0.074 A 
ATOM     66  C   UNL     1       8.498  -6.767  13.992  1.00  0.00     0.031 C 
ATOM     67  C   UNL     1       6.131  -6.335  14.593  1.00  0.00     0.031 A 
BRANCH  54  68
ATOM     68  C   UNL     1       1.232  -2.883  13.152  1.00  0.00    -0.014 A 
ATOM     69  C   UNL     1       0.895  -2.238  14.353  1.00  0.00     0.009 A 
ATOM     70  C   UNL     1       0.205  -3.280  12.281  1.00  0.00     0.009 A 
ATOM     71  C   UNL     1      -0.442  -2.003  14.680  1.00  0.00     0.001 A 
ATOM     72  C   UNL     1      -1.130  -3.022  12.601  1.00  0.00     0.001 A 
ATOM     73  C   UNL     1      -1.452  -2.391  13.802  1.00  0.00     0.000 A 
ENDBRANCH  54  68
BRANCH  55  74
ATOM     74  C   UNL     1      10.732  -4.892  10.937  1.00  0.00    -0.014 A 
ATOM     75  C   UNL     1      11.773  -3.992  11.214  1.00  0.00     0.009 A 
ATOM     76  C   UNL     1      11.027  -6.088  10.265  1.00  0.00     0.009 A 
ATOM     77  C   UNL     1      13.078  -4.270  10.804  1.00  0.00     0.001 A 
ATOM     78  C   UNL     1      12.339  -6.375   9.880  1.00  0.00     0.001 A 
ATOM     79  C   UNL     1      13.361  -5.463  10.141  1.00  0.00     0.000 A 
ENDBRANCH  55  74
BRANCH  67  80
ATOM     80  C   UNL     1       6.242  -7.382  15.663  1.00  0.00    -0.014 A 
ATOM     81  C   UNL     1       5.583  -8.612  15.509  1.00  0.00     0.009 A 
ATOM     82  C   UNL     1       6.921  -7.117  16.862  1.00  0.00     0.009 A 
ATOM     83  C   UNL     1       5.592  -9.552  16.540  1.00  0.00     0.001 A 
ATOM     84  C   UNL     1       6.948  -8.069  17.882  1.00  0.00     0.001 A 
ATOM     85  C   UNL     1       6.277  -9.282  17.724  1.00  0.00     0.000 A 
ENDBRANCH  67  80
ENDBRANCH  41  42
ENDBRANCH  33  36
ENDBRANCH  31  32
ENDBRANCH  30  31
ENDBRANCH   1  30
TORSDOF 13
