REMARK SMILES O=C(NCCCNC(=O)c1ccccc1NC(=O)c1ccc(N2C(=O)[C@H]3CC=CC[C@H]3C2=O)cc1)c1ccc(-c2c3nc(c(-c4ccccc4)c4ccc([nH]4)c(-c4ccccc4)c4nc(c(-c5ccccc5)c5ccc2[nH]5)C=C4)C=C3)cc1
REMARK SMILES IDX 5 1 4 2 3 3 1 4 2 5 36 7 37 8 83 9 38 10 82 11 39 12 40 13
REMARK SMILES IDX 41 14 76 15 42 16 81 17 75 18 77 19 43 20 80 21 74 22 73 23
REMARK SMILES IDX 44 25 66 26 51 27 65 28 52 29 55 30 64 31 78 32 53 33 54 34
REMARK SMILES IDX 63 36 79 37 56 38 45 39 46 40 50 41 47 42 49 43 48 44 67 45
REMARK SMILES IDX 68 46 72 47 69 48 71 49 70 50 57 51 58 52 62 53 59 54 61 55
REMARK SMILES IDX 60 56 6 57 7 58 8 59 9 61 10 62 11 63 15 64 12 65 14 66
REMARK SMILES IDX 13 67 16 68 17 69 18 71 19 72 20 73 35 74 21 75 34 76 22 77
REMARK SMILES IDX 23 78 24 79 32 80 25 81 26 82 31 83 33 84 27 85 30 86 28 87
REMARK SMILES IDX 29 88
REMARK H PARENT 3 6 77 24 55 35 7 60 16 70
REMARK Flexibility Score: inf
ROOT
ATOM      1  C   UNL     1       5.168  -1.755  -1.507  1.00  0.00     0.042 C 
ENDROOT
BRANCH   1   2
ATOM      2  C   UNL     1       4.707  -0.324  -1.282  1.00  0.00     0.118 C 
BRANCH   2   3
ATOM      3  N   UNL     1       3.262  -0.193  -1.138  1.00  0.00    -0.352 N 
ATOM      4  O   UNL     1       1.276   0.079  -0.101  1.00  0.00    -0.269 OA
ATOM      5  C   UNL     1       2.501   0.142  -0.043  1.00  0.00     0.251 C 
ATOM      6  H   UNL     1       2.747  -0.372  -1.958  1.00  0.00     0.163 HD
BRANCH   5   7
ATOM      7  C   UNL     1       3.154   0.542   1.221  1.00  0.00     0.039 A 
ATOM      8  C   UNL     1       4.253   1.399   1.216  1.00  0.00     0.014 A 
ATOM      9  C   UNL     1       2.663   0.045   2.432  1.00  0.00     0.014 A 
ATOM     10  C   UNL     1       4.985   1.585   2.379  1.00  0.00     0.010 A 
ATOM     11  C   UNL     1       3.329   0.338   3.625  1.00  0.00     0.010 A 
ATOM     12  C   UNL     1       4.524   1.071   3.602  1.00  0.00    -0.014 A 
BRANCH  12  13
ATOM     13  C   UNL     1       5.293   1.368   4.837  1.00  0.00     0.031 A 
ATOM     14  C   UNL     1       5.922   0.271   5.652  1.00  0.00     0.074 A 
ATOM     15  C   UNL     1       5.472   2.657   5.188  1.00  0.00     0.049 A 
ATOM     16  N   UNL     1       6.676   0.371   6.719  1.00  0.00    -0.248 NA
ATOM     17  C   UNL     1       5.671  -1.115   5.225  1.00  0.00     0.031 C 
ATOM     18  C   UNL     1       4.911   3.810   4.476  1.00  0.00     0.029 A 
ATOM     19  N   UNL     1       6.207   3.218   6.199  1.00  0.00    -0.354 N 
ATOM     20  C   UNL     1       6.963  -0.932   7.107  1.00  0.00     0.074 A 
ATOM     21  C   UNL     1       6.289  -1.807   6.173  1.00  0.00     0.031 C 
ATOM     22  C   UNL     1       5.385   4.937   5.023  1.00  0.00     0.029 A 
ATOM     23  C   UNL     1       6.219   4.591   6.166  1.00  0.00     0.049 A 
ATOM     24  H   UNL     1       6.679   2.689   6.882  1.00  0.00     0.167 HD
ATOM     25  C   UNL     1       7.721  -1.359   8.146  1.00  0.00     0.031 A 
ATOM     26  C   UNL     1       6.827   5.481   6.971  1.00  0.00     0.031 A 
ATOM     27  C   UNL     1       8.400  -0.486   9.069  1.00  0.00     0.049 A 
ATOM     28  C   UNL     1       7.642   4.979   8.123  1.00  0.00     0.074 A 
ATOM     29  C   UNL     1       9.217  -0.824  10.135  1.00  0.00     0.029 A 
ATOM     30  N   UNL     1       8.341   0.898   9.035  1.00  0.00    -0.354 N 
ATOM     31  N   UNL     1       7.919   3.743   8.461  1.00  0.00    -0.248 NA
ATOM     32  C   UNL     1       8.223   5.996   9.009  1.00  0.00     0.031 C 
ATOM     33  C   UNL     1       9.614   0.355  10.774  1.00  0.00     0.029 A 
ATOM     34  C   UNL     1       9.086   1.429  10.076  1.00  0.00     0.049 A 
ATOM     35  H   UNL     1       7.843   1.427   8.370  1.00  0.00     0.167 HD
ATOM     36  C   UNL     1       8.716   3.833   9.593  1.00  0.00     0.074 A 
ATOM     37  C   UNL     1       8.897   5.245   9.868  1.00  0.00     0.031 C 
ATOM     38  C   UNL     1       9.246   2.835  10.340  1.00  0.00     0.031 A 
BRANCH  25  39
ATOM     39  C   UNL     1       7.831  -2.843   8.361  1.00  0.00    -0.014 A 
ATOM     40  C   UNL     1       8.598  -3.653   7.508  1.00  0.00     0.009 A 
ATOM     41  C   UNL     1       7.188  -3.435   9.460  1.00  0.00     0.009 A 
ATOM     42  C   UNL     1       8.690  -5.029   7.733  1.00  0.00     0.001 A 
ATOM     43  C   UNL     1       7.302  -4.806   9.697  1.00  0.00     0.001 A 
ATOM     44  C   UNL     1       8.046  -5.603   8.829  1.00  0.00     0.000 A 
ENDBRANCH  25  39
BRANCH  26  45
ATOM     45  C   UNL     1       6.674   6.934   6.712  1.00  0.00    -0.014 A 
ATOM     46  C   UNL     1       7.758   7.693   6.246  1.00  0.00     0.009 A 
ATOM     47  C   UNL     1       5.436   7.566   6.908  1.00  0.00     0.009 A 
ATOM     48  C   UNL     1       7.608   9.058   5.997  1.00  0.00     0.001 A 
ATOM     49  C   UNL     1       5.282   8.924   6.629  1.00  0.00     0.001 A 
ATOM     50  C   UNL     1       6.370   9.671   6.182  1.00  0.00     0.000 A 
ENDBRANCH  26  45
BRANCH  38  51
ATOM     51  C   UNL     1      10.091   3.246  11.511  1.00  0.00    -0.014 A 
ATOM     52  C   UNL     1       9.511   3.776  12.673  1.00  0.00     0.009 A 
ATOM     53  C   UNL     1      11.484   3.089  11.453  1.00  0.00     0.009 A 
ATOM     54  C   UNL     1      10.315   4.177  13.742  1.00  0.00     0.001 A 
ATOM     55  C   UNL     1      12.283   3.466  12.533  1.00  0.00     0.001 A 
ATOM     56  C   UNL     1      11.698   4.019  13.671  1.00  0.00     0.000 A 
ENDBRANCH  38  51
ENDBRANCH  12  13
ENDBRANCH   5   7
ENDBRANCH   2   3
ENDBRANCH   1   2
BRANCH   1  57
ATOM     57  C   UNL     1       4.689  -2.356  -2.814  1.00  0.00     0.118 C 
BRANCH  57  58
ATOM     58  N   UNL     1       5.106  -1.575  -3.972  1.00  0.00    -0.352 N 
ATOM     59  C   UNL     1       5.897  -1.919  -5.036  1.00  0.00     0.253 C 
ATOM     60  H   UNL     1       4.765  -0.651  -3.992  1.00  0.00     0.163 HD
ATOM     61  O   UNL     1       6.313  -1.036  -5.783  1.00  0.00    -0.269 OA
BRANCH  59  62
ATOM     62  C   UNL     1       6.238  -3.331  -5.320  1.00  0.00     0.063 A 
ATOM     63  C   UNL     1       7.592  -3.595  -5.580  1.00  0.00     0.016 A 
ATOM     64  C   UNL     1       5.269  -4.356  -5.405  1.00  0.00     0.054 A 
ATOM     65  C   UNL     1       8.000  -4.881  -5.919  1.00  0.00     0.001 A 
ATOM     66  C   UNL     1       5.695  -5.621  -5.816  1.00  0.00     0.027 A 
ATOM     67  C   UNL     1       7.050  -5.888  -6.049  1.00  0.00     0.002 A 
BRANCH  64  68
ATOM     68  N   UNL     1       3.927  -4.051  -5.088  1.00  0.00    -0.321 N 
ATOM     69  C   UNL     1       2.850  -4.786  -4.656  1.00  0.00     0.255 C 
ATOM     70  H   UNL     1       3.716  -3.097  -5.203  1.00  0.00     0.170 HD
ATOM     71  O   UNL     1       1.800  -4.204  -4.386  1.00  0.00    -0.269 OA
BRANCH  69  72
ATOM     72  C   UNL     1       2.892  -6.245  -4.503  1.00  0.00     0.040 A 
ATOM     73  C   UNL     1       1.958  -6.964  -5.236  1.00  0.00     0.016 A 
ATOM     74  C   UNL     1       3.820  -6.914  -3.704  1.00  0.00     0.016 A 
ATOM     75  C   UNL     1       2.053  -8.351  -5.299  1.00  0.00     0.027 A 
ATOM     76  C   UNL     1       3.917  -8.313  -3.786  1.00  0.00     0.027 A 
ATOM     77  C   UNL     1       3.081  -9.050  -4.644  1.00  0.00     0.052 A 
BRANCH  77  78
ATOM     78  N   UNL     1       3.287 -10.441  -4.908  1.00  0.00    -0.250 N 
ATOM     79  C   UNL     1       2.819 -11.071  -6.042  1.00  0.00     0.238 C 
ATOM     80  C   UNL     1       4.043 -11.291  -4.137  1.00  0.00     0.238 C 
ATOM     81  O   UNL     1       2.203 -10.588  -6.985  1.00  0.00    -0.274 OA
ATOM     82  C   UNL     1       3.202 -12.527  -6.016  1.00  0.00     0.096 C 
ATOM     83  C   UNL     1       4.077 -12.662  -4.775  1.00  0.00     0.096 C 
ATOM     84  O   UNL     1       4.600 -11.060  -3.071  1.00  0.00    -0.274 OA
ATOM     85  C   UNL     1       3.841 -12.923  -7.350  1.00  0.00     0.041 C 
ATOM     86  C   UNL     1       5.522 -13.112  -5.007  1.00  0.00     0.041 C 
ATOM     87  C   UNL     1       5.302 -12.598  -7.416  1.00  0.00    -0.030 C 
ATOM     88  C   UNL     1       6.079 -12.682  -6.330  1.00  0.00    -0.030 C 
ENDBRANCH  77  78
ENDBRANCH  69  72
ENDBRANCH  64  68
ENDBRANCH  59  62
ENDBRANCH  57  58
ENDBRANCH   1  57
TORSDOF 13
