REMARK SMILES Cc1ccc(C)c(N2C(=O)C[C@@H](SCC(=O)NCCCNC(=O)c3ccc(-c4c5nc(c(-c6ccccc6)c6ccc([nH]6)c(-c6ccccc6)c6nc(c(-c7ccccc7)c7ccc4[nH]7)C=C6)C=C5)cc3)C2=O)c1
REMARK SMILES IDX 18 1 17 2 15 3 16 4 14 6 13 7 12 8 8 9 9 10 72 11 10 12
REMARK SMILES IDX 11 13 73 14 7 15 1 16 2 17 3 18 74 19 4 20 5 21 6 22 19 23
REMARK SMILES IDX 20 24 21 25 22 26 23 28 24 29 25 30 71 31 26 32 70 33 27 34
REMARK SMILES IDX 28 35 29 36 64 37 30 38 69 39 63 40 65 41 31 42 68 43 62 44
REMARK SMILES IDX 61 45 32 47 54 48 39 49 53 50 40 51 43 52 52 53 66 54 41 55
REMARK SMILES IDX 42 56 51 58 67 59 44 60 33 61 34 62 38 63 35 64 37 65 36 66
REMARK SMILES IDX 55 67 56 68 60 69 57 70 59 71 58 72 45 73 46 74 50 75 47 76
REMARK SMILES IDX 49 77 48 78
REMARK H PARENT 17 5 21 27 65 46 43 57
REMARK Flexibility Score: inf
ROOT
ATOM      1  C   UNL     1      -7.011   5.152   2.071  1.00  0.00     0.117 C 
ENDROOT
BRANCH   1   2
ATOM      2  N   UNL     1      -5.977   6.125   1.744  1.00  0.00    -0.355 N 
ATOM      3  C   UNL     1      -5.211   6.250   0.623  1.00  0.00     0.230 C 
ATOM      4  O   UNL     1      -4.346   7.130   0.601  1.00  0.00    -0.274 OA
ATOM      5  H   UNL     1      -5.805   6.797   2.442  1.00  0.00     0.163 HD
BRANCH   3   6
ATOM      6  C   UNL     1      -5.396   5.318  -0.556  1.00  0.00     0.170 C 
BRANCH   6   7
ATOM      7  S   UNL     1      -4.693   3.670  -0.260  1.00  0.00    -0.138 SA
BRANCH   7   8
ATOM      8  C   UNL     1      -3.022   4.110   0.373  1.00  0.00     0.146 C 
ATOM      9  N   UNL     1      -1.426   2.460  -0.075  1.00  0.00    -0.249 N 
ATOM     10  C   UNL     1      -1.152   3.469  -0.965  1.00  0.00     0.235 C 
ATOM     11  C   UNL     1      -2.370   2.833   0.850  1.00  0.00     0.247 C 
ATOM     12  O   UNL     1      -0.304   3.499  -1.844  1.00  0.00    -0.274 OA
ATOM     13  C   UNL     1      -2.074   4.623  -0.693  1.00  0.00     0.125 C 
ATOM     14  O   UNL     1      -2.657   2.283   1.907  1.00  0.00    -0.273 OA
BRANCH   9  15
ATOM     15  C   UNL     1      -0.737   1.224  -0.037  1.00  0.00     0.055 A 
ATOM     16  C   UNL     1       2.902   0.043  -0.075  1.00  0.00     0.044 C 
ATOM     17  C   UNL     1       1.403   0.033  -0.035  1.00  0.00    -0.049 A 
ATOM     18  C   UNL     1       0.720  -1.177   0.088  1.00  0.00     0.004 A 
ATOM     19  C   UNL     1       0.667   1.224  -0.118  1.00  0.00     0.030 A 
ATOM     20  C   UNL     1      -0.672  -1.196   0.135  1.00  0.00     0.006 A 
ATOM     21  C   UNL     1      -1.419  -0.007   0.068  1.00  0.00    -0.027 A 
ATOM     22  C   UNL     1      -2.917  -0.155   0.037  1.00  0.00     0.046 C 
ENDBRANCH   9  15
ENDBRANCH   7   8
ENDBRANCH   6   7
ENDBRANCH   3   6
ENDBRANCH   1   2
BRANCH   1  23
ATOM     23  C   UNL     1      -6.561   4.057   3.049  1.00  0.00     0.042 C 
BRANCH  23  24
ATOM     24  C   UNL     1      -6.279   4.503   4.483  1.00  0.00     0.118 C 
BRANCH  24  25
ATOM     25  N   UNL     1      -7.436   5.131   5.138  1.00  0.00    -0.352 N 
ATOM     26  C   UNL     1      -7.580   6.149   6.069  1.00  0.00     0.251 C 
ATOM     27  H   UNL     1      -8.296   4.745   4.853  1.00  0.00     0.163 HD
ATOM     28  O   UNL     1      -8.636   6.254   6.673  1.00  0.00    -0.269 OA
BRANCH  26  29
ATOM     29  C   UNL     1      -6.488   7.114   6.340  1.00  0.00     0.039 A 
ATOM     30  C   UNL     1      -6.506   7.996   7.427  1.00  0.00     0.014 A 
ATOM     31  C   UNL     1      -5.435   7.192   5.449  1.00  0.00     0.014 A 
ATOM     32  C   UNL     1      -5.489   8.952   7.526  1.00  0.00     0.010 A 
ATOM     33  C   UNL     1      -4.280   7.836   5.760  1.00  0.00     0.010 A 
ATOM     34  C   UNL     1      -4.397   8.871   6.651  1.00  0.00    -0.014 A 
BRANCH  34  35
ATOM     35  C   UNL     1      -3.334   9.852   6.586  1.00  0.00     0.031 A 
ATOM     36  C   UNL     1      -2.464   9.868   7.765  1.00  0.00     0.074 A 
ATOM     37  C   UNL     1      -2.959  10.504   5.463  1.00  0.00     0.049 A 
ATOM     38  N   UNL     1      -2.472  10.738   8.713  1.00  0.00    -0.248 NA
ATOM     39  C   UNL     1      -1.582   8.716   7.987  1.00  0.00     0.031 C 
ATOM     40  C   UNL     1      -3.417  10.325   4.079  1.00  0.00     0.029 A 
ATOM     41  N   UNL     1      -1.973  11.432   5.335  1.00  0.00    -0.354 N 
ATOM     42  C   UNL     1      -1.452  10.357   9.568  1.00  0.00     0.074 A 
ATOM     43  C   UNL     1      -1.087   9.013   9.189  1.00  0.00     0.031 C 
ATOM     44  C   UNL     1      -2.579  10.979   3.239  1.00  0.00     0.029 A 
ATOM     45  C   UNL     1      -1.628  11.741   4.028  1.00  0.00     0.049 A 
ATOM     46  H   UNL     1      -1.536  11.852   6.112  1.00  0.00     0.167 HD
ATOM     47  C   UNL     1      -0.818  11.271  10.349  1.00  0.00     0.031 A 
ATOM     48  C   UNL     1      -0.613  12.551   3.639  1.00  0.00     0.031 A 
ATOM     49  C   UNL     1      -1.507  12.541  10.353  1.00  0.00     0.049 A 
ATOM     50  C   UNL     1      -0.254  13.403   4.798  1.00  0.00     0.074 A 
ATOM     51  C   UNL     1      -2.788  12.952  10.671  1.00  0.00     0.029 A 
ATOM     52  N   UNL     1      -0.977  13.545   9.574  1.00  0.00    -0.354 N 
ATOM     53  N   UNL     1      -1.030  14.334   5.274  1.00  0.00    -0.248 NA
ATOM     54  C   UNL     1       0.793  12.949   5.700  1.00  0.00     0.031 C 
ATOM     55  C   UNL     1      -3.120  13.928   9.683  1.00  0.00     0.029 A 
ATOM     56  C   UNL     1      -2.007  14.101   8.858  1.00  0.00     0.049 A 
ATOM     57  H   UNL     1      -0.031  13.815   9.538  1.00  0.00     0.167 HD
ATOM     58  C   UNL     1      -0.865  14.265   6.651  1.00  0.00     0.074 A 
ATOM     59  C   UNL     1       0.356  13.487   6.843  1.00  0.00     0.031 C 
ATOM     60  C   UNL     1      -1.883  14.595   7.501  1.00  0.00     0.031 A 
BRANCH  47  61
ATOM     61  C   UNL     1       0.618  11.140  10.777  1.00  0.00    -0.014 A 
ATOM     62  C   UNL     1       1.139  12.095  11.666  1.00  0.00     0.009 A 
ATOM     63  C   UNL     1       1.542  10.276  10.160  1.00  0.00     0.009 A 
ATOM     64  C   UNL     1       2.517  12.217  11.874  1.00  0.00     0.001 A 
ATOM     65  C   UNL     1       2.914  10.363  10.402  1.00  0.00     0.001 A 
ATOM     66  C   UNL     1       3.404  11.354  11.239  1.00  0.00     0.000 A 
ENDBRANCH  47  61
BRANCH  48  67
ATOM     67  C   UNL     1       0.205  12.518   2.409  1.00  0.00    -0.014 A 
ATOM     68  C   UNL     1       0.973  13.630   2.027  1.00  0.00     0.009 A 
ATOM     69  C   UNL     1       0.449  11.297   1.754  1.00  0.00     0.009 A 
ATOM     70  C   UNL     1       1.982  13.511   1.060  1.00  0.00     0.001 A 
ATOM     71  C   UNL     1       1.453  11.180   0.787  1.00  0.00     0.001 A 
ATOM     72  C   UNL     1       2.232  12.283   0.453  1.00  0.00     0.000 A 
ENDBRANCH  48  67
BRANCH  60  73
ATOM     73  C   UNL     1      -3.097  15.281   6.916  1.00  0.00    -0.014 A 
ATOM     74  C   UNL     1      -3.882  14.715   5.896  1.00  0.00     0.009 A 
ATOM     75  C   UNL     1      -3.543  16.473   7.507  1.00  0.00     0.009 A 
ATOM     76  C   UNL     1      -5.053  15.341   5.454  1.00  0.00     0.001 A 
ATOM     77  C   UNL     1      -4.725  17.087   7.083  1.00  0.00     0.001 A 
ATOM     78  C   UNL     1      -5.475  16.526   6.051  1.00  0.00     0.000 A 
ENDBRANCH  60  73
ENDBRANCH  34  35
ENDBRANCH  26  29
ENDBRANCH  24  25
ENDBRANCH  23  24
ENDBRANCH   1  23
TORSDOF 13
