REMARK SMILES O=C(CCC(=O)N1N=C(c2ccc(F)cc2)C[C@@H]1c1ccc2nccnc2c1)NCCCNC(=O)c1ccc(-c2c3nc(c(-c4ccccc4)c4ccc([nH]4)c(-c4ccccc4)c4nc(c(-c5ccccc5)c5ccc2[nH]5)C=C4)C=C3)cc1
REMARK SMILES IDX 30 1 29 2 1 3 2 4 3 6 4 7 5 8 6 9 7 10 8 11 18 12 9 13 17 14
REMARK SMILES IDX 19 15 20 16 28 17 21 18 27 19 22 20 26 21 23 22 25 23 24 24
REMARK SMILES IDX 10 25 11 26 16 27 12 28 15 29 13 30 14 31 31 32 32 33 33 34
REMARK SMILES IDX 34 35 35 37 36 38 37 39 83 40 38 41 82 42 39 43 40 44 41 45
REMARK SMILES IDX 76 46 42 47 81 48 75 49 77 50 43 51 80 52 74 53 73 54 44 56
REMARK SMILES IDX 66 57 51 58 65 59 52 60 55 61 64 62 78 63 53 64 54 65 63 67
REMARK SMILES IDX 79 68 56 69 45 70 46 71 50 72 47 73 49 74 48 75 67 76 68 77
REMARK SMILES IDX 72 78 69 79 71 80 70 81 57 82 58 83 62 84 59 85 61 86 60 87
REMARK H PARENT 29 5 33 36 77 55 55 66
REMARK Flexibility Score: inf
ROOT
ATOM      1  C   UNL     1       0.954   1.817   1.907  1.00  0.00     0.117 C 
ENDROOT
BRANCH   1   2
ATOM      2  N   UNL     1       1.350   0.626   1.141  1.00  0.00    -0.356 N 
ATOM      3  O   UNL     1       0.919   1.573  -0.902  1.00  0.00    -0.275 OA
ATOM      4  C   UNL     1       1.447   0.677  -0.248  1.00  0.00     0.220 C 
ATOM      5  H   UNL     1       1.549  -0.214   1.613  1.00  0.00     0.163 HD
BRANCH   4   6
ATOM      6  C   UNL     1       2.356  -0.379  -0.900  1.00  0.00     0.110 C 
BRANCH   6   7
ATOM      7  C   UNL     1       3.338   0.253  -1.907  1.00  0.00     0.112 C 
BRANCH   7   8
ATOM      8  C   UNL     1       4.805   0.646  -1.603  1.00  0.00     0.243 C 
ATOM      9  O   UNL     1       5.630   0.548  -2.520  1.00  0.00    -0.273 OA
BRANCH   8  10
ATOM     10  N   UNL     1       5.128   1.276  -0.413  1.00  0.00    -0.225 N 
ATOM     11  N   UNL     1       5.842   2.482  -0.453  1.00  0.00    -0.174 NA
ATOM     12  C   UNL     1       4.522   1.057   0.880  1.00  0.00     0.147 C 
ATOM     13  C   UNL     1       5.713   3.029   0.718  1.00  0.00     0.071 C 
ATOM     14  C   UNL     1       4.920   2.247   1.710  1.00  0.00     0.091 C 
BRANCH  12  15
ATOM     15  C   UNL     1       4.697  -0.309   1.529  1.00  0.00    -0.021 A 
ATOM     16  C   UNL     1       3.798  -0.695   2.531  1.00  0.00     0.008 A 
ATOM     17  C   UNL     1       5.610  -1.283   1.112  1.00  0.00     0.036 A 
ATOM     18  C   UNL     1       3.760  -1.971   3.074  1.00  0.00     0.031 A 
ATOM     19  C   UNL     1       5.572  -2.593   1.618  1.00  0.00     0.089 A 
ATOM     20  C   UNL     1       4.616  -2.933   2.611  1.00  0.00     0.089 A 
ATOM     21  N   UNL     1       6.398  -3.540   1.139  1.00  0.00    -0.253 NA
ATOM     22  N   UNL     1       4.472  -4.171   3.105  1.00  0.00    -0.253 NA
ATOM     23  C   UNL     1       6.239  -4.792   1.634  1.00  0.00     0.132 A 
ATOM     24  C   UNL     1       5.295  -5.102   2.592  1.00  0.00     0.132 A 
ENDBRANCH  12  15
BRANCH  13  25
ATOM     25  C   UNL     1       6.142   4.375   1.139  1.00  0.00    -0.002 A 
ATOM     26  C   UNL     1       6.851   4.500   2.341  1.00  0.00     0.013 A 
ATOM     27  C   UNL     1       5.613   5.509   0.511  1.00  0.00     0.013 A 
ATOM     28  C   UNL     1       7.023   5.755   2.925  1.00  0.00     0.040 A 
ATOM     29  C   UNL     1       5.786   6.766   1.105  1.00  0.00     0.040 A 
ATOM     30  C   UNL     1       6.480   6.876   2.308  1.00  0.00     0.123 A 
ATOM     31  F   UNL     1       6.612   8.075   2.890  1.00  0.00    -0.207 F 
ENDBRANCH  13  25
ENDBRANCH   8  10
ENDBRANCH   7   8
ENDBRANCH   6   7
ENDBRANCH   4   6
ENDBRANCH   1   2
BRANCH   1  32
ATOM     32  C   UNL     1       1.131   1.793   3.452  1.00  0.00     0.042 C 
BRANCH  32  33
ATOM     33  C   UNL     1       2.475   2.120   4.165  1.00  0.00     0.118 C 
BRANCH  33  34
ATOM     34  N   UNL     1       2.960   3.481   4.109  1.00  0.00    -0.352 N 
ATOM     35  C   UNL     1       4.001   4.084   4.793  1.00  0.00     0.251 C 
ATOM     36  H   UNL     1       2.474   4.071   3.488  1.00  0.00     0.163 HD
ATOM     37  O   UNL     1       4.215   5.273   4.554  1.00  0.00    -0.269 OA
BRANCH  35  38
ATOM     38  C   UNL     1       4.838   3.413   5.844  1.00  0.00     0.039 A 
ATOM     39  C   UNL     1       5.226   4.214   6.931  1.00  0.00     0.014 A 
ATOM     40  C   UNL     1       5.292   2.090   5.817  1.00  0.00     0.014 A 
ATOM     41  C   UNL     1       5.942   3.680   8.013  1.00  0.00     0.010 A 
ATOM     42  C   UNL     1       5.987   1.539   6.920  1.00  0.00     0.010 A 
ATOM     43  C   UNL     1       6.270   2.316   8.055  1.00  0.00    -0.014 A 
BRANCH  43  44
ATOM     44  C   UNL     1       6.676   1.715   9.364  1.00  0.00     0.031 A 
ATOM     45  C   UNL     1       8.072   1.246   9.670  1.00  0.00     0.074 A 
ATOM     46  C   UNL     1       5.731   1.628  10.325  1.00  0.00     0.049 A 
ATOM     47  N   UNL     1       8.575   0.861  10.821  1.00  0.00    -0.248 NA
ATOM     48  C   UNL     1       9.019   1.185   8.552  1.00  0.00     0.031 C 
ATOM     49  C   UNL     1       4.326   2.008  10.150  1.00  0.00     0.029 A 
ATOM     50  N   UNL     1       5.803   1.231  11.639  1.00  0.00    -0.354 N 
ATOM     51  C   UNL     1       9.901   0.524  10.571  1.00  0.00     0.074 A 
ATOM     52  C   UNL     1      10.108   0.710   9.147  1.00  0.00     0.031 C 
ATOM     53  C   UNL     1       3.687   1.887  11.322  1.00  0.00     0.029 A 
ATOM     54  C   UNL     1       4.619   1.385  12.324  1.00  0.00     0.049 A 
ATOM     55  H   UNL     1       6.622   0.871  12.050  1.00  0.00     0.167 HD
ATOM     56  C   UNL     1      10.855   0.108  11.444  1.00  0.00     0.031 A 
ATOM     57  C   UNL     1       4.311   1.168  13.617  1.00  0.00     0.031 A 
ATOM     58  C   UNL     1      10.639  -0.111  12.856  1.00  0.00     0.049 A 
ATOM     59  C   UNL     1       5.383   0.700  14.558  1.00  0.00     0.074 A 
ATOM     60  C   UNL     1      11.553  -0.500  13.822  1.00  0.00     0.029 A 
ATOM     61  N   UNL     1       9.418   0.025  13.502  1.00  0.00    -0.354 N 
ATOM     62  N   UNL     1       6.652   0.475  14.317  1.00  0.00    -0.248 NA
ATOM     63  C   UNL     1       4.983   0.474  15.954  1.00  0.00     0.031 C 
ATOM     64  C   UNL     1      10.874  -0.657  15.037  1.00  0.00     0.029 A 
ATOM     65  C   UNL     1       9.550  -0.301  14.844  1.00  0.00     0.049 A 
ATOM     66  H   UNL     1       8.581   0.310  13.071  1.00  0.00     0.167 HD
ATOM     67  C   UNL     1       7.206   0.103  15.534  1.00  0.00     0.074 A 
ATOM     68  C   UNL     1       6.142   0.161  16.515  1.00  0.00     0.031 C 
ATOM     69  C   UNL     1       8.483  -0.256  15.813  1.00  0.00     0.031 A 
BRANCH  56  70
ATOM     70  C   UNL     1      12.235  -0.159  10.894  1.00  0.00    -0.014 A 
ATOM     71  C   UNL     1      13.055   0.889  10.444  1.00  0.00     0.009 A 
ATOM     72  C   UNL     1      12.745  -1.467  10.873  1.00  0.00     0.009 A 
ATOM     73  C   UNL     1      14.334   0.628   9.944  1.00  0.00     0.001 A 
ATOM     74  C   UNL     1      14.035  -1.723  10.399  1.00  0.00     0.001 A 
ATOM     75  C   UNL     1      14.824  -0.677   9.924  1.00  0.00     0.000 A 
ENDBRANCH  56  70
BRANCH  57  76
ATOM     76  C   UNL     1       2.926   1.416  14.105  1.00  0.00    -0.014 A 
ATOM     77  C   UNL     1       2.655   2.463  14.999  1.00  0.00     0.009 A 
ATOM     78  C   UNL     1       1.866   0.599  13.680  1.00  0.00     0.009 A 
ATOM     79  C   UNL     1       1.359   2.668  15.479  1.00  0.00     0.001 A 
ATOM     80  C   UNL     1       0.566   0.828  14.134  1.00  0.00     0.001 A 
ATOM     81  C   UNL     1       0.315   1.855  15.042  1.00  0.00     0.000 A 
ENDBRANCH  57  76
BRANCH  69  82
ATOM     82  C   UNL     1       8.799  -0.591  17.246  1.00  0.00    -0.014 A 
ATOM     83  C   UNL     1       8.295  -1.752  17.856  1.00  0.00     0.009 A 
ATOM     84  C   UNL     1       9.618   0.267  17.997  1.00  0.00     0.009 A 
ATOM     85  C   UNL     1       8.566  -2.021  19.200  1.00  0.00     0.001 A 
ATOM     86  C   UNL     1       9.915  -0.022  19.330  1.00  0.00     0.001 A 
ATOM     87  C   UNL     1       9.378  -1.157  19.934  1.00  0.00     0.000 A 
ENDBRANCH  69  82
ENDBRANCH  43  44
ENDBRANCH  35  38
ENDBRANCH  33  34
ENDBRANCH  32  33
ENDBRANCH   1  32
TORSDOF 15
