REMARK SMILES O=C(NCCCNC(=O)c1ccc(-c2c3nc(c(-c4ccccc4)c4ccc([nH]4)c(-c4ccccc4)c4nc(c(-c5ccccc5)c5ccc2[nH]5)C=C4)C=C3)cc1)C1=Cc2cc(Cl)cc(-c3ccccc3)c2O[C@@H]1C(F)(F)F
REMARK SMILES IDX 5 1 4 2 3 3 1 4 2 5 58 7 59 8 74 9 60 10 73 11 61 12 72 13
REMARK SMILES IDX 62 14 65 15 63 16 64 17 75 18 76 19 77 20 78 21 66 22 67 23
REMARK SMILES IDX 71 24 68 25 70 26 69 27 6 28 7 29 8 30 9 32 10 33 11 34
REMARK SMILES IDX 57 35 12 36 56 37 13 38 14 39 15 40 50 41 16 42 55 43 49 44
REMARK SMILES IDX 51 45 17 46 54 47 48 48 47 49 18 51 40 52 25 53 39 54 26 55
REMARK SMILES IDX 29 56 38 57 52 58 27 59 28 60 37 62 53 63 30 64 19 65 20 66
REMARK SMILES IDX 24 67 21 68 23 69 22 70 41 71 42 72 46 73 43 74 45 75 44 76
REMARK SMILES IDX 31 77 32 78 36 79 33 80 35 81 34 82
REMARK H PARENT 3 6 7 31 51 50 29 61
REMARK Flexibility Score: inf
ROOT
ATOM      1  C   UNL     1       4.037   2.826   0.104  1.00  0.00     0.042 C 
ENDROOT
BRANCH   1   2
ATOM      2  C   UNL     1       2.960   1.830   0.535  1.00  0.00     0.118 C 
BRANCH   2   3
ATOM      3  N   UNL     1       2.162   1.344  -0.595  1.00  0.00    -0.352 N 
ATOM      4  O   UNL     1       1.322  -0.194  -2.038  1.00  0.00    -0.270 OA
ATOM      5  C   UNL     1       2.181   0.128  -1.231  1.00  0.00     0.251 C 
ATOM      6  H   UNL     1       1.510   1.990  -0.952  1.00  0.00     0.163 HD
BRANCH   5   7
ATOM      7  C   UNL     1       3.256  -0.795  -0.846  1.00  0.00     0.067 C 
ATOM      8  C   UNL     1       4.512  -0.440  -1.137  1.00  0.00     0.025 C 
ATOM      9  C   UNL     1       2.923  -1.869   0.138  1.00  0.00     0.314 C 
ATOM     10  C   UNL     1       5.494  -0.783  -0.105  1.00  0.00     0.019 A 
ATOM     11  O   UNL     1       3.767  -1.779   1.311  1.00  0.00    -0.475 OA
ATOM     12  C   UNL     1       6.782  -0.256  -0.226  1.00  0.00     0.032 A 
ATOM     13  C   UNL     1       5.035  -1.264   1.141  1.00  0.00     0.135 A 
ATOM     14  C   UNL     1       7.567  -0.112   0.912  1.00  0.00     0.042 A 
ATOM     15  C   UNL     1       5.804  -1.065   2.303  1.00  0.00     0.026 A 
ATOM     16  Cl  UNL     1       9.092   0.675   0.787  1.00  0.00    -0.084 Cl
ATOM     17  C   UNL     1       7.078  -0.484   2.165  1.00  0.00     0.033 A 
BRANCH   9  18
ATOM     18  C   UNL     1       2.960  -3.268  -0.502  1.00  0.00     0.429 C 
ATOM     19  F   UNL     1       2.574  -4.221   0.381  1.00  0.00    -0.167 F 
ATOM     20  F   UNL     1       2.120  -3.357  -1.561  1.00  0.00    -0.167 F 
ATOM     21  F   UNL     1       4.195  -3.608  -0.941  1.00  0.00    -0.167 F 
ENDBRANCH   9  18
BRANCH  15  22
ATOM     22  C   UNL     1       5.242  -1.263   3.651  1.00  0.00    -0.015 A 
ATOM     23  C   UNL     1       4.899  -0.149   4.438  1.00  0.00     0.009 A 
ATOM     24  C   UNL     1       5.022  -2.535   4.189  1.00  0.00     0.009 A 
ATOM     25  C   UNL     1       4.377  -0.289   5.723  1.00  0.00     0.001 A 
ATOM     26  C   UNL     1       4.500  -2.681   5.480  1.00  0.00     0.001 A 
ATOM     27  C   UNL     1       4.183  -1.560   6.247  1.00  0.00     0.000 A 
ENDBRANCH  15  22
ENDBRANCH   5   7
ENDBRANCH   2   3
ENDBRANCH   1   2
BRANCH   1  28
ATOM     28  C   UNL     1       4.540   3.690   1.259  1.00  0.00     0.118 C 
BRANCH  28  29
ATOM     29  N   UNL     1       5.265   2.981   2.299  1.00  0.00    -0.352 N 
ATOM     30  C   UNL     1       6.008   3.509   3.343  1.00  0.00     0.251 C 
ATOM     31  H   UNL     1       5.222   1.998   2.256  1.00  0.00     0.163 HD
ATOM     32  O   UNL     1       6.597   2.763   4.123  1.00  0.00    -0.269 OA
BRANCH  30  33
ATOM     33  C   UNL     1       6.192   4.973   3.455  1.00  0.00     0.039 A 
ATOM     34  C   UNL     1       7.485   5.462   3.671  1.00  0.00     0.014 A 
ATOM     35  C   UNL     1       5.145   5.860   3.226  1.00  0.00     0.014 A 
ATOM     36  C   UNL     1       7.754   6.818   3.477  1.00  0.00     0.010 A 
ATOM     37  C   UNL     1       5.428   7.184   2.924  1.00  0.00     0.010 A 
ATOM     38  C   UNL     1       6.744   7.665   3.000  1.00  0.00    -0.014 A 
BRANCH  38  39
ATOM     39  C   UNL     1       7.034   9.030   2.492  1.00  0.00     0.031 A 
ATOM     40  C   UNL     1       6.321  10.214   3.075  1.00  0.00     0.074 A 
ATOM     41  C   UNL     1       7.818   9.177   1.405  1.00  0.00     0.049 A 
ATOM     42  N   UNL     1       6.260  11.443   2.632  1.00  0.00    -0.248 NA
ATOM     43  C   UNL     1       5.527   9.969   4.290  1.00  0.00     0.031 C 
ATOM     44  C   UNL     1       8.520   8.096   0.704  1.00  0.00     0.029 A 
ATOM     45  N   UNL     1       8.144  10.298   0.683  1.00  0.00    -0.354 N 
ATOM     46  C   UNL     1       5.377  12.101   3.478  1.00  0.00     0.074 A 
ATOM     47  C   UNL     1       4.903  11.128   4.438  1.00  0.00     0.031 C 
ATOM     48  C   UNL     1       9.220   8.612  -0.318  1.00  0.00     0.029 A 
ATOM     49  C   UNL     1       8.977  10.047  -0.381  1.00  0.00     0.049 A 
ATOM     50  H   UNL     1       7.812  11.197   0.907  1.00  0.00     0.167 HD
ATOM     51  C   UNL     1       5.003  13.403   3.463  1.00  0.00     0.031 A 
ATOM     52  C   UNL     1       9.481  10.879  -1.310  1.00  0.00     0.031 A 
ATOM     53  C   UNL     1       5.515  14.375   2.537  1.00  0.00     0.049 A 
ATOM     54  C   UNL     1       9.110  12.333  -1.262  1.00  0.00     0.074 A 
ATOM     55  C   UNL     1       5.251  15.732   2.472  1.00  0.00     0.029 A 
ATOM     56  N   UNL     1       6.417  14.091   1.523  1.00  0.00    -0.354 N 
ATOM     57  N   UNL     1       8.297  12.947  -0.438  1.00  0.00    -0.248 NA
ATOM     58  C   UNL     1       9.730  13.207  -2.267  1.00  0.00     0.031 C 
ATOM     59  C   UNL     1       5.984  16.267   1.406  1.00  0.00     0.029 A 
ATOM     60  C   UNL     1       6.728  15.248   0.831  1.00  0.00     0.049 A 
ATOM     61  H   UNL     1       6.783  13.199   1.325  1.00  0.00     0.167 HD
ATOM     62  C   UNL     1       8.328  14.284  -0.805  1.00  0.00     0.074 A 
ATOM     63  C   UNL     1       9.246  14.393  -1.921  1.00  0.00     0.031 C 
ATOM     64  C   UNL     1       7.657  15.330  -0.265  1.00  0.00     0.031 A 
BRANCH  51  65
ATOM     65  C   UNL     1       3.986  13.831   4.484  1.00  0.00    -0.014 A 
ATOM     66  C   UNL     1       4.309  13.902   5.848  1.00  0.00     0.009 A 
ATOM     67  C   UNL     1       2.681  14.151   4.078  1.00  0.00     0.009 A 
ATOM     68  C   UNL     1       3.333  14.230   6.791  1.00  0.00     0.001 A 
ATOM     69  C   UNL     1       1.715  14.509   5.020  1.00  0.00     0.001 A 
ATOM     70  C   UNL     1       2.037  14.534   6.376  1.00  0.00     0.000 A 
ENDBRANCH  51  65
BRANCH  52  71
ATOM     71  C   UNL     1      10.422  10.364  -2.338  1.00  0.00    -0.014 A 
ATOM     72  C   UNL     1      11.794  10.644  -2.235  1.00  0.00     0.009 A 
ATOM     73  C   UNL     1       9.968   9.582  -3.410  1.00  0.00     0.009 A 
ATOM     74  C   UNL     1      12.689  10.169  -3.196  1.00  0.00     0.001 A 
ATOM     75  C   UNL     1      10.869   9.089  -4.357  1.00  0.00     0.001 A 
ATOM     76  C   UNL     1      12.226   9.389  -4.254  1.00  0.00     0.000 A 
ENDBRANCH  52  71
BRANCH  64  77
ATOM     77  C   UNL     1       7.931  16.686  -0.843  1.00  0.00    -0.014 A 
ATOM     78  C   UNL     1       7.366  17.084  -2.063  1.00  0.00     0.009 A 
ATOM     79  C   UNL     1       8.723  17.595  -0.124  1.00  0.00     0.009 A 
ATOM     80  C   UNL     1       7.607  18.364  -2.564  1.00  0.00     0.001 A 
ATOM     81  C   UNL     1       8.945  18.880  -0.618  1.00  0.00     0.001 A 
ATOM     82  C   UNL     1       8.392  19.262  -1.839  1.00  0.00     0.000 A 
ENDBRANCH  64  77
ENDBRANCH  38  39
ENDBRANCH  30  33
ENDBRANCH  28  29
ENDBRANCH   1  28
TORSDOF 12
