REMARK SMILES CC1=C[C@@H](CNS(=O)(=O)c2cccs2)[C@H](C(C)C)C[C@H]1CC(=O)NCCCNC(=O)c1ccc(-c2c3nc(c(-c4ccccc4)c4ccc([nH]4)c(-c4ccccc4)c4nc(c(-c5ccccc5)c5ccc2[nH]5)C=C4)C=C3)cc1
REMARK SMILES IDX 22 1 23 2 24 3 21 5 20 6 1 7 2 8 3 9 4 10 19 11 15 12 5 13
REMARK SMILES IDX 6 14 7 16 8 17 9 18 10 19 11 20 14 21 12 22 13 23 16 24
REMARK SMILES IDX 17 25 18 26 25 27 26 28 27 29 28 30 29 31 30 33 31 34 32 35
REMARK SMILES IDX 78 36 33 37 77 38 34 39 35 40 36 41 71 42 37 43 76 44 70 45
REMARK SMILES IDX 72 46 38 47 75 48 69 49 68 50 39 52 61 53 46 54 60 55 47 56
REMARK SMILES IDX 50 57 59 58 73 59 48 60 49 61 58 63 74 64 51 65 40 66 41 67
REMARK SMILES IDX 45 68 42 69 44 70 43 71 62 72 63 73 67 74 64 75 66 76 65 77
REMARK SMILES IDX 52 78 53 79 57 80 54 81 56 82 55 83
REMARK H PARENT 24 4 6 15 28 32 72 51 50 62
REMARK Flexibility Score: inf
ROOT
ATOM      1  C   UNL     1       2.465  -1.830  -1.104  1.00  0.00     0.220 C 
ATOM      2  O   UNL     1       2.941  -2.880  -0.667  1.00  0.00    -0.275 OA
ATOM      3  N   UNL     1       3.326  -0.840  -1.473  1.00  0.00    -0.356 N 
ATOM      4  H   UNL     1       4.276  -1.073  -1.358  1.00  0.00     0.163 HD
ENDROOT
BRANCH   1   5
ATOM      5  C   UNL     1       0.967  -1.651  -1.212  1.00  0.00     0.108 C 
BRANCH   5   6
ATOM      6  C   UNL     1       0.261  -1.385   0.140  1.00  0.00     0.024 C 
ATOM      7  C   UNL     1       1.931  -0.186   1.693  1.00  0.00     0.039 C 
ATOM      8  C   UNL     1       0.740  -0.087   0.773  1.00  0.00    -0.073 C 
ATOM      9  C   UNL     1       0.051   1.064   0.638  1.00  0.00    -0.023 C 
ATOM     10  C   UNL     1      -1.363   1.087   0.107  1.00  0.00     0.030 C 
ATOM     11  C   UNL     1      -1.283  -1.425  -0.068  1.00  0.00     0.013 C 
ATOM     12  C   UNL     1      -2.049  -0.239   0.577  1.00  0.00     0.000 C 
BRANCH  10  13
ATOM     13  C   UNL     1      -1.488   1.271  -1.421  1.00  0.00     0.107 C 
BRANCH  13  14
ATOM     14  N   UNL     1      -0.971   2.572  -1.897  1.00  0.00    -0.210 NA
ATOM     15  H   UNL     1       0.048   2.539  -1.861  1.00  0.00     0.141 HD
BRANCH  14  16
ATOM     16  S   UNL     1      -1.430   2.999  -3.484  1.00  0.00     0.250 S 
ATOM     17  O   UNL     1      -2.870   2.856  -3.552  1.00  0.00    -0.206 OA
ATOM     18  O   UNL     1      -0.780   4.255  -3.768  1.00  0.00    -0.206 OA
BRANCH  16  19
ATOM     19  C   UNL     1      -0.800   1.767  -4.614  1.00  0.00     0.134 A 
ATOM     20  C   UNL     1      -1.067   0.414  -4.743  1.00  0.00     0.033 A 
ATOM     21  S   UNL     1       0.298   2.293  -5.816  1.00  0.00    -0.131 S 
ATOM     22  C   UNL     1      -0.346  -0.192  -5.812  1.00  0.00     0.013 A 
ATOM     23  C   UNL     1       0.422   0.726  -6.492  1.00  0.00     0.066 A 
ENDBRANCH  16  19
ENDBRANCH  14  16
ENDBRANCH  13  14
ENDBRANCH  10  13
BRANCH  12  24
ATOM     24  C   UNL     1      -2.152  -0.365   2.142  1.00  0.00    -0.014 C 
ATOM     25  C   UNL     1      -2.873   0.830   2.778  1.00  0.00     0.007 C 
ATOM     26  C   UNL     1      -2.856  -1.655   2.578  1.00  0.00     0.007 C 
ENDBRANCH  12  24
ENDBRANCH   5   6
ENDBRANCH   1   5
BRANCH   3  27
ATOM     27  C   UNL     1       3.105   0.499  -2.007  1.00  0.00     0.117 C 
BRANCH  27  28
ATOM     28  C   UNL     1       3.300   1.627  -0.989  1.00  0.00     0.042 C 
BRANCH  28  29
ATOM     29  C   UNL     1       4.601   1.591  -0.189  1.00  0.00     0.118 C 
BRANCH  29  30
ATOM     30  N   UNL     1       5.676   2.278  -0.879  1.00  0.00    -0.352 N 
ATOM     31  C   UNL     1       6.286   3.473  -0.586  1.00  0.00     0.251 C 
ATOM     32  H   UNL     1       6.021   1.819  -1.679  1.00  0.00     0.163 HD
ATOM     33  O   UNL     1       6.989   4.010  -1.440  1.00  0.00    -0.269 OA
BRANCH  31  34
ATOM     34  C   UNL     1       6.127   4.132   0.736  1.00  0.00     0.039 A 
ATOM     35  C   UNL     1       6.012   5.527   0.772  1.00  0.00     0.014 A 
ATOM     36  C   UNL     1       6.213   3.420   1.936  1.00  0.00     0.014 A 
ATOM     37  C   UNL     1       5.971   6.201   1.998  1.00  0.00     0.010 A 
ATOM     38  C   UNL     1       6.122   4.091   3.162  1.00  0.00     0.010 A 
ATOM     39  C   UNL     1       6.024   5.490   3.207  1.00  0.00    -0.014 A 
BRANCH  39  40
ATOM     40  C   UNL     1       6.021   6.210   4.510  1.00  0.00     0.031 A 
ATOM     41  C   UNL     1       7.250   6.223   5.382  1.00  0.00     0.074 A 
ATOM     42  C   UNL     1       4.911   6.851   4.926  1.00  0.00     0.049 A 
ATOM     43  N   UNL     1       7.434   6.800   6.545  1.00  0.00    -0.248 NA
ATOM     44  C   UNL     1       8.421   5.481   4.890  1.00  0.00     0.031 C 
ATOM     45  C   UNL     1       3.643   6.909   4.199  1.00  0.00     0.029 A 
ATOM     46  N   UNL     1       4.675   7.579   6.067  1.00  0.00    -0.354 N 
ATOM     47  C   UNL     1       8.731   6.480   6.928  1.00  0.00     0.074 A 
ATOM     48  C   UNL     1       9.276   5.627   5.894  1.00  0.00     0.031 C 
ATOM     49  C   UNL     1       2.770   7.652   4.899  1.00  0.00     0.029 A 
ATOM     50  C   UNL     1       3.405   8.099   6.136  1.00  0.00     0.049 A 
ATOM     51  H   UNL     1       5.351   7.715   6.769  1.00  0.00     0.167 HD
ATOM     52  C   UNL     1       9.417   6.871   8.030  1.00  0.00     0.031 A 
ATOM     53  C   UNL     1       2.815   8.850   7.085  1.00  0.00     0.031 A 
ATOM     54  C   UNL     1       8.893   7.729   9.060  1.00  0.00     0.049 A 
ATOM     55  C   UNL     1       3.591   9.259   8.306  1.00  0.00     0.074 A 
ATOM     56  C   UNL     1       9.537   8.219  10.184  1.00  0.00     0.029 A 
ATOM     57  N   UNL     1       7.599   8.223   9.094  1.00  0.00    -0.354 N 
ATOM     58  N   UNL     1       4.835   8.994   8.620  1.00  0.00    -0.248 NA
ATOM     59  C   UNL     1       2.880  10.080   9.297  1.00  0.00     0.031 C 
ATOM     60  C   UNL     1       8.618   8.975  10.922  1.00  0.00     0.029 A 
ATOM     61  C   UNL     1       7.418   8.992  10.232  1.00  0.00     0.049 A 
ATOM     62  H   UNL     1       6.911   8.053   8.411  1.00  0.00     0.167 HD
ATOM     63  C   UNL     1       5.062   9.634   9.832  1.00  0.00     0.074 A 
ATOM     64  C   UNL     1       3.833  10.312  10.188  1.00  0.00     0.031 C 
ATOM     65  C   UNL     1       6.190   9.657  10.582  1.00  0.00     0.031 A 
BRANCH  52  66
ATOM     66  C   UNL     1      10.823   6.361   8.185  1.00  0.00    -0.014 A 
ATOM     67  C   UNL     1      11.865   6.850   7.382  1.00  0.00     0.009 A 
ATOM     68  C   UNL     1      11.116   5.410   9.175  1.00  0.00     0.009 A 
ATOM     69  C   UNL     1      13.167   6.370   7.544  1.00  0.00     0.001 A 
ATOM     70  C   UNL     1      12.423   4.951   9.351  1.00  0.00     0.001 A 
ATOM     71  C   UNL     1      13.445   5.424   8.530  1.00  0.00     0.000 A 
ENDBRANCH  52  66
BRANCH  53  72
ATOM     72  C   UNL     1       1.405   9.285   6.914  1.00  0.00    -0.014 A 
ATOM     73  C   UNL     1       1.104  10.623   6.620  1.00  0.00     0.009 A 
ATOM     74  C   UNL     1       0.354   8.365   7.055  1.00  0.00     0.009 A 
ATOM     75  C   UNL     1      -0.224  11.037   6.492  1.00  0.00     0.001 A 
ATOM     76  C   UNL     1      -0.971   8.777   6.903  1.00  0.00     0.001 A 
ATOM     77  C   UNL     1      -1.259  10.114   6.629  1.00  0.00     0.000 A 
ENDBRANCH  53  72
BRANCH  65  78
ATOM     78  C   UNL     1       6.155  10.459  11.852  1.00  0.00    -0.014 A 
ATOM     79  C   UNL     1       5.456  10.002  12.980  1.00  0.00     0.009 A 
ATOM     80  C   UNL     1       6.853  11.674  11.930  1.00  0.00     0.009 A 
ATOM     81  C   UNL     1       5.431  10.762  14.151  1.00  0.00     0.001 A 
ATOM     82  C   UNL     1       6.846  12.420  13.110  1.00  0.00     0.001 A 
ATOM     83  C   UNL     1       6.128  11.968  14.216  1.00  0.00     0.000 A 
ENDBRANCH  65  78
ENDBRANCH  39  40
ENDBRANCH  31  34
ENDBRANCH  29  30
ENDBRANCH  28  29
ENDBRANCH  27  28
ENDBRANCH   3  27
TORSDOF 16
