REMARK SMILES O=C(CC[N@@H+]1CCC[C@@]2(CCC(=O)N(CCc3ccccc3)C2)C1)NCCCNC(=O)c1ccc(-c2c3nc(c(-c4ccccc4)c4ccc([nH]4)c(-c4ccccc4)c4nc(c(-c5ccccc5)c5ccc2[nH]5)C=C4)C=C3)cc1
REMARK SMILES IDX 1 1 2 2 25 3 3 5 4 6 5 7 6 8 24 9 7 11 9 12 8 13 10 14 23 15
REMARK SMILES IDX 11 16 14 17 12 18 13 19 15 20 16 21 17 22 18 23 22 24 19 25
REMARK SMILES IDX 21 26 20 27 26 28 27 29 28 30 29 31 30 32 31 34 32 35 33 36
REMARK SMILES IDX 79 37 34 38 78 39 35 40 36 41 37 42 72 43 38 44 77 45 71 46
REMARK SMILES IDX 73 47 39 48 76 49 70 50 69 51 40 53 62 54 47 55 61 56 48 57
REMARK SMILES IDX 51 58 60 59 74 60 49 61 50 62 59 64 75 65 52 66 41 67 42 68
REMARK SMILES IDX 46 69 43 70 45 71 44 72 63 73 64 74 68 75 65 76 67 77 66 78
REMARK SMILES IDX 53 79 54 80 58 81 55 82 57 83 56 84
REMARK H PARENT 25 4 5 10 29 33 73 52 51 63
REMARK Flexibility Score: inf
ROOT
ATOM      1  O   UNL     1       0.734  -0.475   0.114  1.00  0.00    -0.275 OA
ATOM      2  C   UNL     1       1.907  -0.112   0.086  1.00  0.00     0.225 C 
ATOM      3  N   UNL     1       2.525   0.510   1.145  1.00  0.00    -0.356 N 
ATOM      4  H   UNL     1       3.493   0.683   1.095  1.00  0.00     0.163 HD
ENDROOT
BRANCH   2   5
ATOM      5  C   UNL     1       2.796  -0.421  -1.103  1.00  0.00     0.161 C 
BRANCH   5   6
ATOM      6  C   UNL     1       3.733   0.707  -1.544  1.00  0.00     0.272 C 
BRANCH   6   7
ATOM      7  N   UNL     1       4.799   1.109  -0.591  1.00  0.00    -0.334 N 
ATOM      8  C   UNL     1       5.606   2.177  -1.229  1.00  0.00     0.262 C 
ATOM      9  C   UNL     1       5.662  -0.024  -0.201  1.00  0.00     0.271 C 
ATOM     10  H   UNL     1       4.362   1.446   0.267  1.00  0.00     0.348 HD
ATOM     11  C   UNL     1       6.764   2.656  -0.356  1.00  0.00     0.062 C 
ATOM     12  C   UNL     1       6.775   0.399   0.792  1.00  0.00     0.038 C 
ATOM     13  C   UNL     1       7.624   1.481   0.094  1.00  0.00     0.020 C 
ATOM     14  C   UNL     1       6.189   0.895   2.125  1.00  0.00     0.024 C 
ATOM     15  C   UNL     1       7.611  -0.844   1.155  1.00  0.00     0.132 C 
ATOM     16  C   UNL     1       7.278   1.243   3.125  1.00  0.00     0.101 C 
ATOM     17  N   UNL     1       8.661  -0.561   2.132  1.00  0.00    -0.342 N 
ATOM     18  C   UNL     1       8.373   0.205   3.261  1.00  0.00     0.222 C 
ATOM     19  O   UNL     1       9.036   0.132   4.296  1.00  0.00    -0.275 OA
BRANCH  17  20
ATOM     20  C   UNL     1       9.889  -1.363   2.195  1.00  0.00     0.124 C 
BRANCH  20  21
ATOM     21  C   UNL     1      10.359  -2.139   0.953  1.00  0.00     0.057 C 
BRANCH  21  22
ATOM     22  C   UNL     1      10.403  -1.407  -0.369  1.00  0.00    -0.046 A 
ATOM     23  C   UNL     1      10.022  -2.099  -1.532  1.00  0.00     0.004 A 
ATOM     24  C   UNL     1      10.760  -0.058  -0.477  1.00  0.00     0.004 A 
ATOM     25  C   UNL     1       9.918  -1.438  -2.756  1.00  0.00     0.000 A 
ATOM     26  C   UNL     1      10.663   0.601  -1.706  1.00  0.00     0.000 A 
ATOM     27  C   UNL     1      10.225  -0.084  -2.839  1.00  0.00     0.000 A 
ENDBRANCH  21  22
ENDBRANCH  20  21
ENDBRANCH  17  20
ENDBRANCH   6   7
ENDBRANCH   5   6
ENDBRANCH   2   5
BRANCH   3  28
ATOM     28  C   UNL     1       1.802   0.918   2.329  1.00  0.00     0.117 C 
BRANCH  28  29
ATOM     29  C   UNL     1       1.858  -0.084   3.486  1.00  0.00     0.042 C 
BRANCH  29  30
ATOM     30  C   UNL     1       3.211  -0.241   4.183  1.00  0.00     0.118 C 
BRANCH  30  31
ATOM     31  N   UNL     1       3.785   1.016   4.638  1.00  0.00    -0.352 N 
ATOM     32  C   UNL     1       4.654   1.310   5.656  1.00  0.00     0.251 C 
ATOM     33  H   UNL     1       3.495   1.800   4.119  1.00  0.00     0.163 HD
ATOM     34  O   UNL     1       4.902   2.497   5.875  1.00  0.00    -0.269 OA
BRANCH  32  35
ATOM     35  C   UNL     1       5.290   0.270   6.501  1.00  0.00     0.039 A 
ATOM     36  C   UNL     1       5.554   0.601   7.837  1.00  0.00     0.014 A 
ATOM     37  C   UNL     1       5.682  -0.981   6.017  1.00  0.00     0.014 A 
ATOM     38  C   UNL     1       6.128  -0.337   8.698  1.00  0.00     0.010 A 
ATOM     39  C   UNL     1       6.217  -1.937   6.888  1.00  0.00     0.010 A 
ATOM     40  C   UNL     1       6.419  -1.630   8.240  1.00  0.00    -0.014 A 
BRANCH  40  41
ATOM     41  C   UNL     1       6.804  -2.688   9.208  1.00  0.00     0.031 A 
ATOM     42  C   UNL     1       8.187  -3.266   9.245  1.00  0.00     0.074 A 
ATOM     43  C   UNL     1       5.854  -3.155  10.042  1.00  0.00     0.049 A 
ATOM     44  N   UNL     1       8.684  -4.146  10.080  1.00  0.00    -0.248 NA
ATOM     45  C   UNL     1       9.127  -2.820   8.208  1.00  0.00     0.031 C 
ATOM     46  C   UNL     1       4.456  -2.716  10.056  1.00  0.00     0.029 A 
ATOM     47  N   UNL     1       5.917  -4.096  11.038  1.00  0.00    -0.354 N 
ATOM     48  C   UNL     1       9.995  -4.357   9.674  1.00  0.00     0.074 A 
ATOM     49  C   UNL     1      10.201  -3.547   8.490  1.00  0.00     0.031 C 
ATOM     50  C   UNL     1       3.802  -3.362  11.033  1.00  0.00     0.029 A 
ATOM     51  C   UNL     1       4.726  -4.273  11.698  1.00  0.00     0.049 A 
ATOM     52  H   UNL     1       6.737  -4.595  11.259  1.00  0.00     0.167 HD
ATOM     53  C   UNL     1      10.941  -5.142  10.245  1.00  0.00     0.031 A 
ATOM     54  C   UNL     1       4.411  -5.070  12.735  1.00  0.00     0.031 A 
ATOM     55  C   UNL     1      10.725  -5.959  11.414  1.00  0.00     0.049 A 
ATOM     56  C   UNL     1       5.482  -5.915  13.359  1.00  0.00     0.074 A 
ATOM     57  C   UNL     1      11.637  -6.745  12.100  1.00  0.00     0.029 A 
ATOM     58  N   UNL     1       9.509  -6.104  12.065  1.00  0.00    -0.354 N 
ATOM     59  N   UNL     1       6.744  -6.030  13.023  1.00  0.00    -0.248 NA
ATOM     60  C   UNL     1       5.090  -6.718  14.524  1.00  0.00     0.031 C 
ATOM     61  C   UNL     1      10.960  -7.403  13.135  1.00  0.00     0.029 A 
ATOM     62  C   UNL     1       9.641  -6.983  13.129  1.00  0.00     0.049 A 
ATOM     63  H   UNL     1       8.675  -5.649  11.809  1.00  0.00     0.167 HD
ATOM     64  C   UNL     1       7.304  -6.897  13.950  1.00  0.00     0.074 A 
ATOM     65  C   UNL     1       6.248  -7.260  14.874  1.00  0.00     0.031 C 
ATOM     66  C   UNL     1       8.579  -7.350  14.031  1.00  0.00     0.031 A 
BRANCH  53  67
ATOM     67  C   UNL     1      12.305  -5.161   9.609  1.00  0.00    -0.014 A 
ATOM     68  C   UNL     1      13.154  -4.044   9.678  1.00  0.00     0.009 A 
ATOM     69  C   UNL     1      12.771  -6.325   8.978  1.00  0.00     0.009 A 
ATOM     70  C   UNL     1      14.425  -4.081   9.100  1.00  0.00     0.001 A 
ATOM     71  C   UNL     1      14.053  -6.369   8.425  1.00  0.00     0.001 A 
ATOM     72  C   UNL     1      14.875  -5.245   8.478  1.00  0.00     0.000 A 
ENDBRANCH  53  67
BRANCH  54  73
ATOM     73  C   UNL     1       3.029  -5.064  13.278  1.00  0.00    -0.014 A 
ATOM     74  C   UNL     1       2.755  -4.465  14.517  1.00  0.00     0.009 A 
ATOM     75  C   UNL     1       1.975  -5.641  12.553  1.00  0.00     0.009 A 
ATOM     76  C   UNL     1       1.457  -4.468  15.032  1.00  0.00     0.001 A 
ATOM     77  C   UNL     1       0.673  -5.617  13.058  1.00  0.00     0.001 A 
ATOM     78  C   UNL     1       0.417  -5.039  14.300  1.00  0.00     0.000 A 
ENDBRANCH  54  73
BRANCH  66  79
ATOM     79  C   UNL     1       8.896  -8.269  15.177  1.00  0.00    -0.014 A 
ATOM     80  C   UNL     1       8.400  -9.582  15.220  1.00  0.00     0.009 A 
ATOM     81  C   UNL     1       9.697  -7.811  16.234  1.00  0.00     0.009 A 
ATOM     82  C   UNL     1       8.657 -10.399  16.323  1.00  0.00     0.001 A 
ATOM     83  C   UNL     1       9.978  -8.640  17.321  1.00  0.00     0.001 A 
ATOM     84  C   UNL     1       9.446  -9.928  17.371  1.00  0.00     0.000 A 
ENDBRANCH  66  79
ENDBRANCH  40  41
ENDBRANCH  32  35
ENDBRANCH  30  31
ENDBRANCH  29  30
ENDBRANCH  28  29
ENDBRANCH   3  28
TORSDOF 15
