REMARK SMILES C[C@H]1[C@@H](C(=O)NCCCNC(=O)c2ccc(-c3c4nc(c(-c5ccccc5)c5ccc([nH]5)c(-c5ccccc5)c5nc(c(-c6ccccc6)c6ccc3[nH]6)C=C5)C=C4)cc2)CCN1C(=O)N[C@@H]1CC[N@H+]2CCCC[C@H]12
REMARK SMILES IDX 8 1 7 2 6 3 4 4 5 5 3 7 1 8 2 9 63 10 61 11 62 12 64 13
REMARK SMILES IDX 65 14 66 15 67 17 68 18 75 19 69 20 70 21 74 22 71 23 73 25
REMARK SMILES IDX 72 26 9 27 10 28 11 29 12 31 13 32 14 33 60 34 15 35 59 36
REMARK SMILES IDX 16 37 17 38 18 39 53 40 19 41 58 42 52 43 54 44 20 45 57 46
REMARK SMILES IDX 51 47 50 48 21 50 43 51 28 52 42 53 29 54 32 55 41 56 55 57
REMARK SMILES IDX 30 58 31 59 40 61 56 62 33 63 22 64 23 65 27 66 24 67 26 68
REMARK SMILES IDX 25 69 44 70 45 71 49 72 46 73 48 74 47 75 34 76 35 77 39 78
REMARK SMILES IDX 36 79 38 80 37 81
REMARK H PARENT 6 6 66 16 70 24 10 30 54 49 32 60
REMARK Flexibility Score: inf
ROOT
ATOM      1  C   UNL     1      -3.697  -5.471  -0.702  1.00  0.00     0.042 C 
ENDROOT
BRANCH   1   2
ATOM      2  C   UNL     1      -2.438  -6.268  -1.021  1.00  0.00     0.117 C 
BRANCH   2   3
ATOM      3  N   UNL     1      -1.600  -5.607  -2.004  1.00  0.00    -0.356 N 
ATOM      4  C   UNL     1      -0.372  -5.033  -1.873  1.00  0.00     0.225 C 
ATOM      5  O   UNL     1       0.189  -4.690  -2.910  1.00  0.00    -0.275 OA
ATOM      6  H   UNL     1      -1.980  -5.568  -2.911  1.00  0.00     0.163 HD
BRANCH   4   7
ATOM      7  C   UNL     1       0.253  -4.933  -0.489  1.00  0.00     0.102 C 
ATOM      8  C   UNL     1       1.252  -2.648  -1.247  1.00  0.00     0.032 C 
ATOM      9  C   UNL     1       1.169  -3.724  -0.172  1.00  0.00     0.096 C 
ATOM     10  N   UNL     1       2.483  -4.283   0.140  1.00  0.00    -0.321 N 
ATOM     11  C   UNL     1       1.129  -6.165  -0.238  1.00  0.00     0.037 C 
ATOM     12  C   UNL     1       2.550  -5.644  -0.362  1.00  0.00     0.122 C 
BRANCH  10  13
ATOM     13  C   UNL     1       3.597  -3.727   0.692  1.00  0.00     0.318 C 
ATOM     14  O   UNL     1       4.673  -4.335   0.701  1.00  0.00    -0.249 OA
ATOM     15  N   UNL     1       3.618  -2.509   1.267  1.00  0.00    -0.329 N 
ATOM     16  H   UNL     1       4.535  -2.239   1.502  1.00  0.00     0.165 HD
BRANCH  15  17
ATOM     17  C   UNL     1       2.649  -1.480   1.636  1.00  0.00     0.147 C 
ATOM     18  C   UNL     1       2.733  -0.256   0.703  1.00  0.00     0.092 C 
ATOM     19  C   UNL     1       2.857  -0.863   3.038  1.00  0.00     0.207 C 
ATOM     20  C   UNL     1       2.837   0.962   1.609  1.00  0.00     0.264 C 
ATOM     21  N   UNL     1       3.525   0.420   2.771  1.00  0.00    -0.331 N 
ATOM     22  C   UNL     1       3.652  -1.637   4.082  1.00  0.00     0.067 C 
ATOM     23  C   UNL     1       3.482   1.291   3.941  1.00  0.00     0.262 C 
ATOM     24  H   UNL     1       4.521   0.320   2.578  1.00  0.00     0.348 HD
ATOM     25  C   UNL     1       3.713  -0.810   5.372  1.00  0.00     0.012 C 
ATOM     26  C   UNL     1       4.212   0.616   5.109  1.00  0.00     0.062 C 
ENDBRANCH  15  17
ENDBRANCH  10  13
ENDBRANCH   4   7
ENDBRANCH   2   3
ENDBRANCH   1   2
BRANCH   1  27
ATOM     27  C   UNL     1      -4.538  -5.101  -1.923  1.00  0.00     0.118 C 
BRANCH  27  28
ATOM     28  N   UNL     1      -4.874  -6.249  -2.753  1.00  0.00    -0.352 N 
ATOM     29  C   UNL     1      -6.090  -6.746  -3.140  1.00  0.00     0.251 C 
ATOM     30  H   UNL     1      -4.098  -6.752  -3.093  1.00  0.00     0.163 HD
ATOM     31  O   UNL     1      -6.146  -7.838  -3.706  1.00  0.00    -0.269 OA
BRANCH  29  32
ATOM     32  C   UNL     1      -7.334  -6.000  -2.866  1.00  0.00     0.039 A 
ATOM     33  C   UNL     1      -8.459  -6.709  -2.438  1.00  0.00     0.014 A 
ATOM     34  C   UNL     1      -7.407  -4.617  -3.052  1.00  0.00     0.014 A 
ATOM     35  C   UNL     1      -9.635  -6.023  -2.133  1.00  0.00     0.010 A 
ATOM     36  C   UNL     1      -8.552  -3.925  -2.667  1.00  0.00     0.010 A 
ATOM     37  C   UNL     1      -9.679  -4.621  -2.206  1.00  0.00    -0.014 A 
BRANCH  37  38
ATOM     38  C   UNL     1     -10.894  -3.876  -1.789  1.00  0.00     0.031 A 
ATOM     39  C   UNL     1     -11.664  -3.050  -2.780  1.00  0.00     0.074 A 
ATOM     40  C   UNL     1     -11.277  -3.910  -0.498  1.00  0.00     0.049 A 
ATOM     41  N   UNL     1     -12.737  -2.323  -2.591  1.00  0.00    -0.248 NA
ATOM     42  C   UNL     1     -11.151  -3.014  -4.159  1.00  0.00     0.031 C 
ATOM     43  C   UNL     1     -10.588  -4.636   0.572  1.00  0.00     0.029 A 
ATOM     44  N   UNL     1     -12.342  -3.320   0.135  1.00  0.00    -0.354 N 
ATOM     45  C   UNL     1     -13.022  -1.742  -3.820  1.00  0.00     0.074 A 
ATOM     46  C   UNL     1     -11.976  -2.150  -4.732  1.00  0.00     0.031 C 
ATOM     47  C   UNL     1     -11.267  -4.476   1.719  1.00  0.00     0.029 A 
ATOM     48  C   UNL     1     -12.411  -3.604   1.477  1.00  0.00     0.049 A 
ATOM     49  H   UNL     1     -12.995  -2.747  -0.329  1.00  0.00     0.167 HD
ATOM     50  C   UNL     1     -14.072  -0.958  -4.166  1.00  0.00     0.031 A 
ATOM     51  C   UNL     1     -13.293  -3.205   2.412  1.00  0.00     0.031 A 
ATOM     52  C   UNL     1     -15.109  -0.547  -3.257  1.00  0.00     0.049 A 
ATOM     53  C   UNL     1     -14.438  -2.319   2.007  1.00  0.00     0.074 A 
ATOM     54  C   UNL     1     -16.238   0.209  -3.521  1.00  0.00     0.029 A 
ATOM     55  N   UNL     1     -15.142  -0.854  -1.905  1.00  0.00    -0.354 N 
ATOM     56  N   UNL     1     -14.732  -1.836   0.825  1.00  0.00    -0.248 NA
ATOM     57  C   UNL     1     -15.380  -1.936   3.067  1.00  0.00     0.031 C 
ATOM     58  C   UNL     1     -16.921   0.410  -2.317  1.00  0.00     0.029 A 
ATOM     59  C   UNL     1     -16.256  -0.279  -1.316  1.00  0.00     0.049 A 
ATOM     60  H   UNL     1     -14.472  -1.400  -1.433  1.00  0.00     0.167 HD
ATOM     61  C   UNL     1     -15.905  -1.112   0.992  1.00  0.00     0.074 A 
ATOM     62  C   UNL     1     -16.281  -1.242   2.385  1.00  0.00     0.031 C 
ATOM     63  C   UNL     1     -16.610  -0.404   0.075  1.00  0.00     0.031 A 
BRANCH  50  64
ATOM     64  C   UNL     1     -14.140  -0.488  -5.594  1.00  0.00    -0.014 A 
ATOM     65  C   UNL     1     -14.388  -1.385  -6.646  1.00  0.00     0.009 A 
ATOM     66  C   UNL     1     -13.984   0.875  -5.891  1.00  0.00     0.009 A 
ATOM     67  C   UNL     1     -14.435  -0.935  -7.967  1.00  0.00     0.001 A 
ATOM     68  C   UNL     1     -14.065   1.328  -7.210  1.00  0.00     0.001 A 
ATOM     69  C   UNL     1     -14.279   0.421  -8.247  1.00  0.00     0.000 A 
ENDBRANCH  50  64
BRANCH  51  70
ATOM     70  C   UNL     1     -13.134  -3.650   3.821  1.00  0.00    -0.014 A 
ATOM     71  C   UNL     1     -14.045  -4.549   4.396  1.00  0.00     0.009 A 
ATOM     72  C   UNL     1     -12.069  -3.173   4.602  1.00  0.00     0.009 A 
ATOM     73  C   UNL     1     -13.909  -4.940   5.730  1.00  0.00     0.001 A 
ATOM     74  C   UNL     1     -11.916  -3.591   5.925  1.00  0.00     0.001 A 
ATOM     75  C   UNL     1     -12.842  -4.465   6.492  1.00  0.00     0.000 A 
ENDBRANCH  51  70
BRANCH  63  76
ATOM     76  C   UNL     1     -17.872   0.262   0.549  1.00  0.00    -0.014 A 
ATOM     77  C   UNL     1     -17.838   1.362   1.420  1.00  0.00     0.009 A 
ATOM     78  C   UNL     1     -19.116  -0.208   0.099  1.00  0.00     0.009 A 
ATOM     79  C   UNL     1     -19.025   1.948   1.866  1.00  0.00     0.001 A 
ATOM     80  C   UNL     1     -20.299   0.401   0.518  1.00  0.00     0.001 A 
ATOM     81  C   UNL     1     -20.253   1.470   1.411  1.00  0.00     0.000 A 
ENDBRANCH  63  76
ENDBRANCH  37  38
ENDBRANCH  29  32
ENDBRANCH  27  28
ENDBRANCH   1  27
TORSDOF 12
