REMARK SMILES COCc1cccc(O[C@@H](C)c2ccc(C(=O)NCCCNC(=O)c3ccc(-c4c5nc(c(-c6ccccc6)c6ccc([nH]6)c(-c6ccccc6)c6nc(c(-c7ccccc7)c7ccc4[nH]7)C=C6)C=C5)cc3)o2)c1
REMARK SMILES IDX 16 1 17 2 18 3 15 5 12 6 13 7 73 8 14 9 10 10 11 11 9 12
REMARK SMILES IDX 8 13 4 14 5 15 74 16 6 17 7 18 3 19 2 20 1 21 19 22 20 23
REMARK SMILES IDX 21 24 22 25 23 26 24 28 25 29 26 30 72 31 27 32 71 33 28 34
REMARK SMILES IDX 29 35 30 36 65 37 31 38 70 39 64 40 66 41 32 42 69 43 63 44
REMARK SMILES IDX 62 45 33 47 55 48 40 49 54 50 41 51 44 52 53 53 67 54 42 55
REMARK SMILES IDX 43 56 52 58 68 59 45 60 34 61 35 62 39 63 36 64 38 65 37 66
REMARK SMILES IDX 56 67 57 68 61 69 58 70 60 71 59 72 46 73 47 74 51 75 48 76
REMARK SMILES IDX 50 77 49 78
REMARK H PARENT 18 4 22 27 66 46 44 57
REMARK Flexibility Score: inf
ROOT
ATOM      1  C   UNL     1       5.918  -2.621   0.143  1.00  0.00     0.286 C 
ATOM      2  O   UNL     1       6.257  -3.787  -0.061  1.00  0.00    -0.266 OA
ATOM      3  N   UNL     1       6.814  -1.645  -0.254  1.00  0.00    -0.349 N 
ATOM      4  H   UNL     1       7.733  -1.960  -0.418  1.00  0.00     0.163 HD
ENDROOT
BRANCH   1   5
ATOM      5  C   UNL     1       4.668  -2.257   0.788  1.00  0.00     0.191 A 
ATOM      6  C   UNL     1       2.584  -2.650   1.494  1.00  0.00     0.145 A 
ATOM      7  C   UNL     1       2.990  -1.450   2.039  1.00  0.00     0.050 A 
ATOM      8  O   UNL     1       3.622  -3.151   0.741  1.00  0.00    -0.452 OA
ATOM      9  C   UNL     1       4.282  -1.179   1.554  1.00  0.00     0.057 A 
BRANCH   6  10
ATOM     10  C   UNL     1       1.348  -3.512   1.553  1.00  0.00     0.236 C 
ATOM     11  C   UNL     1       0.579  -3.593   0.239  1.00  0.00     0.062 C 
BRANCH  10  12
ATOM     12  O   UNL     1       0.474  -3.272   2.685  1.00  0.00    -0.483 OA
BRANCH  12  13
ATOM     13  C   UNL     1       0.133  -2.016   3.090  1.00  0.00     0.120 A 
ATOM     14  C   UNL     1      -0.138   0.376   2.758  1.00  0.00    -0.019 A 
ATOM     15  C   UNL     1      -0.133   0.550   4.152  1.00  0.00     0.006 A 
ATOM     16  C   UNL     1      -0.082  -0.929   2.245  1.00  0.00     0.052 A 
ATOM     17  C   UNL     1      -0.054  -0.551   5.005  1.00  0.00     0.004 A 
ATOM     18  C   UNL     1       0.090  -1.830   4.472  1.00  0.00     0.046 A 
BRANCH  14  19
ATOM     19  C   UNL     1      -0.036   1.597   1.868  1.00  0.00     0.195 C 
BRANCH  19  20
ATOM     20  O   UNL     1      -0.394   1.373   0.504  1.00  0.00    -0.380 OA
ATOM     21  C   UNL     1       0.714   1.124  -0.353  1.00  0.00     0.195 C 
ENDBRANCH  19  20
ENDBRANCH  14  19
ENDBRANCH  12  13
ENDBRANCH  10  12
ENDBRANCH   6  10
ENDBRANCH   1   5
BRANCH   3  22
ATOM     22  C   UNL     1       6.597  -0.226  -0.464  1.00  0.00     0.118 C 
BRANCH  22  23
ATOM     23  C   UNL     1       7.086   0.646   0.692  1.00  0.00     0.042 C 
BRANCH  23  24
ATOM     24  C   UNL     1       8.586   0.911   0.720  1.00  0.00     0.118 C 
BRANCH  24  25
ATOM     25  N   UNL     1       9.029   1.762  -0.370  1.00  0.00    -0.352 N 
ATOM     26  C   UNL     1       9.750   2.929  -0.368  1.00  0.00     0.251 C 
ATOM     27  H   UNL     1       8.766   1.447  -1.265  1.00  0.00     0.163 HD
ATOM     28  O   UNL     1       9.867   3.545  -1.426  1.00  0.00    -0.269 OA
BRANCH  26  29
ATOM     29  C   UNL     1      10.381   3.475   0.861  1.00  0.00     0.039 A 
ATOM     30  C   UNL     1      10.482   4.867   0.984  1.00  0.00     0.014 A 
ATOM     31  C   UNL     1      10.950   2.661   1.845  1.00  0.00     0.014 A 
ATOM     32  C   UNL     1      11.122   5.437   2.089  1.00  0.00     0.010 A 
ATOM     33  C   UNL     1      11.526   3.230   2.984  1.00  0.00     0.010 A 
ATOM     34  C   UNL     1      11.638   4.623   3.107  1.00  0.00    -0.014 A 
BRANCH  34  35
ATOM     35  C   UNL     1      12.338   5.214   4.277  1.00  0.00     0.031 A 
ATOM     36  C   UNL     1      13.812   4.981   4.474  1.00  0.00     0.074 A 
ATOM     37  C   UNL     1      11.648   5.937   5.180  1.00  0.00     0.049 A 
ATOM     38  N   UNL     1      14.590   5.385   5.448  1.00  0.00    -0.248 NA
ATOM     39  C   UNL     1      14.499   4.173   3.455  1.00  0.00     0.031 C 
ATOM     40  C   UNL     1      10.212   6.217   5.124  1.00  0.00     0.029 A 
ATOM     41  N   UNL     1      12.067   6.568   6.324  1.00  0.00    -0.354 N 
ATOM     42  C   UNL     1      15.847   4.862   5.171  1.00  0.00     0.074 A 
ATOM     43  C   UNL     1      15.721   4.080   3.959  1.00  0.00     0.031 C 
ATOM     44  C   UNL     1       9.875   6.986   6.173  1.00  0.00     0.029 A 
ATOM     45  C   UNL     1      11.062   7.228   6.988  1.00  0.00     0.049 A 
ATOM     46  H   UNL     1      12.999   6.549   6.640  1.00  0.00     0.167 HD
ATOM     47  C   UNL     1      17.007   5.027   5.851  1.00  0.00     0.031 A 
ATOM     48  C   UNL     1      11.092   7.951   8.123  1.00  0.00     0.031 A 
ATOM     49  C   UNL     1      17.146   5.819   7.043  1.00  0.00     0.049 A 
ATOM     50  C   UNL     1      12.395   8.136   8.849  1.00  0.00     0.074 A 
ATOM     51  C   UNL     1      18.289   6.078   7.780  1.00  0.00     0.029 A 
ATOM     52  N   UNL     1      16.107   6.489   7.667  1.00  0.00    -0.354 N 
ATOM     53  N   UNL     1      13.581   7.667   8.548  1.00  0.00    -0.248 NA
ATOM     54  C   UNL     1      12.362   8.964  10.063  1.00  0.00     0.031 C 
ATOM     55  C   UNL     1      17.935   6.883   8.868  1.00  0.00     0.029 A 
ATOM     56  C   UNL     1      16.580   7.157   8.784  1.00  0.00     0.049 A 
ATOM     57  H   UNL     1      15.171   6.491   7.362  1.00  0.00     0.167 HD
ATOM     58  C   UNL     1      14.441   8.167   9.518  1.00  0.00     0.074 A 
ATOM     59  C   UNL     1      13.642   8.983  10.409  1.00  0.00     0.031 C 
ATOM     60  C   UNL     1      15.774   7.969   9.656  1.00  0.00     0.031 A 
BRANCH  47  61
ATOM     61  C   UNL     1      18.223   4.325   5.315  1.00  0.00    -0.014 A 
ATOM     62  C   UNL     1      18.861   4.770   4.146  1.00  0.00     0.009 A 
ATOM     63  C   UNL     1      18.752   3.221   6.001  1.00  0.00     0.009 A 
ATOM     64  C   UNL     1      19.983   4.099   3.654  1.00  0.00     0.001 A 
ATOM     65  C   UNL     1      19.889   2.568   5.520  1.00  0.00     0.001 A 
ATOM     66  C   UNL     1      20.497   3.002   4.343  1.00  0.00     0.000 A 
ENDBRANCH  47  61
BRANCH  48  67
ATOM     67  C   UNL     1       9.850   8.587   8.630  1.00  0.00    -0.014 A 
ATOM     68  C   UNL     1       9.668   9.974   8.518  1.00  0.00     0.009 A 
ATOM     69  C   UNL     1       8.846   7.814   9.232  1.00  0.00     0.009 A 
ATOM     70  C   UNL     1       8.514  10.578   9.020  1.00  0.00     0.001 A 
ATOM     71  C   UNL     1       7.683   8.419   9.713  1.00  0.00     0.001 A 
ATOM     72  C   UNL     1       7.521   9.801   9.614  1.00  0.00     0.000 A 
ENDBRANCH  48  67
BRANCH  60  73
ATOM     73  C   UNL     1      16.456   8.682  10.787  1.00  0.00    -0.014 A 
ATOM     74  C   UNL     1      16.309   8.250  12.114  1.00  0.00     0.009 A 
ATOM     75  C   UNL     1      17.279   9.786  10.514  1.00  0.00     0.009 A 
ATOM     76  C   UNL     1      16.948   8.933  13.151  1.00  0.00     0.001 A 
ATOM     77  C   UNL     1      17.934  10.452  11.551  1.00  0.00     0.001 A 
ATOM     78  C   UNL     1      17.761  10.031  12.868  1.00  0.00     0.000 A 
ENDBRANCH  60  73
ENDBRANCH  34  35
ENDBRANCH  26  29
ENDBRANCH  24  25
ENDBRANCH  23  24
ENDBRANCH  22  23
ENDBRANCH   3  22
TORSDOF 15
