REMARK SMILES CC[C@H](C)[C@@H](Nc1ccc(Cl)c(Br)c1)C(=O)NCCCNC(=O)c1ccc(-c2c3nc(c(-c4ccccc4)c4ccc([nH]4)c(-c4ccccc4)c4nc(c(-c5ccccc5)c5ccc2[nH]5)C=C4)C=C3)cc1
REMARK SMILES IDX 19 1 18 2 17 3 15 4 16 5 5 7 3 8 4 9 2 10 1 11 6 12 7 14
REMARK SMILES IDX 8 15 14 16 9 17 12 18 10 19 13 20 11 21 20 22 21 23 22 24
REMARK SMILES IDX 23 26 24 27 25 28 71 29 26 30 70 31 27 32 28 33 29 34 64 35
REMARK SMILES IDX 30 36 69 37 63 38 65 39 31 40 68 41 62 42 61 43 32 45 54 46
REMARK SMILES IDX 39 47 53 48 40 49 43 50 52 51 66 52 41 53 42 54 51 56 67 57
REMARK SMILES IDX 44 58 33 59 34 60 38 61 35 62 37 63 36 64 55 65 56 66 60 67
REMARK SMILES IDX 57 68 59 69 58 70 45 71 46 72 50 73 47 74 49 75 48 76
REMARK H PARENT 17 6 6 13 21 25 65 44 43 55
REMARK Flexibility Score: inf
ROOT
ATOM      1  C   UNL     1       4.487  -3.561   1.395  1.00  0.00     0.042 C 
ENDROOT
BRANCH   1   2
ATOM      2  C   UNL     1       3.537  -4.398   0.567  1.00  0.00     0.117 C 
BRANCH   2   3
ATOM      3  N   UNL     1       2.428  -4.922   1.341  1.00  0.00    -0.354 N 
ATOM      4  C   UNL     1       1.086  -4.827   1.093  1.00  0.00     0.242 C 
ATOM      5  O   UNL     1       0.328  -5.485   1.814  1.00  0.00    -0.273 OA
ATOM      6  H   UNL     1       2.675  -5.413   2.158  1.00  0.00     0.163 HD
BRANCH   4   7
ATOM      7  C   UNL     1       0.521  -3.892  -0.012  1.00  0.00     0.171 C 
BRANCH   7   8
ATOM      8  C   UNL     1       0.803  -2.394   0.356  1.00  0.00     0.018 C 
ATOM      9  C   UNL     1       0.057  -1.424  -0.575  1.00  0.00     0.010 C 
BRANCH   8  10
ATOM     10  C   UNL     1       0.445  -2.073   1.832  1.00  0.00     0.002 C 
ATOM     11  C   UNL     1       0.955  -0.716   2.304  1.00  0.00     0.004 C 
ENDBRANCH   8  10
ENDBRANCH   7   8
BRANCH   7  12
ATOM     12  N   UNL     1       1.029  -4.207  -1.376  1.00  0.00    -0.373 N 
ATOM     13  H   UNL     1       0.916  -3.509  -2.062  1.00  0.00     0.161 HD
BRANCH  12  14
ATOM     14  C   UNL     1       1.643  -5.381  -1.778  1.00  0.00     0.036 A 
ATOM     15  C   UNL     1       1.319  -6.638  -1.264  1.00  0.00     0.027 A 
ATOM     16  C   UNL     1       2.785  -5.281  -2.590  1.00  0.00     0.043 A 
ATOM     17  C   UNL     1       2.155  -7.742  -1.472  1.00  0.00     0.024 A 
ATOM     18  C   UNL     1       3.639  -6.374  -2.788  1.00  0.00     0.038 A 
ATOM     19  C   UNL     1       3.331  -7.607  -2.211  1.00  0.00     0.055 A 
ATOM     20  Br  UNL     1       5.239  -6.064  -3.762  1.00  0.00    -0.049 Br
ATOM     21  Cl  UNL     1       4.368  -8.982  -2.330  1.00  0.00    -0.083 Cl
ENDBRANCH  12  14
ENDBRANCH   7  12
ENDBRANCH   4   7
ENDBRANCH   2   3
ENDBRANCH   1   2
BRANCH   1  22
ATOM     22  C   UNL     1       5.282  -4.376   2.396  1.00  0.00     0.118 C 
BRANCH  22  23
ATOM     23  N   UNL     1       6.220  -5.308   1.780  1.00  0.00    -0.352 N 
ATOM     24  C   UNL     1       7.557  -5.506   2.050  1.00  0.00     0.251 C 
ATOM     25  H   UNL     1       5.844  -5.877   1.069  1.00  0.00     0.163 HD
ATOM     26  O   UNL     1       8.228  -6.262   1.355  1.00  0.00    -0.269 OA
BRANCH  24  27
ATOM     27  C   UNL     1       8.187  -4.757   3.156  1.00  0.00     0.039 A 
ATOM     28  C   UNL     1       7.521  -4.610   4.371  1.00  0.00     0.014 A 
ATOM     29  C   UNL     1       9.415  -4.126   2.945  1.00  0.00     0.014 A 
ATOM     30  C   UNL     1       7.955  -3.650   5.271  1.00  0.00     0.010 A 
ATOM     31  C   UNL     1       9.918  -3.252   3.914  1.00  0.00     0.010 A 
ATOM     32  C   UNL     1       9.156  -2.952   5.053  1.00  0.00    -0.014 A 
BRANCH  32  33
ATOM     33  C   UNL     1       9.560  -1.910   6.033  1.00  0.00     0.031 A 
ATOM     34  C   UNL     1       9.671  -0.463   5.630  1.00  0.00     0.074 A 
ATOM     35  C   UNL     1       9.718  -2.263   7.324  1.00  0.00     0.049 A 
ATOM     36  N   UNL     1       9.900   0.583   6.387  1.00  0.00    -0.248 NA
ATOM     37  C   UNL     1       9.509  -0.139   4.203  1.00  0.00     0.031 C 
ATOM     38  C   UNL     1       9.625  -3.633   7.836  1.00  0.00     0.029 A 
ATOM     39  N   UNL     1       9.930  -1.503   8.446  1.00  0.00    -0.354 N 
ATOM     40  C   UNL     1       9.932   1.676   5.529  1.00  0.00     0.074 A 
ATOM     41  C   UNL     1       9.726   1.169   4.191  1.00  0.00     0.031 C 
ATOM     42  C   UNL     1       9.683  -3.606   9.174  1.00  0.00     0.029 A 
ATOM     43  C   UNL     1       9.892  -2.230   9.612  1.00  0.00     0.049 A 
ATOM     44  H   UNL     1      10.092  -0.533   8.419  1.00  0.00     0.167 HD
ATOM     45  C   UNL     1      10.105   2.985   5.831  1.00  0.00     0.031 A 
ATOM     46  C   UNL     1      10.006  -1.840  10.895  1.00  0.00     0.031 A 
ATOM     47  C   UNL     1      10.296   3.490   7.165  1.00  0.00     0.049 A 
ATOM     48  C   UNL     1      10.197  -0.385  11.202  1.00  0.00     0.074 A 
ATOM     49  C   UNL     1      10.492   4.800   7.567  1.00  0.00     0.029 A 
ATOM     50  N   UNL     1      10.301   2.712   8.312  1.00  0.00    -0.354 N 
ATOM     51  N   UNL     1      10.233   0.631  10.375  1.00  0.00    -0.248 NA
ATOM     52  C   UNL     1      10.358  -0.020  12.616  1.00  0.00     0.031 C 
ATOM     53  C   UNL     1      10.658   4.810   8.954  1.00  0.00     0.029 A 
ATOM     54  C   UNL     1      10.504   3.515   9.422  1.00  0.00     0.049 A 
ATOM     55  H   UNL     1      10.179   1.736   8.335  1.00  0.00     0.167 HD
ATOM     56  C   UNL     1      10.411   1.757  11.167  1.00  0.00     0.074 A 
ATOM     57  C   UNL     1      10.450   1.302  12.542  1.00  0.00     0.031 C 
ATOM     58  C   UNL     1      10.535   3.050  10.785  1.00  0.00     0.031 A 
BRANCH  45  59
ATOM     59  C   UNL     1      10.108   3.976   4.699  1.00  0.00    -0.014 A 
ATOM     60  C   UNL     1      11.299   4.632   4.349  1.00  0.00     0.009 A 
ATOM     61  C   UNL     1       8.921   4.325   4.037  1.00  0.00     0.009 A 
ATOM     62  C   UNL     1      11.300   5.626   3.368  1.00  0.00     0.001 A 
ATOM     63  C   UNL     1       8.930   5.300   3.037  1.00  0.00     0.001 A 
ATOM     64  C   UNL     1      10.116   5.956   2.710  1.00  0.00     0.000 A 
ENDBRANCH  45  59
BRANCH  46  65
ATOM     65  C   UNL     1       9.918  -2.858  11.974  1.00  0.00    -0.014 A 
ATOM     66  C   UNL     1      10.924  -3.828  12.120  1.00  0.00     0.009 A 
ATOM     67  C   UNL     1       8.800  -2.908  12.819  1.00  0.00     0.009 A 
ATOM     68  C   UNL     1      10.799  -4.843  13.070  1.00  0.00     0.001 A 
ATOM     69  C   UNL     1       8.694  -3.906  13.791  1.00  0.00     0.001 A 
ATOM     70  C   UNL     1       9.687  -4.879  13.908  1.00  0.00     0.000 A 
ENDBRANCH  46  65
BRANCH  58  71
ATOM     71  C   UNL     1      10.705   4.084  11.861  1.00  0.00    -0.014 A 
ATOM     72  C   UNL     1       9.668   4.995  12.117  1.00  0.00     0.009 A 
ATOM     73  C   UNL     1      11.918   4.218  12.553  1.00  0.00     0.009 A 
ATOM     74  C   UNL     1       9.845   6.027  13.039  1.00  0.00     0.001 A 
ATOM     75  C   UNL     1      12.083   5.236  13.494  1.00  0.00     0.001 A 
ATOM     76  C   UNL     1      11.050   6.144  13.730  1.00  0.00     0.000 A 
ENDBRANCH  58  71
ENDBRANCH  32  33
ENDBRANCH  24  27
ENDBRANCH  22  23
ENDBRANCH   1  22
TORSDOF 14
