REMARK SMILES CC1=C[C@H](C)[C@H](CN2C[C@]34C=C[C@@H](O3)[C@H](C(=O)NCCCNC(=O)c3ccc(-c5c6nc(c(-c7ccccc7)c7ccc([nH]7)c(-c7ccccc7)c7nc(c(-c8ccccc8)c8ccc5[nH]8)C=C7)C=C6)cc3)[C@@H]4C2=O)[C@H](C)C1
REMARK SMILES IDX 20 1 19 2 18 3 16 4 17 5 15 7 8 8 9 9 74 10 10 11 73 12
REMARK SMILES IDX 75 13 11 14 14 15 12 16 13 17 7 18 6 19 1 20 2 21 3 22 78 23
REMARK SMILES IDX 4 24 76 25 5 26 77 27 21 28 22 29 23 30 24 32 25 33 26 34
REMARK SMILES IDX 72 35 27 36 71 37 28 38 29 39 30 40 65 41 31 42 70 43 64 44
REMARK SMILES IDX 66 45 32 46 69 47 63 48 62 49 33 51 55 52 40 53 54 54 41 55
REMARK SMILES IDX 44 56 53 57 67 58 42 59 43 60 52 62 68 63 45 64 34 65 35 66
REMARK SMILES IDX 39 67 36 68 38 69 37 70 56 71 57 72 61 73 58 74 60 75 59 76
REMARK SMILES IDX 46 77 47 78 51 79 48 80 50 81 49 82
REMARK H PARENT 18 6 22 31 66 50 44 61
REMARK Flexibility Score: inf
ROOT
ATOM      1  C   UNL     1      -1.101   0.099  -4.096  1.00  0.00     0.042 C 
ENDROOT
BRANCH   1   2
ATOM      2  C   UNL     1      -2.055  -0.703  -3.218  1.00  0.00     0.117 C 
BRANCH   2   3
ATOM      3  N   UNL     1      -3.192  -1.282  -3.929  1.00  0.00    -0.356 N 
ATOM      4  C   UNL     1      -3.635  -2.547  -3.585  1.00  0.00     0.227 C 
ATOM      5  O   UNL     1      -4.186  -2.725  -2.501  1.00  0.00    -0.275 OA
ATOM      6  H   UNL     1      -3.638  -0.777  -4.647  1.00  0.00     0.163 HD
BRANCH   4   7
ATOM      7  C   UNL     1      -3.597  -3.632  -4.655  1.00  0.00     0.127 C 
ATOM      8  N   UNL     1      -1.195  -5.194  -2.812  1.00  0.00    -0.339 N 
ATOM      9  C   UNL     1      -0.808  -4.376  -3.911  1.00  0.00     0.160 C 
ATOM     10  C   UNL     1      -2.478  -5.609  -3.057  1.00  0.00     0.230 C 
ATOM     11  C   UNL     1      -1.517  -4.869  -5.257  1.00  0.00     0.117 C 
ATOM     12  C   UNL     1      -2.890  -5.000  -4.394  1.00  0.00     0.132 C 
ATOM     13  O   UNL     1      -3.120  -6.424  -2.417  1.00  0.00    -0.274 OA
ATOM     14  C   UNL     1      -0.786  -3.627  -5.878  1.00  0.00     0.009 C 
ATOM     15  O   UNL     1      -2.484  -4.594  -6.346  1.00  0.00    -0.360 OA
ATOM     16  C   UNL     1      -1.655  -2.643  -6.137  1.00  0.00     0.004 C 
ATOM     17  C   UNL     1      -2.985  -3.268  -6.008  1.00  0.00     0.155 C 
BRANCH   8  18
ATOM     18  C   UNL     1      -0.248  -5.546  -1.720  1.00  0.00     0.124 C 
BRANCH  18  19
ATOM     19  C   UNL     1      -0.027  -4.468  -0.605  1.00  0.00     0.018 C 
ATOM     20  C   UNL     1       0.994  -0.936   1.867  1.00  0.00     0.039 C 
ATOM     21  C   UNL     1       0.731  -2.191   1.080  1.00  0.00    -0.077 C 
ATOM     22  C   UNL     1       1.489  -3.304   1.143  1.00  0.00    -0.025 C 
ATOM     23  C   UNL     1      -0.412  -2.109   0.117  1.00  0.00     0.034 C 
ATOM     24  C   UNL     1       1.276  -4.558   0.274  1.00  0.00     0.014 C 
ATOM     25  C   UNL     1      -0.191  -3.022  -1.093  1.00  0.00    -0.005 C 
ATOM     26  C   UNL     1       2.581  -4.839  -0.497  1.00  0.00     0.012 C 
ATOM     27  C   UNL     1       0.978  -2.545  -1.978  1.00  0.00     0.008 C 
ENDBRANCH  18  19
ENDBRANCH   8  18
ENDBRANCH   4   7
ENDBRANCH   2   3
ENDBRANCH   1   2
BRANCH   1  28
ATOM     28  C   UNL     1      -0.312   1.188  -3.360  1.00  0.00     0.118 C 
BRANCH  28  29
ATOM     29  N   UNL     1       0.402   0.750  -2.163  1.00  0.00    -0.352 N 
ATOM     30  C   UNL     1       1.712   0.883  -1.768  1.00  0.00     0.251 C 
ATOM     31  H   UNL     1      -0.163   0.268  -1.516  1.00  0.00     0.163 HD
ATOM     32  O   UNL     1       2.125   0.298  -0.765  1.00  0.00    -0.269 OA
BRANCH  30  33
ATOM     33  C   UNL     1       2.657   1.722  -2.511  1.00  0.00     0.039 A 
ATOM     34  C   UNL     1       4.008   1.355  -2.592  1.00  0.00     0.014 A 
ATOM     35  C   UNL     1       2.212   2.905  -3.088  1.00  0.00     0.014 A 
ATOM     36  C   UNL     1       4.889   2.129  -3.345  1.00  0.00     0.010 A 
ATOM     37  C   UNL     1       3.052   3.601  -3.931  1.00  0.00     0.010 A 
ATOM     38  C   UNL     1       4.395   3.220  -4.068  1.00  0.00    -0.014 A 
BRANCH  38  39
ATOM     39  C   UNL     1       5.213   4.018  -5.004  1.00  0.00     0.031 A 
ATOM     40  C   UNL     1       5.296   5.501  -4.788  1.00  0.00     0.074 A 
ATOM     41  C   UNL     1       5.662   3.437  -6.133  1.00  0.00     0.049 A 
ATOM     42  N   UNL     1       5.626   6.441  -5.631  1.00  0.00    -0.248 NA
ATOM     43  C   UNL     1       4.872   5.998  -3.464  1.00  0.00     0.031 C 
ATOM     44  C   UNL     1       5.581   2.007  -6.448  1.00  0.00     0.029 A 
ATOM     45  N   UNL     1       6.230   3.989  -7.251  1.00  0.00    -0.354 N 
ATOM     46  C   UNL     1       5.393   7.637  -4.962  1.00  0.00     0.074 A 
ATOM     47  C   UNL     1       4.854   7.307  -3.663  1.00  0.00     0.031 C 
ATOM     48  C   UNL     1       6.080   1.796  -7.675  1.00  0.00     0.029 A 
ATOM     49  C   UNL     1       6.455   3.078  -8.256  1.00  0.00     0.049 A 
ATOM     50  H   UNL     1       6.455   4.944  -7.327  1.00  0.00     0.167 HD
ATOM     51  C   UNL     1       5.619   8.895  -5.402  1.00  0.00     0.031 A 
ATOM     52  C   UNL     1       6.881   3.269  -9.518  1.00  0.00     0.031 A 
ATOM     53  C   UNL     1       6.192   9.183  -6.687  1.00  0.00     0.049 A 
ATOM     54  C   UNL     1       7.166   4.676  -9.964  1.00  0.00     0.074 A 
ATOM     55  C   UNL     1       6.552  10.408  -7.216  1.00  0.00     0.029 A 
ATOM     56  N   UNL     1       6.501   8.222  -7.639  1.00  0.00    -0.354 N 
ATOM     57  N   UNL     1       7.000   5.798  -9.305  1.00  0.00    -0.248 NA
ATOM     58  C   UNL     1       7.704   4.846 -11.319  1.00  0.00     0.031 C 
ATOM     59  C   UNL     1       7.037  10.191  -8.508  1.00  0.00     0.029 A 
ATOM     60  C   UNL     1       7.039   8.827  -8.757  1.00  0.00     0.049 A 
ATOM     61  H   UNL     1       6.357   7.253  -7.532  1.00  0.00     0.167 HD
ATOM     62  C   UNL     1       7.456   6.803 -10.146  1.00  0.00     0.074 A 
ATOM     63  C   UNL     1       7.906   6.156 -11.362  1.00  0.00     0.031 C 
ATOM     64  C   UNL     1       7.505   8.140  -9.934  1.00  0.00     0.031 A 
BRANCH  51  65
ATOM     65  C   UNL     1       5.253  10.038  -4.496  1.00  0.00    -0.014 A 
ATOM     66  C   UNL     1       5.941  10.270  -3.295  1.00  0.00     0.009 A 
ATOM     67  C   UNL     1       4.233  10.927  -4.872  1.00  0.00     0.009 A 
ATOM     68  C   UNL     1       5.593  11.344  -2.473  1.00  0.00     0.001 A 
ATOM     69  C   UNL     1       3.909  12.020  -4.065  1.00  0.00     0.001 A 
ATOM     70  C   UNL     1       4.583  12.222  -2.862  1.00  0.00     0.000 A 
ENDBRANCH  51  65
BRANCH  52  71
ATOM     71  C   UNL     1       7.072   2.112 -10.434  1.00  0.00    -0.014 A 
ATOM     72  C   UNL     1       8.363   1.732 -10.833  1.00  0.00     0.009 A 
ATOM     73  C   UNL     1       5.975   1.380 -10.914  1.00  0.00     0.009 A 
ATOM     74  C   UNL     1       8.548   0.670 -11.723  1.00  0.00     0.001 A 
ATOM     75  C   UNL     1       6.165   0.297 -11.777  1.00  0.00     0.001 A 
ATOM     76  C   UNL     1       7.450  -0.048 -12.192  1.00  0.00     0.000 A 
ENDBRANCH  52  71
BRANCH  64  77
ATOM     77  C   UNL     1       8.133   8.984 -11.002  1.00  0.00    -0.014 A 
ATOM     78  C   UNL     1       7.464   9.266 -12.201  1.00  0.00     0.009 A 
ATOM     79  C   UNL     1       9.378   9.583 -10.752  1.00  0.00     0.009 A 
ATOM     80  C   UNL     1       8.041  10.123 -13.139  1.00  0.00     0.001 A 
ATOM     81  C   UNL     1       9.937  10.463 -11.676  1.00  0.00     0.001 A 
ATOM     82  C   UNL     1       9.270  10.729 -12.871  1.00  0.00     0.000 A 
ENDBRANCH  64  77
ENDBRANCH  38  39
ENDBRANCH  30  33
ENDBRANCH  28  29
ENDBRANCH   1  28
TORSDOF 12
