REMARK SMILES O=C(NCCCNC(=O)c1cccc([C@@H]2CCC[N@@H+](Cc3cccc(OCCO)c3)C2)c1)c1ccc(-c2c3nc(c(-c4ccccc4)c4ccc([nH]4)c(-c4ccccc4)c4nc(c(-c5ccccc5)c5ccc2[nH]5)C=C4)C=C3)cc1
REMARK SMILES IDX 10 1 11 2 12 3 13 4 14 5 32 6 8 7 7 8 9 10 6 11 5 12 4 13
REMARK SMILES IDX 3 14 1 15 2 16 33 18 34 19 80 20 35 21 79 22 36 23 37 24
REMARK SMILES IDX 38 25 73 26 39 27 78 28 72 29 74 30 40 31 77 32 71 33 70 34
REMARK SMILES IDX 41 36 63 37 48 38 62 39 49 40 52 41 61 42 75 43 50 44 51 45
REMARK SMILES IDX 60 47 76 48 53 49 42 50 43 51 47 52 44 53 46 54 45 55 64 56
REMARK SMILES IDX 65 57 69 58 66 59 68 60 67 61 54 62 55 63 59 64 56 65 58 66
REMARK SMILES IDX 57 67 15 68 16 69 31 70 17 71 19 72 18 73 20 75 21 76 22 77
REMARK SMILES IDX 30 78 23 79 25 80 24 81 26 82 27 83 28 84 29 85
REMARK H PARENT 7 9 3 17 74 35 52 46 19 74 29 86
REMARK Flexibility Score: inf
ROOT
ATOM      1  C   UNL     1       6.530   2.537  -5.532  1.00  0.00     0.040 A 
ATOM      2  C   UNL     1       7.852   2.370  -5.939  1.00  0.00     0.014 A 
ATOM      3  C   UNL     1       8.116   1.700  -7.134  1.00  0.00     0.001 A 
ATOM      4  C   UNL     1       7.064   1.178  -7.897  1.00  0.00     0.004 A 
ATOM      5  C   UNL     1       5.729   1.365  -7.505  1.00  0.00    -0.039 A 
ATOM      6  C   UNL     1       5.487   2.112  -6.355  1.00  0.00     0.018 A 
ENDROOT
BRANCH   1   7
ATOM      7  C   UNL     1       6.223   3.140  -4.218  1.00  0.00     0.251 C 
ATOM      8  N   UNL     1       5.234   2.596  -3.428  1.00  0.00    -0.352 N 
ATOM      9  H   UNL     1       4.963   3.149  -2.659  1.00  0.00     0.163 HD
ATOM     10  O   UNL     1       6.849   4.120  -3.828  1.00  0.00    -0.269 OA
BRANCH   8  11
ATOM     11  C   UNL     1       4.527   1.324  -3.557  1.00  0.00     0.118 C 
BRANCH  11  12
ATOM     12  C   UNL     1       4.894   0.344  -2.462  1.00  0.00     0.042 C 
BRANCH  12  13
ATOM     13  C   UNL     1       4.470   0.803  -1.082  1.00  0.00     0.118 C 
BRANCH  13  14
ATOM     14  N   UNL     1       3.032   0.705  -0.863  1.00  0.00    -0.352 N 
ATOM     15  O   UNL     1       1.104  -0.128  -0.043  1.00  0.00    -0.269 OA
ATOM     16  C   UNL     1       2.321  -0.074   0.026  1.00  0.00     0.251 C 
ATOM     17  H   UNL     1       2.483   1.284  -1.439  1.00  0.00     0.163 HD
BRANCH  16  18
ATOM     18  C   UNL     1       3.044  -0.874   1.044  1.00  0.00     0.039 A 
ATOM     19  C   UNL     1       4.155  -0.350   1.699  1.00  0.00     0.014 A 
ATOM     20  C   UNL     1       2.614  -2.173   1.335  1.00  0.00     0.014 A 
ATOM     21  C   UNL     1       4.958  -1.182   2.462  1.00  0.00     0.010 A 
ATOM     22  C   UNL     1       3.350  -2.969   2.221  1.00  0.00     0.010 A 
ATOM     23  C   UNL     1       4.555  -2.495   2.758  1.00  0.00    -0.014 A 
BRANCH  23  24
ATOM     24  C   UNL     1       5.398  -3.294   3.686  1.00  0.00     0.031 A 
ATOM     25  C   UNL     1       6.066  -4.569   3.253  1.00  0.00     0.074 A 
ATOM     26  C   UNL     1       5.631  -2.794   4.917  1.00  0.00     0.049 A 
ATOM     27  N   UNL     1       6.915  -5.314   3.919  1.00  0.00    -0.248 NA
ATOM     28  C   UNL     1       5.741  -5.086   1.915  1.00  0.00     0.031 C 
ATOM     29  C   UNL     1       5.026  -1.573   5.458  1.00  0.00     0.029 A 
ATOM     30  N   UNL     1       6.477  -3.211   5.912  1.00  0.00    -0.354 N 
ATOM     31  C   UNL     1       7.207  -6.393   3.093  1.00  0.00     0.074 A 
ATOM     32  C   UNL     1       6.430  -6.220   1.885  1.00  0.00     0.031 C 
ATOM     33  C   UNL     1       5.588  -1.288   6.640  1.00  0.00     0.029 A 
ATOM     34  C   UNL     1       6.533  -2.345   6.976  1.00  0.00     0.049 A 
ATOM     35  H   UNL     1       6.992  -4.049   5.867  1.00  0.00     0.167 HD
ATOM     36  C   UNL     1       8.050  -7.430   3.320  1.00  0.00     0.031 A 
ATOM     37  C   UNL     1       7.261  -2.390   8.106  1.00  0.00     0.031 A 
ATOM     38  C   UNL     1       8.828  -7.599   4.520  1.00  0.00     0.049 A 
ATOM     39  C   UNL     1       8.193  -3.541   8.323  1.00  0.00     0.074 A 
ATOM     40  C   UNL     1       9.709  -8.619   4.842  1.00  0.00     0.029 A 
ATOM     41  N   UNL     1       8.825  -6.722   5.594  1.00  0.00    -0.354 N 
ATOM     42  N   UNL     1       8.455  -4.549   7.527  1.00  0.00    -0.248 NA
ATOM     43  C   UNL     1       8.925  -3.564   9.595  1.00  0.00     0.031 C 
ATOM     44  C   UNL     1      10.211  -8.376   6.125  1.00  0.00     0.029 A 
ATOM     45  C   UNL     1       9.678  -7.182   6.583  1.00  0.00     0.049 A 
ATOM     46  H   UNL     1       8.294  -5.895   5.646  1.00  0.00     0.167 HD
ATOM     47  C   UNL     1       9.378  -5.331   8.204  1.00  0.00     0.074 A 
ATOM     48  C   UNL     1       9.661  -4.658   9.456  1.00  0.00     0.031 C 
ATOM     49  C   UNL     1       9.932  -6.509   7.829  1.00  0.00     0.031 A 
BRANCH  36  50
ATOM     50  C   UNL     1       8.163  -8.482   2.252  1.00  0.00    -0.014 A 
ATOM     51  C   UNL     1       8.870  -8.239   1.064  1.00  0.00     0.009 A 
ATOM     52  C   UNL     1       7.603  -9.752   2.461  1.00  0.00     0.009 A 
ATOM     53  C   UNL     1       8.995  -9.240   0.098  1.00  0.00     0.001 A 
ATOM     54  C   UNL     1       7.749 -10.758   1.503  1.00  0.00     0.001 A 
ATOM     55  C   UNL     1       8.439 -10.500   0.320  1.00  0.00     0.000 A 
ENDBRANCH  36  50
BRANCH  37  56
ATOM     56  C   UNL     1       7.112  -1.317   9.122  1.00  0.00    -0.014 A 
ATOM     57  C   UNL     1       8.148  -0.402   9.359  1.00  0.00     0.009 A 
ATOM     58  C   UNL     1       5.916  -1.194   9.848  1.00  0.00     0.009 A 
ATOM     59  C   UNL     1       7.995   0.603  10.316  1.00  0.00     0.001 A 
ATOM     60  C   UNL     1       5.755  -0.169  10.780  1.00  0.00     0.001 A 
ATOM     61  C   UNL     1       6.798   0.723  11.020  1.00  0.00     0.000 A 
ENDBRANCH  37  56
BRANCH  49  62
ATOM     62  C   UNL     1      10.896  -7.133   8.795  1.00  0.00    -0.014 A 
ATOM     63  C   UNL     1      10.442  -7.737   9.978  1.00  0.00     0.009 A 
ATOM     64  C   UNL     1      12.271  -7.114   8.520  1.00  0.00     0.009 A 
ATOM     65  C   UNL     1      11.353  -8.274  10.888  1.00  0.00     0.001 A 
ATOM     66  C   UNL     1      13.177  -7.675   9.421  1.00  0.00     0.001 A 
ATOM     67  C   UNL     1      12.719  -8.244  10.608  1.00  0.00     0.000 A 
ENDBRANCH  49  62
ENDBRANCH  23  24
ENDBRANCH  16  18
ENDBRANCH  13  14
ENDBRANCH  12  13
ENDBRANCH  11  12
ENDBRANCH   8  11
ENDBRANCH   1   7
BRANCH   5  68
ATOM     68  C   UNL     1       4.592   0.674  -8.240  1.00  0.00     0.074 C 
ATOM     69  C   UNL     1       3.507   1.615  -8.788  1.00  0.00     0.020 C 
ATOM     70  C   UNL     1       3.967  -0.468  -7.398  1.00  0.00     0.270 C 
ATOM     71  C   UNL     1       2.413   1.968  -7.782  1.00  0.00     0.062 C 
ATOM     72  N   UNL     1       2.950  -0.052  -6.413  1.00  0.00    -0.331 N 
ATOM     73  C   UNL     1       1.885   0.744  -7.036  1.00  0.00     0.262 C 
ATOM     74  H   UNL     1       3.424   0.553  -5.742  1.00  0.00     0.348 HD
BRANCH  72  75
ATOM     75  C   UNL     1       2.415  -1.192  -5.625  1.00  0.00     0.299 C 
BRANCH  75  76
ATOM     76  C   UNL     1       1.396  -2.070  -6.332  1.00  0.00     0.010 A 
ATOM     77  C   UNL     1       0.028  -1.938  -6.061  1.00  0.00     0.010 A 
ATOM     78  C   UNL     1       1.802  -2.950  -7.348  1.00  0.00     0.056 A 
ATOM     79  C   UNL     1      -0.911  -2.622  -6.832  1.00  0.00     0.004 A 
ATOM     80  C   UNL     1       0.870  -3.565  -8.181  1.00  0.00     0.119 A 
ATOM     81  C   UNL     1      -0.489  -3.415  -7.901  1.00  0.00     0.046 A 
BRANCH  80  82
ATOM     82  O   UNL     1       1.155  -4.284  -9.309  1.00  0.00    -0.491 OA
BRANCH  82  83
ATOM     83  C   UNL     1       2.467  -4.195  -9.880  1.00  0.00     0.257 C 
BRANCH  83  84
ATOM     84  C   UNL     1       2.593  -3.031 -10.870  1.00  0.00     0.197 C 
BRANCH  84  85
ATOM     85  O   UNL     1       2.478  -1.758 -10.245  1.00  0.00    -0.393 OA
ATOM     86  H   UNL     1       1.603  -1.676  -9.837  1.00  0.00     0.210 HD
ENDBRANCH  84  85
ENDBRANCH  83  84
ENDBRANCH  82  83
ENDBRANCH  80  82
ENDBRANCH  75  76
ENDBRANCH  72  75
ENDBRANCH   5  68
TORSDOF 17
