REMARK SMILES COc1ccccc1[C@@H]1C[N@@H+](Cc2cc3c(cc2C)OCO3)C[C@H]1C(=O)NCCCNC(=O)c1ccc(-c2c3nc(c(-c4ccccc4)c4ccc([nH]4)c(-c4ccccc4)c4nc(c(-c5ccccc5)c5ccc2[nH]5)C=C4)C=C3)cc1
REMARK SMILES IDX 29 1 28 2 27 3 25 4 26 5 24 7 9 8 10 9 11 10 23 11 8 13 3 14
REMARK SMILES IDX 4 15 5 16 7 17 6 18 2 19 1 20 12 21 13 22 14 23 18 24 15 25
REMARK SMILES IDX 17 26 19 27 16 28 22 29 20 30 21 31 30 32 31 33 32 34 33 36
REMARK SMILES IDX 34 37 35 38 81 39 36 40 80 41 37 42 38 43 39 44 74 45 40 46
REMARK SMILES IDX 79 47 73 48 75 49 41 50 78 51 72 52 71 53 42 55 64 56 49 57
REMARK SMILES IDX 63 58 50 59 53 60 62 61 76 62 51 63 52 64 61 66 77 67 54 68
REMARK SMILES IDX 43 69 44 70 48 71 45 72 47 73 46 74 65 75 66 76 70 77 67 78
REMARK SMILES IDX 69 79 68 80 55 81 56 82 60 83 57 84 59 85 58 86
REMARK H PARENT 27 6 11 12 31 35 75 54 53 65
REMARK Flexibility Score: inf
ROOT
ATOM      1  C   UNL     1       6.157  -2.808   3.751  1.00  0.00     0.042 C 
ENDROOT
BRANCH   1   2
ATOM      2  C   UNL     1       4.626  -2.795   3.401  1.00  0.00     0.117 C 
BRANCH   2   3
ATOM      3  N   UNL     1       3.912  -1.490   3.358  1.00  0.00    -0.356 N 
ATOM      4  C   UNL     1       2.725  -1.198   2.720  1.00  0.00     0.229 C 
ATOM      5  O   UNL     1       1.730  -1.318   3.457  1.00  0.00    -0.275 OA
ATOM      6  H   UNL     1       4.337  -0.747   3.843  1.00  0.00     0.163 HD
BRANCH   4   7
ATOM      7  C   UNL     1       2.498  -0.489   1.328  1.00  0.00     0.146 C 
ATOM      8  C   UNL     1       2.531   1.054   1.354  1.00  0.00     0.096 C 
ATOM      9  C   UNL     1       2.797   1.493  -0.096  1.00  0.00     0.272 C 
ATOM     10  N   UNL     1       3.604   0.438  -0.700  1.00  0.00    -0.330 N 
ATOM     11  C   UNL     1       3.224  -0.811   0.003  1.00  0.00     0.276 C 
ATOM     12  H   UNL     1       3.418   0.237  -1.683  1.00  0.00     0.348 HD
BRANCH   8  13
ATOM     13  C   UNL     1       1.400   1.883   1.947  1.00  0.00     0.004 A 
ATOM     14  C   UNL     1       0.147   2.147   1.353  1.00  0.00     0.122 A 
ATOM     15  C   UNL     1      -0.692   3.142   1.881  1.00  0.00     0.047 A 
ATOM     16  C   UNL     1      -0.308   3.895   2.988  1.00  0.00     0.004 A 
ATOM     17  C   UNL     1       1.745   2.640   3.090  1.00  0.00     0.008 A 
ATOM     18  C   UNL     1       0.915   3.644   3.591  1.00  0.00     0.001 A 
BRANCH  14  19
ATOM     19  O   UNL     1      -0.262   1.700   0.124  1.00  0.00    -0.496 OA
ATOM     20  C   UNL     1      -0.565   0.315   0.046  1.00  0.00     0.278 C 
ENDBRANCH  14  19
ENDBRANCH   8  13
BRANCH  10  21
ATOM     21  C   UNL     1       5.012   0.845  -0.881  1.00  0.00     0.299 C 
BRANCH  21  22
ATOM     22  C   UNL     1       5.761   1.141   0.403  1.00  0.00     0.013 A 
ATOM     23  C   UNL     1       5.974   2.470   0.852  1.00  0.00     0.060 A 
ATOM     24  C   UNL     1       6.069   0.075   1.256  1.00  0.00    -0.038 A 
ATOM     25  C   UNL     1       6.273   2.682   2.186  1.00  0.00     0.166 A 
ATOM     26  C   UNL     1       6.190   0.354   2.615  1.00  0.00     0.054 A 
ATOM     27  C   UNL     1       6.265  -1.323   0.743  1.00  0.00     0.045 C 
ATOM     28  C   UNL     1       6.282   1.640   3.061  1.00  0.00     0.166 A 
ATOM     29  O   UNL     1       6.511   3.861   2.820  1.00  0.00    -0.454 OA
ATOM     30  O   UNL     1       6.424   2.011   4.358  1.00  0.00    -0.454 OA
ATOM     31  C   UNL     1       6.749   3.400   4.174  1.00  0.00     0.468 C 
ENDBRANCH  21  22
ENDBRANCH  10  21
ENDBRANCH   4   7
ENDBRANCH   2   3
ENDBRANCH   1   2
BRANCH   1  32
ATOM     32  C   UNL     1       6.726  -2.191   5.062  1.00  0.00     0.118 C 
BRANCH  32  33
ATOM     33  N   UNL     1       8.156  -2.543   5.162  1.00  0.00    -0.352 N 
ATOM     34  C   UNL     1       9.365  -1.893   5.233  1.00  0.00     0.251 C 
ATOM     35  H   UNL     1       8.278  -3.520   5.184  1.00  0.00     0.163 HD
ATOM     36  O   UNL     1      10.351  -2.588   4.972  1.00  0.00    -0.269 OA
BRANCH  34  37
ATOM     37  C   UNL     1       9.618  -0.482   5.666  1.00  0.00     0.039 A 
ATOM     38  C   UNL     1      10.914   0.034   5.436  1.00  0.00     0.014 A 
ATOM     39  C   UNL     1       8.755   0.273   6.457  1.00  0.00     0.014 A 
ATOM     40  C   UNL     1      11.359   1.221   6.042  1.00  0.00     0.010 A 
ATOM     41  C   UNL     1       9.187   1.493   7.028  1.00  0.00     0.010 A 
ATOM     42  C   UNL     1      10.510   1.953   6.878  1.00  0.00    -0.014 A 
BRANCH  42  43
ATOM     43  C   UNL     1      11.049   3.100   7.684  1.00  0.00     0.031 A 
ATOM     44  C   UNL     1      11.150   2.992   9.191  1.00  0.00     0.074 A 
ATOM     45  C   UNL     1      11.485   4.233   7.096  1.00  0.00     0.049 A 
ATOM     46  N   UNL     1      11.626   3.853  10.061  1.00  0.00    -0.248 NA
ATOM     47  C   UNL     1      10.626   1.762   9.802  1.00  0.00     0.031 C 
ATOM     48  C   UNL     1      11.445   4.514   5.662  1.00  0.00     0.029 A 
ATOM     49  N   UNL     1      12.055   5.363   7.640  1.00  0.00    -0.354 N 
ATOM     50  C   UNL     1      11.430   3.280  11.315  1.00  0.00     0.074 A 
ATOM     51  C   UNL     1      10.749   2.022  11.092  1.00  0.00     0.031 C 
ATOM     52  C   UNL     1      11.987   5.723   5.437  1.00  0.00     0.029 A 
ATOM     53  C   UNL     1      12.404   6.312   6.708  1.00  0.00     0.049 A 
ATOM     54  H   UNL     1      12.200   5.480   8.607  1.00  0.00     0.167 HD
ATOM     55  C   UNL     1      11.795   3.734  12.540  1.00  0.00     0.031 A 
ATOM     56  C   UNL     1      13.006   7.510   6.849  1.00  0.00     0.031 A 
ATOM     57  C   UNL     1      12.500   4.965  12.784  1.00  0.00     0.049 A 
ATOM     58  C   UNL     1      13.447   7.981   8.209  1.00  0.00     0.074 A 
ATOM     59  C   UNL     1      12.955   5.478  13.988  1.00  0.00     0.029 A 
ATOM     60  N   UNL     1      12.858   5.875  11.803  1.00  0.00    -0.354 N 
ATOM     61  N   UNL     1      13.304   7.396   9.373  1.00  0.00    -0.248 NA
ATOM     62  C   UNL     1      14.161   9.267   8.269  1.00  0.00     0.031 C 
ATOM     63  C   UNL     1      13.562   6.715  13.737  1.00  0.00     0.029 A 
ATOM     64  C   UNL     1      13.523   6.948  12.373  1.00  0.00     0.049 A 
ATOM     65  H   UNL     1      12.669   5.773  10.842  1.00  0.00     0.167 HD
ATOM     66  C   UNL     1      13.933   8.225  10.295  1.00  0.00     0.074 A 
ATOM     67  C   UNL     1      14.469   9.348   9.554  1.00  0.00     0.031 C 
ATOM     68  C   UNL     1      14.057   8.064  11.635  1.00  0.00     0.031 A 
BRANCH  55  69
ATOM     69  C   UNL     1      11.421   2.880  13.723  1.00  0.00    -0.014 A 
ATOM     70  C   UNL     1      12.045   1.643  13.956  1.00  0.00     0.009 A 
ATOM     71  C   UNL     1      10.429   3.316  14.615  1.00  0.00     0.009 A 
ATOM     72  C   UNL     1      11.641   0.835  15.021  1.00  0.00     0.001 A 
ATOM     73  C   UNL     1      10.049   2.520  15.698  1.00  0.00     0.001 A 
ATOM     74  C   UNL     1      10.644   1.274  15.891  1.00  0.00     0.000 A 
ENDBRANCH  55  69
BRANCH  56  75
ATOM     75  C   UNL     1      13.278   8.341   5.646  1.00  0.00    -0.014 A 
ATOM     76  C   UNL     1      14.582   8.450   5.136  1.00  0.00     0.009 A 
ATOM     77  C   UNL     1      12.236   9.019   4.995  1.00  0.00     0.009 A 
ATOM     78  C   UNL     1      14.838   9.232   4.007  1.00  0.00     0.001 A 
ATOM     79  C   UNL     1      12.492   9.781   3.853  1.00  0.00     0.001 A 
ATOM     80  C   UNL     1      13.792   9.891   3.363  1.00  0.00     0.000 A 
ENDBRANCH  56  75
BRANCH  68  81
ATOM     81  C   UNL     1      14.833   9.107  12.390  1.00  0.00    -0.014 A 
ATOM     82  C   UNL     1      14.305  10.386  12.623  1.00  0.00     0.009 A 
ATOM     83  C   UNL     1      16.100   8.791  12.907  1.00  0.00     0.009 A 
ATOM     84  C   UNL     1      15.045  11.339  13.329  1.00  0.00     0.001 A 
ATOM     85  C   UNL     1      16.827   9.737  13.633  1.00  0.00     0.001 A 
ATOM     86  C   UNL     1      16.303  11.012  13.835  1.00  0.00     0.000 A 
ENDBRANCH  68  81
ENDBRANCH  42  43
ENDBRANCH  34  37
ENDBRANCH  32  33
ENDBRANCH   1  32
TORSDOF 14
