REMARK SMILES CC(C)n1ncnc1C[C@@H](C(=O)NCCCNC(=O)c1ccc(-c2c3nc(c(-c4ccccc4)c4ccc([nH]4)c(-c4ccccc4)c4nc(c(-c5ccccc5)c5ccc2[nH]5)C=C4)C=C3)cc1)c1cccc(Br)c1
REMARK SMILES IDX 14 1 13 2 11 3 12 4 10 6 9 7 8 8 4 9 5 10 6 11 7 12 2 13
REMARK SMILES IDX 1 14 3 15 68 16 69 17 74 18 70 19 72 20 71 21 73 22 15 23
REMARK SMILES IDX 16 24 17 25 18 26 19 28 20 29 21 30 67 31 22 32 66 33 23 34
REMARK SMILES IDX 24 35 25 36 60 37 26 38 65 39 59 40 61 41 27 42 64 43 58 44
REMARK SMILES IDX 57 45 28 47 50 48 35 49 49 50 36 51 39 52 48 53 62 54 37 55
REMARK SMILES IDX 38 56 47 58 63 59 40 60 29 61 30 62 34 63 31 64 33 65 32 66
REMARK SMILES IDX 51 67 52 68 56 69 53 70 55 71 54 72 41 73 42 74 46 75 43 76
REMARK SMILES IDX 45 77 44 78
REMARK H PARENT 13 5 17 27 61 46 39 57
REMARK Flexibility Score: inf
ROOT
ATOM      1  C   UNL     1      -3.099   2.025  -3.458  1.00  0.00     0.117 C 
ENDROOT
BRANCH   1   2
ATOM      2  N   UNL     1      -3.588   3.204  -2.747  1.00  0.00    -0.355 N 
ATOM      3  C   UNL     1      -2.978   4.000  -1.818  1.00  0.00     0.228 C 
ATOM      4  O   UNL     1      -3.720   4.669  -1.092  1.00  0.00    -0.274 OA
ATOM      5  H   UNL     1      -4.509   3.469  -2.974  1.00  0.00     0.163 HD
BRANCH   3   6
ATOM      6  C   UNL     1      -1.441   4.133  -1.764  1.00  0.00     0.116 C 
BRANCH   6   7
ATOM      7  C   UNL     1      -0.930   3.647  -0.381  1.00  0.00     0.095 C 
BRANCH   7   8
ATOM      8  C   UNL     1      -1.184   2.211  -0.058  1.00  0.00     0.128 A 
ATOM      9  N   UNL     1      -0.369   1.136  -0.350  1.00  0.00    -0.248 N 
ATOM     10  N   UNL     1      -0.949  -0.016   0.055  1.00  0.00    -0.159 NA
ATOM     11  C   UNL     1      -2.009   0.427   0.725  1.00  0.00     0.246 A 
ATOM     12  N   UNL     1      -2.206   1.773   0.654  1.00  0.00    -0.220 NA
BRANCH   9  13
ATOM     13  C   UNL     1       1.002   1.100  -0.849  1.00  0.00     0.103 C 
ATOM     14  C   UNL     1       1.849   0.087  -0.065  1.00  0.00     0.033 C 
ATOM     15  C   UNL     1       1.073   0.800  -2.346  1.00  0.00     0.033 C 
ENDBRANCH   9  13
ENDBRANCH   7   8
ENDBRANCH   6   7
BRANCH   6  16
ATOM     16  C   UNL     1      -0.979   5.600  -2.003  1.00  0.00    -0.034 A 
ATOM     17  C   UNL     1       0.363   5.968  -1.778  1.00  0.00     0.004 A 
ATOM     18  C   UNL     1      -1.859   6.620  -2.416  1.00  0.00     0.020 A 
ATOM     19  C   UNL     1       0.777   7.303  -1.841  1.00  0.00     0.001 A 
ATOM     20  C   UNL     1      -1.438   7.954  -2.487  1.00  0.00     0.018 A 
ATOM     21  C   UNL     1      -0.129   8.303  -2.179  1.00  0.00     0.016 A 
ATOM     22  Br  UNL     1      -2.670   9.305  -2.978  1.00  0.00    -0.051 Br
ENDBRANCH   6  16
ENDBRANCH   3   6
ENDBRANCH   1   2
BRANCH   1  23
ATOM     23  C   UNL     1      -3.241   0.764  -2.606  1.00  0.00     0.042 C 
BRANCH  23  24
ATOM     24  C   UNL     1      -4.680   0.379  -2.333  1.00  0.00     0.118 C 
BRANCH  24  25
ATOM     25  N   UNL     1      -5.191  -0.784  -3.040  1.00  0.00    -0.352 N 
ATOM     26  C   UNL     1      -6.336  -1.547  -2.804  1.00  0.00     0.251 C 
ATOM     27  H   UNL     1      -4.645  -1.080  -3.804  1.00  0.00     0.163 HD
ATOM     28  O   UNL     1      -6.528  -2.546  -3.464  1.00  0.00    -0.269 OA
BRANCH  26  29
ATOM     29  C   UNL     1      -7.316  -1.163  -1.742  1.00  0.00     0.039 A 
ATOM     30  C   UNL     1      -8.328  -2.034  -1.307  1.00  0.00     0.014 A 
ATOM     31  C   UNL     1      -7.250   0.085  -1.152  1.00  0.00     0.014 A 
ATOM     32  C   UNL     1      -9.291  -1.566  -0.399  1.00  0.00     0.010 A 
ATOM     33  C   UNL     1      -7.932   0.377  -0.018  1.00  0.00     0.010 A 
ATOM     34  C   UNL     1      -9.100  -0.315   0.189  1.00  0.00    -0.014 A 
BRANCH  34  35
ATOM     35  C   UNL     1     -10.075   0.439   0.961  1.00  0.00     0.031 A 
ATOM     36  C   UNL     1     -10.045   0.192   2.415  1.00  0.00     0.074 A 
ATOM     37  C   UNL     1     -10.595   1.604   0.500  1.00  0.00     0.049 A 
ATOM     38  N   UNL     1     -10.932  -0.416   3.127  1.00  0.00    -0.248 NA
ATOM     39  C   UNL     1      -8.818   0.548   3.147  1.00  0.00     0.031 C 
ATOM     40  C   UNL     1     -10.309   2.295  -0.768  1.00  0.00     0.029 A 
ATOM     41  N   UNL     1     -11.379   2.504   1.157  1.00  0.00    -0.354 N 
ATOM     42  C   UNL     1     -10.454  -0.353   4.430  1.00  0.00     0.074 A 
ATOM     43  C   UNL     1      -9.061  -0.006   4.333  1.00  0.00     0.031 C 
ATOM     44  C   UNL     1     -10.745   3.574  -0.695  1.00  0.00     0.029 A 
ATOM     45  C   UNL     1     -11.451   3.758   0.562  1.00  0.00     0.049 A 
ATOM     46  H   UNL     1     -11.857   2.284   1.989  1.00  0.00     0.167 HD
ATOM     47  C   UNL     1     -11.288  -0.285   5.503  1.00  0.00     0.031 A 
ATOM     48  C   UNL     1     -12.011   4.876   1.090  1.00  0.00     0.031 A 
ATOM     49  C   UNL     1     -12.662  -0.512   5.126  1.00  0.00     0.049 A 
ATOM     50  C   UNL     1     -12.870   4.453   2.223  1.00  0.00     0.074 A 
ATOM     51  C   UNL     1     -13.344  -1.524   4.480  1.00  0.00     0.029 A 
ATOM     52  N   UNL     1     -13.476   0.596   5.053  1.00  0.00    -0.354 N 
ATOM     53  N   UNL     1     -13.965   3.764   2.085  1.00  0.00    -0.248 NA
ATOM     54  C   UNL     1     -12.296   4.444   3.560  1.00  0.00     0.031 C 
ATOM     55  C   UNL     1     -14.297  -0.858   3.653  1.00  0.00     0.029 A 
ATOM     56  C   UNL     1     -14.183   0.515   3.882  1.00  0.00     0.049 A 
ATOM     57  H   UNL     1     -13.538   1.317   5.722  1.00  0.00     0.167 HD
ATOM     58  C   UNL     1     -13.975   2.894   3.167  1.00  0.00     0.074 A 
ATOM     59  C   UNL     1     -13.001   3.447   4.103  1.00  0.00     0.031 C 
ATOM     60  C   UNL     1     -14.548   1.657   3.068  1.00  0.00     0.031 A 
BRANCH  47  61
ATOM     61  C   UNL     1     -10.925   0.382   6.808  1.00  0.00    -0.014 A 
ATOM     62  C   UNL     1     -11.819   0.270   7.885  1.00  0.00     0.009 A 
ATOM     63  C   UNL     1      -9.870   1.304   6.959  1.00  0.00     0.009 A 
ATOM     64  C   UNL     1     -11.693   1.075   9.024  1.00  0.00     0.001 A 
ATOM     65  C   UNL     1      -9.709   2.070   8.115  1.00  0.00     0.001 A 
ATOM     66  C   UNL     1     -10.638   1.975   9.138  1.00  0.00     0.000 A 
ENDBRANCH  47  61
BRANCH  48  67
ATOM     67  C   UNL     1     -11.705   6.302   0.834  1.00  0.00    -0.014 A 
ATOM     68  C   UNL     1     -12.622   7.310   1.175  1.00  0.00     0.009 A 
ATOM     69  C   UNL     1     -10.403   6.700   0.480  1.00  0.00     0.009 A 
ATOM     70  C   UNL     1     -12.240   8.660   1.195  1.00  0.00     0.001 A 
ATOM     71  C   UNL     1     -10.022   8.047   0.495  1.00  0.00     0.001 A 
ATOM     72  C   UNL     1     -10.937   9.026   0.867  1.00  0.00     0.000 A 
ENDBRANCH  48  67
BRANCH  60  73
ATOM     73  C   UNL     1     -15.397   1.368   1.852  1.00  0.00    -0.014 A 
ATOM     74  C   UNL     1     -14.894   1.415   0.539  1.00  0.00     0.009 A 
ATOM     75  C   UNL     1     -16.699   0.884   2.044  1.00  0.00     0.009 A 
ATOM     76  C   UNL     1     -15.679   1.020  -0.548  1.00  0.00     0.001 A 
ATOM     77  C   UNL     1     -17.477   0.468   0.960  1.00  0.00     0.001 A 
ATOM     78  C   UNL     1     -16.969   0.541  -0.336  1.00  0.00     0.000 A 
ENDBRANCH  60  73
ENDBRANCH  34  35
ENDBRANCH  26  29
ENDBRANCH  24  25
ENDBRANCH  23  24
ENDBRANCH   1  23
TORSDOF 14
