REMARK SMILES COc1ccc(C(=O)NCCCNC(=O)c2ccc(-c3c4nc(c(-c5ccccc5)c5ccc([nH]5)c(-c5ccccc5)c5nc(c(-c6ccccc6)c6ccc3[nH]6)C=C5)C=C4)cc2)cc1S(=O)(=O)Nc1cc2c(cc1Cl)OCCCO2
REMARK SMILES IDX 7 1 8 2 9 3 6 5 3 6 4 7 65 8 5 9 64 10 2 11 1 12 66 13 67 14
REMARK SMILES IDX 68 15 69 16 70 18 71 19 75 20 72 21 74 22 76 23 73 24 81 25
REMARK SMILES IDX 80 26 79 27 77 29 78 30 10 32 11 33 12 34 13 35 14 36 15 38
REMARK SMILES IDX 16 39 17 40 63 41 18 42 62 43 19 44 20 45 21 46 56 47 22 48
REMARK SMILES IDX 61 49 55 50 57 51 23 52 60 53 54 54 53 55 24 57 46 58 31 59
REMARK SMILES IDX 45 60 32 61 35 62 44 63 58 64 33 65 34 66 43 68 59 69 36 70
REMARK SMILES IDX 25 71 26 72 30 73 27 74 29 75 28 76 47 77 48 78 52 79 49 80
REMARK SMILES IDX 51 81 50 82 37 83 38 84 42 85 39 86 41 87 40 88
REMARK H PARENT 9 4 69 17 13 37 57 56 35 67
REMARK Flexibility Score: 90.00
ROOT
ATOM      1  C   UNL     1       2.188   4.751   4.263  1.00  0.00     0.251 C 
ATOM      2  O   UNL     1       1.582   5.813   4.345  1.00  0.00    -0.269 OA
ATOM      3  N   UNL     1       3.280   4.492   5.063  1.00  0.00    -0.352 N 
ATOM      4  H   UNL     1       3.549   5.232   5.655  1.00  0.00     0.163 HD
ENDROOT
BRANCH   1   5
ATOM      5  C   UNL     1       1.682   3.668   3.394  1.00  0.00     0.041 A 
ATOM      6  C   UNL     1       1.101   1.103   2.496  1.00  0.00     0.139 A 
ATOM      7  C   UNL     1       0.174   1.784   3.295  1.00  0.00     0.049 A 
ATOM      8  C   UNL     1       2.199   1.801   1.977  1.00  0.00     0.130 A 
ATOM      9  C   UNL     1       0.462   3.081   3.738  1.00  0.00     0.018 A 
ATOM     10  C   UNL     1       2.498   3.093   2.424  1.00  0.00     0.040 A 
BRANCH   6  11
ATOM     11  O   UNL     1       1.109  -0.244   2.294  1.00  0.00    -0.495 OA
ATOM     12  C   UNL     1      -0.095  -0.981   2.389  1.00  0.00     0.278 C 
ENDBRANCH   6  11
BRANCH   8  13
ATOM     13  S   UNL     1       3.360   1.004   0.893  1.00  0.00     0.265 S 
ATOM     14  O   UNL     1       4.190   2.045   0.323  1.00  0.00    -0.201 OA
ATOM     15  O   UNL     1       3.976  -0.060   1.658  1.00  0.00    -0.201 OA
BRANCH  13  16
ATOM     16  N   UNL     1       2.498   0.244  -0.352  1.00  0.00    -0.278 N 
ATOM     17  H   UNL     1       2.817  -0.630  -0.673  1.00  0.00     0.180 HD
BRANCH  16  18
ATOM     18  C   UNL     1       1.327   0.807  -0.964  1.00  0.00     0.071 A 
ATOM     19  C   UNL     1       0.141   0.092  -0.764  1.00  0.00     0.078 A 
ATOM     20  C   UNL     1       1.273   1.982  -1.731  1.00  0.00     0.069 A 
ATOM     21  C   UNL     1      -1.081   0.617  -1.166  1.00  0.00     0.163 A 
ATOM     22  C   UNL     1       0.048   2.433  -2.254  1.00  0.00     0.073 A 
ATOM     23  Cl  UNL     1       2.675   2.883  -2.160  1.00  0.00    -0.082 Cl
ATOM     24  C   UNL     1      -1.132   1.767  -1.940  1.00  0.00     0.162 A 
BRANCH  21  25
ATOM     25  O   UNL     1      -2.217   0.007  -0.708  1.00  0.00    -0.489 OA
BRANCH  25  26
ATOM     26  C   UNL     1      -2.879   0.900   0.201  1.00  0.00     0.233 C 
BRANCH  26  27
ATOM     27  C   UNL     1      -3.834   1.837  -0.525  1.00  0.00     0.083 CG0
ATOM     28  G   UNL     1      -3.134   2.822  -1.460  1.00  0.00     0.000 G0
ENDBRANCH  26  27
ENDBRANCH  25  26
ENDBRANCH  21  25
BRANCH  24  29
ATOM     29  O   UNL     1      -2.316   2.209  -2.460  1.00  0.00    -0.490 OA
BRANCH  29  30
ATOM     30  C   UNL     1      -3.134   2.822  -1.460  1.00  0.00     0.233 CG0
ATOM     31  G   UNL     1      -3.834   1.837  -0.525  1.00  0.00     0.000 G0
ENDBRANCH  29  30
ENDBRANCH  24  29
ENDBRANCH  16  18
ENDBRANCH  13  16
ENDBRANCH   8  13
ENDBRANCH   1   5
BRANCH   3  32
ATOM     32  C   UNL     1       4.102   3.285   5.168  1.00  0.00     0.118 C 
BRANCH  32  33
ATOM     33  C   UNL     1       5.481   3.495   4.547  1.00  0.00     0.042 C 
BRANCH  33  34
ATOM     34  C   UNL     1       6.396   4.358   5.411  1.00  0.00     0.118 C 
BRANCH  34  35
ATOM     35  N   UNL     1       6.976   3.617   6.522  1.00  0.00    -0.352 N 
ATOM     36  C   UNL     1       8.275   3.623   6.973  1.00  0.00     0.251 C 
ATOM     37  H   UNL     1       6.355   3.034   7.017  1.00  0.00     0.163 HD
ATOM     38  O   UNL     1       8.637   2.821   7.828  1.00  0.00    -0.269 OA
BRANCH  36  39
ATOM     39  C   UNL     1       9.246   4.588   6.412  1.00  0.00     0.039 A 
ATOM     40  C   UNL     1      10.511   4.132   6.026  1.00  0.00     0.014 A 
ATOM     41  C   UNL     1       8.917   5.940   6.285  1.00  0.00     0.014 A 
ATOM     42  C   UNL     1      11.429   5.023   5.464  1.00  0.00     0.010 A 
ATOM     43  C   UNL     1       9.813   6.816   5.677  1.00  0.00     0.010 A 
ATOM     44  C   UNL     1      11.078   6.367   5.266  1.00  0.00    -0.014 A 
BRANCH  44  45
ATOM     45  C   UNL     1      12.023   7.337   4.659  1.00  0.00     0.031 A 
ATOM     46  C   UNL     1      12.559   8.473   5.485  1.00  0.00     0.074 A 
ATOM     47  C   UNL     1      12.333   7.250   3.352  1.00  0.00     0.049 A 
ATOM     48  N   UNL     1      13.282   9.498   5.112  1.00  0.00    -0.248 NA
ATOM     49  C   UNL     1      12.211   8.468   6.915  1.00  0.00     0.031 C 
ATOM     50  C   UNL     1      11.860   6.213   2.434  1.00  0.00     0.029 A 
ATOM     51  N   UNL     1      13.108   8.065   2.565  1.00  0.00    -0.354 N 
ATOM     52  C   UNL     1      13.449  10.274   6.252  1.00  0.00     0.074 A 
ATOM     53  C   UNL     1      12.726   9.619   7.321  1.00  0.00     0.031 C 
ATOM     54  C   UNL     1      12.360   6.451   1.210  1.00  0.00     0.029 A 
ATOM     55  C   UNL     1      13.155   7.674   1.249  1.00  0.00     0.049 A 
ATOM     56  H   UNL     1      13.584   8.854   2.911  1.00  0.00     0.167 HD
ATOM     57  C   UNL     1      14.150  11.424   6.400  1.00  0.00     0.031 A 
ATOM     58  C   UNL     1      13.759   8.245   0.190  1.00  0.00     0.031 A 
ATOM     59  C   UNL     1      14.884  12.068   5.345  1.00  0.00     0.049 A 
ATOM     60  C   UNL     1      14.540   9.514   0.380  1.00  0.00     0.074 A 
ATOM     61  C   UNL     1      15.659  13.212   5.407  1.00  0.00     0.029 A 
ATOM     62  N   UNL     1      14.938  11.616   4.036  1.00  0.00    -0.354 N 
ATOM     63  N   UNL     1      14.719  10.217   1.472  1.00  0.00    -0.248 NA
ATOM     64  C   UNL     1      15.210  10.064  -0.808  1.00  0.00     0.031 C 
ATOM     65  C   UNL     1      16.160  13.470   4.126  1.00  0.00     0.029 A 
ATOM     66  C   UNL     1      15.728  12.463   3.278  1.00  0.00     0.049 A 
ATOM     67  H   UNL     1      14.482  10.812   3.696  1.00  0.00     0.167 HD
ATOM     68  C   UNL     1      15.541  11.276   1.110  1.00  0.00     0.074 A 
ATOM     69  C   UNL     1      15.833  11.119  -0.300  1.00  0.00     0.031 C 
ATOM     70  C   UNL     1      16.015  12.286   1.879  1.00  0.00     0.031 A 
BRANCH  57  71
ATOM     71  C   UNL     1      14.140  12.061   7.761  1.00  0.00    -0.014 A 
ATOM     72  C   UNL     1      14.845  11.492   8.833  1.00  0.00     0.009 A 
ATOM     73  C   UNL     1      13.425  13.250   7.970  1.00  0.00     0.009 A 
ATOM     74  C   UNL     1      14.801  12.081  10.099  1.00  0.00     0.001 A 
ATOM     75  C   UNL     1      13.404  13.850   9.230  1.00  0.00     0.001 A 
ATOM     76  C   UNL     1      14.083  13.260  10.296  1.00  0.00     0.000 A 
ENDBRANCH  57  71
BRANCH  58  77
ATOM     77  C   UNL     1      13.658   7.609  -1.148  1.00  0.00    -0.014 A 
ATOM     78  C   UNL     1      14.757   6.929  -1.694  1.00  0.00     0.009 A 
ATOM     79  C   UNL     1      12.462   7.668  -1.878  1.00  0.00     0.009 A 
ATOM     80  C   UNL     1      14.665   6.337  -2.955  1.00  0.00     0.001 A 
ATOM     81  C   UNL     1      12.366   7.055  -3.129  1.00  0.00     0.001 A 
ATOM     82  C   UNL     1      13.469   6.396  -3.669  1.00  0.00     0.000 A 
ENDBRANCH  58  77
BRANCH  70  83
ATOM     83  C   UNL     1      16.931  13.277   1.224  1.00  0.00    -0.014 A 
ATOM     84  C   UNL     1      16.434  14.274   0.371  1.00  0.00     0.009 A 
ATOM     85  C   UNL     1      18.305  13.242   1.507  1.00  0.00     0.009 A 
ATOM     86  C   UNL     1      17.302  15.204  -0.204  1.00  0.00     0.001 A 
ATOM     87  C   UNL     1      19.166  14.186   0.948  1.00  0.00     0.001 A 
ATOM     88  C   UNL     1      18.665  15.162   0.088  1.00  0.00     0.000 A 
ENDBRANCH  70  83
ENDBRANCH  44  45
ENDBRANCH  36  39
ENDBRANCH  34  35
ENDBRANCH  33  34
ENDBRANCH  32  33
ENDBRANCH   3  32
TORSDOF 14
