REMARK SMILES Cc1cc(C(=O)NCCCNC(=O)c2ccc(-c3c4nc(c(-c5ccccc5)c5ccc([nH]5)c(-c5ccccc5)c5nc(c(-c6ccccc6)c6ccc3[nH]6)C=C5)C=C4)cc2)ccc1NS(=O)(=O)c1c(F)cccc1F
REMARK SMILES IDX 8 1 7 2 5 3 6 4 4 6 1 7 2 8 3 9 64 10 63 11 62 12 65 13
REMARK SMILES IDX 66 15 67 16 68 17 69 18 70 19 75 20 71 21 72 22 74 23 76 24
REMARK SMILES IDX 73 25 9 26 10 27 11 28 12 29 13 31 14 32 15 33 61 34 16 35
REMARK SMILES IDX 60 36 17 37 18 38 19 39 54 40 20 41 59 42 53 43 55 44 21 45
REMARK SMILES IDX 58 46 52 47 51 48 22 50 44 51 29 52 43 53 30 54 33 55 42 56
REMARK SMILES IDX 56 57 31 58 32 59 41 61 57 62 34 63 23 64 24 65 28 66 25 67
REMARK SMILES IDX 27 68 26 69 45 70 46 71 50 72 47 73 49 74 48 75 35 76 36 77
REMARK SMILES IDX 40 78 37 79 39 80 38 81
REMARK H PARENT 7 5 65 14 11 30 55 49 33 60
REMARK Flexibility Score: inf
ROOT
ATOM      1  C   UNL     1      -4.306  -1.641   0.388  1.00  0.00     0.118 C 
ENDROOT
BRANCH   1   2
ATOM      2  N   UNL     1      -3.183  -2.552   0.208  1.00  0.00    -0.352 N 
ATOM      3  C   UNL     1      -1.815  -2.432   0.247  1.00  0.00     0.251 C 
ATOM      4  O   UNL     1      -1.163  -3.455   0.030  1.00  0.00    -0.269 OA
ATOM      5  H   UNL     1      -3.473  -3.472   0.013  1.00  0.00     0.163 HD
BRANCH   3   6
ATOM      6  C   UNL     1      -1.073  -1.152   0.447  1.00  0.00     0.040 A 
ATOM      7  C   UNL     1       2.453   0.029  -0.392  1.00  0.00     0.046 C 
ATOM      8  C   UNL     1       0.994   0.092  -0.024  1.00  0.00    -0.026 A 
ATOM      9  C   UNL     1       0.257  -1.107  -0.009  1.00  0.00     0.019 A 
ATOM     10  C   UNL     1       0.351   1.278   0.350  1.00  0.00     0.052 A 
ATOM     11  C   UNL     1      -0.851   1.186   1.051  1.00  0.00     0.028 A 
ATOM     12  C   UNL     1      -1.569  -0.018   1.080  1.00  0.00     0.016 A 
BRANCH  10  13
ATOM     13  N   UNL     1       0.858   2.506  -0.168  1.00  0.00    -0.279 N 
ATOM     14  H   UNL     1       1.655   2.435  -0.741  1.00  0.00     0.180 HD
BRANCH  13  15
ATOM     15  S   UNL     1       0.270   4.051   0.076  1.00  0.00     0.267 S 
ATOM     16  O   UNL     1       0.453   4.319   1.501  1.00  0.00    -0.201 OA
ATOM     17  O   UNL     1       0.889   4.870  -0.924  1.00  0.00    -0.201 OA
BRANCH  15  18
ATOM     18  C   UNL     1      -1.455   4.075  -0.242  1.00  0.00     0.158 A 
ATOM     19  C   UNL     1      -2.233   4.977   0.474  1.00  0.00     0.146 A 
ATOM     20  C   UNL     1      -2.080   3.147  -1.062  1.00  0.00     0.146 A 
ATOM     21  F   UNL     1      -1.673   5.952   1.202  1.00  0.00    -0.205 F 
ATOM     22  C   UNL     1      -3.624   4.895   0.457  1.00  0.00     0.041 A 
ATOM     23  C   UNL     1      -3.475   3.044  -1.074  1.00  0.00     0.041 A 
ATOM     24  F   UNL     1      -1.383   2.296  -1.824  1.00  0.00    -0.205 F 
ATOM     25  C   UNL     1      -4.250   3.902  -0.294  1.00  0.00     0.006 A 
ENDBRANCH  15  18
ENDBRANCH  13  15
ENDBRANCH  10  13
ENDBRANCH   3   6
ENDBRANCH   1   2
BRANCH   1  26
ATOM     26  C   UNL     1      -4.589  -0.769  -0.836  1.00  0.00     0.042 C 
BRANCH  26  27
ATOM     27  C   UNL     1      -5.881  -1.163  -1.552  1.00  0.00     0.118 C 
BRANCH  27  28
ATOM     28  N   UNL     1      -7.068  -0.394  -1.158  1.00  0.00    -0.352 N 
ATOM     29  C   UNL     1      -8.401  -0.639  -1.464  1.00  0.00     0.251 C 
ATOM     30  H   UNL     1      -6.897   0.401  -0.604  1.00  0.00     0.163 HD
ATOM     31  O   UNL     1      -9.284   0.112  -1.068  1.00  0.00    -0.269 OA
BRANCH  29  32
ATOM     32  C   UNL     1      -8.747  -1.909  -2.143  1.00  0.00     0.039 A 
ATOM     33  C   UNL     1      -9.588  -2.784  -1.450  1.00  0.00     0.014 A 
ATOM     34  C   UNL     1      -7.958  -2.359  -3.196  1.00  0.00     0.014 A 
ATOM     35  C   UNL     1      -9.376  -4.151  -1.577  1.00  0.00     0.010 A 
ATOM     36  C   UNL     1      -7.682  -3.709  -3.258  1.00  0.00     0.010 A 
ATOM     37  C   UNL     1      -8.319  -4.587  -2.375  1.00  0.00    -0.014 A 
BRANCH  37  38
ATOM     38  C   UNL     1      -7.776  -5.934  -2.287  1.00  0.00     0.031 A 
ATOM     39  C   UNL     1      -8.214  -6.939  -3.269  1.00  0.00     0.074 A 
ATOM     40  C   UNL     1      -6.901  -6.288  -1.317  1.00  0.00     0.049 A 
ATOM     41  N   UNL     1      -8.352  -8.194  -3.009  1.00  0.00    -0.248 NA
ATOM     42  C   UNL     1      -8.593  -6.577  -4.629  1.00  0.00     0.031 C 
ATOM     43  C   UNL     1      -6.187  -7.559  -1.207  1.00  0.00     0.029 A 
ATOM     44  N   UNL     1      -6.645  -5.661  -0.097  1.00  0.00    -0.354 N 
ATOM     45  C   UNL     1      -8.498  -8.835  -4.216  1.00  0.00     0.074 A 
ATOM     46  C   UNL     1      -8.764  -7.784  -5.173  1.00  0.00     0.031 C 
ATOM     47  C   UNL     1      -5.872  -7.763   0.081  1.00  0.00     0.029 A 
ATOM     48  C   UNL     1      -6.481  -6.692   0.848  1.00  0.00     0.049 A 
ATOM     49  H   UNL     1      -6.589  -4.692   0.070  1.00  0.00     0.167 HD
ATOM     50  C   UNL     1      -8.207 -10.163  -4.314  1.00  0.00     0.031 A 
ATOM     51  C   UNL     1      -7.285  -6.851   1.941  1.00  0.00     0.031 A 
ATOM     52  C   UNL     1      -7.831 -10.741  -3.021  1.00  0.00     0.049 A 
ATOM     53  C   UNL     1      -8.008  -8.188   1.977  1.00  0.00     0.074 A 
ATOM     54  C   UNL     1      -6.620 -11.107  -2.454  1.00  0.00     0.029 A 
ATOM     55  N   UNL     1      -8.751 -10.733  -1.981  1.00  0.00    -0.354 N 
ATOM     56  N   UNL     1      -7.931  -9.094   1.043  1.00  0.00    -0.248 NA
ATOM     57  C   UNL     1      -8.972  -8.554   3.014  1.00  0.00     0.031 C 
ATOM     58  C   UNL     1      -6.821 -11.311  -1.060  1.00  0.00     0.029 A 
ATOM     59  C   UNL     1      -8.157 -11.091  -0.783  1.00  0.00     0.049 A 
ATOM     60  H   UNL     1      -9.702 -10.502  -2.083  1.00  0.00     0.167 HD
ATOM     61  C   UNL     1      -8.819 -10.110   1.294  1.00  0.00     0.074 A 
ATOM     62  C   UNL     1      -9.452  -9.719   2.542  1.00  0.00     0.031 C 
ATOM     63  C   UNL     1      -8.975 -11.158   0.425  1.00  0.00     0.031 A 
BRANCH  50  64
ATOM     64  C   UNL     1      -7.969 -10.844  -5.644  1.00  0.00    -0.014 A 
ATOM     65  C   UNL     1      -7.091 -11.940  -5.721  1.00  0.00     0.009 A 
ATOM     66  C   UNL     1      -8.530 -10.424  -6.863  1.00  0.00     0.009 A 
ATOM     67  C   UNL     1      -6.706 -12.499  -6.948  1.00  0.00     0.001 A 
ATOM     68  C   UNL     1      -8.115 -10.944  -8.097  1.00  0.00     0.001 A 
ATOM     69  C   UNL     1      -7.190 -11.976  -8.139  1.00  0.00     0.000 A 
ENDBRANCH  50  64
BRANCH  51  70
ATOM     70  C   UNL     1      -7.837  -5.566   2.451  1.00  0.00    -0.014 A 
ATOM     71  C   UNL     1      -6.922  -4.636   2.986  1.00  0.00     0.009 A 
ATOM     72  C   UNL     1      -9.085  -5.107   2.009  1.00  0.00     0.009 A 
ATOM     73  C   UNL     1      -7.175  -3.265   2.904  1.00  0.00     0.001 A 
ATOM     74  C   UNL     1      -9.339  -3.732   1.952  1.00  0.00     0.001 A 
ATOM     75  C   UNL     1      -8.364  -2.814   2.342  1.00  0.00     0.000 A 
ENDBRANCH  51  70
BRANCH  63  76
ATOM     76  C   UNL     1      -9.917 -12.341   0.574  1.00  0.00    -0.014 A 
ATOM     77  C   UNL     1     -10.548 -12.729   1.761  1.00  0.00     0.009 A 
ATOM     78  C   UNL     1     -10.147 -13.182  -0.543  1.00  0.00     0.009 A 
ATOM     79  C   UNL     1     -11.424 -13.827   1.807  1.00  0.00     0.001 A 
ATOM     80  C   UNL     1     -11.005 -14.284  -0.503  1.00  0.00     0.001 A 
ATOM     81  C   UNL     1     -11.661 -14.597   0.674  1.00  0.00     0.000 A 
ENDBRANCH  63  76
ENDBRANCH  37  38
ENDBRANCH  29  32
ENDBRANCH  27  28
ENDBRANCH  26  27
ENDBRANCH   1  26
TORSDOF 13
