REMARK SMILES CCc1cc(Nc2ccc(C(=O)NCCCNC(=O)c3ccc(-c4c5nc(c(-c6ccccc6)c6ccc([nH]6)c(-c6ccccc6)c6nc(c(-c7ccccc7)c7ccc4[nH]7)C=C6)C=C5)cc3)cc2)nc(C(C)C)n1
REMARK SMILES IDX 14 1 13 2 11 3 12 4 10 6 7 7 8 8 69 9 9 10 68 11 6 12 5 14
REMARK SMILES IDX 3 15 4 16 75 17 71 18 70 19 2 20 1 21 72 22 73 23 74 24
REMARK SMILES IDX 15 25 16 26 17 27 18 28 19 30 20 31 21 32 67 33 22 34 66 35
REMARK SMILES IDX 23 36 24 37 25 38 60 39 26 40 65 41 59 42 61 43 27 44 64 45
REMARK SMILES IDX 58 46 57 47 28 49 50 50 35 51 49 52 36 53 39 54 48 55 62 56
REMARK SMILES IDX 37 57 38 58 47 60 63 61 40 62 29 63 30 64 34 65 31 66 33 67
REMARK SMILES IDX 32 68 51 69 52 70 56 71 53 72 55 73 54 74 41 75 42 76 46 77
REMARK SMILES IDX 43 78 45 79 44 80
REMARK H PARENT 13 5 6 13 17 29 61 48 39 59
REMARK Flexibility Score: inf
ROOT
ATOM      1  C   UNL     1       5.162  -9.901   2.790  1.00  0.00     0.118 C 
ENDROOT
BRANCH   1   2
ATOM      2  N   UNL     1       5.333  -9.527   4.182  1.00  0.00    -0.352 N 
ATOM      3  C   UNL     1       5.094  -8.359   4.858  1.00  0.00     0.251 C 
ATOM      4  O   UNL     1       5.291  -8.355   6.073  1.00  0.00    -0.269 OA
ATOM      5  H   UNL     1       5.689 -10.250   4.748  1.00  0.00     0.163 HD
BRANCH   3   6
ATOM      6  C   UNL     1       4.563  -7.130   4.207  1.00  0.00     0.039 A 
ATOM      7  C   UNL     1       3.425  -4.777   3.127  1.00  0.00     0.040 A 
ATOM      8  C   UNL     1       3.215  -5.119   4.466  1.00  0.00     0.027 A 
ATOM      9  C   UNL     1       4.229  -5.610   2.345  1.00  0.00     0.027 A 
ATOM     10  C   UNL     1       3.772  -6.286   4.999  1.00  0.00     0.016 A 
ATOM     11  C   UNL     1       4.826  -6.753   2.889  1.00  0.00     0.016 A 
BRANCH   7  12
ATOM     12  N   UNL     1       2.775  -3.661   2.580  1.00  0.00    -0.340 N 
ATOM     13  H   UNL     1       2.872  -2.812   3.069  1.00  0.00     0.168 HD
BRANCH  12  14
ATOM     14  C   UNL     1       1.997  -3.623   1.404  1.00  0.00     0.134 A 
ATOM     15  C   UNL     1       0.888  -2.360  -0.259  1.00  0.00     0.046 A 
ATOM     16  C   UNL     1       1.695  -2.387   0.861  1.00  0.00     0.071 A 
ATOM     17  N   UNL     1       0.416  -3.497  -0.809  1.00  0.00    -0.238 NA
ATOM     18  C   UNL     1       0.768  -4.662  -0.233  1.00  0.00     0.133 A 
ATOM     19  N   UNL     1       1.560  -4.763   0.846  1.00  0.00    -0.216 NA
BRANCH  15  20
ATOM     20  C   UNL     1       0.465  -1.089  -0.951  1.00  0.00     0.053 C 
ATOM     21  C   UNL     1       0.845   0.223  -0.276  1.00  0.00     0.011 C 
ENDBRANCH  15  20
BRANCH  18  22
ATOM     22  C   UNL     1       0.204  -5.944  -0.804  1.00  0.00     0.051 C 
ATOM     23  C   UNL     1      -1.322  -5.956  -0.706  1.00  0.00     0.016 C 
ATOM     24  C   UNL     1       0.662  -6.154  -2.245  1.00  0.00     0.016 C 
ENDBRANCH  18  22
ENDBRANCH  12  14
ENDBRANCH   7  12
ENDBRANCH   3   6
ENDBRANCH   1   2
BRANCH   1  25
ATOM     25  C   UNL     1       6.496  -9.862   2.044  1.00  0.00     0.042 C 
BRANCH  25  26
ATOM     26  C   UNL     1       7.429 -11.012   2.414  1.00  0.00     0.118 C 
BRANCH  26  27
ATOM     27  N   UNL     1       6.961 -12.286   1.888  1.00  0.00    -0.352 N 
ATOM     28  C   UNL     1       7.602 -13.197   1.087  1.00  0.00     0.251 C 
ATOM     29  H   UNL     1       6.043 -12.531   2.146  1.00  0.00     0.163 HD
ATOM     30  O   UNL     1       6.963 -14.113   0.579  1.00  0.00    -0.269 OA
BRANCH  28  31
ATOM     31  C   UNL     1       9.053 -13.081   0.822  1.00  0.00     0.039 A 
ATOM     32  C   UNL     1       9.522 -13.352  -0.468  1.00  0.00     0.014 A 
ATOM     33  C   UNL     1       9.956 -12.764   1.841  1.00  0.00     0.014 A 
ATOM     34  C   UNL     1      10.888 -13.261  -0.746  1.00  0.00     0.010 A 
ATOM     35  C   UNL     1      11.310 -12.610   1.548  1.00  0.00     0.010 A 
ATOM     36  C   UNL     1      11.790 -12.866   0.254  1.00  0.00    -0.014 A 
BRANCH  36  37
ATOM     37  C   UNL     1      13.239 -12.725  -0.031  1.00  0.00     0.031 A 
ATOM     38  C   UNL     1      14.234 -13.643   0.623  1.00  0.00     0.074 A 
ATOM     39  C   UNL     1      13.665 -11.731  -0.833  1.00  0.00     0.049 A 
ATOM     40  N   UNL     1      15.540 -13.643   0.534  1.00  0.00    -0.248 NA
ATOM     41  C   UNL     1      13.691 -14.682   1.510  1.00  0.00     0.031 C 
ATOM     42  C   UNL     1      12.804 -10.757  -1.507  1.00  0.00     0.029 A 
ATOM     43  N   UNL     1      14.933 -11.375  -1.214  1.00  0.00    -0.354 N 
ATOM     44  C   UNL     1      15.975 -14.661   1.372  1.00  0.00     0.074 A 
ATOM     45  C   UNL     1      14.797 -15.231   1.990  1.00  0.00     0.031 C 
ATOM     46  C   UNL     1      13.566  -9.936  -2.246  1.00  0.00     0.029 A 
ATOM     47  C   UNL     1      14.969 -10.300  -2.067  1.00  0.00     0.049 A 
ATOM     48  H   UNL     1      15.741 -11.846  -0.906  1.00  0.00     0.167 HD
ATOM     49  C   UNL     1      17.239 -15.093   1.598  1.00  0.00     0.031 A 
ATOM     50  C   UNL     1      16.013  -9.675  -2.641  1.00  0.00     0.031 A 
ATOM     51  C   UNL     1      18.409 -14.536   0.974  1.00  0.00     0.049 A 
ATOM     52  C   UNL     1      17.407 -10.160  -2.361  1.00  0.00     0.074 A 
ATOM     53  C   UNL     1      19.726 -14.950   1.082  1.00  0.00     0.029 A 
ATOM     54  N   UNL     1      18.403 -13.438   0.128  1.00  0.00    -0.354 N 
ATOM     55  N   UNL     1      17.797 -11.166  -1.618  1.00  0.00    -0.248 NA
ATOM     56  C   UNL     1      18.503  -9.422  -3.005  1.00  0.00     0.031 C 
ATOM     57  C   UNL     1      20.523 -14.071   0.340  1.00  0.00     0.029 A 
ATOM     58  C   UNL     1      19.696 -13.141  -0.270  1.00  0.00     0.049 A 
ATOM     59  H   UNL     1      17.599 -12.943  -0.149  1.00  0.00     0.167 HD
ATOM     60  C   UNL     1      19.181 -11.202  -1.726  1.00  0.00     0.074 A 
ATOM     61  C   UNL     1      19.560 -10.120  -2.614  1.00  0.00     0.031 C 
ATOM     62  C   UNL     1      20.058 -12.057  -1.147  1.00  0.00     0.031 A 
BRANCH  49  63
ATOM     63  C   UNL     1      17.415 -16.215   2.584  1.00  0.00    -0.014 A 
ATOM     64  C   UNL     1      16.992 -17.521   2.289  1.00  0.00     0.009 A 
ATOM     65  C   UNL     1      18.021 -15.963   3.825  1.00  0.00     0.009 A 
ATOM     66  C   UNL     1      17.127 -18.540   3.235  1.00  0.00     0.001 A 
ATOM     67  C   UNL     1      18.182 -16.989   4.757  1.00  0.00     0.001 A 
ATOM     68  C   UNL     1      17.724 -18.273   4.467  1.00  0.00     0.000 A 
ENDBRANCH  49  63
BRANCH  50  69
ATOM     69  C   UNL     1      15.776  -8.542  -3.571  1.00  0.00    -0.014 A 
ATOM     70  C   UNL     1      15.954  -8.717  -4.952  1.00  0.00     0.009 A 
ATOM     71  C   UNL     1      15.356  -7.292  -3.092  1.00  0.00     0.009 A 
ATOM     72  C   UNL     1      15.732  -7.658  -5.834  1.00  0.00     0.001 A 
ATOM     73  C   UNL     1      15.113  -6.241  -3.979  1.00  0.00     0.001 A 
ATOM     74  C   UNL     1      15.307  -6.423  -5.348  1.00  0.00     0.000 A 
ENDBRANCH  50  69
BRANCH  62  75
ATOM     75  C   UNL     1      21.511 -11.876  -1.480  1.00  0.00    -0.014 A 
ATOM     76  C   UNL     1      22.253 -10.811  -0.946  1.00  0.00     0.009 A 
ATOM     77  C   UNL     1      22.154 -12.804  -2.315  1.00  0.00     0.009 A 
ATOM     78  C   UNL     1      23.604 -10.663  -1.267  1.00  0.00     0.001 A 
ATOM     79  C   UNL     1      23.510 -12.668  -2.612  1.00  0.00     0.001 A 
ATOM     80  C   UNL     1      24.232 -11.593  -2.095  1.00  0.00     0.000 A 
ENDBRANCH  62  75
ENDBRANCH  36  37
ENDBRANCH  28  31
ENDBRANCH  26  27
ENDBRANCH  25  26
ENDBRANCH   1  25
TORSDOF 14
