REMARK SMILES Cc1ccc(-c2nn(-c3ccccc3)cc2[C@@H]2[NH2+][C@H](C(=O)NCCCNC(=O)c3ccc(-c4c5nc(c(-c6ccccc6)c6ccc([nH]6)c(-c6ccccc6)c6nc(c(-c7ccccc7)c7ccc4[nH]7)C=C6)C=C5)cc3)CS2)cc1
REMARK SMILES IDX 24 1 23 2 22 3 20 4 21 5 19 7 17 8 18 9 78 10 77 13 16 14
REMARK SMILES IDX 6 15 7 16 8 17 15 18 5 19 1 20 2 21 3 22 80 23 4 24 79 25
REMARK SMILES IDX 9 26 10 27 14 28 11 29 13 30 12 31 25 32 26 33 27 34 28 36
REMARK SMILES IDX 29 37 30 38 76 39 31 40 75 41 32 42 33 43 34 44 69 45 35 46
REMARK SMILES IDX 74 47 68 48 70 49 36 50 73 51 67 52 66 53 37 55 59 56 44 57
REMARK SMILES IDX 58 58 45 59 48 60 57 61 71 62 46 63 47 64 56 66 72 67 49 68
REMARK SMILES IDX 38 69 39 70 43 71 40 72 42 73 41 74 60 75 61 76 65 77 62 78
REMARK SMILES IDX 64 79 63 80 50 81 51 82 55 83 52 84 54 85 53 86
REMARK H PARENT 22 6 18 11 18 12 26 35 70 54 48 65
REMARK Flexibility Score: inf
ROOT
ATOM      1  C   UNL     1      -4.402  -1.705  -1.137  1.00  0.00     0.042 C 
ENDROOT
BRANCH   1   2
ATOM      2  C   UNL     1      -5.802  -1.506  -0.554  1.00  0.00     0.118 C 
BRANCH   2   3
ATOM      3  N   UNL     1      -6.314  -2.706   0.092  1.00  0.00    -0.351 N 
ATOM      4  C   UNL     1      -6.174  -3.201   1.351  1.00  0.00     0.279 C 
ATOM      5  O   UNL     1      -6.795  -4.241   1.606  1.00  0.00    -0.268 OA
ATOM      6  H   UNL     1      -6.870  -3.267  -0.496  1.00  0.00     0.163 HD
BRANCH   4   7
ATOM      7  C   UNL     1      -5.377  -2.514   2.470  1.00  0.00     0.283 C 
ATOM      8  C   UNL     1      -3.887  -0.615   2.774  1.00  0.00     0.278 C 
ATOM      9  N   UNL     1      -4.150  -1.836   1.997  1.00  0.00    -0.320 N 
ATOM     10  S   UNL     1      -5.060  -0.567   4.151  1.00  0.00    -0.087 SA
ATOM     11  H   UNL     1      -3.358  -2.471   2.098  1.00  0.00     0.348 HD
ATOM     12  H   UNL     1      -4.279  -1.577   1.020  1.00  0.00     0.348 HD
ATOM     13  C   UNL     1      -6.265  -1.574   3.263  1.00  0.00     0.151 C 
BRANCH   8  14
ATOM     14  C   UNL     1      -4.041   0.533   1.818  1.00  0.00     0.067 A 
ATOM     15  C   UNL     1      -3.093   1.024   0.864  1.00  0.00     0.103 A 
ATOM     16  N   UNL     1      -3.684   1.871   0.005  1.00  0.00    -0.167 NA
ATOM     17  N   UNL     1      -4.944   2.044   0.450  1.00  0.00    -0.240 N 
ATOM     18  C   UNL     1      -5.156   1.337   1.605  1.00  0.00     0.126 A 
BRANCH  15  19
ATOM     19  C   UNL     1      -1.675   0.701   0.649  1.00  0.00     0.003 A 
ATOM     20  C   UNL     1       2.512  -0.080  -0.127  1.00  0.00     0.044 C 
ATOM     21  C   UNL     1       1.063   0.198   0.143  1.00  0.00    -0.051 A 
ATOM     22  C   UNL     1       0.186  -0.853   0.427  1.00  0.00     0.004 A 
ATOM     23  C   UNL     1       0.560   1.498   0.081  1.00  0.00     0.004 A 
ATOM     24  C   UNL     1      -1.169  -0.602   0.681  1.00  0.00     0.011 A 
ATOM     25  C   UNL     1      -0.793   1.745   0.328  1.00  0.00     0.011 A 
ENDBRANCH  15  19
BRANCH  17  26
ATOM     26  C   UNL     1      -5.892   2.809  -0.286  1.00  0.00     0.065 A 
ATOM     27  C   UNL     1      -5.654   3.084  -1.639  1.00  0.00     0.028 A 
ATOM     28  C   UNL     1      -7.069   3.280   0.308  1.00  0.00     0.028 A 
ATOM     29  C   UNL     1      -6.578   3.807  -2.395  1.00  0.00     0.002 A 
ATOM     30  C   UNL     1      -7.967   4.050  -0.440  1.00  0.00     0.002 A 
ATOM     31  C   UNL     1      -7.722   4.312  -1.789  1.00  0.00     0.000 A 
ENDBRANCH  17  26
ENDBRANCH   8  14
ENDBRANCH   4   7
ENDBRANCH   2   3
ENDBRANCH   1   2
BRANCH   1  32
ATOM     32  C   UNL     1      -4.185  -1.007  -2.470  1.00  0.00     0.118 C 
BRANCH  32  33
ATOM     33  N   UNL     1      -3.489   0.281  -2.499  1.00  0.00    -0.352 N 
ATOM     34  C   UNL     1      -3.310   1.107  -3.612  1.00  0.00     0.251 C 
ATOM     35  H   UNL     1      -3.108   0.596  -1.648  1.00  0.00     0.163 HD
ATOM     36  O   UNL     1      -2.702   2.153  -3.595  1.00  0.00    -0.269 OA
BRANCH  34  37
ATOM     37  C   UNL     1      -4.028   0.689  -4.835  1.00  0.00     0.039 A 
ATOM     38  C   UNL     1      -5.232   1.346  -5.137  1.00  0.00     0.014 A 
ATOM     39  C   UNL     1      -3.757  -0.590  -5.289  1.00  0.00     0.014 A 
ATOM     40  C   UNL     1      -6.283   0.625  -5.701  1.00  0.00     0.010 A 
ATOM     41  C   UNL     1      -4.835  -1.331  -5.709  1.00  0.00     0.010 A 
ATOM     42  C   UNL     1      -6.106  -0.741  -5.894  1.00  0.00    -0.014 A 
BRANCH  42  43
ATOM     43  C   UNL     1      -7.119  -1.697  -6.328  1.00  0.00     0.031 A 
ATOM     44  C   UNL     1      -6.866  -2.396  -7.624  1.00  0.00     0.074 A 
ATOM     45  C   UNL     1      -8.062  -2.183  -5.486  1.00  0.00     0.049 A 
ATOM     46  N   UNL     1      -7.647  -3.271  -8.155  1.00  0.00    -0.248 NA
ATOM     47  C   UNL     1      -5.677  -2.144  -8.442  1.00  0.00     0.031 C 
ATOM     48  C   UNL     1      -8.658  -3.520  -5.579  1.00  0.00     0.029 A 
ATOM     49  N   UNL     1      -8.758  -1.635  -4.415  1.00  0.00    -0.354 N 
ATOM     50  C   UNL     1      -6.915  -3.955  -9.097  1.00  0.00     0.074 A 
ATOM     51  C   UNL     1      -5.741  -3.149  -9.316  1.00  0.00     0.031 C 
ATOM     52  C   UNL     1      -9.790  -3.551  -4.864  1.00  0.00     0.029 A 
ATOM     53  C   UNL     1     -10.051  -2.200  -4.430  1.00  0.00     0.049 A 
ATOM     54  H   UNL     1      -8.414  -0.978  -3.768  1.00  0.00     0.167 HD
ATOM     55  C   UNL     1      -7.330  -5.197  -9.472  1.00  0.00     0.031 A 
ATOM     56  C   UNL     1     -11.202  -1.519  -4.733  1.00  0.00     0.031 A 
ATOM     57  C   UNL     1      -8.682  -5.489  -8.982  1.00  0.00     0.049 A 
ATOM     58  C   UNL     1     -11.892  -1.964  -6.008  1.00  0.00     0.074 A 
ATOM     59  C   UNL     1      -9.239  -6.336  -8.038  1.00  0.00     0.029 A 
ATOM     60  N   UNL     1      -9.692  -4.606  -9.333  1.00  0.00    -0.354 N 
ATOM     61  N   UNL     1     -11.595  -3.049  -6.668  1.00  0.00    -0.248 NA
ATOM     62  C   UNL     1     -12.888  -1.147  -6.709  1.00  0.00     0.031 C 
ATOM     63  C   UNL     1     -10.592  -5.926  -7.816  1.00  0.00     0.029 A 
ATOM     64  C   UNL     1     -10.860  -4.851  -8.642  1.00  0.00     0.049 A 
ATOM     65  H   UNL     1      -9.587  -3.888  -9.998  1.00  0.00     0.167 HD
ATOM     66  C   UNL     1     -12.226  -3.029  -7.881  1.00  0.00     0.074 A 
ATOM     67  C   UNL     1     -13.053  -1.837  -7.850  1.00  0.00     0.031 C 
ATOM     68  C   UNL     1     -11.976  -3.944  -8.862  1.00  0.00     0.031 A 
BRANCH  55  69
ATOM     69  C   UNL     1      -6.449  -6.222 -10.152  1.00  0.00    -0.014 A 
ATOM     70  C   UNL     1      -6.869  -7.563 -10.208  1.00  0.00     0.009 A 
ATOM     71  C   UNL     1      -5.179  -5.964 -10.697  1.00  0.00     0.009 A 
ATOM     72  C   UNL     1      -6.056  -8.579 -10.732  1.00  0.00     0.001 A 
ATOM     73  C   UNL     1      -4.356  -6.972 -11.217  1.00  0.00     0.001 A 
ATOM     74  C   UNL     1      -4.793  -8.285 -11.228  1.00  0.00     0.000 A 
ENDBRANCH  55  69
BRANCH  56  75
ATOM     75  C   UNL     1     -11.243  -0.152  -4.175  1.00  0.00    -0.014 A 
ATOM     76  C   UNL     1     -11.487  -0.079  -2.792  1.00  0.00     0.009 A 
ATOM     77  C   UNL     1     -10.520   0.862  -4.819  1.00  0.00     0.009 A 
ATOM     78  C   UNL     1     -10.783   0.837  -2.025  1.00  0.00     0.001 A 
ATOM     79  C   UNL     1      -9.814   1.775  -4.042  1.00  0.00     0.001 A 
ATOM     80  C   UNL     1      -9.900   1.708  -2.651  1.00  0.00     0.000 A 
ENDBRANCH  56  75
BRANCH  68  81
ATOM     81  C   UNL     1     -12.735  -3.984 -10.162  1.00  0.00    -0.014 A 
ATOM     82  C   UNL     1     -14.113  -3.730 -10.223  1.00  0.00     0.009 A 
ATOM     83  C   UNL     1     -12.113  -4.411 -11.352  1.00  0.00     0.009 A 
ATOM     84  C   UNL     1     -14.819  -3.828 -11.428  1.00  0.00     0.001 A 
ATOM     85  C   UNL     1     -12.818  -4.534 -12.552  1.00  0.00     0.001 A 
ATOM     86  C   UNL     1     -14.171  -4.229 -12.592  1.00  0.00     0.000 A 
ENDBRANCH  68  81
ENDBRANCH  42  43
ENDBRANCH  34  37
ENDBRANCH  32  33
ENDBRANCH   1  32
TORSDOF 13
