REMARK SMILES CCOC(=O)C1=NN(c2ccc(OC(F)(F)F)cc2)[C@@](C)(C(=O)NCCCNC(=O)c2ccc(-c3c4nc(c(-c5ccccc5)c5ccc([nH]5)c(-c5ccccc5)c5nc(c(-c6ccccc6)c6ccc3[nH]6)C=C5)C=C4)cc2)C1
REMARK SMILES IDX 25 1 24 2 22 3 23 4 20 6 6 7 7 8 79 9 8 10 21 11 4 12 5 13
REMARK SMILES IDX 3 14 2 15 1 16 9 17 10 18 19 19 11 20 18 21 12 22 13 23
REMARK SMILES IDX 14 24 15 25 16 26 17 27 26 28 27 29 28 30 29 31 30 33 31 34
REMARK SMILES IDX 32 35 78 36 33 37 77 38 34 39 35 40 36 41 71 42 37 43 76 44
REMARK SMILES IDX 70 45 72 46 38 47 75 48 69 49 68 50 39 52 61 53 46 54 60 55
REMARK SMILES IDX 47 56 50 57 59 58 73 59 48 60 49 61 58 63 74 64 51 65 40 66
REMARK SMILES IDX 41 67 45 68 42 69 44 70 43 71 62 72 63 73 67 74 64 75 66 76
REMARK SMILES IDX 65 77 52 78 53 79 57 80 54 81 56 82 55 83
REMARK H PARENT 24 5 28 32 72 51 50 62
REMARK Flexibility Score: inf
ROOT
ATOM      1  C   UNL     1       6.160  -3.712  -7.274  1.00  0.00     0.117 C 
ENDROOT
BRANCH   1   2
ATOM      2  N   UNL     1       6.349  -2.696  -6.258  1.00  0.00    -0.354 N 
ATOM      3  C   UNL     1       5.704  -2.399  -5.099  1.00  0.00     0.248 C 
ATOM      4  O   UNL     1       6.120  -1.371  -4.544  1.00  0.00    -0.272 OA
ATOM      5  H   UNL     1       7.105  -2.094  -6.447  1.00  0.00     0.163 HD
BRANCH   3   6
ATOM      6  C   UNL     1       4.575  -3.263  -4.449  1.00  0.00     0.144 C 
ATOM      7  C   UNL     1       3.049  -1.748  -3.603  1.00  0.00     0.149 C 
ATOM      8  N   UNL     1       2.539  -2.091  -4.743  1.00  0.00    -0.169 NA
ATOM      9  C   UNL     1       4.174  -2.581  -3.109  1.00  0.00     0.106 C 
ATOM     10  N   UNL     1       3.297  -3.149  -5.206  1.00  0.00    -0.249 N 
ATOM     11  C   UNL     1       5.063  -4.662  -4.092  1.00  0.00     0.048 C 
BRANCH   7  12
ATOM     12  C   UNL     1       2.510  -0.641  -2.744  1.00  0.00     0.354 C 
ATOM     13  O   UNL     1       3.199   0.294  -2.385  1.00  0.00    -0.245 OA
BRANCH  12  14
ATOM     14  O   UNL     1       1.235  -0.919  -2.404  1.00  0.00    -0.461 OA
BRANCH  14  15
ATOM     15  C   UNL     1       0.595   0.055  -1.569  1.00  0.00     0.230 C 
ATOM     16  C   UNL     1       0.884  -0.235  -0.108  1.00  0.00     0.049 C 
ENDBRANCH  14  15
ENDBRANCH  12  14
ENDBRANCH   7  12
BRANCH  10  17
ATOM     17  C   UNL     1       2.792  -3.854  -6.288  1.00  0.00     0.061 A 
ATOM     18  C   UNL     1       1.933  -3.217  -7.202  1.00  0.00     0.032 A 
ATOM     19  C   UNL     1       3.041  -5.208  -6.533  1.00  0.00     0.032 A 
ATOM     20  C   UNL     1       1.419  -3.868  -8.331  1.00  0.00     0.049 A 
ATOM     21  C   UNL     1       2.528  -5.875  -7.661  1.00  0.00     0.049 A 
ATOM     22  C   UNL     1       1.729  -5.201  -8.578  1.00  0.00     0.129 A 
BRANCH  22  23
ATOM     23  O   UNL     1       1.184  -5.713  -9.719  1.00  0.00    -0.406 OA
BRANCH  23  24
ATOM     24  C   UNL     1       1.565  -7.023 -10.099  1.00  0.00     0.573 C 
ATOM     25  F   UNL     1       2.905  -7.122 -10.240  1.00  0.00    -0.132 F 
ATOM     26  F   UNL     1       1.139  -7.934  -9.198  1.00  0.00    -0.132 F 
ATOM     27  F   UNL     1       0.996  -7.312 -11.290  1.00  0.00    -0.132 F 
ENDBRANCH  23  24
ENDBRANCH  22  23
ENDBRANCH  10  17
ENDBRANCH   3   6
ENDBRANCH   1   2
BRANCH   1  28
ATOM     28  C   UNL     1       5.464  -3.175  -8.522  1.00  0.00     0.042 C 
BRANCH  28  29
ATOM     29  C   UNL     1       6.219  -2.075  -9.262  1.00  0.00     0.118 C 
BRANCH  29  30
ATOM     30  N   UNL     1       7.445  -2.547  -9.885  1.00  0.00    -0.352 N 
ATOM     31  C   UNL     1       7.776  -2.689 -11.210  1.00  0.00     0.251 C 
ATOM     32  H   UNL     1       8.154  -2.808  -9.253  1.00  0.00     0.163 HD
ATOM     33  O   UNL     1       8.814  -3.272 -11.511  1.00  0.00    -0.269 OA
BRANCH  31  34
ATOM     34  C   UNL     1       6.897  -2.173 -12.284  1.00  0.00     0.039 A 
ATOM     35  C   UNL     1       6.669  -2.981 -13.404  1.00  0.00     0.014 A 
ATOM     36  C   UNL     1       6.354  -0.886 -12.236  1.00  0.00     0.014 A 
ATOM     37  C   UNL     1       5.846  -2.530 -14.439  1.00  0.00     0.010 A 
ATOM     38  C   UNL     1       5.499  -0.451 -13.251  1.00  0.00     0.010 A 
ATOM     39  C   UNL     1       5.233  -1.271 -14.357  1.00  0.00    -0.014 A 
BRANCH  39  40
ATOM     40  C   UNL     1       4.303  -0.801 -15.412  1.00  0.00     0.031 A 
ATOM     41  C   UNL     1       4.690   0.326 -16.324  1.00  0.00     0.074 A 
ATOM     42  C   UNL     1       3.077  -1.348 -15.515  1.00  0.00     0.049 A 
ATOM     43  N   UNL     1       3.954   0.973 -17.193  1.00  0.00    -0.248 NA
ATOM     44  C   UNL     1       6.080   0.799 -16.238  1.00  0.00     0.031 C 
ATOM     45  C   UNL     1       2.558  -2.437 -14.687  1.00  0.00     0.029 A 
ATOM     46  N   UNL     1       2.039  -1.046 -16.361  1.00  0.00    -0.354 N 
ATOM     47  C   UNL     1       4.774   1.961 -17.719  1.00  0.00     0.074 A 
ATOM     48  C   UNL     1       6.071   1.815 -17.091  1.00  0.00     0.031 C 
ATOM     49  C   UNL     1       1.304  -2.722 -15.074  1.00  0.00     0.029 A 
ATOM     50  C   UNL     1       0.923  -1.817 -16.154  1.00  0.00     0.049 A 
ATOM     51  H   UNL     1       2.090  -0.345 -17.049  1.00  0.00     0.167 HD
ATOM     52  C   UNL     1       4.473   2.913 -18.633  1.00  0.00     0.031 A 
ATOM     53  C   UNL     1      -0.281  -1.789 -16.754  1.00  0.00     0.031 A 
ATOM     54  C   UNL     1       3.208   3.044 -19.302  1.00  0.00     0.049 A 
ATOM     55  C   UNL     1      -0.567  -0.770 -17.815  1.00  0.00     0.074 A 
ATOM     56  C   UNL     1       2.826   3.974 -20.254  1.00  0.00     0.029 A 
ATOM     57  N   UNL     1       2.125   2.208 -19.101  1.00  0.00    -0.354 N 
ATOM     58  N   UNL     1       0.210   0.179 -18.275  1.00  0.00    -0.248 NA
ATOM     59  C   UNL     1      -1.902  -0.813 -18.429  1.00  0.00     0.031 C 
ATOM     60  C   UNL     1       1.506   3.695 -20.633  1.00  0.00     0.029 A 
ATOM     61  C   UNL     1       1.074   2.592 -19.916  1.00  0.00     0.049 A 
ATOM     62  H   UNL     1       2.104   1.451 -18.471  1.00  0.00     0.167 HD
ATOM     63  C   UNL     1      -0.545   0.855 -19.222  1.00  0.00     0.074 A 
ATOM     64  C   UNL     1      -1.835   0.200 -19.284  1.00  0.00     0.031 C 
ATOM     65  C   UNL     1      -0.200   1.931 -19.967  1.00  0.00     0.031 A 
BRANCH  52  66
ATOM     66  C   UNL     1       5.545   3.911 -18.945  1.00  0.00    -0.014 A 
ATOM     67  C   UNL     1       6.498   3.656 -19.941  1.00  0.00     0.009 A 
ATOM     68  C   UNL     1       5.586   5.127 -18.245  1.00  0.00     0.009 A 
ATOM     69  C   UNL     1       7.489   4.600 -20.219  1.00  0.00     0.001 A 
ATOM     70  C   UNL     1       6.575   6.069 -18.530  1.00  0.00     0.001 A 
ATOM     71  C   UNL     1       7.527   5.804 -19.514  1.00  0.00     0.000 A 
ENDBRANCH  52  66
BRANCH  53  72
ATOM     72  C   UNL     1      -1.324  -2.756 -16.345  1.00  0.00    -0.014 A 
ATOM     73  C   UNL     1      -1.462  -3.973 -17.027  1.00  0.00     0.009 A 
ATOM     74  C   UNL     1      -2.176  -2.466 -15.270  1.00  0.00     0.009 A 
ATOM     75  C   UNL     1      -2.447  -4.884 -16.643  1.00  0.00     0.001 A 
ATOM     76  C   UNL     1      -3.156  -3.383 -14.886  1.00  0.00     0.001 A 
ATOM     77  C   UNL     1      -3.292  -4.589 -15.574  1.00  0.00     0.000 A 
ENDBRANCH  53  72
BRANCH  65  78
ATOM     78  C   UNL     1      -1.238   2.463 -20.905  1.00  0.00    -0.014 A 
ATOM     79  C   UNL     1      -2.156   3.430 -20.467  1.00  0.00     0.009 A 
ATOM     80  C   UNL     1      -1.291   2.011 -22.231  1.00  0.00     0.009 A 
ATOM     81  C   UNL     1      -3.122   3.927 -21.343  1.00  0.00     0.001 A 
ATOM     82  C   UNL     1      -2.258   2.512 -23.105  1.00  0.00     0.001 A 
ATOM     83  C   UNL     1      -3.173   3.466 -22.659  1.00  0.00     0.000 A 
ENDBRANCH  65  78
ENDBRANCH  39  40
ENDBRANCH  31  34
ENDBRANCH  29  30
ENDBRANCH  28  29
ENDBRANCH   1  28
TORSDOF 16
