REMARK SMILES O=C(C[C@H](NC(=O)[C@]12C[C@H]3C[C@H](C[C@H](C3)C1)C2)c1cccc([N+](=O)[O-])c1)NCCCNC(=O)c1ccc(-c2c3nc(c(-c4ccccc4)c4ccc([nH]4)c(-c4ccccc4)c4nc(c(-c5ccccc5)c5ccc2[nH]5)C=C4)C=C3)cc1
REMARK SMILES IDX 28 1 27 2 1 3 2 4 3 6 4 7 18 8 19 9 26 10 20 11 22 12 21 13
REMARK SMILES IDX 23 14 24 15 25 16 5 17 6 18 7 20 8 21 9 22 16 23 17 24 10 25
REMARK SMILES IDX 14 26 12 27 11 28 15 29 13 30 29 31 30 32 31 33 32 34 33 36
REMARK SMILES IDX 34 37 35 38 81 39 36 40 80 41 37 42 38 43 39 44 74 45 40 46
REMARK SMILES IDX 79 47 73 48 75 49 41 50 78 51 72 52 71 53 42 55 64 56 49 57
REMARK SMILES IDX 63 58 50 59 53 60 62 61 76 62 51 63 52 64 61 66 77 67 54 68
REMARK SMILES IDX 43 69 44 70 48 71 45 72 47 73 46 74 65 75 66 76 70 77 67 78
REMARK SMILES IDX 69 79 68 80 55 81 56 82 60 83 57 84 59 85 58 86
REMARK H PARENT 27 5 5 19 31 35 75 54 53 65
REMARK Flexibility Score: inf
ROOT
ATOM      1  C   UNL     1       1.989   1.139   3.192  1.00  0.00     0.117 C 
ENDROOT
BRANCH   1   2
ATOM      2  N   UNL     1       2.529   1.728   1.982  1.00  0.00    -0.356 N 
ATOM      3  O   UNL     1       4.668   1.118   2.464  1.00  0.00    -0.275 OA
ATOM      4  C   UNL     1       3.864   1.627   1.687  1.00  0.00     0.222 C 
ATOM      5  H   UNL     1       1.929   2.206   1.365  1.00  0.00     0.163 HD
BRANCH   4   6
ATOM      6  C   UNL     1       4.314   2.296   0.409  1.00  0.00     0.129 C 
BRANCH   6   7
ATOM      7  C   UNL     1       3.639   1.857  -0.900  1.00  0.00     0.122 C 
BRANCH   7   8
ATOM      8  C   UNL     1       4.366   2.439  -2.116  1.00  0.00    -0.018 A 
ATOM      9  C   UNL     1       5.054   1.655  -3.054  1.00  0.00     0.006 A 
ATOM     10  C   UNL     1       4.393   3.838  -2.287  1.00  0.00     0.091 A 
ATOM     11  C   UNL     1       5.803   2.237  -4.084  1.00  0.00     0.007 A 
ATOM     12  C   UNL     1       5.126   4.419  -3.335  1.00  0.00     0.269 A 
ATOM     13  C   UNL     1       5.849   3.622  -4.225  1.00  0.00     0.085 A 
BRANCH  12  14
ATOM     14  N   UNL     1       5.137   5.879  -3.488  1.00  0.00     0.062 N 
ATOM     15  O   UNL     1       5.814   6.359  -4.408  1.00  0.00    -0.258 OA
ATOM     16  O   UNL     1       4.465   6.545  -2.687  1.00  0.00    -0.258 OA
ENDBRANCH  12  14
ENDBRANCH   7   8
BRANCH   7  17
ATOM     17  N   UNL     1       3.159   0.481  -1.088  1.00  0.00    -0.348 N 
ATOM     18  C   UNL     1       3.577  -0.802  -1.095  1.00  0.00     0.226 C 
ATOM     19  H   UNL     1       2.193   0.503  -1.273  1.00  0.00     0.164 HD
ATOM     20  O   UNL     1       2.713  -1.591  -1.513  1.00  0.00    -0.274 OA
BRANCH  18  21
ATOM     21  C   UNL     1       4.927  -1.366  -0.627  1.00  0.00     0.050 C 
ATOM     22  C   UNL     1       4.650  -2.271   0.607  1.00  0.00     0.020 C 
ATOM     23  C   UNL     1       6.004  -0.351  -0.251  1.00  0.00     0.020 C 
ATOM     24  C   UNL     1       5.506  -2.290  -1.738  1.00  0.00     0.020 C 
ATOM     25  C   UNL     1       5.946  -2.944   1.098  1.00  0.00    -0.010 C 
ATOM     26  C   UNL     1       7.296  -1.012   0.227  1.00  0.00    -0.010 C 
ATOM     27  C   UNL     1       6.812  -2.962  -1.270  1.00  0.00    -0.010 C 
ATOM     28  C   UNL     1       6.527  -3.819  -0.025  1.00  0.00     0.007 C 
ATOM     29  C   UNL     1       6.973  -1.864   1.464  1.00  0.00     0.007 C 
ATOM     30  C   UNL     1       7.842  -1.883  -0.906  1.00  0.00     0.007 C 
ENDBRANCH  18  21
ENDBRANCH   7  17
ENDBRANCH   6   7
ENDBRANCH   4   6
ENDBRANCH   1   2
BRANCH   1  31
ATOM     31  C   UNL     1       2.452   1.828   4.475  1.00  0.00     0.042 C 
BRANCH  31  32
ATOM     32  C   UNL     1       2.323   3.345   4.457  1.00  0.00     0.118 C 
BRANCH  32  33
ATOM     33  N   UNL     1       0.963   3.794   4.196  1.00  0.00    -0.352 N 
ATOM     34  C   UNL     1       0.187   4.689   4.886  1.00  0.00     0.251 C 
ATOM     35  H   UNL     1       0.535   3.394   3.404  1.00  0.00     0.163 HD
ATOM     36  O   UNL     1      -0.998   4.827   4.593  1.00  0.00    -0.269 OA
BRANCH  34  37
ATOM     37  C   UNL     1       0.770   5.465   5.998  1.00  0.00     0.039 A 
ATOM     38  C   UNL     1       0.055   5.566   7.193  1.00  0.00     0.014 A 
ATOM     39  C   UNL     1       2.017   6.081   5.867  1.00  0.00     0.014 A 
ATOM     40  C   UNL     1       0.621   6.230   8.282  1.00  0.00     0.010 A 
ATOM     41  C   UNL     1       2.613   6.674   6.976  1.00  0.00     0.010 A 
ATOM     42  C   UNL     1       1.921   6.755   8.194  1.00  0.00    -0.014 A 
BRANCH  42  43
ATOM     43  C   UNL     1       2.577   7.380   9.369  1.00  0.00     0.031 A 
ATOM     44  C   UNL     1       2.962   8.833   9.340  1.00  0.00     0.074 A 
ATOM     45  C   UNL     1       2.882   6.621  10.440  1.00  0.00     0.049 A 
ATOM     46  N   UNL     1       3.587   9.539  10.248  1.00  0.00    -0.248 NA
ATOM     47  C   UNL     1       2.623   9.586   8.122  1.00  0.00     0.031 C 
ATOM     48  C   UNL     1       2.596   5.191  10.576  1.00  0.00     0.029 A 
ATOM     49  N   UNL     1       3.505   6.947  11.619  1.00  0.00    -0.354 N 
ATOM     50  C   UNL     1       3.728  10.810   9.706  1.00  0.00     0.074 A 
ATOM     51  C   UNL     1       3.172  10.765   8.372  1.00  0.00     0.031 C 
ATOM     52  C   UNL     1       3.015   4.771  11.780  1.00  0.00     0.029 A 
ATOM     53  C   UNL     1       3.639   5.887  12.482  1.00  0.00     0.049 A 
ATOM     54  H   UNL     1       3.825   7.855  11.826  1.00  0.00     0.167 HD
ATOM     55  C   UNL     1       4.255  11.921  10.275  1.00  0.00     0.031 A 
ATOM     56  C   UNL     1       4.211   5.817  13.699  1.00  0.00     0.031 A 
ATOM     57  C   UNL     1       4.806  11.963  11.603  1.00  0.00     0.049 A 
ATOM     58  C   UNL     1       4.814   7.058  14.297  1.00  0.00     0.074 A 
ATOM     59  C   UNL     1       5.317  13.051  12.289  1.00  0.00     0.029 A 
ATOM     60  N   UNL     1       4.924  10.868  12.445  1.00  0.00    -0.354 N 
ATOM     61  N   UNL     1       4.875   8.270  13.800  1.00  0.00    -0.248 NA
ATOM     62  C   UNL     1       5.417   6.923  15.630  1.00  0.00     0.031 C 
ATOM     63  C   UNL     1       5.801  12.602  13.522  1.00  0.00     0.029 A 
ATOM     64  C   UNL     1       5.527  11.248  13.632  1.00  0.00     0.049 A 
ATOM     65  H   UNL     1       4.625   9.955  12.230  1.00  0.00     0.167 HD
ATOM     66  C   UNL     1       5.492   9.047  14.771  1.00  0.00     0.074 A 
ATOM     67  C   UNL     1       5.771   8.173  15.892  1.00  0.00     0.031 C 
ATOM     68  C   UNL     1       5.797  10.367  14.739  1.00  0.00     0.031 A 
BRANCH  55  69
ATOM     69  C   UNL     1       4.270  13.181   9.453  1.00  0.00    -0.014 A 
ATOM     70  C   UNL     1       3.081  13.854   9.125  1.00  0.00     0.009 A 
ATOM     71  C   UNL     1       5.493  13.725   9.032  1.00  0.00     0.009 A 
ATOM     72  C   UNL     1       3.116  15.021   8.359  1.00  0.00     0.001 A 
ATOM     73  C   UNL     1       5.527  14.910   8.295  1.00  0.00     0.001 A 
ATOM     74  C   UNL     1       4.338  15.551   7.950  1.00  0.00     0.000 A 
ENDBRANCH  55  69
BRANCH  56  75
ATOM     75  C   UNL     1       4.231   4.529  14.442  1.00  0.00    -0.014 A 
ATOM     76  C   UNL     1       3.466   4.365  15.607  1.00  0.00     0.009 A 
ATOM     77  C   UNL     1       5.021   3.459  13.996  1.00  0.00     0.009 A 
ATOM     78  C   UNL     1       3.517   3.169  16.326  1.00  0.00     0.001 A 
ATOM     79  C   UNL     1       5.045   2.252  14.698  1.00  0.00     0.001 A 
ATOM     80  C   UNL     1       4.302   2.112  15.868  1.00  0.00     0.000 A 
ENDBRANCH  56  75
BRANCH  68  81
ATOM     81  C   UNL     1       6.427  10.960  15.970  1.00  0.00    -0.014 A 
ATOM     82  C   UNL     1       7.747  10.658  16.338  1.00  0.00     0.009 A 
ATOM     83  C   UNL     1       5.696  11.871  16.749  1.00  0.00     0.009 A 
ATOM     84  C   UNL     1       8.309  11.229  17.482  1.00  0.00     0.001 A 
ATOM     85  C   UNL     1       6.271  12.466  17.872  1.00  0.00     0.001 A 
ATOM     86  C   UNL     1       7.573  12.137  18.244  1.00  0.00     0.000 A 
ENDBRANCH  68  81
ENDBRANCH  42  43
ENDBRANCH  34  37
ENDBRANCH  32  33
ENDBRANCH  31  32
ENDBRANCH   1  31
TORSDOF 15
