REMARK SMILES Cc1nn(C)c(C)c1C(=O)N[C@H]1CCCCC[C@H]1C(=O)NCCCNC(=O)c1ccc(-c2c3nc(c(-c4ccccc4)c4ccc([nH]4)c(-c4ccccc4)c4nc(c(-c5ccccc5)c5ccc2[nH]5)C=C4)C=C3)cc1
REMARK SMILES IDX 22 1 21 2 19 3 20 4 18 6 12 7 11 8 9 9 10 10 8 12 1 13 2 14
REMARK SMILES IDX 3 15 4 16 6 17 5 18 7 19 13 20 14 21 17 23 16 24 15 25 23 27
REMARK SMILES IDX 24 28 25 29 26 30 27 32 28 33 29 34 75 35 30 36 74 37 31 38
REMARK SMILES IDX 32 39 33 40 68 41 34 42 73 43 67 44 69 45 35 46 72 47 66 48
REMARK SMILES IDX 65 49 36 51 58 52 43 53 57 54 44 55 47 56 56 57 70 58 45 59
REMARK SMILES IDX 46 60 55 62 71 63 48 64 37 65 38 66 42 67 39 68 41 69 40 70
REMARK SMILES IDX 59 71 60 72 64 73 61 74 63 75 62 76 49 77 50 78 54 79 51 80
REMARK SMILES IDX 53 81 52 82
REMARK H PARENT 21 5 11 11 25 31 69 50 47 61
REMARK Flexibility Score: 90.00
ROOT
ATOM      1  C   UNL     1      -6.240  -0.036   0.365  1.00  0.00     0.117 C 
ENDROOT
BRANCH   1   2
ATOM      2  N   UNL     1      -5.773   0.219  -0.972  1.00  0.00    -0.356 N 
ATOM      3  C   UNL     1      -4.507   0.292  -1.453  1.00  0.00     0.225 C 
ATOM      4  O   UNL     1      -4.396   0.194  -2.681  1.00  0.00    -0.275 OA
ATOM      5  H   UNL     1      -6.482   0.362  -1.640  1.00  0.00     0.163 HD
BRANCH   3   6
ATOM      6  C   UNL     1      -3.248   0.508  -0.590  1.00  0.00     0.101 C 
BRANCH   6   7
ATOM      7  C   UNL     1      -3.089   1.819   0.220  1.00  0.00     0.094 C 
BRANCH   7   8
ATOM      8  N   UNL     1      -4.040   2.860  -0.114  1.00  0.00    -0.348 N 
ATOM      9  C   UNL     1      -3.979   4.226  -0.243  1.00  0.00     0.255 C 
ATOM     10  O   UNL     1      -5.058   4.697  -0.628  1.00  0.00    -0.269 OA
ATOM     11  H   UNL     1      -4.942   2.505  -0.289  1.00  0.00     0.164 HD
BRANCH   9  12
ATOM     12  C   UNL     1      -2.836   5.120   0.061  1.00  0.00     0.083 A 
ATOM     13  C   UNL     1      -0.631   3.882   1.032  1.00  0.00     0.069 C 
ATOM     14  C   UNL     1      -1.508   5.004   0.618  1.00  0.00     0.072 A 
ATOM     15  N   UNL     1      -0.945   6.200   0.830  1.00  0.00    -0.178 NA
ATOM     16  N   UNL     1      -1.826   7.084   0.383  1.00  0.00    -0.272 N 
ATOM     17  C   UNL     1      -2.915   6.505  -0.201  1.00  0.00     0.048 A 
ATOM     18  C   UNL     1      -1.529   8.483   0.591  1.00  0.00     0.174 C 
ATOM     19  C   UNL     1      -3.925   7.339  -0.917  1.00  0.00     0.067 C 
ENDBRANCH   9  12
ENDBRANCH   7   8
BRANCH   7  20
ATOM     20  C   UNL     1      -2.841   1.717   1.733  1.00  0.00     0.026 C 
BRANCH  20  21
ATOM     21  C   UNL     1      -3.685   0.798   2.594  1.00  0.00     0.002 CG0
ATOM     22  G   UNL     1      -3.288  -0.675   2.547  1.00  0.00     0.000 G0
ENDBRANCH  20  21
ENDBRANCH   7  20
ENDBRANCH   6   7
BRANCH   6  23
ATOM     23  C   UNL     1      -2.623  -0.753   0.026  1.00  0.00     0.015 C 
BRANCH  23  24
ATOM     24  C   UNL     1      -3.291  -1.425   1.216  1.00  0.00     0.001 C 
BRANCH  24  25
ATOM     25  C   UNL     1      -3.288  -0.675   2.547  1.00  0.00     0.000 CG0
ATOM     26  G   UNL     1      -3.685   0.798   2.594  1.00  0.00     0.000 G0
ENDBRANCH  24  25
ENDBRANCH  23  24
ENDBRANCH   6  23
ENDBRANCH   3   6
ENDBRANCH   1   2
BRANCH   1  27
ATOM     27  C   UNL     1      -7.136   1.049   0.932  1.00  0.00     0.042 C 
BRANCH  27  28
ATOM     28  C   UNL     1      -8.611   0.706   0.817  1.00  0.00     0.118 C 
BRANCH  28  29
ATOM     29  N   UNL     1      -8.981  -0.436   1.653  1.00  0.00    -0.352 N 
ATOM     30  C   UNL     1      -9.643  -0.530   2.850  1.00  0.00     0.251 C 
ATOM     31  H   UNL     1      -8.701  -1.305   1.285  1.00  0.00     0.163 HD
ATOM     32  O   UNL     1      -9.620  -1.608   3.452  1.00  0.00    -0.269 OA
BRANCH  30  33
ATOM     33  C   UNL     1     -10.368   0.615   3.445  1.00  0.00     0.039 A 
ATOM     34  C   UNL     1     -10.498   0.691   4.837  1.00  0.00     0.014 A 
ATOM     35  C   UNL     1     -10.976   1.587   2.654  1.00  0.00     0.014 A 
ATOM     36  C   UNL     1     -11.178   1.764   5.421  1.00  0.00     0.010 A 
ATOM     37  C   UNL     1     -11.527   2.723   3.235  1.00  0.00     0.010 A 
ATOM     38  C   UNL     1     -11.664   2.813   4.625  1.00  0.00    -0.014 A 
BRANCH  38  39
ATOM     39  C   UNL     1     -12.352   3.992   5.210  1.00  0.00     0.031 A 
ATOM     40  C   UNL     1     -13.759   4.335   4.785  1.00  0.00     0.074 A 
ATOM     41  C   UNL     1     -11.690   4.800   6.061  1.00  0.00     0.049 A 
ATOM     42  N   UNL     1     -14.492   5.371   5.109  1.00  0.00    -0.248 NA
ATOM     43  C   UNL     1     -14.415   3.416   3.839  1.00  0.00     0.031 C 
ATOM     44  C   UNL     1     -10.305   4.618   6.504  1.00  0.00     0.029 A 
ATOM     45  N   UNL     1     -12.095   5.941   6.705  1.00  0.00    -0.354 N 
ATOM     46  C   UNL     1     -15.667   5.247   4.376  1.00  0.00     0.074 A 
ATOM     47  C   UNL     1     -15.529   4.070   3.549  1.00  0.00     0.031 C 
ATOM     48  C   UNL     1      -9.992   5.585   7.380  1.00  0.00     0.029 A 
ATOM     49  C   UNL     1     -11.134   6.480   7.526  1.00  0.00     0.049 A 
ATOM     50  H   UNL     1     -12.989   6.337   6.590  1.00  0.00     0.167 HD
ATOM     51  C   UNL     1     -16.775   6.024   4.405  1.00  0.00     0.031 A 
ATOM     52  C   UNL     1     -11.170   7.572   8.311  1.00  0.00     0.031 A 
ATOM     53  C   UNL     1     -16.931   7.168   5.262  1.00  0.00     0.049 A 
ATOM     54  C   UNL     1     -12.426   8.395   8.360  1.00  0.00     0.074 A 
ATOM     55  C   UNL     1     -18.041   7.977   5.429  1.00  0.00     0.029 A 
ATOM     56  N   UNL     1     -15.946   7.658   6.105  1.00  0.00    -0.354 N 
ATOM     57  N   UNL     1     -13.552   8.223   7.711  1.00  0.00    -0.248 NA
ATOM     58  C   UNL     1     -12.418   9.554   9.262  1.00  0.00     0.031 C 
ATOM     59  C   UNL     1     -17.714   8.982   6.346  1.00  0.00     0.029 A 
ATOM     60  C   UNL     1     -16.417   8.768   6.785  1.00  0.00     0.049 A 
ATOM     61  H   UNL     1     -15.046   7.273   6.206  1.00  0.00     0.167 HD
ATOM     62  C   UNL     1     -14.393   9.241   8.139  1.00  0.00     0.074 A 
ATOM     63  C   UNL     1     -13.655  10.008   9.122  1.00  0.00     0.031 C 
ATOM     64  C   UNL     1     -15.662   9.520   7.752  1.00  0.00     0.031 A 
BRANCH  51  65
ATOM     65  C   UNL     1     -17.908   5.654   3.487  1.00  0.00    -0.014 A 
ATOM     66  C   UNL     1     -18.669   4.492   3.699  1.00  0.00     0.009 A 
ATOM     67  C   UNL     1     -18.234   6.489   2.407  1.00  0.00     0.009 A 
ATOM     68  C   UNL     1     -19.704   4.153   2.824  1.00  0.00     0.001 A 
ATOM     69  C   UNL     1     -19.290   6.163   1.552  1.00  0.00     0.001 A 
ATOM     70  C   UNL     1     -20.016   4.991   1.755  1.00  0.00     0.000 A 
ENDBRANCH  51  65
BRANCH  52  71
ATOM     71  C   UNL     1      -9.990   7.934   9.138  1.00  0.00    -0.014 A 
ATOM     72  C   UNL     1     -10.026   7.773  10.532  1.00  0.00     0.009 A 
ATOM     73  C   UNL     1      -8.823   8.438   8.544  1.00  0.00     0.009 A 
ATOM     74  C   UNL     1      -8.929   8.135  11.316  1.00  0.00     0.001 A 
ATOM     75  C   UNL     1      -7.717   8.773   9.328  1.00  0.00     0.001 A 
ATOM     76  C   UNL     1      -7.774   8.630  10.714  1.00  0.00     0.000 A 
ENDBRANCH  52  71
BRANCH  64  77
ATOM     77  C   UNL     1     -16.330  10.691   8.412  1.00  0.00    -0.014 A 
ATOM     78  C   UNL     1     -15.952  12.008   8.108  1.00  0.00     0.009 A 
ATOM     79  C   UNL     1     -17.365  10.473   9.334  1.00  0.00     0.009 A 
ATOM     80  C   UNL     1     -16.572  13.084   8.747  1.00  0.00     0.001 A 
ATOM     81  C   UNL     1     -18.002  11.551   9.949  1.00  0.00     0.001 A 
ATOM     82  C   UNL     1     -17.598  12.854   9.664  1.00  0.00     0.000 A 
ENDBRANCH  64  77
ENDBRANCH  38  39
ENDBRANCH  30  33
ENDBRANCH  28  29
ENDBRANCH  27  28
ENDBRANCH   1  27
TORSDOF 12
