REMARK SMILES CC(=O)N[C@H](CSCC(=O)Nc1ccc2c(c1)N1CC[NH+]=C1S2)C(=O)NCCCNC(=O)c1ccc(-c2c3nc(c(-c4ccccc4)c4ccc([nH]4)c(-c4ccccc4)c4nc(c(-c5ccccc5)c5ccc2[nH]5)C=C4)C=C3)cc1
REMARK SMILES IDX 24 1 25 2 26 3 5 5 4 6 1 7 2 8 3 9 6 11 7 12 8 13 9 14 10 15
REMARK SMILES IDX 11 16 12 18 13 19 17 20 14 21 16 22 15 23 18 24 23 25 19 26
REMARK SMILES IDX 22 27 20 28 21 29 27 31 28 32 29 33 30 34 31 35 32 37 33 38
REMARK SMILES IDX 34 39 80 40 35 41 79 42 36 43 37 44 38 45 73 46 39 47 78 48
REMARK SMILES IDX 72 49 74 50 40 51 77 52 71 53 70 54 41 56 63 57 48 58 62 59
REMARK SMILES IDX 49 60 52 61 61 62 75 63 50 64 51 65 60 67 76 68 53 69 42 70
REMARK SMILES IDX 43 71 47 72 44 73 46 74 45 75 64 76 65 77 69 78 66 79 68 80
REMARK SMILES IDX 67 81 54 82 55 83 59 84 56 85 58 86 57 87
REMARK H PARENT 26 4 4 10 11 17 21 30 30 36 74 55 52 66
REMARK Flexibility Score: inf
ROOT
ATOM      1  C   UNL     1       1.505   0.468  -4.504  1.00  0.00     0.243 C 
ATOM      2  O   UNL     1       1.327   1.669  -4.727  1.00  0.00    -0.273 OA
ATOM      3  N   UNL     1       1.171  -0.408  -5.499  1.00  0.00    -0.354 N 
ATOM      4  H   UNL     1       0.826   0.024  -6.313  1.00  0.00     0.163 HD
ENDROOT
BRANCH   1   5
ATOM      5  C   UNL     1       2.042  -0.011  -3.139  1.00  0.00     0.181 C 
BRANCH   5   6
ATOM      6  N   UNL     1       3.271  -0.780  -3.376  1.00  0.00    -0.344 N 
ATOM      7  C   UNL     1       4.070  -0.886  -1.039  1.00  0.00     0.114 C 
ATOM      8  C   UNL     1       4.216  -1.207  -2.498  1.00  0.00     0.217 C 
ATOM      9  O   UNL     1       5.155  -1.877  -2.923  1.00  0.00    -0.275 OA
ATOM     10  H   UNL     1       3.435  -1.023  -4.316  1.00  0.00     0.164 HD
ENDBRANCH   5   6
BRANCH   5  11
ATOM     11  C   UNL     1       0.982  -0.806  -2.371  1.00  0.00     0.105 C 
BRANCH  11  12
ATOM     12  S   UNL     1      -0.589   0.096  -2.121  1.00  0.00    -0.149 SA
BRANCH  12  13
ATOM     13  C   UNL     1      -0.409   0.744  -0.435  1.00  0.00     0.169 C 
BRANCH  13  14
ATOM     14  C   UNL     1       0.364  -0.123   0.546  1.00  0.00     0.234 C 
ATOM     15  O   UNL     1       1.558   0.104   0.769  1.00  0.00    -0.274 OA
ATOM     16  N   UNL     1      -0.260  -1.087   1.292  1.00  0.00    -0.325 N 
ATOM     17  H   UNL     1       0.265  -1.450   2.042  1.00  0.00     0.169 HD
BRANCH  16  18
ATOM     18  C   UNL     1      -1.541  -1.629   1.135  1.00  0.00     0.045 A 
ATOM     19  C   UNL     1      -1.990  -2.125  -0.099  1.00  0.00     0.027 A 
ATOM     20  C   UNL     1      -2.363  -1.694   2.263  1.00  0.00     0.079 A 
ATOM     21  C   UNL     1      -3.301  -2.573  -0.268  1.00  0.00     0.022 A 
ATOM     22  C   UNL     1      -3.677  -2.095   2.098  1.00  0.00     0.144 A 
ATOM     23  C   UNL     1      -4.135  -2.522   0.829  1.00  0.00     0.067 A 
ATOM     24  N   UNL     1      -4.678  -2.062   3.027  1.00  0.00    -0.216 N 
ATOM     25  S   UNL     1      -5.893  -2.896   0.891  1.00  0.00     0.002 SA
ATOM     26  C   UNL     1      -4.752  -1.747   4.416  1.00  0.00     0.289 C 
ATOM     27  C   UNL     1      -5.919  -2.365   2.555  1.00  0.00     0.316 C 
ATOM     28  C   UNL     1      -6.288  -1.596   4.562  1.00  0.00     0.280 C 
ATOM     29  N   UNL     1      -6.941  -2.207   3.343  1.00  0.00    -0.264 N 
ATOM     30  H   UNL     1      -7.888  -2.426   3.187  1.00  0.00     0.305 HD
ENDBRANCH  16  18
ENDBRANCH  13  14
ENDBRANCH  12  13
ENDBRANCH  11  12
ENDBRANCH   5  11
ENDBRANCH   1   5
BRANCH   3  31
ATOM     31  C   UNL     1       1.228  -1.860  -5.579  1.00  0.00     0.117 C 
BRANCH  31  32
ATOM     32  C   UNL     1      -0.144  -2.523  -5.498  1.00  0.00     0.042 C 
BRANCH  32  33
ATOM     33  C   UNL     1      -1.118  -2.117  -6.595  1.00  0.00     0.118 C 
BRANCH  33  34
ATOM     34  N   UNL     1      -0.673  -2.494  -7.928  1.00  0.00    -0.352 N 
ATOM     35  C   UNL     1      -1.217  -3.360  -8.850  1.00  0.00     0.251 C 
ATOM     36  H   UNL     1       0.159  -2.056  -8.221  1.00  0.00     0.163 HD
ATOM     37  O   UNL     1      -0.587  -3.636  -9.862  1.00  0.00    -0.269 OA
BRANCH  35  38
ATOM     38  C   UNL     1      -2.536  -3.990  -8.611  1.00  0.00     0.039 A 
ATOM     39  C   UNL     1      -3.602  -3.268  -8.075  1.00  0.00     0.014 A 
ATOM     40  C   UNL     1      -2.708  -5.339  -8.941  1.00  0.00     0.014 A 
ATOM     41  C   UNL     1      -4.761  -3.933  -7.687  1.00  0.00     0.010 A 
ATOM     42  C   UNL     1      -3.912  -5.984  -8.640  1.00  0.00     0.010 A 
ATOM     43  C   UNL     1      -4.926  -5.301  -7.953  1.00  0.00    -0.014 A 
BRANCH  43  44
ATOM     44  C   UNL     1      -6.153  -5.997  -7.484  1.00  0.00     0.031 A 
ATOM     45  C   UNL     1      -6.069  -7.079  -6.439  1.00  0.00     0.074 A 
ATOM     46  C   UNL     1      -7.356  -5.602  -7.941  1.00  0.00     0.049 A 
ATOM     47  N   UNL     1      -7.039  -7.751  -5.870  1.00  0.00    -0.248 NA
ATOM     48  C   UNL     1      -4.726  -7.458  -5.971  1.00  0.00     0.031 C 
ATOM     49  C   UNL     1      -7.574  -4.545  -8.930  1.00  0.00     0.029 A 
ATOM     50  N   UNL     1      -8.623  -6.012  -7.607  1.00  0.00    -0.354 N 
ATOM     51  C   UNL     1      -6.425  -8.631  -4.987  1.00  0.00     0.074 A 
ATOM     52  C   UNL     1      -4.998  -8.441  -5.124  1.00  0.00     0.031 C 
ATOM     53  C   UNL     1      -8.891  -4.339  -9.067  1.00  0.00     0.029 A 
ATOM     54  C   UNL     1      -9.613  -5.293  -8.231  1.00  0.00     0.049 A 
ATOM     55  H   UNL     1      -8.804  -6.750  -6.981  1.00  0.00     0.167 HD
ATOM     56  C   UNL     1      -6.997  -9.507  -4.126  1.00  0.00     0.031 A 
ATOM     57  C   UNL     1     -10.954  -5.385  -8.145  1.00  0.00     0.031 A 
ATOM     58  C   UNL     1      -8.417  -9.700  -3.991  1.00  0.00     0.049 A 
ATOM     59  C   UNL     1     -11.565  -6.412  -7.236  1.00  0.00     0.074 A 
ATOM     60  C   UNL     1      -9.088 -10.572  -3.151  1.00  0.00     0.029 A 
ATOM     61  N   UNL     1      -9.382  -9.011  -4.708  1.00  0.00    -0.354 N 
ATOM     62  N   UNL     1     -10.969  -7.245  -6.419  1.00  0.00    -0.248 NA
ATOM     63  C   UNL     1     -13.031  -6.514  -7.239  1.00  0.00     0.031 C 
ATOM     64  C   UNL     1     -10.457 -10.451  -3.401  1.00  0.00     0.029 A 
ATOM     65  C   UNL     1     -10.643  -9.455  -4.346  1.00  0.00     0.049 A 
ATOM     66  H   UNL     1      -9.199  -8.311  -5.375  1.00  0.00     0.167 HD
ATOM     67  C   UNL     1     -11.985  -7.961  -5.799  1.00  0.00     0.074 A 
ATOM     68  C   UNL     1     -13.236  -7.452  -6.322  1.00  0.00     0.031 C 
ATOM     69  C   UNL     1     -11.883  -8.950  -4.878  1.00  0.00     0.031 A 
BRANCH  56  70
ATOM     70  C   UNL     1      -6.086 -10.340  -3.266  1.00  0.00    -0.014 A 
ATOM     71  C   UNL     1      -6.001 -11.726  -3.473  1.00  0.00     0.009 A 
ATOM     72  C   UNL     1      -5.362  -9.768  -2.207  1.00  0.00     0.009 A 
ATOM     73  C   UNL     1      -5.217 -12.523  -2.636  1.00  0.00     0.001 A 
ATOM     74  C   UNL     1      -4.554 -10.563  -1.391  1.00  0.00     0.001 A 
ATOM     75  C   UNL     1      -4.488 -11.940  -1.601  1.00  0.00     0.000 A 
ENDBRANCH  56  70
BRANCH  57  76
ATOM     76  C   UNL     1     -11.795  -4.447  -8.933  1.00  0.00    -0.014 A 
ATOM     77  C   UNL     1     -11.835  -4.527 -10.335  1.00  0.00     0.009 A 
ATOM     78  C   UNL     1     -12.500  -3.417  -8.292  1.00  0.00     0.009 A 
ATOM     79  C   UNL     1     -12.533  -3.575 -11.080  1.00  0.00     0.001 A 
ATOM     80  C   UNL     1     -13.221  -2.483  -9.040  1.00  0.00     0.001 A 
ATOM     81  C   UNL     1     -13.226  -2.555 -10.432  1.00  0.00     0.000 A 
ENDBRANCH  57  76
BRANCH  69  82
ATOM     82  C   UNL     1     -13.155  -9.556  -4.355  1.00  0.00    -0.014 A 
ATOM     83  C   UNL     1     -13.533  -9.335  -3.020  1.00  0.00     0.009 A 
ATOM     84  C   UNL     1     -13.920 -10.428  -5.143  1.00  0.00     0.009 A 
ATOM     85  C   UNL     1     -14.642  -9.988  -2.480  1.00  0.00     0.001 A 
ATOM     86  C   UNL     1     -15.046 -11.059  -4.608  1.00  0.00     0.001 A 
ATOM     87  C   UNL     1     -15.399 -10.847  -3.275  1.00  0.00     0.000 A 
ENDBRANCH  69  82
ENDBRANCH  43  44
ENDBRANCH  35  38
ENDBRANCH  33  34
ENDBRANCH  32  33
ENDBRANCH  31  32
ENDBRANCH   3  31
TORSDOF 16
