REMARK SMILES COc1cccc(C(=O)Nc2ccc(NC(=O)[C@@H]3[C@@H](C(=O)NCCCNC(=O)c4ccc(-c5c6nc(c(-c7ccccc7)c7ccc([nH]7)c(-c7ccccc7)c7nc(c(-c8ccccc8)c8ccc5[nH]8)C=C7)C=C6)cc4)[C@@H]4C=C[C@H]3C4)cc2)c1
REMARK SMILES IDX 20 1 21 2 22 3 19 5 18 6 80 7 77 8 79 9 81 10 78 11 16 12
REMARK SMILES IDX 15 13 17 15 14 16 11 17 12 18 83 19 13 20 82 21 10 22 8 23
REMARK SMILES IDX 9 24 7 26 3 27 4 28 84 29 5 30 6 31 2 32 1 33 23 34 24 35
REMARK SMILES IDX 25 36 26 37 27 38 28 40 29 41 30 42 76 43 31 44 75 45 32 46
REMARK SMILES IDX 33 47 34 48 69 49 35 50 74 51 68 52 70 53 36 54 73 55 67 56
REMARK SMILES IDX 66 57 37 59 59 60 44 61 58 62 45 63 48 64 57 65 71 66 46 67
REMARK SMILES IDX 47 68 56 70 72 71 49 72 38 73 39 74 43 75 40 76 42 77 41 78
REMARK SMILES IDX 60 79 61 80 65 81 62 82 64 83 63 84 50 85 51 86 55 87 52 88
REMARK SMILES IDX 54 89 53 90
REMARK H PARENT 22 4 15 14 10 25 26 39 70 58 48 69
REMARK Flexibility Score: inf
ROOT
ATOM      1  C   UNL     1       4.988  -2.370  -5.296  1.00  0.00     0.224 C 
ATOM      2  O   UNL     1       4.586  -1.810  -6.325  1.00  0.00    -0.275 OA
ATOM      3  N   UNL     1       5.968  -3.299  -5.511  1.00  0.00    -0.356 N 
ATOM      4  H   UNL     1       6.022  -3.520  -6.469  1.00  0.00     0.163 HD
ENDROOT
BRANCH   1   5
ATOM      5  C   UNL     1       4.314  -2.012  -3.954  1.00  0.00     0.098 C 
ATOM      6  C   UNL     1       4.766  -0.640  -3.213  1.00  0.00     0.099 C 
ATOM      7  C   UNL     1       5.268  -1.235  -1.906  1.00  0.00     0.025 C 
ATOM      8  C   UNL     1       4.651  -3.096  -2.911  1.00  0.00     0.025 C 
ATOM      9  C   UNL     1       4.115  -1.814  -1.140  1.00  0.00    -0.027 C 
ATOM     10  C   UNL     1       5.924  -2.510  -2.324  1.00  0.00     0.017 C 
ATOM     11  C   UNL     1       3.737  -2.943  -1.737  1.00  0.00    -0.027 C 
BRANCH   6  12
ATOM     12  C   UNL     1       3.729   0.499  -2.946  1.00  0.00     0.228 C 
ATOM     13  N   UNL     1       3.705   1.381  -1.858  1.00  0.00    -0.326 N 
ATOM     14  H   UNL     1       3.224   2.218  -2.050  1.00  0.00     0.169 HD
ATOM     15  O   UNL     1       2.842   0.699  -3.790  1.00  0.00    -0.274 OA
BRANCH  13  16
ATOM     16  C   UNL     1       4.229   1.327  -0.529  1.00  0.00     0.041 A 
ATOM     17  C   UNL     1       4.692  -0.138   1.793  1.00  0.00     0.041 A 
ATOM     18  C   UNL     1       5.758   0.215   0.960  1.00  0.00     0.028 A 
ATOM     19  C   UNL     1       3.559   0.653   1.706  1.00  0.00     0.028 A 
ATOM     20  C   UNL     1       5.531   1.020  -0.180  1.00  0.00     0.028 A 
ATOM     21  C   UNL     1       3.318   1.389   0.528  1.00  0.00     0.028 A 
BRANCH  17  22
ATOM     22  N   UNL     1       4.798  -1.342   2.526  1.00  0.00    -0.322 N 
ATOM     23  C   UNL     1       3.897  -2.215   3.122  1.00  0.00     0.255 C 
ATOM     24  O   UNL     1       4.357  -3.202   3.704  1.00  0.00    -0.269 OA
ATOM     25  H   UNL     1       5.732  -1.630   2.642  1.00  0.00     0.170 HD
BRANCH  23  26
ATOM     26  C   UNL     1       2.417  -2.069   3.103  1.00  0.00     0.043 A 
ATOM     27  C   UNL     1       0.345  -1.382   2.038  1.00  0.00     0.119 A 
ATOM     28  C   UNL     1      -0.335  -1.623   3.232  1.00  0.00     0.046 A 
ATOM     29  C   UNL     1       1.701  -1.694   1.962  1.00  0.00     0.060 A 
ATOM     30  C   UNL     1       0.332  -2.165   4.331  1.00  0.00     0.005 A 
ATOM     31  C   UNL     1       1.710  -2.378   4.271  1.00  0.00     0.014 A 
BRANCH  27  32
ATOM     32  O   UNL     1      -0.415  -0.818   1.054  1.00  0.00    -0.497 OA
ATOM     33  C   UNL     1       0.202  -0.450  -0.174  1.00  0.00     0.278 C 
ENDBRANCH  27  32
ENDBRANCH  23  26
ENDBRANCH  17  22
ENDBRANCH  13  16
ENDBRANCH   6  12
ENDBRANCH   1   5
BRANCH   3  34
ATOM     34  C   UNL     1       6.968  -4.071  -4.756  1.00  0.00     0.117 C 
BRANCH  34  35
ATOM     35  C   UNL     1       6.572  -5.480  -4.324  1.00  0.00     0.042 C 
BRANCH  35  36
ATOM     36  C   UNL     1       7.284  -6.554  -5.128  1.00  0.00     0.118 C 
BRANCH  36  37
ATOM     37  N   UNL     1       8.737  -6.500  -4.985  1.00  0.00    -0.352 N 
ATOM     38  C   UNL     1       9.637  -7.499  -4.731  1.00  0.00     0.251 C 
ATOM     39  H   UNL     1       9.131  -5.604  -5.088  1.00  0.00     0.163 HD
ATOM     40  O   UNL     1      10.817  -7.212  -4.505  1.00  0.00    -0.269 OA
BRANCH  38  41
ATOM     41  C   UNL     1       9.204  -8.908  -4.699  1.00  0.00     0.039 A 
ATOM     42  C   UNL     1       9.764  -9.767  -3.750  1.00  0.00     0.014 A 
ATOM     43  C   UNL     1       8.247  -9.383  -5.598  1.00  0.00     0.014 A 
ATOM     44  C   UNL     1       9.316 -11.084  -3.664  1.00  0.00     0.010 A 
ATOM     45  C   UNL     1       7.722 -10.656  -5.438  1.00  0.00     0.010 A 
ATOM     46  C   UNL     1       8.264 -11.524  -4.482  1.00  0.00    -0.014 A 
BRANCH  46  47
ATOM     47  C   UNL     1       7.722 -12.897  -4.369  1.00  0.00     0.031 A 
ATOM     48  C   UNL     1       7.802 -13.832  -5.544  1.00  0.00     0.074 A 
ATOM     49  C   UNL     1       7.099 -13.271  -3.235  1.00  0.00     0.049 A 
ATOM     50  N   UNL     1       7.336 -15.049  -5.662  1.00  0.00    -0.248 NA
ATOM     51  C   UNL     1       8.467 -13.325  -6.756  1.00  0.00     0.031 C 
ATOM     52  C   UNL     1       6.919 -12.430  -2.049  1.00  0.00     0.029 A 
ATOM     53  N   UNL     1       6.499 -14.456  -2.897  1.00  0.00    -0.354 N 
ATOM     54  C   UNL     1       7.634 -15.440  -6.961  1.00  0.00     0.074 A 
ATOM     55  C   UNL     1       8.264 -14.315  -7.612  1.00  0.00     0.031 C 
ATOM     56  C   UNL     1       6.287 -13.139  -1.101  1.00  0.00     0.029 A 
ATOM     57  C   UNL     1       5.975 -14.463  -1.628  1.00  0.00     0.049 A 
ATOM     58  H   UNL     1       6.449 -15.228  -3.506  1.00  0.00     0.167 HD
ATOM     59  C   UNL     1       7.422 -16.639  -7.551  1.00  0.00     0.031 A 
ATOM     60  C   UNL     1       5.310 -15.428  -0.967  1.00  0.00     0.031 A 
ATOM     61  C   UNL     1       6.801 -17.757  -6.894  1.00  0.00     0.049 A 
ATOM     62  C   UNL     1       5.072 -16.744  -1.651  1.00  0.00     0.074 A 
ATOM     63  C   UNL     1       6.590 -19.034  -7.380  1.00  0.00     0.029 A 
ATOM     64  N   UNL     1       6.287 -17.726  -5.606  1.00  0.00    -0.354 N 
ATOM     65  N   UNL     1       5.428 -17.126  -2.854  1.00  0.00    -0.248 NA
ATOM     66  C   UNL     1       4.352 -17.766  -0.882  1.00  0.00     0.031 C 
ATOM     67  C   UNL     1       5.892 -19.758  -6.409  1.00  0.00     0.029 A 
ATOM     68  C   UNL     1       5.731 -18.953  -5.292  1.00  0.00     0.049 A 
ATOM     69  H   UNL     1       6.313 -16.946  -5.006  1.00  0.00     0.167 HD
ATOM     70  C   UNL     1       5.000 -18.442  -2.976  1.00  0.00     0.074 A 
ATOM     71  C   UNL     1       4.377 -18.796  -1.716  1.00  0.00     0.031 C 
ATOM     72  C   UNL     1       5.112 -19.282  -4.033  1.00  0.00     0.031 A 
BRANCH  59  73
ATOM     73  C   UNL     1       7.860 -16.795  -8.982  1.00  0.00    -0.014 A 
ATOM     74  C   UNL     1       9.219 -16.798  -9.335  1.00  0.00     0.009 A 
ATOM     75  C   UNL     1       6.899 -16.972  -9.990  1.00  0.00     0.009 A 
ATOM     76  C   UNL     1       9.605 -16.934 -10.670  1.00  0.00     0.001 A 
ATOM     77  C   UNL     1       7.289 -17.142 -11.320  1.00  0.00     0.001 A 
ATOM     78  C   UNL     1       8.640 -17.112 -11.660  1.00  0.00     0.000 A 
ENDBRANCH  59  73
BRANCH  60  79
ATOM     79  C   UNL     1       4.835 -15.190   0.422  1.00  0.00    -0.014 A 
ATOM     80  C   UNL     1       5.415 -15.874   1.501  1.00  0.00     0.009 A 
ATOM     81  C   UNL     1       3.799 -14.277   0.677  1.00  0.00     0.009 A 
ATOM     82  C   UNL     1       4.945 -15.674   2.801  1.00  0.00     0.001 A 
ATOM     83  C   UNL     1       3.354 -14.055   1.981  1.00  0.00     0.001 A 
ATOM     84  C   UNL     1       3.919 -14.761   3.041  1.00  0.00     0.000 A 
ENDBRANCH  60  79
BRANCH  72  85
ATOM     85  C   UNL     1       4.581 -20.677  -3.858  1.00  0.00    -0.014 A 
ATOM     86  C   UNL     1       3.203 -20.932  -3.786  1.00  0.00     0.009 A 
ATOM     87  C   UNL     1       5.477 -21.757  -3.806  1.00  0.00     0.009 A 
ATOM     88  C   UNL     1       2.735 -22.237  -3.627  1.00  0.00     0.001 A 
ATOM     89  C   UNL     1       5.005 -23.064  -3.682  1.00  0.00     0.001 A 
ATOM     90  C   UNL     1       3.635 -23.302  -3.581  1.00  0.00     0.000 A 
ENDBRANCH  72  85
ENDBRANCH  46  47
ENDBRANCH  38  41
ENDBRANCH  36  37
ENDBRANCH  35  36
ENDBRANCH  34  35
ENDBRANCH   3  34
TORSDOF 15
