REMARK SMILES CCCN(CCC)c1cc(C(=O)NCCCNC(=O)c2ccc(-c3c4nc(c(-c5ccccc5)c5ccc([nH]5)c(-c5ccccc5)c5nc(c(-c6ccccc6)c6ccc3[nH]6)C=C5)C=C4)cc2)cc(C(F)(F)F)c1
REMARK SMILES IDX 14 1 13 2 11 3 12 4 10 6 8 7 9 8 74 9 69 10 68 11 4 12 3 13
REMARK SMILES IDX 2 14 1 15 5 16 6 17 7 18 70 19 71 20 72 21 73 22 15 23 16 24
REMARK SMILES IDX 17 25 18 26 19 28 20 29 21 30 67 31 22 32 66 33 23 34 24 35
REMARK SMILES IDX 25 36 60 37 26 38 65 39 59 40 61 41 27 42 64 43 58 44 57 45
REMARK SMILES IDX 28 47 50 48 35 49 49 50 36 51 39 52 48 53 62 54 37 55 38 56
REMARK SMILES IDX 47 58 63 59 40 60 29 61 30 62 34 63 31 64 33 65 32 66 51 67
REMARK SMILES IDX 52 68 56 69 53 70 55 71 54 72 41 73 42 74 46 75 43 76 45 77
REMARK SMILES IDX 44 78
REMARK H PARENT 13 5 17 27 61 46 39 57
REMARK Flexibility Score: inf
ROOT
ATOM      1  C   UNL     1       0.595   1.003   6.616  1.00  0.00     0.118 C 
ENDROOT
BRANCH   1   2
ATOM      2  N   UNL     1       1.051  -0.377   6.719  1.00  0.00    -0.352 N 
ATOM      3  C   UNL     1       1.659  -1.203   5.794  1.00  0.00     0.251 C 
ATOM      4  O   UNL     1       2.003  -2.330   6.144  1.00  0.00    -0.269 OA
ATOM      5  H   UNL     1       0.900  -0.792   7.599  1.00  0.00     0.163 HD
BRANCH   3   6
ATOM      6  C   UNL     1       1.784  -0.799   4.367  1.00  0.00     0.042 A 
ATOM      7  C   UNL     1       1.224  -1.433   2.069  1.00  0.00     0.038 A 
ATOM      8  C   UNL     1       1.522  -1.773   3.390  1.00  0.00     0.039 A 
ATOM      9  C   UNL     1       1.227  -0.068   1.779  1.00  0.00     0.039 A 
ATOM     10  C   UNL     1       1.569   0.918   2.713  1.00  0.00     0.058 A 
ATOM     11  C   UNL     1       1.966   0.523   3.985  1.00  0.00     0.027 A 
BRANCH   7  12
ATOM     12  N   UNL     1       0.850  -2.365   1.114  1.00  0.00    -0.372 N 
BRANCH  12  13
ATOM     13  C   UNL     1       1.358  -2.267  -0.267  1.00  0.00     0.116 C 
BRANCH  13  14
ATOM     14  C   UNL     1       0.369  -1.658  -1.280  1.00  0.00     0.018 C 
ATOM     15  C   UNL     1       0.521  -0.162  -1.547  1.00  0.00     0.006 C 
ENDBRANCH  13  14
ENDBRANCH  12  13
BRANCH  12  16
ATOM     16  C   UNL     1      -0.195  -3.366   1.408  1.00  0.00     0.116 C 
BRANCH  16  17
ATOM     17  C   UNL     1       0.304  -4.589   2.188  1.00  0.00     0.018 C 
ATOM     18  C   UNL     1      -0.297  -4.684   3.591  1.00  0.00     0.006 C 
ENDBRANCH  16  17
ENDBRANCH  12  16
ENDBRANCH   7  12
BRANCH  10  19
ATOM     19  C   UNL     1       1.291   2.370   2.427  1.00  0.00     0.416 C 
ATOM     20  F   UNL     1       0.169   2.792   3.080  1.00  0.00    -0.166 F 
ATOM     21  F   UNL     1       2.289   3.197   2.836  1.00  0.00    -0.166 F 
ATOM     22  F   UNL     1       1.078   2.644   1.112  1.00  0.00    -0.166 F 
ENDBRANCH  10  19
ENDBRANCH   3   6
ENDBRANCH   1   2
BRANCH   1  23
ATOM     23  C   UNL     1      -0.740   1.304   7.266  1.00  0.00     0.042 C 
BRANCH  23  24
ATOM     24  C   UNL     1      -0.805   1.036   8.755  1.00  0.00     0.118 C 
BRANCH  24  25
ATOM     25  N   UNL     1       0.151   1.823   9.522  1.00  0.00    -0.352 N 
ATOM     26  C   UNL     1      -0.018   2.923  10.332  1.00  0.00     0.251 C 
ATOM     27  H   UNL     1       1.083   1.514   9.448  1.00  0.00     0.163 HD
ATOM     28  O   UNL     1       0.967   3.530  10.736  1.00  0.00    -0.269 OA
BRANCH  26  29
ATOM     29  C   UNL     1      -1.372   3.398  10.694  1.00  0.00     0.039 A 
ATOM     30  C   UNL     1      -1.608   4.774  10.783  1.00  0.00     0.014 A 
ATOM     31  C   UNL     1      -2.406   2.504  10.967  1.00  0.00     0.014 A 
ATOM     32  C   UNL     1      -2.896   5.242  11.059  1.00  0.00     0.010 A 
ATOM     33  C   UNL     1      -3.707   2.968  11.113  1.00  0.00     0.010 A 
ATOM     34  C   UNL     1      -3.967   4.343  11.177  1.00  0.00    -0.014 A 
BRANCH  34  35
ATOM     35  C   UNL     1      -5.362   4.809  11.385  1.00  0.00     0.031 A 
ATOM     36  C   UNL     1      -6.128   4.377  12.608  1.00  0.00     0.074 A 
ATOM     37  C   UNL     1      -5.966   5.556  10.441  1.00  0.00     0.049 A 
ATOM     38  N   UNL     1      -7.376   4.610  12.928  1.00  0.00    -0.248 NA
ATOM     39  C   UNL     1      -5.407   3.544  13.586  1.00  0.00     0.031 C 
ATOM     40  C   UNL     1      -5.353   6.001   9.187  1.00  0.00     0.029 A 
ATOM     41  N   UNL     1      -7.239   6.069  10.386  1.00  0.00    -0.354 N 
ATOM     42  C   UNL     1      -7.590   3.939  14.125  1.00  0.00     0.074 A 
ATOM     43  C   UNL     1      -6.368   3.235  14.442  1.00  0.00     0.031 C 
ATOM     44  C   UNL     1      -6.236   6.747   8.505  1.00  0.00     0.029 A 
ATOM     45  C   UNL     1      -7.492   6.793   9.246  1.00  0.00     0.049 A 
ATOM     46  H   UNL     1      -7.906   5.931  11.096  1.00  0.00     0.167 HD
ATOM     47  C   UNL     1      -8.695   3.929  14.908  1.00  0.00     0.031 A 
ATOM     48  C   UNL     1      -8.613   7.417   8.837  1.00  0.00     0.031 A 
ATOM     49  C   UNL     1      -9.907   4.638  14.599  1.00  0.00     0.049 A 
ATOM     50  C   UNL     1      -9.832   7.378   9.715  1.00  0.00     0.074 A 
ATOM     51  C   UNL     1     -11.064   4.737  15.351  1.00  0.00     0.029 A 
ATOM     52  N   UNL     1     -10.117   5.368  13.439  1.00  0.00    -0.354 N 
ATOM     53  N   UNL     1      -9.995   6.796  10.879  1.00  0.00    -0.248 NA
ATOM     54  C   UNL     1     -11.020   8.094   9.227  1.00  0.00     0.031 C 
ATOM     55  C   UNL     1     -11.996   5.478  14.619  1.00  0.00     0.029 A 
ATOM     56  C   UNL     1     -11.396   5.899  13.443  1.00  0.00     0.049 A 
ATOM     57  H   UNL     1      -9.456   5.491  12.720  1.00  0.00     0.167 HD
ATOM     58  C   UNL     1     -11.292   7.099  11.276  1.00  0.00     0.074 A 
ATOM     59  C   UNL     1     -11.863   7.932  10.237  1.00  0.00     0.031 C 
ATOM     60  C   UNL     1     -11.950   6.723  12.399  1.00  0.00     0.031 A 
BRANCH  47  61
ATOM     61  C   UNL     1      -8.638   3.118  16.176  1.00  0.00    -0.014 A 
ATOM     62  C   UNL     1      -7.803   3.491  17.243  1.00  0.00     0.009 A 
ATOM     63  C   UNL     1      -9.447   1.980  16.316  1.00  0.00     0.009 A 
ATOM     64  C   UNL     1      -7.748   2.717  18.404  1.00  0.00     0.001 A 
ATOM     65  C   UNL     1      -9.416   1.228  17.492  1.00  0.00     0.001 A 
ATOM     66  C   UNL     1      -8.558   1.589  18.529  1.00  0.00     0.000 A 
ENDBRANCH  47  61
BRANCH  48  67
ATOM     67  C   UNL     1      -8.631   8.143   7.539  1.00  0.00    -0.014 A 
ATOM     68  C   UNL     1      -8.716   9.543   7.504  1.00  0.00     0.009 A 
ATOM     69  C   UNL     1      -8.565   7.439   6.325  1.00  0.00     0.009 A 
ATOM     70  C   UNL     1      -8.765  10.221   6.283  1.00  0.00     0.001 A 
ATOM     71  C   UNL     1      -8.581   8.121   5.107  1.00  0.00     0.001 A 
ATOM     72  C   UNL     1      -8.692   9.510   5.086  1.00  0.00     0.000 A 
ENDBRANCH  48  67
BRANCH  60  73
ATOM     73  C   UNL     1     -13.350   7.240  12.582  1.00  0.00    -0.014 A 
ATOM     74  C   UNL     1     -14.412   6.774  11.792  1.00  0.00     0.009 A 
ATOM     75  C   UNL     1     -13.614   8.178  13.593  1.00  0.00     0.009 A 
ATOM     76  C   UNL     1     -15.704   7.266  11.987  1.00  0.00     0.001 A 
ATOM     77  C   UNL     1     -14.912   8.642  13.808  1.00  0.00     0.001 A 
ATOM     78  C   UNL     1     -15.954   8.194  12.998  1.00  0.00     0.000 A 
ENDBRANCH  60  73
ENDBRANCH  34  35
ENDBRANCH  26  29
ENDBRANCH  24  25
ENDBRANCH  23  24
ENDBRANCH   1  23
TORSDOF 16
