REMARK SMILES Cc1c(C[NH2+]Cc2cccc(F)c2)c(C(=O)NCCCNC(=O)c2ccc(-c3c4nc(c(-c5ccccc5)c5ccc([nH]5)c(-c5ccccc5)c5nc(c(-c6ccccc6)c6ccc3[nH]6)C=C5)C=C4)cc2)c(C)n1Cc1c(F)cccc1Cl
REMARK SMILES IDX 18 1 17 2 15 3 16 4 14 6 1 7 2 8 3 9 74 10 72 11 73 12 4 13
REMARK SMILES IDX 5 14 6 17 7 18 8 19 13 20 9 21 11 22 10 23 12 24 75 25 76 26
REMARK SMILES IDX 77 27 82 28 78 29 79 30 81 31 83 32 80 33 19 34 20 35 21 36
REMARK SMILES IDX 22 37 23 39 24 40 25 41 71 42 26 43 70 44 27 45 28 46 29 47
REMARK SMILES IDX 64 48 30 49 69 50 63 51 65 52 31 53 68 54 62 55 61 56 32 58
REMARK SMILES IDX 54 59 39 60 53 61 40 62 43 63 52 64 66 65 41 66 42 67 51 69
REMARK SMILES IDX 67 70 44 71 33 72 34 73 38 74 35 75 37 76 36 77 55 78 56 79
REMARK SMILES IDX 60 80 57 81 59 82 58 83 45 84 46 85 50 86 47 87 49 88 48 89
REMARK H PARENT 17 5 5 15 5 16 21 38 65 57 43 68
REMARK Flexibility Score: inf
ROOT
ATOM      1  C   UNL     1      -1.026  -5.476  -4.600  1.00  0.00     0.118 C 
ENDROOT
BRANCH   1   2
ATOM      2  N   UNL     1      -0.390  -5.814  -3.341  1.00  0.00    -0.352 N 
ATOM      3  C   UNL     1       0.093  -5.138  -2.253  1.00  0.00     0.253 C 
ATOM      4  O   UNL     1       0.701  -5.883  -1.464  1.00  0.00    -0.269 OA
ATOM      5  H   UNL     1      -0.277  -6.787  -3.243  1.00  0.00     0.163 HD
BRANCH   3   6
ATOM      6  C   UNL     1       0.030  -3.680  -2.040  1.00  0.00     0.069 A 
ATOM      7  C   UNL     1       1.116  -0.482  -0.364  1.00  0.00     0.065 C 
ATOM      8  C   UNL     1       0.575  -1.601  -1.193  1.00  0.00     0.025 A 
ATOM      9  C   UNL     1       0.830  -2.964  -1.052  1.00  0.00     0.040 A 
ATOM     10  N   UNL     1      -0.330  -1.466  -2.228  1.00  0.00    -0.343 N 
ATOM     11  C   UNL     1      -0.899  -2.719  -2.450  1.00  0.00     0.028 A 
ATOM     12  C   UNL     1      -2.317  -2.867  -2.886  1.00  0.00     0.065 C 
BRANCH   9  13
ATOM     13  C   UNL     1       1.714  -3.581   0.010  1.00  0.00     0.300 C 
BRANCH  13  14
ATOM     14  N   UNL     1       0.837  -4.162   1.022  1.00  0.00    -0.339 N 
ATOM     15  H   UNL     1       0.304  -4.916   0.588  1.00  0.00     0.346 HD
ATOM     16  H   UNL     1       0.246  -3.405   1.366  1.00  0.00     0.346 HD
BRANCH  14  17
ATOM     17  C   UNL     1       1.535  -4.704   2.179  1.00  0.00     0.297 C 
BRANCH  17  18
ATOM     18  C   UNL     1       1.896  -3.725   3.280  1.00  0.00     0.009 A 
ATOM     19  C   UNL     1       1.485  -2.382   3.303  1.00  0.00     0.010 A 
ATOM     20  C   UNL     1       2.646  -4.200   4.371  1.00  0.00     0.048 A 
ATOM     21  C   UNL     1       1.832  -1.534   4.360  1.00  0.00     0.004 A 
ATOM     22  C   UNL     1       2.981  -3.351   5.423  1.00  0.00     0.123 A 
ATOM     23  C   UNL     1       2.585  -2.021   5.425  1.00  0.00     0.039 A 
ATOM     24  F   UNL     1       3.693  -3.827   6.453  1.00  0.00    -0.207 F 
ENDBRANCH  17  18
ENDBRANCH  14  17
ENDBRANCH  13  14
ENDBRANCH   9  13
BRANCH  10  25
ATOM     25  C   UNL     1      -0.774  -0.203  -2.840  1.00  0.00     0.162 C 
BRANCH  25  26
ATOM     26  C   UNL     1      -0.046   0.117  -4.127  1.00  0.00     0.026 A 
ATOM     27  C   UNL     1      -0.397  -0.569  -5.298  1.00  0.00     0.129 A 
ATOM     28  C   UNL     1       0.948   1.101  -4.252  1.00  0.00     0.048 A 
ATOM     29  F   UNL     1      -1.398  -1.454  -5.284  1.00  0.00    -0.207 F 
ATOM     30  C   UNL     1       0.223  -0.337  -6.525  1.00  0.00     0.040 A 
ATOM     31  C   UNL     1       1.573   1.348  -5.487  1.00  0.00     0.021 A 
ATOM     32  Cl  UNL     1       1.429   2.114  -2.940  1.00  0.00    -0.084 Cl
ATOM     33  C   UNL     1       1.218   0.623  -6.622  1.00  0.00     0.005 A 
ENDBRANCH  25  26
ENDBRANCH  10  25
ENDBRANCH   3   6
ENDBRANCH   1   2
BRANCH   1  34
ATOM     34  C   UNL     1      -0.048  -5.145  -5.729  1.00  0.00     0.042 C 
BRANCH  34  35
ATOM     35  C   UNL     1       0.819  -6.321  -6.203  1.00  0.00     0.118 C 
BRANCH  35  36
ATOM     36  N   UNL     1       0.203  -7.106  -7.261  1.00  0.00    -0.352 N 
ATOM     37  C   UNL     1       0.826  -7.887  -8.204  1.00  0.00     0.251 C 
ATOM     38  H   UNL     1      -0.780  -7.074  -7.307  1.00  0.00     0.163 HD
ATOM     39  O   UNL     1       0.138  -8.528  -9.007  1.00  0.00    -0.269 OA
BRANCH  37  40
ATOM     40  C   UNL     1       2.308  -7.918  -8.323  1.00  0.00     0.039 A 
ATOM     41  C   UNL     1       2.909  -7.033  -9.208  1.00  0.00     0.014 A 
ATOM     42  C   UNL     1       3.090  -8.932  -7.747  1.00  0.00     0.014 A 
ATOM     43  C   UNL     1       4.276  -7.167  -9.511  1.00  0.00     0.010 A 
ATOM     44  C   UNL     1       4.461  -9.105  -8.107  1.00  0.00     0.010 A 
ATOM     45  C   UNL     1       5.076  -8.250  -9.035  1.00  0.00    -0.014 A 
BRANCH  45  46
ATOM     46  C   UNL     1       6.222  -8.671  -9.956  1.00  0.00     0.031 A 
ATOM     47  C   UNL     1       5.644  -8.773 -11.325  1.00  0.00     0.074 A 
ATOM     48  C   UNL     1       7.531  -9.059  -9.866  1.00  0.00     0.049 A 
ATOM     49  N   UNL     1       4.635  -9.551 -11.587  1.00  0.00    -0.248 NA
ATOM     50  C   UNL     1       5.980  -7.809 -12.373  1.00  0.00     0.031 C 
ATOM     51  C   UNL     1       8.359  -9.206  -8.668  1.00  0.00     0.029 A 
ATOM     52  N   UNL     1       8.439  -9.400 -10.881  1.00  0.00    -0.354 N 
ATOM     53  C   UNL     1       4.383  -9.379 -12.925  1.00  0.00     0.074 A 
ATOM     54  C   UNL     1       5.088  -8.165 -13.299  1.00  0.00     0.031 C 
ATOM     55  C   UNL     1       9.648  -9.481  -9.013  1.00  0.00     0.029 A 
ATOM     56  C   UNL     1       9.772  -9.589 -10.462  1.00  0.00     0.049 A 
ATOM     57  H   UNL     1       8.164  -9.500 -11.821  1.00  0.00     0.167 HD
ATOM     58  C   UNL     1       4.121 -10.472 -13.691  1.00  0.00     0.031 A 
ATOM     59  C   UNL     1      10.887  -9.849 -11.213  1.00  0.00     0.031 A 
ATOM     60  C   UNL     1       5.136 -10.704 -14.682  1.00  0.00     0.049 A 
ATOM     61  C   UNL     1      10.478 -10.318 -12.548  1.00  0.00     0.074 A 
ATOM     62  C   UNL     1       5.765  -9.940 -15.644  1.00  0.00     0.029 A 
ATOM     63  N   UNL     1       5.954 -11.791 -14.458  1.00  0.00    -0.354 N 
ATOM     64  N   UNL     1      10.116 -11.545 -12.758  1.00  0.00    -0.248 NA
ATOM     65  C   UNL     1      10.553  -9.479 -13.738  1.00  0.00     0.031 C 
ATOM     66  C   UNL     1       7.124 -10.364 -15.651  1.00  0.00     0.029 A 
ATOM     67  C   UNL     1       7.249 -11.467 -14.816  1.00  0.00     0.049 A 
ATOM     68  H   UNL     1       5.662 -12.660 -14.099  1.00  0.00     0.167 HD
ATOM     69  C   UNL     1       9.488 -11.502 -13.967  1.00  0.00     0.074 A 
ATOM     70  C   UNL     1      10.001 -10.316 -14.620  1.00  0.00     0.031 C 
ATOM     71  C   UNL     1       8.310 -12.158 -14.114  1.00  0.00     0.031 A 
BRANCH  58  72
ATOM     72  C   UNL     1       3.349 -11.573 -13.022  1.00  0.00    -0.014 A 
ATOM     73  C   UNL     1       2.048 -11.856 -13.454  1.00  0.00     0.009 A 
ATOM     74  C   UNL     1       3.849 -12.270 -11.903  1.00  0.00     0.009 A 
ATOM     75  C   UNL     1       1.251 -12.766 -12.750  1.00  0.00     0.001 A 
ATOM     76  C   UNL     1       3.046 -13.158 -11.188  1.00  0.00     0.001 A 
ATOM     77  C   UNL     1       1.742 -13.399 -11.607  1.00  0.00     0.000 A 
ENDBRANCH  58  72
BRANCH  59  78
ATOM     78  C   UNL     1      12.380  -9.934 -11.042  1.00  0.00    -0.014 A 
ATOM     79  C   UNL     1      13.100 -10.892 -11.811  1.00  0.00     0.009 A 
ATOM     80  C   UNL     1      13.130  -8.905 -10.467  1.00  0.00     0.009 A 
ATOM     81  C   UNL     1      14.464 -10.765 -12.097  1.00  0.00     0.001 A 
ATOM     82  C   UNL     1      14.514  -8.797 -10.725  1.00  0.00     0.001 A 
ATOM     83  C   UNL     1      15.170  -9.700 -11.565  1.00  0.00     0.000 A 
ENDBRANCH  59  78
BRANCH  71  84
ATOM     84  C   UNL     1       8.076 -13.411 -13.270  1.00  0.00    -0.014 A 
ATOM     85  C   UNL     1       8.439 -13.561 -11.913  1.00  0.00     0.009 A 
ATOM     86  C   UNL     1       7.457 -14.513 -13.879  1.00  0.00     0.009 A 
ATOM     87  C   UNL     1       8.281 -14.771 -11.229  1.00  0.00     0.001 A 
ATOM     88  C   UNL     1       7.245 -15.709 -13.180  1.00  0.00     0.001 A 
ATOM     89  C   UNL     1       7.679 -15.847 -11.864  1.00  0.00     0.000 A 
ENDBRANCH  71  84
ENDBRANCH  45  46
ENDBRANCH  37  40
ENDBRANCH  35  36
ENDBRANCH  34  35
ENDBRANCH   1  34
TORSDOF 16
