REMARK SMILES CC(C)OCCS(=O)(=O)N[C@@H]1CCC[C@H]1C(=O)NCCCNC(=O)c1ccc(-c2c3nc(c(-c4ccccc4)c4ccc([nH]4)c(-c4ccccc4)c4nc(c(-c5ccccc5)c5ccc2[nH]5)C=C4)C=C3)cc1
REMARK SMILES IDX 16 1 17 2 18 3 15 5 11 6 12 7 13 8 14 9 10 10 7 12 8 13 9 14
REMARK SMILES IDX 6 15 5 16 4 17 2 18 1 19 3 20 19 21 20 22 21 23 22 24 23 25
REMARK SMILES IDX 24 27 25 28 26 29 72 30 27 31 71 32 28 33 29 34 30 35 65 36
REMARK SMILES IDX 31 37 70 38 64 39 66 40 32 41 69 42 63 43 62 44 33 46 55 47
REMARK SMILES IDX 40 48 54 49 41 50 44 51 53 52 67 53 42 54 43 55 52 57 68 58
REMARK SMILES IDX 45 59 34 60 35 61 39 62 36 63 38 64 37 65 56 66 57 67 61 68
REMARK SMILES IDX 58 69 60 70 59 71 46 72 47 73 51 74 48 75 50 76 49 77
REMARK H PARENT 18 4 10 11 22 26 66 45 44 56
REMARK Flexibility Score: inf
ROOT
ATOM      1  C   UNL     1      -1.334   0.034   1.850  1.00  0.00     0.224 C 
ATOM      2  O   UNL     1      -2.450  -0.054   1.326  1.00  0.00    -0.275 OA
ATOM      3  N   UNL     1      -1.341   0.567   3.091  1.00  0.00    -0.356 N 
ATOM      4  H   UNL     1      -2.104   1.160   3.277  1.00  0.00     0.163 HD
ENDROOT
BRANCH   1   5
ATOM      5  C   UNL     1      -0.088  -0.495   1.133  1.00  0.00     0.096 C 
ATOM      6  C   UNL     1       1.195   0.395   1.018  1.00  0.00     0.082 C 
ATOM      7  C   UNL     1       2.357  -0.597   1.075  1.00  0.00     0.021 C 
ATOM      8  C   UNL     1       1.758  -1.994   1.294  1.00  0.00     0.003 C 
ATOM      9  C   UNL     1       0.346  -1.799   1.800  1.00  0.00     0.015 C 
BRANCH   6  10
ATOM     10  N   UNL     1       1.446   1.625   0.072  1.00  0.00    -0.211 NA
ATOM     11  H   UNL     1       0.654   2.228   0.297  1.00  0.00     0.141 HD
BRANCH  10  12
ATOM     12  S   UNL     1       1.653   1.924  -1.581  1.00  0.00     0.214 S 
ATOM     13  O   UNL     1       1.558   0.666  -2.307  1.00  0.00    -0.212 OA
ATOM     14  O   UNL     1       2.926   2.611  -1.547  1.00  0.00    -0.212 OA
BRANCH  12  15
ATOM     15  C   UNL     1       0.519   3.229  -2.347  1.00  0.00     0.182 C 
BRANCH  15  16
ATOM     16  C   UNL     1      -1.011   3.211  -2.607  1.00  0.00     0.178 C 
BRANCH  16  17
ATOM     17  O   UNL     1      -1.944   3.271  -1.521  1.00  0.00    -0.378 OA
BRANCH  17  18
ATOM     18  C   UNL     1      -1.588   2.416  -0.445  1.00  0.00     0.112 C 
ATOM     19  C   UNL     1      -1.279   1.054  -1.101  1.00  0.00     0.038 C 
ATOM     20  C   UNL     1      -0.708   3.333   0.449  1.00  0.00     0.038 C 
ENDBRANCH  17  18
ENDBRANCH  16  17
ENDBRANCH  15  16
ENDBRANCH  12  15
ENDBRANCH  10  12
ENDBRANCH   6  10
ENDBRANCH   1   5
BRANCH   3  21
ATOM     21  C   UNL     1      -0.417   0.414   4.191  1.00  0.00     0.117 C 
BRANCH  21  22
ATOM     22  C   UNL     1      -0.090   1.730   4.869  1.00  0.00     0.042 C 
BRANCH  22  23
ATOM     23  C   UNL     1      -1.309   2.536   5.297  1.00  0.00     0.118 C 
BRANCH  23  24
ATOM     24  N   UNL     1      -2.237   1.773   6.124  1.00  0.00    -0.352 N 
ATOM     25  C   UNL     1      -2.388   1.725   7.486  1.00  0.00     0.251 C 
ATOM     26  H   UNL     1      -2.857   1.197   5.621  1.00  0.00     0.163 HD
ATOM     27  O   UNL     1      -3.056   0.828   7.997  1.00  0.00    -0.269 OA
BRANCH  25  28
ATOM     28  C   UNL     1      -1.743   2.739   8.340  1.00  0.00     0.039 A 
ATOM     29  C   UNL     1      -1.182   2.357   9.561  1.00  0.00     0.014 A 
ATOM     30  C   UNL     1      -1.724   4.078   7.949  1.00  0.00     0.014 A 
ATOM     31  C   UNL     1      -0.560   3.315  10.363  1.00  0.00     0.010 A 
ATOM     32  C   UNL     1      -0.995   5.003   8.681  1.00  0.00     0.010 A 
ATOM     33  C   UNL     1      -0.442   4.642   9.916  1.00  0.00    -0.014 A 
BRANCH  33  34
ATOM     34  C   UNL     1       0.184   5.691  10.754  1.00  0.00     0.031 A 
ATOM     35  C   UNL     1      -0.635   6.876  11.196  1.00  0.00     0.074 A 
ATOM     36  C   UNL     1       1.490   5.608  11.070  1.00  0.00     0.049 A 
ATOM     37  N   UNL     1      -0.268   7.924  11.888  1.00  0.00    -0.248 NA
ATOM     38  C   UNL     1      -2.046   6.907  10.771  1.00  0.00     0.031 C 
ATOM     39  C   UNL     1       2.399   4.534  10.661  1.00  0.00     0.029 A 
ATOM     40  N   UNL     1       2.280   6.446  11.814  1.00  0.00    -0.354 N 
ATOM     41  C   UNL     1      -1.390   8.741  11.957  1.00  0.00     0.074 A 
ATOM     42  C   UNL     1      -2.427   8.108  11.175  1.00  0.00     0.031 C 
ATOM     43  C   UNL     1       3.611   4.757  11.195  1.00  0.00     0.029 A 
ATOM     44  C   UNL     1       3.575   6.007  11.946  1.00  0.00     0.049 A 
ATOM     45  H   UNL     1       1.951   7.282  12.215  1.00  0.00     0.167 HD
ATOM     46  C   UNL     1      -1.558   9.899  12.636  1.00  0.00     0.031 A 
ATOM     47  C   UNL     1       4.613   6.552  12.606  1.00  0.00     0.031 A 
ATOM     48  C   UNL     1      -0.530  10.515  13.429  1.00  0.00     0.049 A 
ATOM     49  C   UNL     1       4.402   7.837  13.358  1.00  0.00     0.074 A 
ATOM     50  C   UNL     1      -0.604  11.660  14.201  1.00  0.00     0.029 A 
ATOM     51  N   UNL     1       0.763  10.029  13.553  1.00  0.00    -0.354 N 
ATOM     52  N   UNL     1       3.316   8.564  13.468  1.00  0.00    -0.248 NA
ATOM     53  C   UNL     1       5.557   8.361  14.098  1.00  0.00     0.031 C 
ATOM     54  C   UNL     1       0.661  11.896  14.750  1.00  0.00     0.029 A 
ATOM     55  C   UNL     1       1.502  10.860  14.377  1.00  0.00     0.049 A 
ATOM     56  H   UNL     1       1.104   9.214  13.119  1.00  0.00     0.167 HD
ATOM     57  C   UNL     1       3.645   9.609  14.323  1.00  0.00     0.074 A 
ATOM     58  C   UNL     1       5.026   9.409  14.712  1.00  0.00     0.031 C 
ATOM     59  C   UNL     1       2.875  10.639  14.752  1.00  0.00     0.031 A 
BRANCH  46  60
ATOM     60  C   UNL     1      -2.903  10.568  12.542  1.00  0.00    -0.014 A 
ATOM     61  C   UNL     1      -4.052   9.984  13.101  1.00  0.00     0.009 A 
ATOM     62  C   UNL     1      -3.023  11.807  11.894  1.00  0.00     0.009 A 
ATOM     63  C   UNL     1      -5.298  10.603  12.974  1.00  0.00     0.001 A 
ATOM     64  C   UNL     1      -4.263  12.442  11.800  1.00  0.00     0.001 A 
ATOM     65  C   UNL     1      -5.401  11.834  12.328  1.00  0.00     0.000 A 
ENDBRANCH  46  60
BRANCH  47  66
ATOM     66  C   UNL     1       5.935   5.870  12.617  1.00  0.00    -0.014 A 
ATOM     67  C   UNL     1       6.432   5.297  13.799  1.00  0.00     0.009 A 
ATOM     68  C   UNL     1       6.713   5.798  11.451  1.00  0.00     0.009 A 
ATOM     69  C   UNL     1       7.696   4.702  13.821  1.00  0.00     0.001 A 
ATOM     70  C   UNL     1       7.961   5.172  11.469  1.00  0.00     0.001 A 
ATOM     71  C   UNL     1       8.457   4.636  12.656  1.00  0.00     0.000 A 
ENDBRANCH  47  66
BRANCH  59  72
ATOM     72  C   UNL     1       3.494  11.590  15.740  1.00  0.00    -0.014 A 
ATOM     73  C   UNL     1       4.529  12.464  15.376  1.00  0.00     0.009 A 
ATOM     74  C   UNL     1       3.014  11.617  17.060  1.00  0.00     0.009 A 
ATOM     75  C   UNL     1       5.108  13.306  16.328  1.00  0.00     0.001 A 
ATOM     76  C   UNL     1       3.568  12.487  17.998  1.00  0.00     0.001 A 
ATOM     77  C   UNL     1       4.625  13.319  17.636  1.00  0.00     0.000 A 
ENDBRANCH  59  72
ENDBRANCH  33  34
ENDBRANCH  25  28
ENDBRANCH  23  24
ENDBRANCH  22  23
ENDBRANCH  21  22
ENDBRANCH   3  21
TORSDOF 16
