REMARK SMILES CCCc1cc2c(cc1Cl)C=C(C(=O)NCCCNC(=O)c1ccc(-c3c4nc(c(-c5ccccc5)c5ccc([nH]5)c(-c5ccccc5)c5nc(c(-c6ccccc6)c6ccc3[nH]6)C=C5)C=C4)cc1)[C@@H](C(F)(F)F)O2
REMARK SMILES IDX 17 1 16 2 15 3 13 4 14 5 12 7 4 8 5 9 9 10 6 11 8 12 10 13
REMARK SMILES IDX 7 14 75 15 11 16 70 17 3 18 2 19 1 20 71 21 72 22 73 23
REMARK SMILES IDX 74 24 18 25 19 26 20 27 21 29 22 30 23 31 69 32 24 33 68 34
REMARK SMILES IDX 25 35 26 36 27 37 62 38 28 39 67 40 61 41 63 42 29 43 66 44
REMARK SMILES IDX 60 45 59 46 30 48 52 49 37 50 51 51 38 52 41 53 50 54 64 55
REMARK SMILES IDX 39 56 40 57 49 59 65 60 42 61 31 62 32 63 36 64 33 65 35 66
REMARK SMILES IDX 34 67 53 68 54 69 58 70 55 71 57 72 56 73 43 74 44 75 48 76
REMARK SMILES IDX 45 77 47 78 46 79
REMARK H PARENT 15 6 19 28 63 47 41 58
REMARK Flexibility Score: inf
ROOT
ATOM      1  C   UNL     1      -3.081   4.005   9.418  1.00  0.00     0.042 C 
ENDROOT
BRANCH   1   2
ATOM      2  C   UNL     1      -3.571   4.213   7.993  1.00  0.00     0.118 C 
BRANCH   2   3
ATOM      3  N   UNL     1      -2.685   5.087   7.239  1.00  0.00    -0.352 N 
ATOM      4  C   UNL     1      -1.751   4.959   6.269  1.00  0.00     0.251 C 
ATOM      5  O   UNL     1      -1.199   6.013   5.937  1.00  0.00    -0.270 OA
ATOM      6  H   UNL     1      -2.796   6.028   7.507  1.00  0.00     0.163 HD
BRANCH   4   7
ATOM      7  C   UNL     1      -1.365   3.679   5.606  1.00  0.00     0.067 C 
ATOM      8  C   UNL     1       0.994   0.227   2.755  1.00  0.00    -0.026 A 
ATOM      9  C   UNL     1      -0.048   0.187   3.698  1.00  0.00     0.052 A 
ATOM     10  C   UNL     1       1.624   1.459   2.514  1.00  0.00     0.045 A 
ATOM     11  C   UNL     1      -0.455   1.343   4.364  1.00  0.00     0.128 A 
ATOM     12  C   UNL     1       1.201   2.618   3.175  1.00  0.00     0.032 A 
ATOM     13  Cl  UNL     1       2.953   1.616   1.422  1.00  0.00    -0.084 Cl
ATOM     14  C   UNL     1       0.157   2.563   4.101  1.00  0.00     0.019 A 
ATOM     15  O   UNL     1      -1.431   1.190   5.304  1.00  0.00    -0.475 OA
ATOM     16  C   UNL     1      -0.277   3.752   4.818  1.00  0.00     0.025 C 
ATOM     17  C   UNL     1      -2.127   2.390   5.743  1.00  0.00     0.314 C 
BRANCH   8  18
ATOM     18  C   UNL     1       1.367  -1.057   2.049  1.00  0.00     0.037 C 
BRANCH  18  19
ATOM     19  C   UNL     1       0.484  -1.372   0.835  1.00  0.00     0.001 C 
ATOM     20  C   UNL     1       0.734  -0.460  -0.358  1.00  0.00     0.004 C 
ENDBRANCH  18  19
ENDBRANCH   8  18
BRANCH  17  21
ATOM     21  C   UNL     1      -3.507   2.422   5.061  1.00  0.00     0.429 C 
ATOM     22  F   UNL     1      -4.296   1.433   5.555  1.00  0.00    -0.167 F 
ATOM     23  F   UNL     1      -4.174   3.580   5.271  1.00  0.00    -0.167 F 
ATOM     24  F   UNL     1      -3.430   2.249   3.723  1.00  0.00    -0.167 F 
ENDBRANCH  17  21
ENDBRANCH   4   7
ENDBRANCH   2   3
ENDBRANCH   1   2
BRANCH   1  25
ATOM     25  C   UNL     1      -3.305   5.229  10.296  1.00  0.00     0.118 C 
BRANCH  25  26
ATOM     26  N   UNL     1      -4.724   5.491  10.531  1.00  0.00    -0.352 N 
ATOM     27  C   UNL     1      -5.489   5.331  11.662  1.00  0.00     0.251 C 
ATOM     28  H   UNL     1      -5.212   5.841   9.751  1.00  0.00     0.163 HD
ATOM     29  O   UNL     1      -6.713   5.393  11.586  1.00  0.00    -0.269 OA
BRANCH  27  30
ATOM     30  C   UNL     1      -4.844   5.063  12.963  1.00  0.00     0.039 A 
ATOM     31  C   UNL     1      -3.674   5.731  13.318  1.00  0.00     0.014 A 
ATOM     32  C   UNL     1      -5.415   4.139  13.844  1.00  0.00     0.014 A 
ATOM     33  C   UNL     1      -2.966   5.327  14.439  1.00  0.00     0.010 A 
ATOM     34  C   UNL     1      -4.759   3.819  15.037  1.00  0.00     0.010 A 
ATOM     35  C   UNL     1      -3.501   4.370  15.318  1.00  0.00    -0.014 A 
BRANCH  35  36
ATOM     36  C   UNL     1      -2.714   3.987  16.519  1.00  0.00     0.031 A 
ATOM     37  C   UNL     1      -2.208   2.582  16.699  1.00  0.00     0.074 A 
ATOM     38  C   UNL     1      -2.376   4.946  17.404  1.00  0.00     0.049 A 
ATOM     39  N   UNL     1      -1.437   2.104  17.644  1.00  0.00    -0.248 NA
ATOM     40  C   UNL     1      -2.615   1.581  15.700  1.00  0.00     0.031 C 
ATOM     41  C   UNL     1      -2.796   6.348  17.325  1.00  0.00     0.029 A 
ATOM     42  N   UNL     1      -1.563   4.906  18.508  1.00  0.00    -0.354 N 
ATOM     43  C   UNL     1      -1.288   0.751  17.367  1.00  0.00     0.074 A 
ATOM     44  C   UNL     1      -2.066   0.474  16.181  1.00  0.00     0.031 C 
ATOM     45  C   UNL     1      -2.165   7.050  18.276  1.00  0.00     0.029 A 
ATOM     46  C   UNL     1      -1.361   6.138  19.082  1.00  0.00     0.049 A 
ATOM     47  H   UNL     1      -1.162   4.076  18.854  1.00  0.00     0.167 HD
ATOM     48  C   UNL     1      -0.561  -0.173  18.038  1.00  0.00     0.031 A 
ATOM     49  C   UNL     1      -0.617   6.502  20.143  1.00  0.00     0.031 A 
ATOM     50  C   UNL     1       0.227   0.111  19.208  1.00  0.00     0.049 A 
ATOM     51  C   UNL     1       0.156   5.452  20.884  1.00  0.00     0.074 A 
ATOM     52  C   UNL     1       1.010  -0.760  19.947  1.00  0.00     0.029 A 
ATOM     53  N   UNL     1       0.339   1.356  19.805  1.00  0.00    -0.354 N 
ATOM     54  N   UNL     1       0.281   4.177  20.609  1.00  0.00    -0.248 NA
ATOM     55  C   UNL     1       0.881   5.886  22.086  1.00  0.00     0.031 C 
ATOM     56  C   UNL     1       1.552  -0.053  21.023  1.00  0.00     0.029 A 
ATOM     57  C   UNL     1       1.158   1.272  20.918  1.00  0.00     0.049 A 
ATOM     58  H   UNL     1      -0.099   2.178  19.486  1.00  0.00     0.167 HD
ATOM     59  C   UNL     1       1.099   3.655  21.601  1.00  0.00     0.074 A 
ATOM     60  C   UNL     1       1.464   4.757  22.467  1.00  0.00     0.031 C 
ATOM     61  C   UNL     1       1.503   2.374  21.778  1.00  0.00     0.031 A 
BRANCH  48  62
ATOM     62  C   UNL     1      -0.589  -1.592  17.541  1.00  0.00    -0.014 A 
ATOM     63  C   UNL     1      -1.232  -2.582  18.302  1.00  0.00     0.009 A 
ATOM     64  C   UNL     1       0.095  -1.970  16.376  1.00  0.00     0.009 A 
ATOM     65  C   UNL     1      -1.181  -3.922  17.914  1.00  0.00     0.001 A 
ATOM     66  C   UNL     1       0.123  -3.309  15.975  1.00  0.00     0.001 A 
ATOM     67  C   UNL     1      -0.507  -4.284  16.749  1.00  0.00     0.000 A 
ENDBRANCH  48  62
BRANCH  49  68
ATOM     68  C   UNL     1      -0.577   7.931  20.550  1.00  0.00    -0.014 A 
ATOM     69  C   UNL     1      -1.725   8.559  21.061  1.00  0.00     0.009 A 
ATOM     70  C   UNL     1       0.587   8.692  20.368  1.00  0.00     0.009 A 
ATOM     71  C   UNL     1      -1.720   9.924  21.349  1.00  0.00     0.001 A 
ATOM     72  C   UNL     1       0.598  10.052  20.688  1.00  0.00     0.001 A 
ATOM     73  C   UNL     1      -0.557  10.669  21.166  1.00  0.00     0.000 A 
ENDBRANCH  49  68
BRANCH  61  74
ATOM     74  C   UNL     1       2.388   2.082  22.956  1.00  0.00    -0.014 A 
ATOM     75  C   UNL     1       3.734   1.740  22.749  1.00  0.00     0.009 A 
ATOM     76  C   UNL     1       1.869   2.055  24.259  1.00  0.00     0.009 A 
ATOM     77  C   UNL     1       4.540   1.363  23.824  1.00  0.00     0.001 A 
ATOM     78  C   UNL     1       2.685   1.705  25.335  1.00  0.00     0.001 A 
ATOM     79  C   UNL     1       4.016   1.351  25.116  1.00  0.00     0.000 A 
ENDBRANCH  61  74
ENDBRANCH  35  36
ENDBRANCH  27  30
ENDBRANCH  25  26
ENDBRANCH   1  25
TORSDOF 13
