REMARK SMILES O=C(CN(CC(F)(F)F)C(=O)Nc1ccccc1Cl)NCCCNC(=O)c1ccc(-c2c3nc(c(-c4ccccc4)c4ccc([nH]4)c(-c4ccccc4)c4nc(c(-c5ccccc5)c5ccc2[nH]5)C=C4)C=C3)cc1
REMARK SMILES IDX 21 1 20 2 1 3 2 4 3 6 4 7 5 8 6 9 7 10 8 11 9 12 10 13 11 14
REMARK SMILES IDX 12 15 13 17 14 18 18 19 15 20 17 21 19 22 16 23 22 24 23 25
REMARK SMILES IDX 24 26 25 27 26 29 27 30 28 31 74 32 29 33 73 34 30 35 31 36
REMARK SMILES IDX 32 37 67 38 33 39 72 40 66 41 68 42 34 43 71 44 65 45 64 46
REMARK SMILES IDX 35 48 57 49 42 50 56 51 43 52 46 53 55 54 69 55 44 56 45 57
REMARK SMILES IDX 54 59 70 60 47 61 36 62 37 63 41 64 38 65 40 66 39 67 58 68
REMARK SMILES IDX 59 69 63 70 60 71 62 72 61 73 48 74 49 75 53 76 50 77 52 78
REMARK SMILES IDX 51 79
REMARK H PARENT 20 5 12 16 24 28 68 47 46 58
REMARK Flexibility Score: inf
ROOT
ATOM      1  C   UNL     1       2.177   1.027  -2.068  1.00  0.00     0.117 C 
ENDROOT
BRANCH   1   2
ATOM      2  N   UNL     1       2.794   0.309  -0.970  1.00  0.00    -0.354 N 
ATOM      3  O   UNL     1       1.099   0.697   0.518  1.00  0.00    -0.273 OA
ATOM      4  C   UNL     1       2.126   0.090   0.220  1.00  0.00     0.239 C 
ATOM      5  H   UNL     1       3.713  -0.030  -1.074  1.00  0.00     0.163 HD
BRANCH   4   6
ATOM      6  C   UNL     1       2.824  -0.857   1.223  1.00  0.00     0.221 C 
BRANCH   6   7
ATOM      7  N   UNL     1       3.886  -1.717   0.657  1.00  0.00    -0.306 N 
BRANCH   7   8
ATOM      8  C   UNL     1       5.276  -1.296   0.970  1.00  0.00     0.237 C 
BRANCH   8   9
ATOM      9  C   UNL     1       5.749  -1.431   2.434  1.00  0.00     0.406 C 
ATOM     10  F   UNL     1       5.896  -2.704   2.835  1.00  0.00    -0.169 F 
ATOM     11  F   UNL     1       6.959  -0.833   2.575  1.00  0.00    -0.169 F 
ATOM     12  F   UNL     1       4.910  -0.823   3.300  1.00  0.00    -0.169 F 
ENDBRANCH   8   9
ENDBRANCH   7   8
BRANCH   7  13
ATOM     13  C   UNL     1       3.426  -2.736  -0.155  1.00  0.00     0.322 C 
ATOM     14  O   UNL     1       2.219  -2.864  -0.384  1.00  0.00    -0.248 OA
ATOM     15  N   UNL     1       4.256  -3.489  -0.916  1.00  0.00    -0.306 N 
ATOM     16  H   UNL     1       3.858  -3.783  -1.767  1.00  0.00     0.171 HD
BRANCH  15  17
ATOM     17  C   UNL     1       5.569  -3.929  -0.727  1.00  0.00     0.061 A 
ATOM     18  C   UNL     1       6.441  -3.774  -1.809  1.00  0.00     0.028 A 
ATOM     19  C   UNL     1       6.037  -4.496   0.465  1.00  0.00     0.064 A 
ATOM     20  C   UNL     1       7.806  -4.005  -1.640  1.00  0.00     0.002 A 
ATOM     21  C   UNL     1       7.407  -4.710   0.637  1.00  0.00     0.023 A 
ATOM     22  Cl  UNL     1       4.949  -5.083   1.673  1.00  0.00    -0.082 Cl
ATOM     23  C   UNL     1       8.293  -4.431  -0.405  1.00  0.00     0.002 A 
ENDBRANCH  15  17
ENDBRANCH   7  13
ENDBRANCH   6   7
ENDBRANCH   4   6
ENDBRANCH   1   2
BRANCH   1  24
ATOM     24  C   UNL     1       2.486   2.520  -2.094  1.00  0.00     0.042 C 
BRANCH  24  25
ATOM     25  C   UNL     1       3.952   2.870  -2.330  1.00  0.00     0.118 C 
BRANCH  25  26
ATOM     26  N   UNL     1       4.459   2.418  -3.620  1.00  0.00    -0.352 N 
ATOM     27  C   UNL     1       5.086   3.101  -4.632  1.00  0.00     0.251 C 
ATOM     28  H   UNL     1       4.329   1.458  -3.796  1.00  0.00     0.163 HD
ATOM     29  O   UNL     1       5.325   2.515  -5.689  1.00  0.00    -0.269 OA
BRANCH  27  30
ATOM     30  C   UNL     1       5.461   4.527  -4.492  1.00  0.00     0.039 A 
ATOM     31  C   UNL     1       5.299   5.372  -5.596  1.00  0.00     0.014 A 
ATOM     32  C   UNL     1       6.010   5.033  -3.312  1.00  0.00     0.014 A 
ATOM     33  C   UNL     1       5.623   6.729  -5.495  1.00  0.00     0.010 A 
ATOM     34  C   UNL     1       6.260   6.400  -3.188  1.00  0.00     0.010 A 
ATOM     35  C   UNL     1       6.073   7.264  -4.278  1.00  0.00    -0.014 A 
BRANCH  35  36
ATOM     36  C   UNL     1       6.353   8.717  -4.130  1.00  0.00     0.031 A 
ATOM     37  C   UNL     1       7.744   9.199  -3.812  1.00  0.00     0.074 A 
ATOM     38  C   UNL     1       5.345   9.607  -4.224  1.00  0.00     0.049 A 
ATOM     39  N   UNL     1       8.167  10.419  -3.592  1.00  0.00    -0.248 NA
ATOM     40  C   UNL     1       8.794   8.173  -3.707  1.00  0.00     0.031 C 
ATOM     41  C   UNL     1       3.945   9.277  -4.497  1.00  0.00     0.029 A 
ATOM     42  N   UNL     1       5.344  10.975  -4.094  1.00  0.00    -0.354 N 
ATOM     43  C   UNL     1       9.522  10.305  -3.306  1.00  0.00     0.074 A 
ATOM     44  C   UNL     1       9.840   8.894  -3.330  1.00  0.00     0.031 C 
ATOM     45  C   UNL     1       3.227  10.411  -4.541  1.00  0.00     0.029 A 
ATOM     46  C   UNL     1       4.103  11.543  -4.255  1.00  0.00     0.049 A 
ATOM     47  H   UNL     1       6.155  11.499  -3.904  1.00  0.00     0.167 HD
ATOM     48  C   UNL     1      10.427  11.284  -3.064  1.00  0.00     0.031 A 
ATOM     49  C   UNL     1       3.709  12.828  -4.173  1.00  0.00     0.031 A 
ATOM     50  C   UNL     1      10.116  12.689  -3.043  1.00  0.00     0.049 A 
ATOM     51  C   UNL     1       4.726  13.894  -3.871  1.00  0.00     0.074 A 
ATOM     52  C   UNL     1      10.975  13.759  -2.857  1.00  0.00     0.029 A 
ATOM     53  N   UNL     1       8.846  13.220  -3.207  1.00  0.00    -0.354 N 
ATOM     54  N   UNL     1       6.016  13.774  -3.670  1.00  0.00    -0.248 NA
ATOM     55  C   UNL     1       4.232  15.277  -3.795  1.00  0.00     0.031 C 
ATOM     56  C   UNL     1      10.216  14.933  -2.848  1.00  0.00     0.029 A 
ATOM     57  C   UNL     1       8.894  14.601  -3.097  1.00  0.00     0.049 A 
ATOM     58  H   UNL     1       8.031  12.695  -3.376  1.00  0.00     0.167 HD
ATOM     59  C   UNL     1       6.492  15.065  -3.477  1.00  0.00     0.074 A 
ATOM     60  C   UNL     1       5.355  15.953  -3.601  1.00  0.00     0.031 C 
ATOM     61  C   UNL     1       7.758  15.476  -3.223  1.00  0.00     0.031 A 
BRANCH  48  62
ATOM     62  C   UNL     1      11.846  10.865  -2.788  1.00  0.00    -0.014 A 
ATOM     63  C   UNL     1      12.651  10.308  -3.795  1.00  0.00     0.009 A 
ATOM     64  C   UNL     1      12.398  11.064  -1.513  1.00  0.00     0.009 A 
ATOM     65  C   UNL     1      13.965   9.922  -3.519  1.00  0.00     0.001 A 
ATOM     66  C   UNL     1      13.722  10.708  -1.248  1.00  0.00     0.001 A 
ATOM     67  C   UNL     1      14.500  10.127  -2.248  1.00  0.00     0.000 A 
ENDBRANCH  48  62
BRANCH  49  68
ATOM     68  C   UNL     1       2.281  13.187  -4.388  1.00  0.00    -0.014 A 
ATOM     69  C   UNL     1       1.892  13.915  -5.524  1.00  0.00     0.009 A 
ATOM     70  C   UNL     1       1.302  12.819  -3.452  1.00  0.00     0.009 A 
ATOM     71  C   UNL     1       0.559  14.293  -5.701  1.00  0.00     0.001 A 
ATOM     72  C   UNL     1      -0.035  13.170  -3.648  1.00  0.00     0.001 A 
ATOM     73  C   UNL     1      -0.404  13.916  -4.766  1.00  0.00     0.000 A 
ENDBRANCH  49  68
BRANCH  61  74
ATOM     74  C   UNL     1       7.992  16.957  -3.102  1.00  0.00    -0.014 A 
ATOM     75  C   UNL     1       7.524  17.688  -1.999  1.00  0.00     0.009 A 
ATOM     76  C   UNL     1       8.730  17.624  -4.094  1.00  0.00     0.009 A 
ATOM     77  C   UNL     1       7.761  19.061  -1.909  1.00  0.00     0.001 A 
ATOM     78  C   UNL     1       8.993  18.990  -3.985  1.00  0.00     0.001 A 
ATOM     79  C   UNL     1       8.499  19.710  -2.899  1.00  0.00     0.000 A 
ENDBRANCH  61  74
ENDBRANCH  35  36
ENDBRANCH  27  30
ENDBRANCH  25  26
ENDBRANCH  24  25
ENDBRANCH   1  24
TORSDOF 15
