REMARK SMILES O=C(CC1(CSC[C@H]2C[C@H]3CC[C@@H]2C3)CC1)NCCCNC(=O)c1ccc(-c2c3nc(c(-c4ccccc4)c4ccc([nH]4)c(-c4ccccc4)c4nc(c(-c5ccccc5)c5ccc2[nH]5)C=C4)C=C3)cc1
REMARK SMILES IDX 1 1 2 2 17 3 3 5 4 6 15 7 16 8 5 9 6 10 7 11 8 12 9 13 13 14
REMARK SMILES IDX 10 15 12 16 14 17 11 18 18 19 19 20 20 21 21 22 22 23 23 25
REMARK SMILES IDX 24 26 25 27 71 28 26 29 70 30 27 31 28 32 29 33 64 34 30 35
REMARK SMILES IDX 69 36 63 37 65 38 31 39 68 40 62 41 61 42 32 44 54 45 39 46
REMARK SMILES IDX 53 47 40 48 43 49 52 50 66 51 41 52 42 53 51 55 67 56 44 57
REMARK SMILES IDX 33 58 34 59 38 60 35 61 37 62 36 63 55 64 56 65 60 66 57 67
REMARK SMILES IDX 59 68 58 69 45 70 46 71 50 72 47 73 49 74 48 75
REMARK H PARENT 17 4 21 24 65 43 43 54
REMARK Flexibility Score: inf
ROOT
ATOM      1  O   UNL     1       8.698   0.411   1.362  1.00  0.00    -0.275 OA
ATOM      2  C   UNL     1       7.504   0.119   1.357  1.00  0.00     0.220 C 
ATOM      3  N   UNL     1       7.033  -1.105   0.931  1.00  0.00    -0.356 N 
ATOM      4  H   UNL     1       6.074  -1.312   1.015  1.00  0.00     0.163 HD
ENDROOT
BRANCH   2   5
ATOM      5  C   UNL     1       6.427   1.103   1.793  1.00  0.00     0.107 C 
BRANCH   5   6
ATOM      6  C   UNL     1       5.944   2.036   0.681  1.00  0.00    -0.012 C 
ATOM      7  C   UNL     1       6.196   3.521   0.917  1.00  0.00     0.009 C 
ATOM      8  C   UNL     1       6.964   2.807  -0.146  1.00  0.00     0.009 C 
BRANCH   6   9
ATOM      9  C   UNL     1       4.606   1.703   0.050  1.00  0.00     0.077 C 
BRANCH   9  10
ATOM     10  S   UNL     1       4.443   0.023  -0.591  1.00  0.00    -0.161 SA
BRANCH  10  11
ATOM     11  C   UNL     1       5.737   0.007  -1.886  1.00  0.00     0.073 C 
BRANCH  11  12
ATOM     12  C   UNL     1       5.233   0.453  -3.257  1.00  0.00     0.002 C 
ATOM     13  C   UNL     1       5.996   1.653  -3.867  1.00  0.00     0.008 C 
ATOM     14  C   UNL     1       5.396  -0.618  -4.368  1.00  0.00    -0.007 C 
ATOM     15  C   UNL     1       6.333   1.173  -5.295  1.00  0.00    -0.011 C 
ATOM     16  C   UNL     1       6.870  -1.034  -4.559  1.00  0.00     0.004 C 
ATOM     17  C   UNL     1       5.171   0.233  -5.618  1.00  0.00     0.007 C 
ATOM     18  C   UNL     1       7.511   0.195  -5.207  1.00  0.00     0.004 C 
ENDBRANCH  11  12
ENDBRANCH  10  11
ENDBRANCH   9  10
ENDBRANCH   6   9
ENDBRANCH   5   6
ENDBRANCH   2   5
BRANCH   3  19
ATOM     19  C   UNL     1       7.930  -2.090   0.364  1.00  0.00     0.117 C 
BRANCH  19  20
ATOM     20  C   UNL     1       7.375  -3.510   0.381  1.00  0.00     0.042 C 
BRANCH  20  21
ATOM     21  C   UNL     1       6.211  -3.773  -0.571  1.00  0.00     0.118 C 
BRANCH  21  22
ATOM     22  N   UNL     1       6.581  -3.652  -1.972  1.00  0.00    -0.352 N 
ATOM     23  C   UNL     1       6.172  -4.353  -3.076  1.00  0.00     0.251 C 
ATOM     24  H   UNL     1       7.240  -2.945  -2.159  1.00  0.00     0.163 HD
ATOM     25  O   UNL     1       6.694  -4.112  -4.163  1.00  0.00    -0.269 OA
BRANCH  23  26
ATOM     26  C   UNL     1       5.182  -5.444  -2.988  1.00  0.00     0.039 A 
ATOM     27  C   UNL     1       5.389  -6.556  -3.814  1.00  0.00     0.014 A 
ATOM     28  C   UNL     1       4.083  -5.410  -2.128  1.00  0.00     0.014 A 
ATOM     29  C   UNL     1       4.558  -7.667  -3.710  1.00  0.00     0.010 A 
ATOM     30  C   UNL     1       3.296  -6.549  -1.970  1.00  0.00     0.010 A 
ATOM     31  C   UNL     1       3.542  -7.691  -2.746  1.00  0.00    -0.014 A 
BRANCH  31  32
ATOM     32  C   UNL     1       2.768  -8.931  -2.516  1.00  0.00     0.031 A 
ATOM     33  C   UNL     1       1.306  -8.984  -2.839  1.00  0.00     0.074 A 
ATOM     34  C   UNL     1       3.396  -9.995  -1.978  1.00  0.00     0.049 A 
ATOM     35  N   UNL     1       0.466  -9.975  -2.691  1.00  0.00    -0.248 NA
ATOM     36  C   UNL     1       0.702  -7.756  -3.380  1.00  0.00     0.031 C 
ATOM     37  C   UNL     1       4.811 -10.038  -1.595  1.00  0.00     0.029 A 
ATOM     38  N   UNL     1       2.931 -11.246  -1.665  1.00  0.00    -0.354 N 
ATOM     39  C   UNL     1      -0.766  -9.488  -3.106  1.00  0.00     0.074 A 
ATOM     40  C   UNL     1      -0.574  -8.101  -3.469  1.00  0.00     0.031 C 
ATOM     41  C   UNL     1       5.105 -11.264  -1.133  1.00  0.00     0.029 A 
ATOM     42  C   UNL     1       3.896 -12.077  -1.149  1.00  0.00     0.049 A 
ATOM     43  H   UNL     1       1.995 -11.522  -1.798  1.00  0.00     0.167 HD
ATOM     44  C   UNL     1      -1.948 -10.145  -3.190  1.00  0.00     0.031 A 
ATOM     45  C   UNL     1       3.812 -13.355  -0.735  1.00  0.00     0.031 A 
ATOM     46  C   UNL     1      -2.124 -11.525  -2.824  1.00  0.00     0.049 A 
ATOM     47  C   UNL     1       2.489 -14.059  -0.838  1.00  0.00     0.074 A 
ATOM     48  C   UNL     1      -3.268 -12.300  -2.899  1.00  0.00     0.029 A 
ATOM     49  N   UNL     1      -1.123 -12.336  -2.311  1.00  0.00    -0.354 N 
ATOM     50  N   UNL     1       1.344 -13.601  -1.284  1.00  0.00    -0.248 NA
ATOM     51  C   UNL     1       2.451 -15.459  -0.395  1.00  0.00     0.031 C 
ATOM     52  C   UNL     1      -2.969 -13.568  -2.389  1.00  0.00     0.029 A 
ATOM     53  C   UNL     1      -1.625 -13.600  -2.050  1.00  0.00     0.049 A 
ATOM     54  H   UNL     1      -0.192 -12.056  -2.156  1.00  0.00     0.167 HD
ATOM     55  C   UNL     1       0.455 -14.664  -1.202  1.00  0.00     0.074 A 
ATOM     56  C   UNL     1       1.200 -15.792  -0.680  1.00  0.00     0.031 C 
ATOM     57  C   UNL     1      -0.860 -14.704  -1.530  1.00  0.00     0.031 A 
BRANCH  44  58
ATOM     58  C   UNL     1      -3.136  -9.364  -3.680  1.00  0.00    -0.014 A 
ATOM     59  C   UNL     1      -3.230  -8.943  -5.017  1.00  0.00     0.009 A 
ATOM     60  C   UNL     1      -4.182  -9.054  -2.798  1.00  0.00     0.009 A 
ATOM     61  C   UNL     1      -4.326  -8.190  -5.447  1.00  0.00     0.001 A 
ATOM     62  C   UNL     1      -5.290  -8.328  -3.238  1.00  0.00     0.001 A 
ATOM     63  C   UNL     1      -5.356  -7.886  -4.559  1.00  0.00     0.000 A 
ENDBRANCH  44  58
BRANCH  45  64
ATOM     64  C   UNL     1       5.017 -14.052  -0.213  1.00  0.00    -0.014 A 
ATOM     65  C   UNL     1       5.623 -15.079  -0.953  1.00  0.00     0.009 A 
ATOM     66  C   UNL     1       5.573 -13.689   1.024  1.00  0.00     0.009 A 
ATOM     67  C   UNL     1       6.745 -15.745  -0.453  1.00  0.00     0.001 A 
ATOM     68  C   UNL     1       6.712 -14.337   1.508  1.00  0.00     0.001 A 
ATOM     69  C   UNL     1       7.291 -15.371   0.774  1.00  0.00     0.000 A 
ENDBRANCH  45  64
BRANCH  57  70
ATOM     70  C   UNL     1      -1.559 -16.023  -1.368  1.00  0.00    -0.014 A 
ATOM     71  C   UNL     1      -1.873 -16.533  -0.099  1.00  0.00     0.009 A 
ATOM     72  C   UNL     1      -1.938 -16.749  -2.509  1.00  0.00     0.009 A 
ATOM     73  C   UNL     1      -2.522 -17.763   0.025  1.00  0.00     0.001 A 
ATOM     74  C   UNL     1      -2.612 -17.963  -2.382  1.00  0.00     0.001 A 
ATOM     75  C   UNL     1      -2.894 -18.474  -1.116  1.00  0.00     0.000 A 
ENDBRANCH  57  70
ENDBRANCH  31  32
ENDBRANCH  23  26
ENDBRANCH  21  22
ENDBRANCH  20  21
ENDBRANCH  19  20
ENDBRANCH   3  19
TORSDOF 15
