REMARK SMILES Cc1c(Cl)ccc2c1C=C(C(=O)NCCCNC(=O)c1ccc(-c3c4nc(c(-c5ccccc5)c5ccc([nH]5)c(-c5ccccc5)c5nc(c(-c6ccccc6)c6ccc3[nH]6)C=C5)C=C4)cc1)[C@@H](C(F)(F)F)O2
REMARK SMILES IDX 15 1 14 2 13 3 11 4 12 5 10 7 1 8 2 9 3 10 8 11 4 12 5 13
REMARK SMILES IDX 7 14 9 15 6 16 73 17 68 18 69 19 70 20 71 21 72 22 16 23
REMARK SMILES IDX 17 24 18 25 19 27 20 28 21 29 67 30 22 31 66 32 23 33 24 34
REMARK SMILES IDX 25 35 60 36 26 37 65 38 59 39 61 40 27 41 64 42 58 43 57 44
REMARK SMILES IDX 28 46 50 47 35 48 49 49 36 50 39 51 48 52 62 53 37 54 38 55
REMARK SMILES IDX 47 57 63 58 40 59 29 60 30 61 34 62 31 63 33 64 32 65 51 66
REMARK SMILES IDX 52 67 56 68 53 69 55 70 54 71 41 72 42 73 46 74 43 75 45 76
REMARK SMILES IDX 44 77
REMARK H PARENT 13 6 17 26 61 45 39 56
REMARK Flexibility Score: inf
ROOT
ATOM      1  C   UNL     1      -2.139   6.464  -4.282  1.00  0.00     0.042 C 
ENDROOT
BRANCH   1   2
ATOM      2  C   UNL     1      -0.697   5.986  -4.183  1.00  0.00     0.118 C 
BRANCH   2   3
ATOM      3  N   UNL     1      -0.335   5.658  -2.812  1.00  0.00    -0.352 N 
ATOM      4  C   UNL     1      -0.080   4.546  -2.086  1.00  0.00     0.251 C 
ATOM      5  O   UNL     1       0.175   4.752  -0.895  1.00  0.00    -0.270 OA
ATOM      6  H   UNL     1      -0.253   6.470  -2.261  1.00  0.00     0.163 HD
BRANCH   4   7
ATOM      7  C   UNL     1      -0.087   3.150  -2.613  1.00  0.00     0.067 C 
ATOM      8  C   UNL     1       1.068  -0.043   0.126  1.00  0.00     0.047 C 
ATOM      9  C   UNL     1       0.568  -0.286  -1.278  1.00  0.00    -0.021 A 
ATOM     10  C   UNL     1       0.576  -1.596  -1.807  1.00  0.00     0.044 A 
ATOM     11  C   UNL     1       0.154   0.774  -2.120  1.00  0.00     0.022 A 
ATOM     12  Cl  UNL     1       1.135  -2.957  -0.893  1.00  0.00    -0.084 Cl
ATOM     13  C   UNL     1       0.137  -1.857  -3.108  1.00  0.00     0.024 A 
ATOM     14  C   UNL     1      -0.272   0.488  -3.428  1.00  0.00     0.128 A 
ATOM     15  C   UNL     1       0.112   2.179  -1.701  1.00  0.00     0.026 C 
ATOM     16  C   UNL     1      -0.299  -0.815  -3.915  1.00  0.00     0.048 A 
ATOM     17  O   UNL     1      -0.724   1.442  -4.295  1.00  0.00    -0.475 OA
ATOM     18  C   UNL     1      -0.266   2.797  -4.056  1.00  0.00     0.314 C 
BRANCH  18  19
ATOM     19  C   UNL     1       0.992   3.075  -4.902  1.00  0.00     0.429 C 
ATOM     20  F   UNL     1       0.674   3.114  -6.220  1.00  0.00    -0.167 F 
ATOM     21  F   UNL     1       1.560   4.269  -4.611  1.00  0.00    -0.167 F 
ATOM     22  F   UNL     1       1.949   2.135  -4.742  1.00  0.00    -0.167 F 
ENDBRANCH  18  19
ENDBRANCH   4   7
ENDBRANCH   2   3
ENDBRANCH   1   2
BRANCH   1  23
ATOM     23  C   UNL     1      -2.301   7.896  -3.787  1.00  0.00     0.118 C 
BRANCH  23  24
ATOM     24  N   UNL     1      -1.610   8.844  -4.656  1.00  0.00    -0.352 N 
ATOM     25  C   UNL     1      -2.119   9.657  -5.636  1.00  0.00     0.251 C 
ATOM     26  H   UNL     1      -0.637   8.909  -4.519  1.00  0.00     0.163 HD
ATOM     27  O   UNL     1      -1.375  10.166  -6.470  1.00  0.00    -0.269 OA
BRANCH  25  28
ATOM     28  C   UNL     1      -3.568   9.920  -5.679  1.00  0.00     0.039 A 
ATOM     29  C   UNL     1      -4.242   9.872  -6.902  1.00  0.00     0.014 A 
ATOM     30  C   UNL     1      -4.250  10.241  -4.503  1.00  0.00     0.014 A 
ATOM     31  C   UNL     1      -5.620  10.092  -6.934  1.00  0.00     0.010 A 
ATOM     32  C   UNL     1      -5.630  10.387  -4.524  1.00  0.00     0.010 A 
ATOM     33  C   UNL     1      -6.322  10.329  -5.741  1.00  0.00    -0.014 A 
BRANCH  33  34
ATOM     34  C   UNL     1      -7.779  10.581  -5.740  1.00  0.00     0.031 A 
ATOM     35  C   UNL     1      -8.290  11.945  -5.372  1.00  0.00     0.074 A 
ATOM     36  C   UNL     1      -8.635   9.580  -6.017  1.00  0.00     0.049 A 
ATOM     37  N   UNL     1      -9.525  12.352  -5.239  1.00  0.00    -0.248 NA
ATOM     38  C   UNL     1      -7.281  12.985  -5.099  1.00  0.00     0.031 C 
ATOM     39  C   UNL     1      -8.255   8.213  -6.377  1.00  0.00     0.029 A 
ATOM     40  N   UNL     1     -10.006   9.563  -6.042  1.00  0.00    -0.354 N 
ATOM     41  C   UNL     1      -9.440  13.685  -4.860  1.00  0.00     0.074 A 
ATOM     42  C   UNL     1      -8.038  14.010  -4.737  1.00  0.00     0.031 C 
ATOM     43  C   UNL     1      -9.366   7.500  -6.624  1.00  0.00     0.029 A 
ATOM     44  C   UNL     1     -10.534   8.348  -6.404  1.00  0.00     0.049 A 
ATOM     45  H   UNL     1     -10.559  10.347  -5.820  1.00  0.00     0.167 HD
ATOM     46  C   UNL     1     -10.444  14.567  -4.661  1.00  0.00     0.031 A 
ATOM     47  C   UNL     1     -11.817   7.965  -6.548  1.00  0.00     0.031 A 
ATOM     48  C   UNL     1     -11.835  14.251  -4.813  1.00  0.00     0.049 A 
ATOM     49  C   UNL     1     -12.915   8.956  -6.285  1.00  0.00     0.074 A 
ATOM     50  C   UNL     1     -12.924  15.092  -4.672  1.00  0.00     0.029 A 
ATOM     51  N   UNL     1     -12.326  13.002  -5.152  1.00  0.00    -0.354 N 
ATOM     52  N   UNL     1     -12.818  10.219  -5.948  1.00  0.00    -0.248 NA
ATOM     53  C   UNL     1     -14.296   8.472  -6.423  1.00  0.00     0.031 C 
ATOM     54  C   UNL     1     -14.081  14.341  -4.891  1.00  0.00     0.029 A 
ATOM     55  C   UNL     1     -13.707  13.045  -5.211  1.00  0.00     0.049 A 
ATOM     56  H   UNL     1     -11.776  12.204  -5.325  1.00  0.00     0.167 HD
ATOM     57  C   UNL     1     -14.121  10.687  -5.856  1.00  0.00     0.074 A 
ATOM     58  C   UNL     1     -14.992   9.575  -6.175  1.00  0.00     0.031 C 
ATOM     59  C   UNL     1     -14.555  11.930  -5.537  1.00  0.00     0.031 A 
BRANCH  46  60
ATOM     60  C   UNL     1     -10.081  15.971  -4.282  1.00  0.00    -0.014 A 
ATOM     61  C   UNL     1      -9.588  16.865  -5.244  1.00  0.00     0.009 A 
ATOM     62  C   UNL     1     -10.324  16.431  -2.979  1.00  0.00     0.009 A 
ATOM     63  C   UNL     1      -9.341  18.196  -4.906  1.00  0.00     0.001 A 
ATOM     64  C   UNL     1     -10.095  17.768  -2.650  1.00  0.00     0.001 A 
ATOM     65  C   UNL     1      -9.604  18.648  -3.613  1.00  0.00     0.000 A 
ENDBRANCH  46  60
BRANCH  47  66
ATOM     66  C   UNL     1     -12.125   6.588  -7.008  1.00  0.00    -0.014 A 
ATOM     67  C   UNL     1     -12.549   6.369  -8.328  1.00  0.00     0.009 A 
ATOM     68  C   UNL     1     -11.964   5.487  -6.153  1.00  0.00     0.009 A 
ATOM     69  C   UNL     1     -12.814   5.075  -8.780  1.00  0.00     0.001 A 
ATOM     70  C   UNL     1     -12.211   4.192  -6.615  1.00  0.00     0.001 A 
ATOM     71  C   UNL     1     -12.639   3.987  -7.926  1.00  0.00     0.000 A 
ENDBRANCH  47  66
BRANCH  59  72
ATOM     72  C   UNL     1     -16.032  12.180  -5.531  1.00  0.00    -0.014 A 
ATOM     73  C   UNL     1     -16.824  11.774  -4.449  1.00  0.00     0.009 A 
ATOM     74  C   UNL     1     -16.609  12.951  -6.554  1.00  0.00     0.009 A 
ATOM     75  C   UNL     1     -18.171  12.135  -4.390  1.00  0.00     0.001 A 
ATOM     76  C   UNL     1     -17.950  13.328  -6.481  1.00  0.00     0.001 A 
ATOM     77  C   UNL     1     -18.729  12.919  -5.400  1.00  0.00     0.000 A 
ENDBRANCH  59  72
ENDBRANCH  33  34
ENDBRANCH  25  28
ENDBRANCH  23  24
ENDBRANCH   1  23
TORSDOF 11
