REMARK SMILES Cc1ccc([C@@]23C[C@@H]4C[C@@H](C[C@@](C(=O)N5CCC(C(=O)NCCCNC(=O)c6ccc(-c7c8nc(c(-c9ccccc9)c9ccc([nH]9)c(-c9ccccc9)c9nc(c(-c%10ccccc%10)c%10ccc7[nH]%10)C=C9)C=C8)cc6)CC5)(C4)C2)C3)cc1
REMARK SMILES IDX 23 1 22 2 21 3 19 4 20 5 18 7 13 8 14 9 15 10 16 11 77 12
REMARK SMILES IDX 17 13 76 14 12 15 6 16 7 17 79 18 80 19 8 20 10 21 9 22
REMARK SMILES IDX 78 23 11 24 5 25 1 26 2 27 3 28 82 29 4 30 81 31 24 32 25 33
REMARK SMILES IDX 26 34 27 36 28 37 29 38 75 39 30 40 74 41 31 42 32 43 33 44
REMARK SMILES IDX 68 45 34 46 73 47 67 48 69 49 35 50 72 51 66 52 65 53 36 55
REMARK SMILES IDX 58 56 43 57 57 58 44 59 47 60 56 61 70 62 45 63 46 64 55 66
REMARK SMILES IDX 71 67 48 68 37 69 38 70 42 71 39 72 41 73 40 74 59 75 60 76
REMARK SMILES IDX 64 77 61 78 63 79 62 80 49 81 50 82 54 83 51 84 53 85 52 86
REMARK H PARENT 21 6 25 35 69 54 47 65
REMARK Flexibility Score: inf
ROOT
ATOM      1  C   UNL     1      -8.863  -1.876  -3.053  1.00  0.00     0.042 C 
ENDROOT
BRANCH   1   2
ATOM      2  C   UNL     1      -8.739  -3.382  -2.863  1.00  0.00     0.117 C 
BRANCH   2   3
ATOM      3  N   UNL     1      -8.430  -4.091  -4.102  1.00  0.00    -0.356 N 
ATOM      4  C   UNL     1      -7.282  -4.693  -4.532  1.00  0.00     0.223 C 
ATOM      5  O   UNL     1      -7.303  -5.252  -5.630  1.00  0.00    -0.275 OA
ATOM      6  H   UNL     1      -9.179  -4.145  -4.738  1.00  0.00     0.163 HD
BRANCH   4   7
ATOM      7  C   UNL     1      -5.992  -4.654  -3.717  1.00  0.00     0.082 C 
ATOM      8  C   UNL     1      -5.783  -2.494  -0.393  1.00  0.00     0.228 C 
ATOM      9  O   UNL     1      -6.680  -2.929   0.337  1.00  0.00    -0.274 OA
ATOM     10  N   UNL     1      -5.171  -3.331  -1.326  1.00  0.00    -0.342 N 
ATOM     11  C   UNL     1      -5.338  -4.773  -1.210  1.00  0.00     0.120 C 
ATOM     12  C   UNL     1      -4.494  -2.954  -2.561  1.00  0.00     0.120 C 
ATOM     13  C   UNL     1      -6.157  -5.359  -2.356  1.00  0.00     0.035 C 
ATOM     14  C   UNL     1      -5.428  -3.227  -3.721  1.00  0.00     0.035 C 
BRANCH   8  15
ATOM     15  C   UNL     1      -5.306  -1.029  -0.233  1.00  0.00     0.051 C 
ATOM     16  C   UNL     1      -3.168   0.382   0.065  1.00  0.00    -0.003 C 
ATOM     17  C   UNL     1      -3.656   1.205  -1.165  1.00  0.00     0.015 C 
ATOM     18  C   UNL     1      -3.776  -1.032  -0.064  1.00  0.00     0.028 C 
ATOM     19  C   UNL     1      -3.763   1.008   1.352  1.00  0.00     0.015 C 
ATOM     20  C   UNL     1      -5.193   1.292  -1.217  1.00  0.00    -0.009 C 
ATOM     21  C   UNL     1      -5.304   1.036   1.277  1.00  0.00    -0.009 C 
ATOM     22  C   UNL     1      -5.721   1.910   0.085  1.00  0.00     0.007 C 
ATOM     23  C   UNL     1      -5.785  -0.114  -1.377  1.00  0.00     0.020 C 
ATOM     24  C   UNL     1      -5.860  -0.394   1.082  1.00  0.00     0.020 C 
BRANCH  16  25
ATOM     25  C   UNL     1      -1.630   0.325   0.118  1.00  0.00    -0.042 A 
ATOM     26  C   UNL     1       2.709   0.164   0.014  1.00  0.00     0.044 C 
ATOM     27  C   UNL     1       1.214   0.238   0.076  1.00  0.00    -0.051 A 
ATOM     28  C   UNL     1       0.472  -0.938   0.141  1.00  0.00     0.004 A 
ATOM     29  C   UNL     1       0.536   1.459   0.058  1.00  0.00     0.004 A 
ATOM     30  C   UNL     1      -0.923  -0.892   0.171  1.00  0.00     0.004 A 
ATOM     31  C   UNL     1      -0.865   1.502   0.084  1.00  0.00     0.004 A 
ENDBRANCH  16  25
ENDBRANCH   8  15
ENDBRANCH   4   7
ENDBRANCH   2   3
ENDBRANCH   1   2
BRANCH   1  32
ATOM     32  C   UNL     1     -10.190  -1.445  -3.646  1.00  0.00     0.118 C 
BRANCH  32  33
ATOM     33  N   UNL     1     -11.182  -1.026  -2.659  1.00  0.00    -0.352 N 
ATOM     34  C   UNL     1     -12.490  -0.620  -2.876  1.00  0.00     0.251 C 
ATOM     35  H   UNL     1     -10.884  -1.032  -1.721  1.00  0.00     0.163 HD
ATOM     36  O   UNL     1     -13.219  -0.321  -1.944  1.00  0.00    -0.269 OA
BRANCH  34  37
ATOM     37  C   UNL     1     -13.024  -0.684  -4.257  1.00  0.00     0.039 A 
ATOM     38  C   UNL     1     -14.175  -1.447  -4.473  1.00  0.00     0.014 A 
ATOM     39  C   UNL     1     -12.257  -0.237  -5.329  1.00  0.00     0.014 A 
ATOM     40  C   UNL     1     -14.401  -1.980  -5.738  1.00  0.00     0.010 A 
ATOM     41  C   UNL     1     -12.414  -0.855  -6.553  1.00  0.00     0.010 A 
ATOM     42  C   UNL     1     -13.446  -1.780  -6.736  1.00  0.00    -0.014 A 
BRANCH  42  43
ATOM     43  C   UNL     1     -13.373  -2.611  -7.931  1.00  0.00     0.031 A 
ATOM     44  C   UNL     1     -13.742  -2.076  -9.251  1.00  0.00     0.074 A 
ATOM     45  C   UNL     1     -12.932  -3.886  -7.845  1.00  0.00     0.049 A 
ATOM     46  N   UNL     1     -14.205  -2.804 -10.213  1.00  0.00    -0.248 NA
ATOM     47  C   UNL     1     -13.653  -0.658  -9.582  1.00  0.00     0.031 C 
ATOM     48  C   UNL     1     -12.567  -4.780  -8.941  1.00  0.00     0.029 A 
ATOM     49  N   UNL     1     -12.945  -4.708  -6.718  1.00  0.00    -0.354 N 
ATOM     50  C   UNL     1     -14.175  -2.033 -11.345  1.00  0.00     0.074 A 
ATOM     51  C   UNL     1     -13.910  -0.685 -10.892  1.00  0.00     0.031 C 
ATOM     52  C   UNL     1     -12.642  -6.048  -8.507  1.00  0.00     0.029 A 
ATOM     53  C   UNL     1     -13.196  -6.019  -7.165  1.00  0.00     0.049 A 
ATOM     54  H   UNL     1     -12.806  -4.424  -5.786  1.00  0.00     0.167 HD
ATOM     55  C   UNL     1     -14.221  -2.614 -12.574  1.00  0.00     0.031 A 
ATOM     56  C   UNL     1     -14.316  -6.686  -6.760  1.00  0.00     0.031 A 
ATOM     57  C   UNL     1     -14.335  -4.067 -12.523  1.00  0.00     0.049 A 
ATOM     58  C   UNL     1     -15.277  -7.044  -7.878  1.00  0.00     0.074 A 
ATOM     59  C   UNL     1     -13.458  -5.117 -12.741  1.00  0.00     0.029 A 
ATOM     60  N   UNL     1     -15.448  -4.625 -11.913  1.00  0.00    -0.354 N 
ATOM     61  N   UNL     1     -15.111  -6.735  -9.135  1.00  0.00    -0.248 NA
ATOM     62  C   UNL     1     -16.572  -7.683  -7.634  1.00  0.00     0.031 C 
ATOM     63  C   UNL     1     -14.064  -6.315 -12.266  1.00  0.00     0.029 A 
ATOM     64  C   UNL     1     -15.312  -5.993 -11.771  1.00  0.00     0.049 A 
ATOM     65  H   UNL     1     -16.235  -4.113 -11.618  1.00  0.00     0.167 HD
ATOM     66  C   UNL     1     -16.247  -7.048  -9.838  1.00  0.00     0.074 A 
ATOM     67  C   UNL     1     -17.132  -7.644  -8.854  1.00  0.00     0.031 C 
ATOM     68  C   UNL     1     -16.398  -6.743 -11.160  1.00  0.00     0.031 A 
BRANCH  55  69
ATOM     69  C   UNL     1     -13.867  -1.820 -13.798  1.00  0.00    -0.014 A 
ATOM     70  C   UNL     1     -13.036  -2.375 -14.784  1.00  0.00     0.009 A 
ATOM     71  C   UNL     1     -14.277  -0.488 -13.991  1.00  0.00     0.009 A 
ATOM     72  C   UNL     1     -12.548  -1.609 -15.848  1.00  0.00     0.001 A 
ATOM     73  C   UNL     1     -13.756   0.296 -15.027  1.00  0.00     0.001 A 
ATOM     74  C   UNL     1     -12.880  -0.263 -15.950  1.00  0.00     0.000 A 
ENDBRANCH  55  69
BRANCH  56  75
ATOM     75  C   UNL     1     -14.728  -6.348  -5.369  1.00  0.00    -0.014 A 
ATOM     76  C   UNL     1     -13.872  -6.709  -4.308  1.00  0.00     0.009 A 
ATOM     77  C   UNL     1     -15.732  -5.401  -5.126  1.00  0.00     0.009 A 
ATOM     78  C   UNL     1     -13.946  -6.055  -3.075  1.00  0.00     0.001 A 
ATOM     79  C   UNL     1     -15.812  -4.759  -3.884  1.00  0.00     0.001 A 
ATOM     80  C   UNL     1     -14.898  -5.060  -2.874  1.00  0.00     0.000 A 
ENDBRANCH  56  75
BRANCH  68  81
ATOM     81  C   UNL     1     -17.609  -7.075 -11.999  1.00  0.00    -0.014 A 
ATOM     82  C   UNL     1     -18.411  -8.205 -11.793  1.00  0.00     0.009 A 
ATOM     83  C   UNL     1     -17.916  -6.285 -13.129  1.00  0.00     0.009 A 
ATOM     84  C   UNL     1     -19.512  -8.480 -12.618  1.00  0.00     0.001 A 
ATOM     85  C   UNL     1     -18.994  -6.567 -13.970  1.00  0.00     0.001 A 
ATOM     86  C   UNL     1     -19.806  -7.659 -13.703  1.00  0.00     0.000 A 
ENDBRANCH  68  81
ENDBRANCH  42  43
ENDBRANCH  34  37
ENDBRANCH  32  33
ENDBRANCH   1  32
TORSDOF 12
