REMARK SMILES CC(C)n1c2c(c3ccccc31)[C@@H](c1ccccc1)N(CC(=O)NCCCNC(=O)c1ccc(-c3c4nc(c(-c5ccccc5)c5ccc([nH]5)c(-c5ccccc5)c5nc(c(-c6ccccc6)c6ccc3[nH]6)C=C5)C=C4)cc1)C2=O
REMARK SMILES IDX 26 1 25 2 24 3 22 4 23 5 21 7 20 8 4 9 5 10 12 11 6 12 79 13
REMARK SMILES IDX 7 14 11 15 13 16 80 17 8 18 10 19 9 20 2 21 1 22 3 23 14 24
REMARK SMILES IDX 15 25 19 26 16 27 18 28 17 29 27 30 28 31 29 32 30 34 31 35
REMARK SMILES IDX 32 36 78 37 33 38 77 39 34 40 35 41 36 42 71 43 37 44 76 45
REMARK SMILES IDX 70 46 72 47 38 48 75 49 69 50 68 51 39 53 61 54 46 55 60 56
REMARK SMILES IDX 47 57 50 58 59 59 73 60 48 61 49 62 58 64 74 65 51 66 40 67
REMARK SMILES IDX 41 68 45 69 42 70 44 71 43 72 62 73 63 74 67 75 64 76 66 77
REMARK SMILES IDX 65 78 52 79 53 80 57 81 54 82 56 83 55 84
REMARK H PARENT 24 6 28 33 72 52 50 63
REMARK Flexibility Score: inf
ROOT
ATOM      1  C   UNL     1      -2.366  -0.782   2.464  1.00  0.00     0.042 C 
ENDROOT
BRANCH   1   2
ATOM      2  C   UNL     1      -2.588  -2.287   2.290  1.00  0.00     0.117 C 
BRANCH   2   3
ATOM      3  N   UNL     1      -3.992  -2.619   2.118  1.00  0.00    -0.354 N 
ATOM      4  C   UNL     1      -4.659  -3.029   1.001  1.00  0.00     0.239 C 
ATOM      5  O   UNL     1      -5.880  -3.186   1.079  1.00  0.00    -0.273 OA
ATOM      6  H   UNL     1      -4.545  -2.535   2.929  1.00  0.00     0.163 HD
BRANCH   4   7
ATOM      7  C   UNL     1      -3.921  -3.234  -0.326  1.00  0.00     0.220 C 
BRANCH   7   8
ATOM      8  N   UNL     1      -3.524  -1.967  -0.912  1.00  0.00    -0.317 N 
ATOM      9  N   UNL     1      -1.407   0.909  -1.085  1.00  0.00    -0.334 N 
ATOM     10  C   UNL     1      -2.242  -0.164  -1.128  1.00  0.00     0.114 A 
ATOM     11  C   UNL     1      -2.203   2.062  -1.045  1.00  0.00     0.049 A 
ATOM     12  C   UNL     1      -3.544   0.266  -1.153  1.00  0.00     0.018 A 
ATOM     13  C   UNL     1      -2.189  -1.587  -1.042  1.00  0.00     0.272 C 
ATOM     14  C   UNL     1      -3.554   1.663  -1.061  1.00  0.00     0.006 A 
ATOM     15  C   UNL     1      -1.860   3.424  -0.993  1.00  0.00     0.027 A 
ATOM     16  C   UNL     1      -4.495  -0.875  -1.180  1.00  0.00     0.150 C 
ATOM     17  O   UNL     1      -1.210  -2.314  -0.965  1.00  0.00    -0.267 OA
ATOM     18  C   UNL     1      -4.571   2.632  -1.000  1.00  0.00     0.011 A 
ATOM     19  C   UNL     1      -2.890   4.371  -0.942  1.00  0.00     0.002 A 
ATOM     20  C   UNL     1      -4.226   3.983  -0.940  1.00  0.00     0.001 A 
BRANCH   9  21
ATOM     21  C   UNL     1       0.056   0.903  -1.095  1.00  0.00     0.082 C 
ATOM     22  C   UNL     1       0.701   0.048  -0.003  1.00  0.00     0.031 C 
ATOM     23  C   UNL     1       0.601   0.561  -2.480  1.00  0.00     0.031 C 
ENDBRANCH   9  21
BRANCH  16  24
ATOM     24  C   UNL     1      -5.118  -1.006  -2.564  1.00  0.00    -0.021 A 
ATOM     25  C   UNL     1      -6.090  -2.006  -2.763  1.00  0.00     0.006 A 
ATOM     26  C   UNL     1      -4.765  -0.225  -3.682  1.00  0.00     0.006 A 
ATOM     27  C   UNL     1      -6.645  -2.244  -4.024  1.00  0.00     0.000 A 
ATOM     28  C   UNL     1      -5.336  -0.448  -4.939  1.00  0.00     0.000 A 
ATOM     29  C   UNL     1      -6.265  -1.466  -5.113  1.00  0.00     0.000 A 
ENDBRANCH  16  24
ENDBRANCH   7   8
ENDBRANCH   4   7
ENDBRANCH   2   3
ENDBRANCH   1   2
BRANCH   1  30
ATOM     30  C   UNL     1      -2.983  -0.203   3.736  1.00  0.00     0.118 C 
BRANCH  30  31
ATOM     31  N   UNL     1      -2.514  -0.850   4.943  1.00  0.00    -0.352 N 
ATOM     32  C   UNL     1      -1.497  -0.641   5.825  1.00  0.00     0.251 C 
ATOM     33  H   UNL     1      -3.064  -1.630   5.185  1.00  0.00     0.163 HD
ATOM     34  O   UNL     1      -1.482  -1.390   6.806  1.00  0.00    -0.269 OA
BRANCH  32  35
ATOM     35  C   UNL     1      -0.386   0.332   5.660  1.00  0.00     0.039 A 
ATOM     36  C   UNL     1      -0.192   1.187   4.574  1.00  0.00     0.014 A 
ATOM     37  C   UNL     1       0.606   0.271   6.658  1.00  0.00     0.014 A 
ATOM     38  C   UNL     1       1.034   1.822   4.402  1.00  0.00     0.010 A 
ATOM     39  C   UNL     1       1.817   0.922   6.505  1.00  0.00     0.010 A 
ATOM     40  C   UNL     1       2.061   1.614   5.328  1.00  0.00    -0.014 A 
BRANCH  40  41
ATOM     41  C   UNL     1       3.387   2.144   5.039  1.00  0.00     0.031 A 
ATOM     42  C   UNL     1       3.465   3.625   4.922  1.00  0.00     0.074 A 
ATOM     43  C   UNL     1       4.479   1.353   4.977  1.00  0.00     0.049 A 
ATOM     44  N   UNL     1       3.834   4.327   3.901  1.00  0.00    -0.248 NA
ATOM     45  C   UNL     1       2.967   4.423   6.053  1.00  0.00     0.031 C 
ATOM     46  C   UNL     1       4.605  -0.069   5.320  1.00  0.00     0.029 A 
ATOM     47  N   UNL     1       5.760   1.698   4.676  1.00  0.00    -0.354 N 
ATOM     48  C   UNL     1       3.759   5.660   4.302  1.00  0.00     0.074 A 
ATOM     49  C   UNL     1       3.107   5.664   5.588  1.00  0.00     0.031 C 
ATOM     50  C   UNL     1       5.915  -0.389   5.448  1.00  0.00     0.029 A 
ATOM     51  C   UNL     1       6.712   0.750   5.031  1.00  0.00     0.049 A 
ATOM     52  H   UNL     1       5.994   2.550   4.242  1.00  0.00     0.167 HD
ATOM     53  C   UNL     1       4.399   6.659   3.634  1.00  0.00     0.031 A 
ATOM     54  C   UNL     1       8.059   0.915   5.025  1.00  0.00     0.031 A 
ATOM     55  C   UNL     1       4.764   6.270   2.301  1.00  0.00     0.049 A 
ATOM     56  C   UNL     1       8.352   2.052   4.123  1.00  0.00     0.074 A 
ATOM     57  C   UNL     1       4.060   5.947   1.159  1.00  0.00     0.029 A 
ATOM     58  N   UNL     1       6.038   5.797   2.101  1.00  0.00    -0.354 N 
ATOM     59  N   UNL     1       8.126   2.027   2.841  1.00  0.00    -0.248 NA
ATOM     60  C   UNL     1       8.461   3.373   4.718  1.00  0.00     0.031 C 
ATOM     61  C   UNL     1       4.792   4.875   0.571  1.00  0.00     0.029 A 
ATOM     62  C   UNL     1       5.934   4.657   1.344  1.00  0.00     0.049 A 
ATOM     63  H   UNL     1       6.870   6.200   2.437  1.00  0.00     0.167 HD
ATOM     64  C   UNL     1       7.637   3.291   2.545  1.00  0.00     0.074 A 
ATOM     65  C   UNL     1       7.940   4.099   3.727  1.00  0.00     0.031 C 
ATOM     66  C   UNL     1       6.790   3.498   1.494  1.00  0.00     0.031 A 
BRANCH  53  67
ATOM     67  C   UNL     1       4.980   7.869   4.315  1.00  0.00    -0.014 A 
ATOM     68  C   UNL     1       5.220   7.921   5.702  1.00  0.00     0.009 A 
ATOM     69  C   UNL     1       5.549   8.893   3.538  1.00  0.00     0.009 A 
ATOM     70  C   UNL     1       5.984   8.933   6.289  1.00  0.00     0.001 A 
ATOM     71  C   UNL     1       6.348   9.889   4.118  1.00  0.00     0.001 A 
ATOM     72  C   UNL     1       6.568   9.906   5.492  1.00  0.00     0.000 A 
ENDBRANCH  53  67
BRANCH  54  73
ATOM     73  C   UNL     1       9.007   0.519   6.096  1.00  0.00    -0.014 A 
ATOM     74  C   UNL     1       8.575   0.493   7.436  1.00  0.00     0.009 A 
ATOM     75  C   UNL     1      10.390   0.485   5.856  1.00  0.00     0.009 A 
ATOM     76  C   UNL     1       9.489   0.482   8.495  1.00  0.00     0.001 A 
ATOM     77  C   UNL     1      11.306   0.471   6.918  1.00  0.00     0.001 A 
ATOM     78  C   UNL     1      10.856   0.487   8.237  1.00  0.00     0.000 A 
ENDBRANCH  54  73
BRANCH  66  79
ATOM     79  C   UNL     1       6.520   2.344   0.551  1.00  0.00    -0.014 A 
ATOM     80  C   UNL     1       6.704   2.553  -0.823  1.00  0.00     0.009 A 
ATOM     81  C   UNL     1       5.913   1.142   0.962  1.00  0.00     0.009 A 
ATOM     82  C   UNL     1       6.279   1.607  -1.760  1.00  0.00     0.001 A 
ATOM     83  C   UNL     1       5.508   0.183   0.024  1.00  0.00     0.001 A 
ATOM     84  C   UNL     1       5.680   0.422  -1.337  1.00  0.00     0.000 A 
ENDBRANCH  66  79
ENDBRANCH  40  41
ENDBRANCH  32  35
ENDBRANCH  30  31
ENDBRANCH   1  30
TORSDOF 13
