REMARK SMILES O=C(CCS(=O)(=O)c1ccc2[nH]c(=O)oc2c1)NCCCNC(=O)c1ccc(-c2c3nc(c(-c4ccccc4)c4ccc([nH]4)c(-c4ccccc4)c4nc(c(-c5ccccc5)c5ccc2[nH]5)C=C4)C=C3)cc1
REMARK SMILES IDX 19 1 18 2 1 3 2 4 3 6 4 7 5 8 6 9 7 10 8 11 9 12 17 13 10 14
REMARK SMILES IDX 16 15 11 16 15 17 12 18 13 19 14 21 20 22 21 23 22 24 23 25
REMARK SMILES IDX 24 27 25 28 26 29 72 30 27 31 71 32 28 33 29 34 30 35 65 36
REMARK SMILES IDX 31 37 70 38 64 39 66 40 32 41 69 42 63 43 62 44 33 46 55 47
REMARK SMILES IDX 40 48 54 49 41 50 44 51 53 52 67 53 42 54 43 55 52 57 68 58
REMARK SMILES IDX 45 59 34 60 35 61 39 62 36 63 38 64 37 65 56 66 57 67 61 68
REMARK SMILES IDX 58 69 60 70 59 71 46 72 47 73 51 74 48 75 50 76 49 77
REMARK H PARENT 18 5 12 20 22 26 66 45 44 56
REMARK Flexibility Score: inf
ROOT
ATOM      1  C   UNL     1       2.131   2.035   1.358  1.00  0.00     0.117 C 
ENDROOT
BRANCH   1   2
ATOM      2  N   UNL     1       2.889   0.836   1.058  1.00  0.00    -0.356 N 
ATOM      3  O   UNL     1       1.150  -0.184  -0.043  1.00  0.00    -0.275 OA
ATOM      4  C   UNL     1       2.322  -0.178   0.321  1.00  0.00     0.221 C 
ATOM      5  H   UNL     1       3.813   0.746   1.384  1.00  0.00     0.163 HD
BRANCH   4   6
ATOM      6  C   UNL     1       3.280  -1.244  -0.140  1.00  0.00     0.116 C 
BRANCH   6   7
ATOM      7  C   UNL     1       3.749  -0.971  -1.564  1.00  0.00     0.152 C 
BRANCH   7   8
ATOM      8  S   UNL     1       4.869   0.400  -1.717  1.00  0.00     0.179 S 
ATOM      9  O   UNL     1       5.448   0.638  -0.403  1.00  0.00    -0.224 OA
ATOM     10  O   UNL     1       5.721   0.138  -2.861  1.00  0.00    -0.224 OA
BRANCH   8  11
ATOM     11  C   UNL     1       3.990   1.901  -2.111  1.00  0.00     0.071 A 
ATOM     12  C   UNL     1       4.783   3.077  -2.154  1.00  0.00     0.023 A 
ATOM     13  C   UNL     1       2.595   1.969  -2.145  1.00  0.00     0.069 A 
ATOM     14  C   UNL     1       4.192   4.339  -2.096  1.00  0.00     0.031 A 
ATOM     15  C   UNL     1       2.043   3.229  -2.019  1.00  0.00     0.157 A 
ATOM     16  C   UNL     1       2.828   4.361  -1.946  1.00  0.00     0.087 A 
ATOM     17  O   UNL     1       0.720   3.485  -1.678  1.00  0.00    -0.408 OA
ATOM     18  N   UNL     1       2.021   5.359  -1.480  1.00  0.00    -0.287 N 
ATOM     19  C   UNL     1       0.773   4.823  -1.259  1.00  0.00     0.417 A 
ATOM     20  H   UNL     1       2.285   6.295  -1.328  1.00  0.00     0.173 HD
ATOM     21  O   UNL     1      -0.156   5.404  -0.721  1.00  0.00    -0.224 OA
ENDBRANCH   8  11
ENDBRANCH   7   8
ENDBRANCH   6   7
ENDBRANCH   4   6
ENDBRANCH   1   2
BRANCH   1  22
ATOM     22  C   UNL     1       2.611   2.824   2.559  1.00  0.00     0.042 C 
BRANCH  22  23
ATOM     23  C   UNL     1       4.052   3.309   2.481  1.00  0.00     0.118 C 
BRANCH  23  24
ATOM     24  N   UNL     1       4.321   4.223   1.377  1.00  0.00    -0.352 N 
ATOM     25  C   UNL     1       4.967   5.440   1.367  1.00  0.00     0.251 C 
ATOM     26  H   UNL     1       3.989   3.924   0.500  1.00  0.00     0.163 HD
ATOM     27  O   UNL     1       4.987   6.126   0.349  1.00  0.00    -0.269 OA
BRANCH  25  28
ATOM     28  C   UNL     1       5.591   5.951   2.603  1.00  0.00     0.039 A 
ATOM     29  C   UNL     1       5.441   7.301   2.928  1.00  0.00     0.014 A 
ATOM     30  C   UNL     1       6.266   5.090   3.468  1.00  0.00     0.014 A 
ATOM     31  C   UNL     1       5.864   7.758   4.175  1.00  0.00     0.010 A 
ATOM     32  C   UNL     1       6.566   5.514   4.753  1.00  0.00     0.010 A 
ATOM     33  C   UNL     1       6.367   6.851   5.122  1.00  0.00    -0.014 A 
BRANCH  33  34
ATOM     34  C   UNL     1       6.683   7.274   6.506  1.00  0.00     0.031 A 
ATOM     35  C   UNL     1       8.080   7.113   7.039  1.00  0.00     0.074 A 
ATOM     36  C   UNL     1       5.694   7.727   7.302  1.00  0.00     0.049 A 
ATOM     37  N   UNL     1       8.540   7.367   8.237  1.00  0.00    -0.248 NA
ATOM     38  C   UNL     1       9.085   6.559   6.115  1.00  0.00     0.031 C 
ATOM     39  C   UNL     1       4.287   7.867   6.916  1.00  0.00     0.029 A 
ATOM     40  N   UNL     1       5.721   8.152   8.606  1.00  0.00    -0.354 N 
ATOM     41  C   UNL     1       9.875   6.984   8.213  1.00  0.00     0.074 A 
ATOM     42  C   UNL     1      10.133   6.416   6.910  1.00  0.00     0.031 C 
ATOM     43  C   UNL     1       3.597   8.389   7.942  1.00  0.00     0.029 A 
ATOM     44  C   UNL     1       4.499   8.574   9.073  1.00  0.00     0.049 A 
ATOM     45  H   UNL     1       6.538   8.155   9.155  1.00  0.00     0.167 HD
ATOM     46  C   UNL     1      10.812   7.119   9.181  1.00  0.00     0.031 A 
ATOM     47  C   UNL     1       4.147   9.057  10.279  1.00  0.00     0.031 A 
ATOM     48  C   UNL     1      10.549   7.694  10.472  1.00  0.00     0.049 A 
ATOM     49  C   UNL     1       5.207   9.197  11.336  1.00  0.00     0.074 A 
ATOM     50  C   UNL     1      11.434   7.928  11.509  1.00  0.00     0.029 A 
ATOM     51  N   UNL     1       9.302   8.124  10.902  1.00  0.00    -0.354 N 
ATOM     52  N   UNL     1       6.483   8.900  11.275  1.00  0.00    -0.248 NA
ATOM     53  C   UNL     1       4.779   9.758  12.624  1.00  0.00     0.031 C 
ATOM     54  C   UNL     1      10.711   8.448  12.587  1.00  0.00     0.029 A 
ATOM     55  C   UNL     1       9.390   8.604  12.197  1.00  0.00     0.049 A 
ATOM     56  H   UNL     1       8.478   8.093  10.365  1.00  0.00     0.167 HD
ATOM     57  C   UNL     1       7.017   9.268  12.502  1.00  0.00     0.074 A 
ATOM     58  C   UNL     1       5.929   9.831  13.278  1.00  0.00     0.031 C 
ATOM     59  C   UNL     1       8.292   9.155  12.950  1.00  0.00     0.031 A 
BRANCH  46  60
ATOM     60  C   UNL     1      12.201   6.629   8.871  1.00  0.00    -0.014 A 
ATOM     61  C   UNL     1      12.999   7.259   7.900  1.00  0.00     0.009 A 
ATOM     62  C   UNL     1      12.727   5.531   9.568  1.00  0.00     0.009 A 
ATOM     63  C   UNL     1      14.273   6.772   7.602  1.00  0.00     0.001 A 
ATOM     64  C   UNL     1      14.016   5.067   9.293  1.00  0.00     0.001 A 
ATOM     65  C   UNL     1      14.782   5.680   8.303  1.00  0.00     0.000 A 
ENDBRANCH  46  60
BRANCH  47  66
ATOM     66  C   UNL     1       2.743   9.470  10.543  1.00  0.00    -0.014 A 
ATOM     67  C   UNL     1       2.421  10.823  10.733  1.00  0.00     0.009 A 
ATOM     68  C   UNL     1       1.716   8.515  10.617  1.00  0.00     0.009 A 
ATOM     69  C   UNL     1       1.110  11.207  11.025  1.00  0.00     0.001 A 
ATOM     70  C   UNL     1       0.400   8.906  10.875  1.00  0.00     0.001 A 
ATOM     71  C   UNL     1       0.100  10.249  11.091  1.00  0.00     0.000 A 
ENDBRANCH  47  66
BRANCH  59  72
ATOM     72  C   UNL     1       8.582   9.694  14.323  1.00  0.00    -0.014 A 
ATOM     73  C   UNL     1       8.082   9.074  15.478  1.00  0.00     0.009 A 
ATOM     74  C   UNL     1       9.390  10.835  14.459  1.00  0.00     0.009 A 
ATOM     75  C   UNL     1       8.342   9.615  16.739  1.00  0.00     0.001 A 
ATOM     76  C   UNL     1       9.680  11.351  15.722  1.00  0.00     0.001 A 
ATOM     77  C   UNL     1       9.145  10.750  16.859  1.00  0.00     0.000 A 
ENDBRANCH  59  72
ENDBRANCH  33  34
ENDBRANCH  25  28
ENDBRANCH  23  24
ENDBRANCH  22  23
ENDBRANCH   1  22
TORSDOF 13
