REMARK SMILES O=CN1CC[NH+](C[C@@H](CC(=O)Nc2ccc(C(F)(F)F)nc2)C(=O)NCCCNC(=O)c2ccc(-c3c4nc(c(-c5ccccc5)c5ccc([nH]5)c(-c5ccccc5)c5nc(c(-c6ccccc6)c6ccc3[nH]6)C=C5)C=C4)cc2)CC1
REMARK SMILES IDX 26 1 25 2 23 3 24 4 8 6 7 7 6 8 1 9 2 10 3 11 4 12 81 13
REMARK SMILES IDX 5 14 80 15 9 17 10 18 11 19 12 20 13 22 14 23 22 24 15 25
REMARK SMILES IDX 21 26 16 27 17 28 18 29 19 30 20 31 27 32 28 33 29 34 30 35
REMARK SMILES IDX 31 37 32 38 33 39 79 40 34 41 78 42 35 43 36 44 37 45 72 46
REMARK SMILES IDX 38 47 77 48 71 49 73 50 39 51 76 52 70 53 69 54 40 56 62 57
REMARK SMILES IDX 47 58 61 59 48 60 51 61 60 62 74 63 49 64 50 65 59 67 75 68
REMARK SMILES IDX 52 69 41 70 42 71 46 72 43 73 45 74 44 75 63 76 64 77 68 78
REMARK SMILES IDX 65 79 67 80 66 81 53 82 54 83 58 84 55 85 57 86 56 87
REMARK H PARENT 25 5 6 16 12 21 29 36 73 55 51 66
REMARK Flexibility Score: inf
ROOT
ATOM      1  C   UNL     1       8.258   1.799  -3.595  1.00  0.00     0.117 C 
ENDROOT
BRANCH   1   2
ATOM      2  N   UNL     1       7.648   2.917  -2.944  1.00  0.00    -0.356 N 
ATOM      3  C   UNL     1       6.550   2.863  -2.136  1.00  0.00     0.229 C 
ATOM      4  O   UNL     1       6.233   3.898  -1.543  1.00  0.00    -0.275 OA
ATOM      5  H   UNL     1       8.055   3.802  -3.092  1.00  0.00     0.163 HD
BRANCH   3   6
ATOM      6  C   UNL     1       5.652   1.601  -2.043  1.00  0.00     0.142 C 
BRANCH   6   7
ATOM      7  C   UNL     1       4.464   1.814  -2.993  1.00  0.00     0.276 C 
BRANCH   7   8
ATOM      8  N   UNL     1       3.349   0.873  -3.172  1.00  0.00    -0.331 N 
ATOM      9  O   UNL     1       0.259   0.901   0.909  1.00  0.00    -0.279 OA
ATOM     10  C   UNL     1       1.136   0.176   0.453  1.00  0.00     0.340 C 
ATOM     11  N   UNL     1       1.849   0.407  -0.700  1.00  0.00    -0.334 N 
ATOM     12  C   UNL     1       3.023  -0.391  -0.996  1.00  0.00     0.180 C 
ATOM     13  C   UNL     1       1.676   1.654  -1.444  1.00  0.00     0.180 C 
ATOM     14  C   UNL     1       3.356  -0.425  -2.492  1.00  0.00     0.284 C 
ATOM     15  C   UNL     1       2.030   1.508  -2.939  1.00  0.00     0.284 C 
ATOM     16  H   UNL     1       3.514   0.631  -4.149  1.00  0.00     0.348 HD
ENDBRANCH   7   8
ENDBRANCH   6   7
BRANCH   6  17
ATOM     17  C   UNL     1       6.384   0.264  -1.837  1.00  0.00     0.119 C 
BRANCH  17  18
ATOM     18  C   UNL     1       7.041  -0.770  -2.777  1.00  0.00     0.225 C 
ATOM     19  O   UNL     1       8.037  -1.358  -2.314  1.00  0.00    -0.275 OA
ATOM     20  N   UNL     1       6.650  -1.255  -3.979  1.00  0.00    -0.325 N 
ATOM     21  H   UNL     1       7.191  -2.031  -4.254  1.00  0.00     0.169 HD
BRANCH  20  22
ATOM     22  C   UNL     1       5.676  -0.938  -4.930  1.00  0.00     0.059 A 
ATOM     23  C   UNL     1       5.539   0.292  -5.552  1.00  0.00     0.030 A 
ATOM     24  C   UNL     1       4.836  -1.952  -5.376  1.00  0.00     0.137 A 
ATOM     25  C   UNL     1       4.453   0.531  -6.398  1.00  0.00     0.035 A 
ATOM     26  N   UNL     1       3.769  -1.759  -6.186  1.00  0.00    -0.250 NA
ATOM     27  C   UNL     1       3.534  -0.490  -6.625  1.00  0.00     0.144 A 
BRANCH  27  28
ATOM     28  C   UNL     1       2.231  -0.167  -7.342  1.00  0.00     0.433 C 
ATOM     29  F   UNL     1       2.332  -0.261  -8.698  1.00  0.00    -0.165 F 
ATOM     30  F   UNL     1       1.191  -0.972  -6.981  1.00  0.00    -0.165 F 
ATOM     31  F   UNL     1       1.800   1.108  -7.097  1.00  0.00    -0.165 F 
ENDBRANCH  27  28
ENDBRANCH  20  22
ENDBRANCH  17  18
ENDBRANCH   6  17
ENDBRANCH   3   6
ENDBRANCH   1   2
BRANCH   1  32
ATOM     32  C   UNL     1       8.862   2.031  -4.952  1.00  0.00     0.042 C 
BRANCH  32  33
ATOM     33  C   UNL     1      10.269   2.565  -4.878  1.00  0.00     0.118 C 
BRANCH  33  34
ATOM     34  N   UNL     1      11.212   1.617  -4.286  1.00  0.00    -0.352 N 
ATOM     35  C   UNL     1      12.231   0.878  -4.844  1.00  0.00     0.251 C 
ATOM     36  H   UNL     1      11.099   1.484  -3.317  1.00  0.00     0.163 HD
ATOM     37  O   UNL     1      12.818   0.037  -4.171  1.00  0.00    -0.269 OA
BRANCH  35  38
ATOM     38  C   UNL     1      12.587   1.062  -6.266  1.00  0.00     0.039 A 
ATOM     39  C   UNL     1      12.917  -0.050  -7.046  1.00  0.00     0.014 A 
ATOM     40  C   UNL     1      12.551   2.327  -6.843  1.00  0.00     0.014 A 
ATOM     41  C   UNL     1      13.097   0.105  -8.422  1.00  0.00     0.010 A 
ATOM     42  C   UNL     1      12.555   2.451  -8.221  1.00  0.00     0.010 A 
ATOM     43  C   UNL     1      12.854   1.347  -9.029  1.00  0.00    -0.014 A 
BRANCH  43  44
ATOM     44  C   UNL     1      12.943   1.550 -10.496  1.00  0.00     0.031 A 
ATOM     45  C   UNL     1      13.874   2.601 -11.043  1.00  0.00     0.074 A 
ATOM     46  C   UNL     1      12.126   0.869 -11.324  1.00  0.00     0.049 A 
ATOM     47  N   UNL     1      14.006   3.031 -12.271  1.00  0.00    -0.248 NA
ATOM     48  C   UNL     1      14.739   3.297 -10.072  1.00  0.00     0.031 C 
ATOM     49  C   UNL     1      11.143  -0.139 -10.916  1.00  0.00     0.029 A 
ATOM     50  N   UNL     1      11.987   0.931 -12.687  1.00  0.00    -0.354 N 
ATOM     51  C   UNL     1      14.934   4.063 -12.209  1.00  0.00     0.074 A 
ATOM     52  C   UNL     1      15.278   4.246 -10.819  1.00  0.00     0.031 C 
ATOM     53  C   UNL     1      10.534  -0.627 -12.008  1.00  0.00     0.029 A 
ATOM     54  C   UNL     1      11.040   0.069 -13.186  1.00  0.00     0.049 A 
ATOM     55  H   UNL     1      12.517   1.536 -13.255  1.00  0.00     0.167 HD
ATOM     56  C   UNL     1      15.479   4.777 -13.221  1.00  0.00     0.031 A 
ATOM     57  C   UNL     1      10.620  -0.130 -14.449  1.00  0.00     0.031 A 
ATOM     58  C   UNL     1      15.162   4.568 -14.606  1.00  0.00     0.049 A 
ATOM     59  C   UNL     1      11.238   0.676 -15.558  1.00  0.00     0.074 A 
ATOM     60  C   UNL     1      15.709   5.185 -15.716  1.00  0.00     0.029 A 
ATOM     61  N   UNL     1      14.214   3.668 -15.068  1.00  0.00    -0.354 N 
ATOM     62  N   UNL     1      12.167   1.599 -15.490  1.00  0.00    -0.248 NA
ATOM     63  C   UNL     1      10.754   0.408 -16.920  1.00  0.00     0.031 C 
ATOM     64  C   UNL     1      15.049   4.700 -16.849  1.00  0.00     0.029 A 
ATOM     65  C   UNL     1      14.140   3.733 -16.447  1.00  0.00     0.049 A 
ATOM     66  H   UNL     1      13.675   3.073 -14.499  1.00  0.00     0.167 HD
ATOM     67  C   UNL     1      12.403   1.997 -16.800  1.00  0.00     0.074 A 
ATOM     68  C   UNL     1      11.528   1.207 -17.641  1.00  0.00     0.031 C 
ATOM     69  C   UNL     1      13.267   2.932 -17.265  1.00  0.00     0.031 A 
BRANCH  56  70
ATOM     70  C   UNL     1      16.473   5.846 -12.860  1.00  0.00    -0.014 A 
ATOM     71  C   UNL     1      17.730   5.526 -12.321  1.00  0.00     0.009 A 
ATOM     72  C   UNL     1      16.157   7.195 -13.083  1.00  0.00     0.009 A 
ATOM     73  C   UNL     1      18.630   6.535 -11.972  1.00  0.00     0.001 A 
ATOM     74  C   UNL     1      17.073   8.200 -12.767  1.00  0.00     0.001 A 
ATOM     75  C   UNL     1      18.303   7.870 -12.201  1.00  0.00     0.000 A 
ENDBRANCH  56  70
BRANCH  57  76
ATOM     76  C   UNL     1       9.572  -1.145 -14.738  1.00  0.00    -0.014 A 
ATOM     77  C   UNL     1       9.891  -2.321 -15.436  1.00  0.00     0.009 A 
ATOM     78  C   UNL     1       8.245  -0.945 -14.323  1.00  0.00     0.009 A 
ATOM     79  C   UNL     1       8.900  -3.258 -15.738  1.00  0.00     0.001 A 
ATOM     80  C   UNL     1       7.263  -1.899 -14.598  1.00  0.00     0.001 A 
ATOM     81  C   UNL     1       7.589  -3.049 -15.315  1.00  0.00     0.000 A 
ENDBRANCH  57  76
BRANCH  69  82
ATOM     82  C   UNL     1      13.344   3.123 -18.753  1.00  0.00    -0.014 A 
ATOM     83  C   UNL     1      12.310   3.749 -19.465  1.00  0.00     0.009 A 
ATOM     84  C   UNL     1      14.503   2.727 -19.440  1.00  0.00     0.009 A 
ATOM     85  C   UNL     1      12.425   3.950 -20.842  1.00  0.00     0.001 A 
ATOM     86  C   UNL     1      14.628   2.958 -20.810  1.00  0.00     0.001 A 
ATOM     87  C   UNL     1      13.586   3.561 -21.511  1.00  0.00     0.000 A 
ENDBRANCH  69  82
ENDBRANCH  43  44
ENDBRANCH  35  38
ENDBRANCH  33  34
ENDBRANCH  32  33
ENDBRANCH   1  32
TORSDOF 16
