REMARK SMILES O=C(NCCCNC(=O)[C@@]1([NH2+]C2CC2)CCC[C@@H](Sc2ncn[nH]2)C1)c1ccc(-c2c3nc(c(-c4ccccc4)c4ccc([nH]4)c(-c4ccccc4)c4nc(c(-c5ccccc5)c5ccc2[nH]5)C=C4)C=C3)cc1
REMARK SMILES IDX 5 1 4 2 3 3 1 4 2 5 26 7 27 8 73 9 28 10 72 11 29 12 30 13
REMARK SMILES IDX 31 14 66 15 32 16 71 17 65 18 67 19 33 20 70 21 64 22 63 23
REMARK SMILES IDX 34 25 56 26 41 27 55 28 42 29 45 30 54 31 68 32 43 33 44 34
REMARK SMILES IDX 53 36 69 37 46 38 35 39 36 40 40 41 37 42 39 43 38 44 57 45
REMARK SMILES IDX 58 46 62 47 59 48 61 49 60 50 47 51 48 52 52 53 49 54 51 55
REMARK SMILES IDX 50 56 6 57 7 58 8 59 9 61 10 62 15 63 25 64 16 65 18 66
REMARK SMILES IDX 17 67 11 68 12 71 13 72 14 73 19 74 20 75 21 76 24 77 22 78
REMARK SMILES IDX 23 79
REMARK H PARENT 3 6 67 24 45 35 7 60 11 69 11 70 24 80
REMARK Flexibility Score: inf
ROOT
ATOM      1  C   UNL     1       3.965  -2.610   0.288  1.00  0.00     0.042 C 
ENDROOT
BRANCH   1   2
ATOM      2  C   UNL     1       4.043  -1.394  -0.629  1.00  0.00     0.118 C 
BRANCH   2   3
ATOM      3  N   UNL     1       2.718  -0.855  -0.914  1.00  0.00    -0.352 N 
ATOM      4  O   UNL     1       0.910   0.443  -0.572  1.00  0.00    -0.269 OA
ATOM      5  C   UNL     1       2.132   0.292  -0.452  1.00  0.00     0.251 C 
ATOM      6  H   UNL     1       2.167  -1.394  -1.526  1.00  0.00     0.163 HD
BRANCH   5   7
ATOM      7  C   UNL     1       2.935   1.354   0.190  1.00  0.00     0.039 A 
ATOM      8  C   UNL     1       4.167   1.743  -0.345  1.00  0.00     0.014 A 
ATOM      9  C   UNL     1       2.415   2.030   1.299  1.00  0.00     0.014 A 
ATOM     10  C   UNL     1       4.922   2.727   0.288  1.00  0.00     0.010 A 
ATOM     11  C   UNL     1       3.141   3.069   1.890  1.00  0.00     0.010 A 
ATOM     12  C   UNL     1       4.408   3.416   1.399  1.00  0.00    -0.014 A 
BRANCH  12  13
ATOM     13  C   UNL     1       5.179   4.546   1.977  1.00  0.00     0.031 A 
ATOM     14  C   UNL     1       5.753   4.474   3.363  1.00  0.00     0.074 A 
ATOM     15  C   UNL     1       5.376   5.647   1.226  1.00  0.00     0.049 A 
ATOM     16  N   UNL     1       6.489   5.354   3.995  1.00  0.00    -0.248 NA
ATOM     17  C   UNL     1       5.458   3.264   4.146  1.00  0.00     0.031 C 
ATOM     18  C   UNL     1       4.859   5.847  -0.130  1.00  0.00     0.029 A 
ATOM     19  N   UNL     1       6.084   6.793   1.484  1.00  0.00    -0.354 N 
ATOM     20  C   UNL     1       6.726   4.819   5.254  1.00  0.00     0.074 A 
ATOM     21  C   UNL     1       6.039   3.545   5.304  1.00  0.00     0.031 C 
ATOM     22  C   UNL     1       5.316   7.014  -0.607  1.00  0.00     0.029 A 
ATOM     23  C   UNL     1       6.112   7.668   0.426  1.00  0.00     0.049 A 
ATOM     24  H   UNL     1       6.529   6.971   2.344  1.00  0.00     0.167 HD
ATOM     25  C   UNL     1       7.450   5.339   6.275  1.00  0.00     0.031 A 
ATOM     26  C   UNL     1       6.711   8.865   0.295  1.00  0.00     0.031 A 
ATOM     27  C   UNL     1       8.139   6.602   6.226  1.00  0.00     0.049 A 
ATOM     28  C   UNL     1       7.501   9.421   1.442  1.00  0.00     0.074 A 
ATOM     29  C   UNL     1       8.930   7.193   7.197  1.00  0.00     0.029 A 
ATOM     30  N   UNL     1       8.115   7.473   5.148  1.00  0.00    -0.354 N 
ATOM     31  N   UNL     1       7.746   8.882   2.611  1.00  0.00    -0.248 NA
ATOM     32  C   UNL     1       8.097  10.750   1.249  1.00  0.00     0.031 C 
ATOM     33  C   UNL     1       9.351   8.440   6.721  1.00  0.00     0.029 A 
ATOM     34  C   UNL     1       8.860   8.605   5.437  1.00  0.00     0.049 A 
ATOM     35  H   UNL     1       7.639   7.312   4.301  1.00  0.00     0.167 HD
ATOM     36  C   UNL     1       8.540   9.797   3.288  1.00  0.00     0.074 A 
ATOM     37  C   UNL     1       8.747  10.918   2.392  1.00  0.00     0.031 C 
ATOM     38  C   UNL     1       9.052   9.715   4.540  1.00  0.00     0.031 A 
BRANCH  25  39
ATOM     39  C   UNL     1       7.509   4.547   7.551  1.00  0.00    -0.014 A 
ATOM     40  C   UNL     1       8.275   3.375   7.649  1.00  0.00     0.009 A 
ATOM     41  C   UNL     1       6.807   4.998   8.680  1.00  0.00     0.009 A 
ATOM     42  C   UNL     1       8.309   2.652   8.844  1.00  0.00     0.001 A 
ATOM     43  C   UNL     1       6.862   4.285   9.880  1.00  0.00     0.001 A 
ATOM     44  C   UNL     1       7.604   3.108   9.958  1.00  0.00     0.000 A 
ENDBRANCH  25  39
BRANCH  26  45
ATOM     45  C   UNL     1       6.599   9.608  -0.985  1.00  0.00    -0.014 A 
ATOM     46  C   UNL     1       7.700   9.702  -1.848  1.00  0.00     0.009 A 
ATOM     47  C   UNL     1       5.384  10.202  -1.362  1.00  0.00     0.009 A 
ATOM     48  C   UNL     1       7.591  10.388  -3.059  1.00  0.00     0.001 A 
ATOM     49  C   UNL     1       5.272  10.866  -2.584  1.00  0.00     0.001 A 
ATOM     50  C   UNL     1       6.376  10.964  -3.429  1.00  0.00     0.000 A 
ENDBRANCH  26  45
BRANCH  38  51
ATOM     51  C   UNL     1       9.909  10.858   4.999  1.00  0.00    -0.014 A 
ATOM     52  C   UNL     1       9.344  12.090   5.362  1.00  0.00     0.009 A 
ATOM     53  C   UNL     1      11.300  10.692   5.085  1.00  0.00     0.009 A 
ATOM     54  C   UNL     1      10.161  13.146   5.772  1.00  0.00     0.001 A 
ATOM     55  C   UNL     1      12.111  11.742   5.517  1.00  0.00     0.001 A 
ATOM     56  C   UNL     1      11.542  12.970   5.851  1.00  0.00     0.000 A 
ENDBRANCH  38  51
ENDBRANCH  12  13
ENDBRANCH   5   7
ENDBRANCH   2   3
ENDBRANCH   1   2
BRANCH   1  57
ATOM     57  C   UNL     1       3.595  -3.896  -0.444  1.00  0.00     0.118 C 
BRANCH  57  58
ATOM     58  N   UNL     1       4.617  -4.303  -1.397  1.00  0.00    -0.351 N 
ATOM     59  C   UNL     1       5.690  -5.137  -1.404  1.00  0.00     0.281 C 
ATOM     60  H   UNL     1       4.501  -3.855  -2.266  1.00  0.00     0.163 HD
ATOM     61  O   UNL     1       6.380  -5.036  -2.432  1.00  0.00    -0.268 OA
BRANCH  59  62
ATOM     62  C   UNL     1       6.068  -6.177  -0.295  1.00  0.00     0.176 C 
ATOM     63  C   UNL     1       5.069  -6.372   0.859  1.00  0.00     0.079 C 
ATOM     64  C   UNL     1       6.097  -7.537  -1.093  1.00  0.00     0.094 C 
ATOM     65  C   UNL     1       5.342  -7.585   1.750  1.00  0.00     0.008 C 
ATOM     66  C   UNL     1       6.329  -8.784  -0.227  1.00  0.00     0.061 C 
ATOM     67  C   UNL     1       5.335  -8.873   0.932  1.00  0.00     0.015 C 
BRANCH  62  68
ATOM     68  N   UNL     1       7.460  -5.976   0.184  1.00  0.00    -0.331 N 
ATOM     69  H   UNL     1       8.048  -6.257  -0.601  1.00  0.00     0.347 HD
ATOM     70  H   UNL     1       7.400  -6.487   1.065  1.00  0.00     0.347 HD
BRANCH  68  71
ATOM     71  C   UNL     1       8.058  -4.742   0.675  1.00  0.00     0.183 C 
ATOM     72  C   UNL     1       7.701  -3.349   0.274  1.00  0.00     0.071 C 
ATOM     73  C   UNL     1       7.403  -3.834   1.667  1.00  0.00     0.071 C 
ENDBRANCH  68  71
ENDBRANCH  62  68
BRANCH  66  74
ATOM     74  S   UNL     1       6.383 -10.349  -1.179  1.00  0.00    -0.083 SA
BRANCH  74  75
ATOM     75  C   UNL     1       4.803 -10.467  -1.839  1.00  0.00     0.183 A 
ATOM     76  N   UNL     1       4.211  -9.667  -2.688  1.00  0.00    -0.210 NA
ATOM     77  N   UNL     1       3.990 -11.515  -1.542  1.00  0.00    -0.254 N 
ATOM     78  C   UNL     1       3.007 -10.283  -2.887  1.00  0.00     0.247 A 
ATOM     79  N   UNL     1       2.814 -11.407  -2.188  1.00  0.00    -0.162 NA
ATOM     80  H   UNL     1       4.228 -12.253  -0.937  1.00  0.00     0.192 HD
ENDBRANCH  74  75
ENDBRANCH  66  74
ENDBRANCH  59  62
ENDBRANCH  57  58
ENDBRANCH   1  57
TORSDOF 14
