REMARK SMILES Cc1nn(C)c(=O)c(C(=O)N2CCCC[C@H]2C(=O)NCCCNC(=O)c2ccc(-c3c4nc(c(-c5ccccc5)c5ccc([nH]5)c(-c5ccccc5)c5nc(c(-c6ccccc6)c6ccc3[nH]6)C=C5)C=C4)cc2)c1C
REMARK SMILES IDX 21 1 20 2 19 3 17 4 18 5 16 7 11 8 12 9 13 10 15 11 14 12
REMARK SMILES IDX 9 13 10 14 8 15 1 16 2 17 3 18 74 19 4 20 75 21 5 22 6 23
REMARK SMILES IDX 7 24 22 25 23 26 24 27 25 29 26 30 27 31 73 32 28 33 72 34
REMARK SMILES IDX 29 35 30 36 31 37 66 38 32 39 71 40 65 41 67 42 33 43 70 44
REMARK SMILES IDX 64 45 63 46 34 48 56 49 41 50 55 51 42 52 45 53 54 54 68 55
REMARK SMILES IDX 43 56 44 57 53 59 69 60 46 61 35 62 36 63 40 64 37 65 39 66
REMARK SMILES IDX 38 67 57 68 58 69 62 70 59 71 61 72 60 73 47 74 48 75 52 76
REMARK SMILES IDX 49 77 51 78 50 79
REMARK H PARENT 19 6 23 28 67 47 45 58
REMARK Flexibility Score: inf
ROOT
ATOM      1  C   UNL     1       4.899   4.887   4.939  1.00  0.00     0.042 C 
ENDROOT
BRANCH   1   2
ATOM      2  C   UNL     1       5.519   4.480   3.612  1.00  0.00     0.117 C 
BRANCH   2   3
ATOM      3  N   UNL     1       4.867   3.369   2.954  1.00  0.00    -0.354 N 
ATOM      4  C   UNL     1       4.606   3.249   1.617  1.00  0.00     0.242 C 
ATOM      5  O   UNL     1       4.927   2.167   1.109  1.00  0.00    -0.273 OA
ATOM      6  H   UNL     1       4.583   2.621   3.527  1.00  0.00     0.163 HD
BRANCH   4   7
ATOM      7  C   UNL     1       3.958   4.363   0.726  1.00  0.00     0.174 C 
ATOM      8  N   UNL     1       2.661   4.923   1.156  1.00  0.00    -0.326 N 
ATOM      9  C   UNL     1       2.728   5.916   2.207  1.00  0.00     0.120 C 
ATOM     10  C   UNL     1       3.551   7.125   1.804  1.00  0.00     0.022 C 
ATOM     11  C   UNL     1       4.936   5.485   0.325  1.00  0.00     0.035 C 
ATOM     12  C   UNL     1       4.872   6.806   1.107  1.00  0.00     0.004 C 
BRANCH   8  13
ATOM     13  C   UNL     1       1.482   4.929   0.410  1.00  0.00     0.260 C 
ATOM     14  O   UNL     1       0.782   5.947   0.416  1.00  0.00    -0.269 OA
BRANCH  13  15
ATOM     15  C   UNL     1       0.946   3.703  -0.288  1.00  0.00     0.111 A 
ATOM     16  C   UNL     1       0.637  -0.074  -0.290  1.00  0.00     0.069 C 
ATOM     17  C   UNL     1       0.301   1.381  -0.545  1.00  0.00     0.062 A 
ATOM     18  N   UNL     1      -0.651   1.604  -1.387  1.00  0.00    -0.175 NA
ATOM     19  C   UNL     1       1.054   2.445   0.190  1.00  0.00    -0.010 A 
ATOM     20  N   UNL     1      -0.895   2.898  -1.729  1.00  0.00    -0.232 N 
ATOM     21  C   UNL     1       1.722   1.977   1.442  1.00  0.00     0.047 C 
ATOM     22  C   UNL     1      -2.032   3.099  -2.612  1.00  0.00     0.178 C 
ATOM     23  C   UNL     1      -0.041   3.950  -1.410  1.00  0.00     0.279 A 
ATOM     24  O   UNL     1      -0.105   5.037  -1.981  1.00  0.00    -0.267 OA
ENDBRANCH  13  15
ENDBRANCH   8  13
ENDBRANCH   4   7
ENDBRANCH   2   3
ENDBRANCH   1   2
BRANCH   1  25
ATOM     25  C   UNL     1       5.247   3.951   6.079  1.00  0.00     0.118 C 
BRANCH  25  26
ATOM     26  N   UNL     1       6.661   4.001   6.421  1.00  0.00    -0.352 N 
ATOM     27  C   UNL     1       7.320   4.685   7.416  1.00  0.00     0.251 C 
ATOM     28  H   UNL     1       7.243   3.455   5.845  1.00  0.00     0.163 HD
ATOM     29  O   UNL     1       8.540   4.791   7.371  1.00  0.00    -0.269 OA
BRANCH  27  30
ATOM     30  C   UNL     1       6.566   5.304   8.527  1.00  0.00     0.039 A 
ATOM     31  C   UNL     1       6.997   6.526   9.053  1.00  0.00     0.014 A 
ATOM     32  C   UNL     1       5.453   4.668   9.074  1.00  0.00     0.014 A 
ATOM     33  C   UNL     1       6.272   7.129  10.084  1.00  0.00     0.010 A 
ATOM     34  C   UNL     1       4.658   5.329   9.998  1.00  0.00     0.010 A 
ATOM     35  C   UNL     1       5.079   6.549  10.541  1.00  0.00    -0.014 A 
BRANCH  35  36
ATOM     36  C   UNL     1       4.284   7.150  11.637  1.00  0.00     0.031 A 
ATOM     37  C   UNL     1       4.076   6.377  12.912  1.00  0.00     0.074 A 
ATOM     38  C   UNL     1       3.707   8.354  11.470  1.00  0.00     0.049 A 
ATOM     39  N   UNL     1       3.361   6.691  13.962  1.00  0.00    -0.248 NA
ATOM     40  C   UNL     1       4.732   5.061  13.006  1.00  0.00     0.031 C 
ATOM     41  C   UNL     1       3.812   9.186  10.269  1.00  0.00     0.029 A 
ATOM     42  N   UNL     1       2.920   9.090  12.318  1.00  0.00    -0.354 N 
ATOM     43  C   UNL     1       3.470   5.607  14.824  1.00  0.00     0.074 A 
ATOM     44  C   UNL     1       4.247   4.597  14.146  1.00  0.00     0.031 C 
ATOM     45  C   UNL     1       3.159  10.340  10.479  1.00  0.00     0.029 A 
ATOM     46  C   UNL     1       2.551  10.309  11.805  1.00  0.00     0.049 A 
ATOM     47  H   UNL     1       2.646   8.774  13.209  1.00  0.00     0.167 HD
ATOM     48  C   UNL     1       2.998   5.476  16.086  1.00  0.00     0.031 A 
ATOM     49  C   UNL     1       1.810  11.293  12.347  1.00  0.00     0.031 A 
ATOM     50  C   UNL     1       2.237   6.489  16.763  1.00  0.00     0.049 A 
ATOM     51  C   UNL     1       1.260  11.114  13.733  1.00  0.00     0.074 A 
ATOM     52  C   UNL     1       1.743   6.477  18.054  1.00  0.00     0.029 A 
ATOM     53  N   UNL     1       1.861   7.698  16.197  1.00  0.00    -0.354 N 
ATOM     54  N   UNL     1       1.410  10.104  14.557  1.00  0.00    -0.248 NA
ATOM     55  C   UNL     1       0.443  12.212  14.267  1.00  0.00     0.031 C 
ATOM     56  C   UNL     1       1.018   7.656  18.250  1.00  0.00     0.029 A 
ATOM     57  C   UNL     1       1.115   8.430  17.104  1.00  0.00     0.049 A 
ATOM     58  H   UNL     1       2.091   7.992  15.286  1.00  0.00     0.167 HD
ATOM     59  C   UNL     1       0.723  10.451  15.713  1.00  0.00     0.074 A 
ATOM     60  C   UNL     1       0.173  11.773  15.490  1.00  0.00     0.031 C 
ATOM     61  C   UNL     1       0.563   9.739  16.856  1.00  0.00     0.031 A 
BRANCH  48  62
ATOM     62  C   UNL     1       3.304   4.190  16.804  1.00  0.00    -0.014 A 
ATOM     63  C   UNL     1       4.619   3.857  17.172  1.00  0.00     0.009 A 
ATOM     64  C   UNL     1       2.267   3.300  17.123  1.00  0.00     0.009 A 
ATOM     65  C   UNL     1       4.894   2.640  17.799  1.00  0.00     0.001 A 
ATOM     66  C   UNL     1       2.541   2.100  17.782  1.00  0.00     0.001 A 
ATOM     67  C   UNL     1       3.854   1.765  18.108  1.00  0.00     0.000 A 
ENDBRANCH  48  62
BRANCH  49  68
ATOM     68  C   UNL     1       1.597  12.551  11.585  1.00  0.00    -0.014 A 
ATOM     69  C   UNL     1       2.258  13.727  11.969  1.00  0.00     0.009 A 
ATOM     70  C   UNL     1       0.784  12.572  10.440  1.00  0.00     0.009 A 
ATOM     71  C   UNL     1       2.107  14.900  11.225  1.00  0.00     0.001 A 
ATOM     72  C   UNL     1       0.657  13.739   9.683  1.00  0.00     0.001 A 
ATOM     73  C   UNL     1       1.316  14.902  10.077  1.00  0.00     0.000 A 
ENDBRANCH  49  68
BRANCH  61  74
ATOM     74  C   UNL     1      -0.237  10.372  17.959  1.00  0.00    -0.014 A 
ATOM     75  C   UNL     1      -1.630  10.508  17.858  1.00  0.00     0.009 A 
ATOM     76  C   UNL     1       0.401  10.765  19.146  1.00  0.00     0.009 A 
ATOM     77  C   UNL     1      -2.365  11.047  18.915  1.00  0.00     0.001 A 
ATOM     78  C   UNL     1      -0.340  11.274  20.213  1.00  0.00     0.001 A 
ATOM     79  C   UNL     1      -1.721  11.421  20.094  1.00  0.00     0.000 A 
ENDBRANCH  61  74
ENDBRANCH  35  36
ENDBRANCH  27  30
ENDBRANCH  25  26
ENDBRANCH   1  25
TORSDOF 12
