REMARK SMILES [NH3+]C[C@@H]([NH3+])c1ccccc1OCC(=O)NCCCNC(=O)c1ccc(-c2c3nc(c(-c4ccccc4)c4ccc([nH]4)c(-c4ccccc4)c4nc(c(-c5ccccc5)c5ccc2[nH]5)C=C4)C=C3)cc1
REMARK SMILES IDX 13 1 14 2 15 3 12 5 11 6 10 7 5 8 6 9 7 10 9 11 8 12 3 13
REMARK SMILES IDX 2 14 1 15 4 19 16 23 17 24 18 25 19 26 20 27 21 29 22 30
REMARK SMILES IDX 23 31 69 32 24 33 68 34 25 35 26 36 27 37 62 38 28 39 67 40
REMARK SMILES IDX 61 41 63 42 29 43 66 44 60 45 59 46 30 48 52 49 37 50 51 51
REMARK SMILES IDX 38 52 41 53 50 54 64 55 39 56 40 57 49 59 65 60 42 61 31 62
REMARK SMILES IDX 32 63 36 64 33 65 35 66 34 67 53 68 54 69 58 70 55 71 57 72
REMARK SMILES IDX 56 73 43 74 44 75 48 76 45 77 47 78 46 79
REMARK H PARENT 15 4 1 16 1 17 1 18 4 20 4 21 4 22 19 28 63 47 41 58
REMARK Flexibility Score: inf
ROOT
ATOM      1  C   UNL     1      -0.028  -1.987   0.858  1.00  0.00     0.257 C 
ATOM      2  O   UNL     1       0.215  -1.552  -0.271  1.00  0.00    -0.271 OA
ATOM      3  N   UNL     1      -1.306  -2.379   1.116  1.00  0.00    -0.353 N 
ATOM      4  H   UNL     1      -2.011  -1.938   0.589  1.00  0.00     0.163 HD
ENDROOT
BRANCH   1   5
ATOM      5  C   UNL     1       1.072  -2.142   1.920  1.00  0.00     0.329 C 
BRANCH   5   6
ATOM      6  O   UNL     1       0.803  -1.845   3.260  1.00  0.00    -0.483 OA
BRANCH   6   7
ATOM      7  C   UNL     1       0.595  -0.683   3.927  1.00  0.00     0.129 A 
ATOM      8  C   UNL     1       0.728   0.695   3.651  1.00  0.00     0.057 A 
ATOM      9  C   UNL     1       0.376   1.577   4.729  1.00  0.00     0.014 A 
ATOM     10  C   UNL     1      -0.050   1.159   5.991  1.00  0.00     0.001 A 
ATOM     11  C   UNL     1       0.179  -1.077   5.233  1.00  0.00     0.047 A 
ATOM     12  C   UNL     1      -0.135  -0.186   6.252  1.00  0.00     0.004 A 
BRANCH   8  13
ATOM     13  C   UNL     1       1.347   1.409   2.434  1.00  0.00     0.271 C 
BRANCH  13  14
ATOM     14  C   UNL     1       1.014   0.906   1.016  1.00  0.00     0.329 C 
BRANCH  14  15
ATOM     15  N   UNL     1       1.357   1.854  -0.075  1.00  0.00    -0.352 N 
ATOM     16  H   UNL     1       1.105   1.443  -0.974  1.00  0.00     0.344 HD
ATOM     17  H   UNL     1       2.359   2.045  -0.058  1.00  0.00     0.344 HD
ATOM     18  H   UNL     1       0.843   2.725   0.057  1.00  0.00     0.344 HD
ENDBRANCH  14  15
ENDBRANCH  13  14
BRANCH  13  19
ATOM     19  N   UNL     1       1.032   2.869   2.389  1.00  0.00    -0.347 N 
ATOM     20  H   UNL     1       0.038   2.997   2.195  1.00  0.00     0.345 HD
ATOM     21  H   UNL     1       1.581   3.313   1.653  1.00  0.00     0.345 HD
ATOM     22  H   UNL     1       1.260   3.295   3.287  1.00  0.00     0.345 HD
ENDBRANCH  13  19
ENDBRANCH   8  13
ENDBRANCH   6   7
ENDBRANCH   5   6
ENDBRANCH   1   5
BRANCH   3  23
ATOM     23  C   UNL     1      -1.747  -3.367   2.076  1.00  0.00     0.117 C 
BRANCH  23  24
ATOM     24  C   UNL     1      -2.755  -2.842   3.086  1.00  0.00     0.042 C 
BRANCH  24  25
ATOM     25  C   UNL     1      -3.950  -2.108   2.485  1.00  0.00     0.118 C 
BRANCH  25  26
ATOM     26  N   UNL     1      -4.672  -2.892   1.491  1.00  0.00    -0.352 N 
ATOM     27  C   UNL     1      -5.895  -3.514   1.539  1.00  0.00     0.251 C 
ATOM     28  H   UNL     1      -4.199  -2.994   0.633  1.00  0.00     0.163 HD
ATOM     29  O   UNL     1      -6.222  -4.275   0.634  1.00  0.00    -0.269 OA
BRANCH  27  30
ATOM     30  C   UNL     1      -6.808  -3.300   2.680  1.00  0.00     0.039 A 
ATOM     31  C   UNL     1      -7.504  -4.396   3.201  1.00  0.00     0.014 A 
ATOM     32  C   UNL     1      -7.006  -2.030   3.221  1.00  0.00     0.014 A 
ATOM     33  C   UNL     1      -8.331  -4.227   4.314  1.00  0.00     0.010 A 
ATOM     34  C   UNL     1      -7.753  -1.880   4.386  1.00  0.00     0.010 A 
ATOM     35  C   UNL     1      -8.427  -2.976   4.944  1.00  0.00    -0.014 A 
BRANCH  35  36
ATOM     36  C   UNL     1      -9.226  -2.793   6.182  1.00  0.00     0.031 A 
ATOM     37  C   UNL     1     -10.404  -1.857   6.193  1.00  0.00     0.074 A 
ATOM     38  C   UNL     1      -8.859  -3.430   7.312  1.00  0.00     0.049 A 
ATOM     39  N   UNL     1     -11.186  -1.526   7.190  1.00  0.00    -0.248 NA
ATOM     40  C   UNL     1     -10.735  -1.186   4.924  1.00  0.00     0.031 C 
ATOM     41  C   UNL     1      -7.717  -4.339   7.444  1.00  0.00     0.029 A 
ATOM     42  N   UNL     1      -9.409  -3.408   8.570  1.00  0.00    -0.354 N 
ATOM     43  C   UNL     1     -12.090  -0.607   6.671  1.00  0.00     0.074 A 
ATOM     44  C   UNL     1     -11.723  -0.384   5.290  1.00  0.00     0.031 C 
ATOM     45  C   UNL     1      -7.677  -4.816   8.698  1.00  0.00     0.029 A 
ATOM     46  C   UNL     1      -8.755  -4.212   9.472  1.00  0.00     0.049 A 
ATOM     47  H   UNL     1     -10.198  -2.867   8.803  1.00  0.00     0.167 HD
ATOM     48  C   UNL     1     -13.149  -0.021   7.279  1.00  0.00     0.031 A 
ATOM     49  C   UNL     1      -8.995  -4.434  10.778  1.00  0.00     0.031 A 
ATOM     50  C   UNL     1     -13.518  -0.242   8.651  1.00  0.00     0.049 A 
ATOM     51  C   UNL     1     -10.151  -3.733  11.439  1.00  0.00     0.074 A 
ATOM     52  C   UNL     1     -14.591   0.282   9.351  1.00  0.00     0.029 A 
ATOM     53  N   UNL     1     -12.822  -1.055   9.532  1.00  0.00    -0.354 N 
ATOM     54  N   UNL     1     -11.030  -2.913  10.917  1.00  0.00    -0.248 NA
ATOM     55  C   UNL     1     -10.352  -4.000  12.870  1.00  0.00     0.031 C 
ATOM     56  C   UNL     1     -14.516  -0.175  10.670  1.00  0.00     0.029 A 
ATOM     57  C   UNL     1     -13.433  -1.033  10.775  1.00  0.00     0.049 A 
ATOM     58  H   UNL     1     -12.015  -1.571   9.308  1.00  0.00     0.167 HD
ATOM     59  C   UNL     1     -11.909  -2.596  11.945  1.00  0.00     0.074 A 
ATOM     60  C   UNL     1     -11.467  -3.328  13.115  1.00  0.00     0.031 C 
ATOM     61  C   UNL     1     -12.986  -1.774  11.925  1.00  0.00     0.031 A 
BRANCH  48  62
ATOM     62  C   UNL     1     -13.990   0.916   6.454  1.00  0.00    -0.014 A 
ATOM     63  C   UNL     1     -14.800   0.434   5.413  1.00  0.00     0.009 A 
ATOM     64  C   UNL     1     -14.009   2.288   6.747  1.00  0.00     0.009 A 
ATOM     65  C   UNL     1     -15.584   1.311   4.660  1.00  0.00     0.001 A 
ATOM     66  C   UNL     1     -14.817   3.158   6.013  1.00  0.00     0.001 A 
ATOM     67  C   UNL     1     -15.597   2.671   4.965  1.00  0.00     0.000 A 
ENDBRANCH  48  62
BRANCH  49  68
ATOM     68  C   UNL     1      -8.138  -5.368  11.557  1.00  0.00    -0.014 A 
ATOM     69  C   UNL     1      -8.663  -6.574  12.048  1.00  0.00     0.009 A 
ATOM     70  C   UNL     1      -6.804  -5.043  11.850  1.00  0.00     0.009 A 
ATOM     71  C   UNL     1      -7.885  -7.413  12.848  1.00  0.00     0.001 A 
ATOM     72  C   UNL     1      -6.017  -5.901  12.621  1.00  0.00     0.001 A 
ATOM     73  C   UNL     1      -6.562  -7.078  13.132  1.00  0.00     0.000 A 
ENDBRANCH  49  68
BRANCH  61  74
ATOM     74  C   UNL     1     -13.790  -1.664  13.190  1.00  0.00    -0.014 A 
ATOM     75  C   UNL     1     -13.292  -1.000  14.321  1.00  0.00     0.009 A 
ATOM     76  C   UNL     1     -15.084  -2.207  13.236  1.00  0.00     0.009 A 
ATOM     77  C   UNL     1     -14.057  -0.918  15.486  1.00  0.00     0.001 A 
ATOM     78  C   UNL     1     -15.860  -2.094  14.390  1.00  0.00     0.001 A 
ATOM     79  C   UNL     1     -15.342  -1.460  15.517  1.00  0.00     0.000 A 
ENDBRANCH  61  74
ENDBRANCH  35  36
ENDBRANCH  27  30
ENDBRANCH  25  26
ENDBRANCH  24  25
ENDBRANCH  23  24
ENDBRANCH   3  23
TORSDOF 16
