REMARK SMILES Cc1cc2c(c(C)c1Cl)C=C(C(=O)NCCCNC(=O)c1ccc(-c3c4nc(c(-c5ccccc5)c5ccc([nH]5)c(-c5ccccc5)c5nc(c(-c6ccccc6)c6ccc3[nH]6)C=C5)C=C4)cc1)[C@@H](C(F)(F)F)O2
REMARK SMILES IDX 16 1 15 2 14 3 12 4 13 5 11 7 1 8 2 9 3 10 8 11 4 12 6 13
REMARK SMILES IDX 9 14 5 15 74 16 7 17 10 18 69 19 70 20 71 21 72 22 73 23
REMARK SMILES IDX 17 24 18 25 19 26 20 28 21 29 22 30 68 31 23 32 67 33 24 34
REMARK SMILES IDX 25 35 26 36 61 37 27 38 66 39 60 40 62 41 28 42 65 43 59 44
REMARK SMILES IDX 58 45 29 47 51 48 36 49 50 50 37 51 40 52 49 53 63 54 38 55
REMARK SMILES IDX 39 56 48 58 64 59 41 60 30 61 31 62 35 63 32 64 34 65 33 66
REMARK SMILES IDX 52 67 53 68 57 69 54 70 56 71 55 72 42 73 43 74 47 75 44 76
REMARK SMILES IDX 46 77 45 78
REMARK H PARENT 14 6 18 27 62 46 40 57
REMARK Flexibility Score: inf
ROOT
ATOM      1  C   UNL     1       1.927  -9.516   1.273  1.00  0.00     0.042 C 
ENDROOT
BRANCH   1   2
ATOM      2  C   UNL     1       1.698  -8.961  -0.124  1.00  0.00     0.118 C 
BRANCH   2   3
ATOM      3  N   UNL     1       0.291  -8.679  -0.366  1.00  0.00    -0.352 N 
ATOM      4  C   UNL     1      -0.496  -7.587  -0.495  1.00  0.00     0.251 C 
ATOM      5  O   UNL     1      -1.693  -7.825  -0.689  1.00  0.00    -0.270 OA
ATOM      6  H   UNL     1      -0.229  -9.509  -0.463  1.00  0.00     0.163 HD
BRANCH   4   7
ATOM      7  C   UNL     1      -0.023  -6.175  -0.419  1.00  0.00     0.067 C 
ATOM      8  C   UNL     1       0.822   0.266  -0.103  1.00  0.00     0.046 C 
ATOM      9  C   UNL     1       0.296  -1.136  -0.250  1.00  0.00    -0.028 A 
ATOM     10  C   UNL     1       1.158  -2.197   0.034  1.00  0.00     0.052 A 
ATOM     11  C   UNL     1      -1.035  -1.420  -0.621  1.00  0.00     0.047 A 
ATOM     12  C   UNL     1       0.718  -3.510  -0.077  1.00  0.00     0.128 A 
ATOM     13  C   UNL     1      -1.496  -2.755  -0.735  1.00  0.00    -0.021 A 
ATOM     14  Cl  UNL     1      -2.108  -0.085  -0.916  1.00  0.00    -0.084 Cl
ATOM     15  C   UNL     1      -0.595  -3.810  -0.453  1.00  0.00     0.022 A 
ATOM     16  O   UNL     1       1.641  -4.462   0.252  1.00  0.00    -0.475 OA
ATOM     17  C   UNL     1      -2.916  -3.078  -1.141  1.00  0.00     0.047 C 
ATOM     18  C   UNL     1      -0.976  -5.227  -0.493  1.00  0.00     0.026 C 
ATOM     19  C   UNL     1       1.417  -5.783  -0.295  1.00  0.00     0.314 C 
BRANCH  19  20
ATOM     20  C   UNL     1       2.195  -5.933  -1.617  1.00  0.00     0.429 C 
ATOM     21  F   UNL     1       3.530  -5.960  -1.375  1.00  0.00    -0.167 F 
ATOM     22  F   UNL     1       1.902  -7.085  -2.266  1.00  0.00    -0.167 F 
ATOM     23  F   UNL     1       1.958  -4.925  -2.483  1.00  0.00    -0.167 F 
ENDBRANCH  19  20
ENDBRANCH   4   7
ENDBRANCH   2   3
ENDBRANCH   1   2
BRANCH   1  24
ATOM     24  C   UNL     1       1.521 -10.979   1.377  1.00  0.00     0.118 C 
BRANCH  24  25
ATOM     25  N   UNL     1       2.354 -11.833   0.533  1.00  0.00    -0.352 N 
ATOM     26  C   UNL     1       3.383 -12.674   0.869  1.00  0.00     0.251 C 
ATOM     27  H   UNL     1       2.143 -11.799  -0.428  1.00  0.00     0.163 HD
ATOM     28  O   UNL     1       4.149 -13.086   0.000  1.00  0.00    -0.269 OA
BRANCH  26  29
ATOM     29  C   UNL     1       3.571 -13.080   2.273  1.00  0.00     0.039 A 
ATOM     30  C   UNL     1       4.863 -13.170   2.796  1.00  0.00     0.014 A 
ATOM     31  C   UNL     1       2.465 -13.391   3.067  1.00  0.00     0.014 A 
ATOM     32  C   UNL     1       5.036 -13.510   4.138  1.00  0.00     0.010 A 
ATOM     33  C   UNL     1       2.632 -13.619   4.424  1.00  0.00     0.010 A 
ATOM     34  C   UNL     1       3.920 -13.702   4.969  1.00  0.00    -0.014 A 
BRANCH  34  35
ATOM     35  C   UNL     1       4.075 -14.030   6.405  1.00  0.00     0.031 A 
ATOM     36  C   UNL     1       3.575 -15.348   6.928  1.00  0.00     0.074 A 
ATOM     37  C   UNL     1       4.629 -13.128   7.237  1.00  0.00     0.049 A 
ATOM     38  N   UNL     1       3.603 -15.810   8.152  1.00  0.00    -0.248 NA
ATOM     39  C   UNL     1       2.937 -16.255   5.959  1.00  0.00     0.031 C 
ATOM     40  C   UNL     1       5.117 -11.803   6.849  1.00  0.00     0.029 A 
ATOM     41  N   UNL     1       4.886 -13.195   8.583  1.00  0.00    -0.354 N 
ATOM     42  C   UNL     1       2.986 -17.053   8.095  1.00  0.00     0.074 A 
ATOM     43  C   UNL     1       2.526 -17.243   6.739  1.00  0.00     0.031 C 
ATOM     44  C   UNL     1       5.665 -11.206   7.919  1.00  0.00     0.029 A 
ATOM     45  C   UNL     1       5.529 -12.085   9.076  1.00  0.00     0.049 A 
ATOM     46  H   UNL     1       4.633 -13.965   9.142  1.00  0.00     0.167 HD
ATOM     47  C   UNL     1       2.848 -17.974   9.076  1.00  0.00     0.031 A 
ATOM     48  C   UNL     1       5.968 -11.813  10.319  1.00  0.00     0.031 A 
ATOM     49  C   UNL     1       3.321 -17.789  10.419  1.00  0.00     0.049 A 
ATOM     50  C   UNL     1       5.766 -12.835  11.403  1.00  0.00     0.074 A 
ATOM     51  C   UNL     1       3.266 -18.675  11.479  1.00  0.00     0.029 A 
ATOM     52  N   UNL     1       3.938 -16.638  10.883  1.00  0.00    -0.354 N 
ATOM     53  N   UNL     1       5.234 -14.030  11.319  1.00  0.00    -0.248 NA
ATOM     54  C   UNL     1       6.230 -12.474  12.750  1.00  0.00     0.031 C 
ATOM     55  C   UNL     1       3.806 -18.040  12.601  1.00  0.00     0.029 A 
ATOM     56  C   UNL     1       4.248 -16.781  12.223  1.00  0.00     0.049 A 
ATOM     57  H   UNL     1       4.128 -15.839  10.340  1.00  0.00     0.167 HD
ATOM     58  C   UNL     1       5.318 -14.573  12.595  1.00  0.00     0.074 A 
ATOM     59  C   UNL     1       5.966 -13.583  13.430  1.00  0.00     0.031 C 
ATOM     60  C   UNL     1       4.896 -15.783  13.034  1.00  0.00     0.031 A 
BRANCH  47  61
ATOM     61  C   UNL     1       2.177 -19.271   8.723  1.00  0.00    -0.014 A 
ATOM     62  C   UNL     1       2.807 -20.204   7.883  1.00  0.00     0.009 A 
ATOM     63  C   UNL     1       0.924 -19.587   9.268  1.00  0.00     0.009 A 
ATOM     64  C   UNL     1       2.183 -21.413   7.572  1.00  0.00     0.001 A 
ATOM     65  C   UNL     1       0.315 -20.811   8.981  1.00  0.00     0.001 A 
ATOM     66  C   UNL     1       0.941 -21.718   8.127  1.00  0.00     0.000 A 
ENDBRANCH  47  61
BRANCH  48  67
ATOM     67  C   UNL     1       6.681 -10.538  10.589  1.00  0.00    -0.014 A 
ATOM     68  C   UNL     1       8.060 -10.541  10.849  1.00  0.00     0.009 A 
ATOM     69  C   UNL     1       6.000  -9.310  10.563  1.00  0.00     0.009 A 
ATOM     70  C   UNL     1       8.740  -9.345  11.091  1.00  0.00     0.001 A 
ATOM     71  C   UNL     1       6.687  -8.113  10.778  1.00  0.00     0.001 A 
ATOM     72  C   UNL     1       8.054  -8.132  11.049  1.00  0.00     0.000 A 
ENDBRANCH  48  67
BRANCH  60  73
ATOM     73  C   UNL     1       5.128 -16.122  14.478  1.00  0.00    -0.014 A 
ATOM     74  C   UNL     1       4.343 -15.548  15.488  1.00  0.00     0.009 A 
ATOM     75  C   UNL     1       6.065 -17.111  14.818  1.00  0.00     0.009 A 
ATOM     76  C   UNL     1       4.500 -15.952  16.815  1.00  0.00     0.001 A 
ATOM     77  C   UNL     1       6.199 -17.532  16.141  1.00  0.00     0.001 A 
ATOM     78  C   UNL     1       5.419 -16.950  17.138  1.00  0.00     0.000 A 
ENDBRANCH  60  73
ENDBRANCH  34  35
ENDBRANCH  26  29
ENDBRANCH  24  25
ENDBRANCH   1  24
TORSDOF 11
