REMARK SMILES CC(C)Oc1ccc([C@@H]2CC(=O)Nc3c(C(=O)NCCCNC(=O)c4ccc(-c5c6nc(c(-c7ccccc7)c7ccc([nH]7)c(-c7ccccc7)c7nc(c(-c8ccccc8)c8ccc5[nH]8)C=C7)C=C6)cc4)nsc32)cc1
REMARK SMILES IDX 19 1 18 2 16 3 17 4 15 6 9 7 10 8 75 9 11 10 14 11 74 12
REMARK SMILES IDX 12 13 13 14 73 15 8 17 5 18 6 19 77 20 7 21 76 22 4 23 2 24
REMARK SMILES IDX 1 25 3 26 20 27 21 28 22 29 23 30 24 32 25 33 26 34 72 35
REMARK SMILES IDX 27 36 71 37 28 38 29 39 30 40 65 41 31 42 70 43 64 44 66 45
REMARK SMILES IDX 32 46 69 47 63 48 62 49 33 51 55 52 40 53 54 54 41 55 44 56
REMARK SMILES IDX 53 57 67 58 42 59 43 60 52 62 68 63 45 64 34 65 35 66 39 67
REMARK SMILES IDX 36 68 38 69 37 70 56 71 57 72 61 73 58 74 60 75 59 76 46 77
REMARK SMILES IDX 47 78 51 79 48 80 50 81 49 82
REMARK H PARENT 18 5 13 16 22 31 66 50 44 61
REMARK Flexibility Score: inf
ROOT
ATOM      1  C   UNL     1      -3.363   8.514  -1.644  1.00  0.00     0.118 C 
ENDROOT
BRANCH   1   2
ATOM      2  N   UNL     1      -2.021   8.958  -1.324  1.00  0.00    -0.351 N 
ATOM      3  C   UNL     1      -1.026   8.215  -0.687  1.00  0.00     0.273 C 
ATOM      4  O   UNL     1       0.108   8.694  -0.653  1.00  0.00    -0.267 OA
ATOM      5  H   UNL     1      -1.788   9.879  -1.583  1.00  0.00     0.163 HD
BRANCH   3   6
ATOM      6  C   UNL     1      -1.382   6.945  -0.008  1.00  0.00     0.165 A 
ATOM      7  C   UNL     1      -3.704   4.034   0.535  1.00  0.00     0.073 C 
ATOM      8  C   UNL     1      -4.548   4.121  -0.753  1.00  0.00     0.114 C 
ATOM      9  C   UNL     1      -2.679   5.118   0.599  1.00  0.00     0.058 A 
ATOM     10  C   UNL     1      -4.115   5.140  -1.789  1.00  0.00     0.225 C 
ATOM     11  C   UNL     1      -2.275   5.894  -0.455  1.00  0.00     0.089 A 
ATOM     12  S   UNL     1      -1.750   5.515   1.961  1.00  0.00    -0.038 S 
ATOM     13  O   UNL     1      -4.857   5.482  -2.710  1.00  0.00    -0.275 OA
ATOM     14  N   UNL     1      -2.871   5.705  -1.690  1.00  0.00    -0.323 N 
ATOM     15  N   UNL     1      -0.940   6.770   1.249  1.00  0.00    -0.185 NA
ATOM     16  H   UNL     1      -2.395   5.981  -2.506  1.00  0.00     0.170 HD
BRANCH   7  17
ATOM     17  C   UNL     1      -3.022   2.685   0.634  1.00  0.00    -0.039 A 
ATOM     18  C   UNL     1      -1.487   0.380   0.960  1.00  0.00     0.119 A 
ATOM     19  C   UNL     1      -2.491   0.683   1.880  1.00  0.00     0.047 A 
ATOM     20  C   UNL     1      -1.329   1.157  -0.180  1.00  0.00     0.047 A 
ATOM     21  C   UNL     1      -3.258   1.838   1.722  1.00  0.00     0.008 A 
ATOM     22  C   UNL     1      -2.077   2.313  -0.335  1.00  0.00     0.008 A 
BRANCH  18  23
ATOM     23  O   UNL     1      -0.725  -0.727   1.190  1.00  0.00    -0.491 OA
BRANCH  23  24
ATOM     24  C   UNL     1       0.690  -0.510   1.372  1.00  0.00     0.167 C 
ATOM     25  C   UNL     1       1.448  -0.261   0.068  1.00  0.00     0.052 C 
ATOM     26  C   UNL     1       1.032   0.528   2.443  1.00  0.00     0.052 C 
ENDBRANCH  23  24
ENDBRANCH  18  23
ENDBRANCH   7  17
ENDBRANCH   3   6
ENDBRANCH   1   2
BRANCH   1  27
ATOM     27  C   UNL     1      -4.532   9.469  -1.593  1.00  0.00     0.042 C 
BRANCH  27  28
ATOM     28  C   UNL     1      -4.601  10.376  -2.789  1.00  0.00     0.118 C 
BRANCH  28  29
ATOM     29  N   UNL     1      -4.858   9.725  -4.085  1.00  0.00    -0.352 N 
ATOM     30  C   UNL     1      -5.164  10.365  -5.293  1.00  0.00     0.251 C 
ATOM     31  H   UNL     1      -4.811   8.742  -4.103  1.00  0.00     0.163 HD
ATOM     32  O   UNL     1      -5.554   9.776  -6.272  1.00  0.00    -0.269 OA
BRANCH  30  33
ATOM     33  C   UNL     1      -4.957  11.828  -5.313  1.00  0.00     0.039 A 
ATOM     34  C   UNL     1      -5.969  12.742  -5.621  1.00  0.00     0.014 A 
ATOM     35  C   UNL     1      -3.774  12.232  -4.724  1.00  0.00     0.014 A 
ATOM     36  C   UNL     1      -5.809  14.066  -5.209  1.00  0.00     0.010 A 
ATOM     37  C   UNL     1      -3.804  13.399  -4.028  1.00  0.00     0.010 A 
ATOM     38  C   UNL     1      -4.728  14.375  -4.375  1.00  0.00    -0.014 A 
BRANCH  38  39
ATOM     39  C   UNL     1      -4.509  15.673  -3.752  1.00  0.00     0.031 A 
ATOM     40  C   UNL     1      -5.611  16.154  -2.873  1.00  0.00     0.074 A 
ATOM     41  C   UNL     1      -3.260  16.200  -3.720  1.00  0.00     0.049 A 
ATOM     42  N   UNL     1      -6.332  17.216  -3.014  1.00  0.00    -0.248 NA
ATOM     43  C   UNL     1      -6.045  15.290  -1.759  1.00  0.00     0.031 C 
ATOM     44  C   UNL     1      -2.006  15.621  -4.245  1.00  0.00     0.029 A 
ATOM     45  N   UNL     1      -2.803  17.292  -3.060  1.00  0.00    -0.354 N 
ATOM     46  C   UNL     1      -7.172  17.266  -1.904  1.00  0.00     0.074 A 
ATOM     47  C   UNL     1      -7.089  15.971  -1.279  1.00  0.00     0.031 C 
ATOM     48  C   UNL     1      -0.944  16.203  -3.650  1.00  0.00     0.029 A 
ATOM     49  C   UNL     1      -1.424  17.329  -2.878  1.00  0.00     0.049 A 
ATOM     50  H   UNL     1      -3.401  18.004  -2.734  1.00  0.00     0.167 HD
ATOM     51  C   UNL     1      -7.668  18.448  -1.439  1.00  0.00     0.031 A 
ATOM     52  C   UNL     1      -0.723  18.214  -2.129  1.00  0.00     0.031 A 
ATOM     53  C   UNL     1      -7.467  19.509  -2.392  1.00  0.00     0.049 A 
ATOM     54  C   UNL     1      -1.617  19.371  -1.889  1.00  0.00     0.074 A 
ATOM     55  C   UNL     1      -7.884  19.747  -3.685  1.00  0.00     0.029 A 
ATOM     56  N   UNL     1      -6.377  20.323  -2.187  1.00  0.00    -0.354 N 
ATOM     57  N   UNL     1      -2.043  20.153  -2.840  1.00  0.00    -0.248 NA
ATOM     58  C   UNL     1      -2.427  19.354  -0.682  1.00  0.00     0.031 C 
ATOM     59  C   UNL     1      -6.743  20.303  -4.336  1.00  0.00     0.029 A 
ATOM     60  C   UNL     1      -5.729  20.460  -3.387  1.00  0.00     0.049 A 
ATOM     61  H   UNL     1      -6.110  20.733  -1.333  1.00  0.00     0.167 HD
ATOM     62  C   UNL     1      -3.379  20.379  -2.539  1.00  0.00     0.074 A 
ATOM     63  C   UNL     1      -3.533  19.941  -1.151  1.00  0.00     0.031 C 
ATOM     64  C   UNL     1      -4.296  20.615  -3.525  1.00  0.00     0.031 A 
BRANCH  51  65
ATOM     65  C   UNL     1      -7.948  18.742   0.016  1.00  0.00    -0.014 A 
ATOM     66  C   UNL     1      -8.476  20.002   0.358  1.00  0.00     0.009 A 
ATOM     67  C   UNL     1      -7.464  17.956   1.077  1.00  0.00     0.009 A 
ATOM     68  C   UNL     1      -8.445  20.476   1.675  1.00  0.00     0.001 A 
ATOM     69  C   UNL     1      -7.468  18.409   2.400  1.00  0.00     0.001 A 
ATOM     70  C   UNL     1      -7.932  19.682   2.695  1.00  0.00     0.000 A 
ENDBRANCH  51  65
BRANCH  52  71
ATOM     71  C   UNL     1       0.539  18.010  -1.384  1.00  0.00    -0.014 A 
ATOM     72  C   UNL     1       1.344  19.096  -1.009  1.00  0.00     0.009 A 
ATOM     73  C   UNL     1       0.823  16.757  -0.807  1.00  0.00     0.009 A 
ATOM     74  C   UNL     1       2.371  18.942  -0.065  1.00  0.00     0.001 A 
ATOM     75  C   UNL     1       1.846  16.603   0.137  1.00  0.00     0.001 A 
ATOM     76  C   UNL     1       2.611  17.700   0.518  1.00  0.00     0.000 A 
ENDBRANCH  52  71
BRANCH  64  77
ATOM     77  C   UNL     1      -3.789  20.817  -4.936  1.00  0.00    -0.014 A 
ATOM     78  C   UNL     1      -3.148  19.809  -5.679  1.00  0.00     0.009 A 
ATOM     79  C   UNL     1      -4.148  21.999  -5.598  1.00  0.00     0.009 A 
ATOM     80  C   UNL     1      -2.867  19.987  -7.040  1.00  0.00     0.001 A 
ATOM     81  C   UNL     1      -3.885  22.170  -6.958  1.00  0.00     0.001 A 
ATOM     82  C   UNL     1      -3.243  21.166  -7.679  1.00  0.00     0.000 A 
ENDBRANCH  64  77
ENDBRANCH  38  39
ENDBRANCH  30  33
ENDBRANCH  28  29
ENDBRANCH  27  28
ENDBRANCH   1  27
TORSDOF 13
