REMARK SMILES Cc1occc1C(=O)N[C@@H]1CCCCC[C@@H]1C(=O)NCCCNC(=O)c1ccc(-c2c3nc(c(-c4ccccc4)c4ccc([nH]4)c(-c4ccccc4)c4nc(c(-c5ccccc5)c5ccc2[nH]5)C=C4)C=C3)cc1
REMARK SMILES IDX 20 1 19 2 17 3 18 4 16 6 10 7 9 8 7 9 8 10 6 12 1 13 2 14
REMARK SMILES IDX 3 15 4 16 5 17 11 18 15 20 14 21 13 22 12 23 21 25 22 26
REMARK SMILES IDX 23 27 24 28 25 30 26 31 27 32 73 33 28 34 72 35 29 36 30 37
REMARK SMILES IDX 31 38 66 39 32 40 71 41 65 42 67 43 33 44 70 45 64 46 63 47
REMARK SMILES IDX 34 49 56 50 41 51 55 52 42 53 45 54 54 55 68 56 43 57 44 58
REMARK SMILES IDX 53 60 69 61 46 62 35 63 36 64 40 65 37 66 39 67 38 68 57 69
REMARK SMILES IDX 58 70 62 71 59 72 61 73 60 74 47 75 48 76 52 77 49 78 51 79
REMARK SMILES IDX 50 80
REMARK H PARENT 19 5 9 11 23 29 67 48 45 59
REMARK Flexibility Score: 90.00
ROOT
ATOM      1  C   UNL     1      -0.582  -2.820  -1.417  1.00  0.00     0.117 C 
ENDROOT
BRANCH   1   2
ATOM      2  N   UNL     1      -0.011  -1.682  -2.121  1.00  0.00    -0.356 N 
ATOM      3  C   UNL     1       1.274  -1.286  -2.286  1.00  0.00     0.225 C 
ATOM      4  O   UNL     1       1.540  -0.923  -3.443  1.00  0.00    -0.275 OA
ATOM      5  H   UNL     1      -0.674  -1.098  -2.554  1.00  0.00     0.163 HD
BRANCH   3   6
ATOM      6  C   UNL     1       2.346  -1.065  -1.199  1.00  0.00     0.101 C 
BRANCH   6   7
ATOM      7  C   UNL     1       2.455  -1.929   0.072  1.00  0.00     0.094 C 
BRANCH   7   8
ATOM      8  N   UNL     1       1.285  -2.195   0.917  1.00  0.00    -0.348 N 
ATOM      9  C   UNL     1       0.554  -1.454   1.806  1.00  0.00     0.255 C 
ATOM     10  O   UNL     1      -0.051  -2.066   2.685  1.00  0.00    -0.269 OA
ATOM     11  H   UNL     1       0.949  -3.116   0.823  1.00  0.00     0.164 HD
BRANCH   9  12
ATOM     12  C   UNL     1       0.441  -0.023   1.680  1.00  0.00     0.080 A 
ATOM     13  C   UNL     1       1.518   0.760   3.946  1.00  0.00     0.088 C 
ATOM     14  C   UNL     1       0.837   0.889   2.641  1.00  0.00     0.113 A 
ATOM     15  O   UNL     1       0.510   2.156   2.260  1.00  0.00    -0.469 OA
ATOM     16  C   UNL     1      -0.150   2.060   1.079  1.00  0.00     0.196 A 
ATOM     17  C   UNL     1      -0.234   0.746   0.685  1.00  0.00     0.056 A 
ENDBRANCH   9  12
ENDBRANCH   7   8
BRANCH   7  18
ATOM     18  C   UNL     1       3.653  -1.665   1.020  1.00  0.00     0.026 CG0
ATOM     19  G   UNL     1       4.899  -0.980   0.471  1.00  0.00     0.000 G0
ENDBRANCH   7  18
ENDBRANCH   6   7
BRANCH   6  20
ATOM     20  C   UNL     1       2.560   0.454  -1.022  1.00  0.00     0.015 C 
BRANCH  20  21
ATOM     21  C   UNL     1       4.018   0.905  -0.985  1.00  0.00     0.001 C 
BRANCH  21  22
ATOM     22  C   UNL     1       4.727   0.525   0.307  1.00  0.00     0.000 C 
BRANCH  22  23
ATOM     23  C   UNL     1       4.899  -0.980   0.471  1.00  0.00     0.002 CG0
ATOM     24  G   UNL     1       3.653  -1.665   1.020  1.00  0.00     0.000 G0
ENDBRANCH  22  23
ENDBRANCH  21  22
ENDBRANCH  20  21
ENDBRANCH   6  20
ENDBRANCH   3   6
ENDBRANCH   1   2
BRANCH   1  25
ATOM     25  C   UNL     1      -1.752  -2.462  -0.495  1.00  0.00     0.042 C 
BRANCH  25  26
ATOM     26  C   UNL     1      -2.952  -1.794  -1.176  1.00  0.00     0.118 C 
BRANCH  26  27
ATOM     27  N   UNL     1      -4.071  -2.711  -1.290  1.00  0.00    -0.352 N 
ATOM     28  C   UNL     1      -5.355  -2.616  -0.815  1.00  0.00     0.251 C 
ATOM     29  H   UNL     1      -3.877  -3.536  -1.791  1.00  0.00     0.163 HD
ATOM     30  O   UNL     1      -6.052  -3.629  -0.807  1.00  0.00    -0.269 OA
BRANCH  28  31
ATOM     31  C   UNL     1      -5.945  -1.337  -0.337  1.00  0.00     0.039 A 
ATOM     32  C   UNL     1      -6.866  -1.395   0.719  1.00  0.00     0.014 A 
ATOM     33  C   UNL     1      -5.750  -0.124  -1.005  1.00  0.00     0.014 A 
ATOM     34  C   UNL     1      -7.598  -0.261   1.091  1.00  0.00     0.010 A 
ATOM     35  C   UNL     1      -6.463   1.020  -0.613  1.00  0.00     0.010 A 
ATOM     36  C   UNL     1      -7.418   0.954   0.416  1.00  0.00    -0.014 A 
BRANCH  36  37
ATOM     37  C   UNL     1      -8.283   2.124   0.731  1.00  0.00     0.031 A 
ATOM     38  C   UNL     1      -9.382   2.534  -0.215  1.00  0.00     0.074 A 
ATOM     39  C   UNL     1      -8.101   2.825   1.867  1.00  0.00     0.049 A 
ATOM     40  N   UNL     1     -10.242   3.519  -0.110  1.00  0.00    -0.248 NA
ATOM     41  C   UNL     1      -9.527   1.740  -1.444  1.00  0.00     0.031 C 
ATOM     42  C   UNL     1      -7.077   2.554   2.875  1.00  0.00     0.029 A 
ATOM     43  N   UNL     1      -8.780   3.912   2.360  1.00  0.00    -0.354 N 
ATOM     44  C   UNL     1     -11.014   3.474  -1.263  1.00  0.00     0.074 A 
ATOM     45  C   UNL     1     -10.508   2.380  -2.065  1.00  0.00     0.031 C 
ATOM     46  C   UNL     1      -7.203   3.445   3.873  1.00  0.00     0.029 A 
ATOM     47  C   UNL     1      -8.304   4.356   3.569  1.00  0.00     0.049 A 
ATOM     48  H   UNL     1      -9.537   4.333   1.891  1.00  0.00     0.167 HD
ATOM     49  C   UNL     1     -12.056   4.263  -1.625  1.00  0.00     0.031 A 
ATOM     50  C   UNL     1      -8.707   5.378   4.348  1.00  0.00     0.031 A 
ATOM     51  C   UNL     1     -12.587   5.342  -0.836  1.00  0.00     0.049 A 
ATOM     52  C   UNL     1      -9.873   6.230   3.934  1.00  0.00     0.074 A 
ATOM     53  C   UNL     1     -13.669   6.163  -1.112  1.00  0.00     0.029 A 
ATOM     54  N   UNL     1     -12.080   5.749   0.386  1.00  0.00    -0.354 N 
ATOM     55  N   UNL     1     -10.616   6.146   2.858  1.00  0.00    -0.248 NA
ATOM     56  C   UNL     1     -10.262   7.311   4.853  1.00  0.00     0.031 C 
ATOM     57  C   UNL     1     -13.798   7.086  -0.068  1.00  0.00     0.029 A 
ATOM     58  C   UNL     1     -12.816   6.818   0.871  1.00  0.00     0.049 A 
ATOM     59  H   UNL     1     -11.310   5.340   0.843  1.00  0.00     0.167 HD
ATOM     60  C   UNL     1     -11.568   7.150   2.978  1.00  0.00     0.074 A 
ATOM     61  C   UNL     1     -11.319   7.822   4.236  1.00  0.00     0.031 C 
ATOM     62  C   UNL     1     -12.561   7.483   2.119  1.00  0.00     0.031 A 
BRANCH  49  63
ATOM     63  C   UNL     1     -12.689   3.991  -2.960  1.00  0.00    -0.014 A 
ATOM     64  C   UNL     1     -13.548   2.897  -3.145  1.00  0.00     0.009 A 
ATOM     65  C   UNL     1     -12.447   4.860  -4.035  1.00  0.00     0.009 A 
ATOM     66  C   UNL     1     -14.129   2.661  -4.392  1.00  0.00     0.001 A 
ATOM     67  C   UNL     1     -13.045   4.632  -5.276  1.00  0.00     0.001 A 
ATOM     68  C   UNL     1     -13.879   3.529  -5.455  1.00  0.00     0.000 A 
ENDBRANCH  49  63
BRANCH  50  69
ATOM     69  C   UNL     1      -8.005   5.648   5.627  1.00  0.00    -0.014 A 
ATOM     70  C   UNL     1      -8.590   5.277   6.847  1.00  0.00     0.009 A 
ATOM     71  C   UNL     1      -6.755   6.283   5.631  1.00  0.00     0.009 A 
ATOM     72  C   UNL     1      -7.940   5.554   8.052  1.00  0.00     0.001 A 
ATOM     73  C   UNL     1      -6.100   6.542   6.837  1.00  0.00     0.001 A 
ATOM     74  C   UNL     1      -6.696   6.183   8.045  1.00  0.00     0.000 A 
ENDBRANCH  50  69
BRANCH  62  75
ATOM     75  C   UNL     1     -13.464   8.612   2.521  1.00  0.00    -0.014 A 
ATOM     76  C   UNL     1     -13.046   9.947   2.406  1.00  0.00     0.009 A 
ATOM     77  C   UNL     1     -14.756   8.339   2.997  1.00  0.00     0.009 A 
ATOM     78  C   UNL     1     -13.896  10.987   2.788  1.00  0.00     0.001 A 
ATOM     79  C   UNL     1     -15.609   9.383   3.362  1.00  0.00     0.001 A 
ATOM     80  C   UNL     1     -15.176  10.704   3.263  1.00  0.00     0.000 A 
ENDBRANCH  62  75
ENDBRANCH  36  37
ENDBRANCH  28  31
ENDBRANCH  26  27
ENDBRANCH  25  26
ENDBRANCH   1  25
TORSDOF 12
