REMARK SMILES C[C@@]1(C(=O)NCCCNC(=O)c2ccc(-c3c4nc(c(-c5ccccc5)c5ccc([nH]5)c(-c5ccccc5)c5nc(c(-c6ccccc6)c6ccc3[nH]6)C=C5)C=C4)cc2)CCCCCC[C@@H]1O
REMARK SMILES IDX 6 1 5 2 3 3 4 4 2 6 1 7 60 8 61 9 62 10 66 12 65 13 64 14
REMARK SMILES IDX 63 15 67 17 7 19 8 20 9 21 10 22 11 24 12 25 13 26 59 27
REMARK SMILES IDX 14 28 58 29 15 30 16 31 17 32 52 33 18 34 57 35 51 36 53 37
REMARK SMILES IDX 19 38 56 39 50 40 49 41 20 43 42 44 27 45 41 46 28 47 31 48
REMARK SMILES IDX 40 49 54 50 29 51 30 52 39 54 55 55 32 56 21 57 22 58 26 59
REMARK SMILES IDX 23 60 25 61 24 62 43 63 44 64 48 65 45 66 47 67 46 68 33 69
REMARK SMILES IDX 34 70 38 71 35 72 37 73 36 74
REMARK H PARENT 5 5 67 18 9 23 53 42 31 53
REMARK Flexibility Score: 90.00
ROOT
ATOM      1  C   UNL     1      -1.945  -3.589   0.532  1.00  0.00     0.117 C 
ENDROOT
BRANCH   1   2
ATOM      2  N   UNL     1      -0.491  -3.410   0.571  1.00  0.00    -0.355 N 
ATOM      3  C   UNL     1       0.464  -2.256   0.483  1.00  0.00     0.228 C 
ATOM      4  O   UNL     1       1.687  -2.147   0.618  1.00  0.00    -0.274 OA
ATOM      5  H   UNL     1      -0.020  -4.267   0.684  1.00  0.00     0.163 HD
BRANCH   3   6
ATOM      6  C   UNL     1      -0.197  -1.056   0.163  1.00  0.00     0.072 C 
ATOM      7  C   UNL     1       0.642   0.252   0.033  1.00  0.00     0.024 C 
BRANCH   6   8
ATOM      8  C   UNL     1      -0.523  -1.231   1.796  1.00  0.00     0.019 C 
BRANCH   8   9
ATOM      9  C   UNL     1       0.136  -2.472   2.815  1.00  0.00     0.001 C 
BRANCH   9  10
ATOM     10  C   UNL     1       1.390  -3.569   2.496  1.00  0.00     0.000 CG0
ATOM     11  G   UNL     1       1.784  -4.537   1.132  1.00  0.00     0.000 G0
ENDBRANCH   9  10
ENDBRANCH   8   9
ENDBRANCH   6   8
BRANCH   6  12
ATOM     12  C   UNL     1      -0.107  -1.860  -1.317  1.00  0.00     0.129 C 
BRANCH  12  13
ATOM     13  C   UNL     1       0.763  -3.350  -1.591  1.00  0.00     0.033 C 
BRANCH  13  14
ATOM     14  C   UNL     1       1.826  -4.183  -0.551  1.00  0.00     0.003 C 
BRANCH  14  15
ATOM     15  C   UNL     1       1.784  -4.537   1.132  1.00  0.00     0.000 CG0
ATOM     16  G   UNL     1       1.390  -3.569   2.496  1.00  0.00     0.000 G0
ENDBRANCH  14  15
ENDBRANCH  13  14
ENDBRANCH  12  13
BRANCH  12  17
ATOM     17  O   UNL     1       0.375  -0.966  -2.346  1.00  0.00    -0.392 OA
ATOM     18  H   UNL     1       1.313  -0.775  -2.195  1.00  0.00     0.210 HD
ENDBRANCH  12  17
ENDBRANCH   6  12
ENDBRANCH   3   6
ENDBRANCH   1   2
BRANCH   1  19
ATOM     19  C   UNL     1      -2.366  -4.845  -0.262  1.00  0.00     0.042 C 
BRANCH  19  20
ATOM     20  C   UNL     1      -1.522  -6.137  -0.198  1.00  0.00     0.118 C 
BRANCH  20  21
ATOM     21  N   UNL     1      -1.508  -6.865   1.062  1.00  0.00    -0.352 N 
ATOM     22  C   UNL     1      -1.433  -8.238   1.233  1.00  0.00     0.251 C 
ATOM     23  H   UNL     1      -1.557  -6.323   1.883  1.00  0.00     0.163 HD
ATOM     24  O   UNL     1      -1.387  -8.734   2.356  1.00  0.00    -0.269 OA
BRANCH  22  25
ATOM     25  C   UNL     1      -1.459  -9.125   0.047  1.00  0.00     0.039 A 
ATOM     26  C   UNL     1      -2.577  -9.937  -0.166  1.00  0.00     0.014 A 
ATOM     27  C   UNL     1      -0.413  -9.110  -0.880  1.00  0.00     0.014 A 
ATOM     28  C   UNL     1      -2.699 -10.652  -1.363  1.00  0.00     0.010 A 
ATOM     29  C   UNL     1      -0.554  -9.799  -2.089  1.00  0.00     0.010 A 
ATOM     30  C   UNL     1      -1.715 -10.545  -2.360  1.00  0.00    -0.014 A 
BRANCH  30  31
ATOM     31  C   UNL     1      -1.923 -11.135  -3.713  1.00  0.00     0.031 A 
ATOM     32  C   UNL     1      -1.058 -12.261  -4.206  1.00  0.00     0.074 A 
ATOM     33  C   UNL     1      -2.851 -10.600  -4.533  1.00  0.00     0.049 A 
ATOM     34  N   UNL     1      -1.046 -12.839  -5.382  1.00  0.00    -0.248 NA
ATOM     35  C   UNL     1      -0.070 -12.797  -3.260  1.00  0.00     0.031 C 
ATOM     36  C   UNL     1      -3.745  -9.491  -4.190  1.00  0.00     0.029 A 
ATOM     37  N   UNL     1      -3.192 -10.907  -5.829  1.00  0.00    -0.354 N 
ATOM     38  C   UNL     1      -0.041 -13.798  -5.322  1.00  0.00     0.074 A 
ATOM     39  C   UNL     1       0.557 -13.695  -4.007  1.00  0.00     0.031 C 
ATOM     40  C   UNL     1      -4.540  -9.224  -5.239  1.00  0.00     0.029 A 
ATOM     41  C   UNL     1      -4.185 -10.107  -6.345  1.00  0.00     0.049 A 
ATOM     42  H   UNL     1      -2.764 -11.631  -6.341  1.00  0.00     0.167 HD
ATOM     43  C   UNL     1       0.341 -14.689  -6.269  1.00  0.00     0.031 A 
ATOM     44  C   UNL     1      -4.740 -10.075  -7.573  1.00  0.00     0.031 A 
ATOM     45  C   UNL     1      -0.247 -14.786  -7.580  1.00  0.00     0.049 A 
ATOM     46  C   UNL     1      -4.267 -11.044  -8.621  1.00  0.00     0.074 A 
ATOM     47  C   UNL     1       0.049 -15.681  -8.594  1.00  0.00     0.029 A 
ATOM     48  N   UNL     1      -1.246 -13.954  -8.062  1.00  0.00    -0.354 N 
ATOM     49  N   UNL     1      -3.355 -11.981  -8.527  1.00  0.00    -0.248 NA
ATOM     50  C   UNL     1      -4.905 -10.957  -9.944  1.00  0.00     0.031 C 
ATOM     51  C   UNL     1      -0.731 -15.355  -9.708  1.00  0.00     0.029 A 
ATOM     52  C   UNL     1      -1.560 -14.299  -9.366  1.00  0.00     0.049 A 
ATOM     53  H   UNL     1      -1.670 -13.226  -7.552  1.00  0.00     0.167 HD
ATOM     54  C   UNL     1      -3.334 -12.616  -9.763  1.00  0.00     0.074 A 
ATOM     55  C   UNL     1      -4.331 -11.964 -10.587  1.00  0.00     0.031 C 
ATOM     56  C   UNL     1      -2.560 -13.649 -10.174  1.00  0.00     0.031 A 
BRANCH  43  57
ATOM     57  C   UNL     1       1.470 -15.624  -5.925  1.00  0.00    -0.014 A 
ATOM     58  C   UNL     1       1.307 -16.646  -4.976  1.00  0.00     0.009 A 
ATOM     59  C   UNL     1       2.704 -15.503  -6.583  1.00  0.00     0.009 A 
ATOM     60  C   UNL     1       2.369 -17.497  -4.662  1.00  0.00     0.001 A 
ATOM     61  C   UNL     1       3.755 -16.375  -6.290  1.00  0.00     0.001 A 
ATOM     62  C   UNL     1       3.590 -17.363  -5.321  1.00  0.00     0.000 A 
ENDBRANCH  43  57
BRANCH  44  63
ATOM     63  C   UNL     1      -5.813  -9.091  -7.884  1.00  0.00    -0.014 A 
ATOM     64  C   UNL     1      -7.131  -9.519  -8.108  1.00  0.00     0.009 A 
ATOM     65  C   UNL     1      -5.524  -7.720  -7.974  1.00  0.00     0.009 A 
ATOM     66  C   UNL     1      -8.130  -8.599  -8.440  1.00  0.00     0.001 A 
ATOM     67  C   UNL     1      -6.531  -6.799  -8.275  1.00  0.00     0.001 A 
ATOM     68  C   UNL     1      -7.830  -7.240  -8.518  1.00  0.00     0.000 A 
ENDBRANCH  44  63
BRANCH  56  69
ATOM     69  C   UNL     1      -2.790 -14.180 -11.562  1.00  0.00    -0.014 A 
ATOM     70  C   UNL     1      -2.384 -13.464 -12.698  1.00  0.00     0.009 A 
ATOM     71  C   UNL     1      -3.366 -15.450 -11.728  1.00  0.00     0.009 A 
ATOM     72  C   UNL     1      -2.573 -14.000 -13.974  1.00  0.00     0.001 A 
ATOM     73  C   UNL     1      -3.527 -15.995 -13.003  1.00  0.00     0.001 A 
ATOM     74  C   UNL     1      -3.136 -15.267 -14.125  1.00  0.00     0.000 A 
ENDBRANCH  56  69
ENDBRANCH  30  31
ENDBRANCH  22  25
ENDBRANCH  20  21
ENDBRANCH  19  20
ENDBRANCH   1  19
TORSDOF 11
