REMARK SMILES O=C(CCC(=O)Nc1sc2c(c1C(=O)NCc1ccccc1)CCCC2)NCCCNC(=O)c1ccc(-c2c3nc(c(-c4ccccc4)c4ccc([nH]4)c(-c4ccccc4)c4nc(c(-c5ccccc5)c5ccc2[nH]5)C=C4)C=C3)cc1
REMARK SMILES IDX 1 1 2 2 27 3 3 5 4 6 5 7 6 8 7 9 8 11 9 12 12 13 10 14 11 15
REMARK SMILES IDX 26 16 23 17 25 18 24 19 13 20 14 21 15 22 16 24 17 25 18 26
REMARK SMILES IDX 22 27 19 28 21 29 20 30 28 31 29 32 30 33 31 34 32 35 33 37
REMARK SMILES IDX 34 38 35 39 81 40 36 41 80 42 37 43 38 44 39 45 74 46 40 47
REMARK SMILES IDX 79 48 73 49 75 50 41 51 78 52 72 53 71 54 42 56 64 57 49 58
REMARK SMILES IDX 63 59 50 60 53 61 62 62 76 63 51 64 52 65 61 67 77 68 54 69
REMARK SMILES IDX 43 70 44 71 48 72 45 73 47 74 46 75 65 76 66 77 70 78 67 79
REMARK SMILES IDX 69 80 68 81 55 82 56 83 60 84 57 85 59 86 58 87
REMARK H PARENT 27 4 7 10 15 23 31 36 75 55 53 66
REMARK Flexibility Score: inf
ROOT
ATOM      1  O   UNL     1       1.403  -0.446   1.273  1.00  0.00    -0.275 OA
ATOM      2  C   UNL     1       2.561  -0.255   0.918  1.00  0.00     0.220 C 
ATOM      3  N   UNL     1       3.085   0.990   0.660  1.00  0.00    -0.356 N 
ATOM      4  H   UNL     1       4.061   1.085   0.571  1.00  0.00     0.163 HD
ENDROOT
BRANCH   2   5
ATOM      5  C   UNL     1       3.543  -1.395   0.733  1.00  0.00     0.110 C 
BRANCH   5   6
ATOM      6  C   UNL     1       3.900  -1.734  -0.715  1.00  0.00     0.110 C 
BRANCH   6   7
ATOM      7  C   UNL     1       4.471  -0.581  -1.513  1.00  0.00     0.225 C 
ATOM      8  O   UNL     1       5.665  -0.294  -1.331  1.00  0.00    -0.275 OA
ATOM      9  N   UNL     1       3.770   0.243  -2.343  1.00  0.00    -0.317 N 
ATOM     10  H   UNL     1       4.343   0.801  -2.917  1.00  0.00     0.170 HD
BRANCH   9  11
ATOM     11  C   UNL     1       2.412   0.454  -2.544  1.00  0.00     0.108 A 
ATOM     12  S   UNL     1       1.275  -0.743  -2.178  1.00  0.00    -0.122 S 
ATOM     13  C   UNL     1       1.812   1.648  -2.997  1.00  0.00     0.078 A 
ATOM     14  C   UNL     1       0.074   0.418  -1.989  1.00  0.00     0.011 A 
ATOM     15  C   UNL     1       0.396   1.598  -2.636  1.00  0.00    -0.019 A 
ATOM     16  C   UNL     1      -1.121   0.186  -1.115  1.00  0.00     0.047 C 
ATOM     17  C   UNL     1      -0.627   2.677  -2.686  1.00  0.00     0.037 C 
ATOM     18  C   UNL     1      -2.236   1.183  -1.434  1.00  0.00     0.006 C 
ATOM     19  C   UNL     1      -1.682   2.601  -1.582  1.00  0.00     0.005 C 
BRANCH  13  20
ATOM     20  C   UNL     1       2.678   2.778  -3.418  1.00  0.00     0.254 C 
ATOM     21  O   UNL     1       3.888   2.730  -3.157  1.00  0.00    -0.269 OA
ATOM     22  N   UNL     1       2.298   3.935  -4.035  1.00  0.00    -0.348 N 
ATOM     23  H   UNL     1       2.998   4.624  -3.964  1.00  0.00     0.164 HD
BRANCH  22  24
ATOM     24  C   UNL     1       1.148   4.426  -4.764  1.00  0.00     0.152 C 
BRANCH  24  25
ATOM     25  C   UNL     1       0.842   5.866  -4.389  1.00  0.00    -0.029 A 
ATOM     26  C   UNL     1       1.277   6.917  -5.211  1.00  0.00     0.005 A 
ATOM     27  C   UNL     1       0.173   6.211  -3.203  1.00  0.00     0.005 A 
ATOM     28  C   UNL     1       1.039   8.252  -4.861  1.00  0.00     0.000 A 
ATOM     29  C   UNL     1      -0.070   7.541  -2.853  1.00  0.00     0.000 A 
ATOM     30  C   UNL     1       0.365   8.564  -3.683  1.00  0.00     0.000 A 
ENDBRANCH  24  25
ENDBRANCH  22  24
ENDBRANCH  13  20
ENDBRANCH   9  11
ENDBRANCH   6   7
ENDBRANCH   5   6
ENDBRANCH   2   5
BRANCH   3  31
ATOM     31  C   UNL     1       2.253   2.167   0.515  1.00  0.00     0.117 C 
BRANCH  31  32
ATOM     32  C   UNL     1       2.655   3.311   1.420  1.00  0.00     0.042 C 
BRANCH  32  33
ATOM     33  C   UNL     1       4.100   3.755   1.255  1.00  0.00     0.118 C 
BRANCH  33  34
ATOM     34  N   UNL     1       4.421   4.339  -0.042  1.00  0.00    -0.352 N 
ATOM     35  C   UNL     1       5.101   5.508  -0.327  1.00  0.00     0.251 C 
ATOM     36  H   UNL     1       4.111   3.829  -0.824  1.00  0.00     0.163 HD
ATOM     37  O   UNL     1       5.207   5.897  -1.478  1.00  0.00    -0.269 OA
BRANCH  35  38
ATOM     38  C   UNL     1       5.664   6.321   0.782  1.00  0.00     0.039 A 
ATOM     39  C   UNL     1       5.531   7.710   0.734  1.00  0.00     0.014 A 
ATOM     40  C   UNL     1       6.289   5.723   1.877  1.00  0.00     0.014 A 
ATOM     41  C   UNL     1       5.952   8.485   1.820  1.00  0.00     0.010 A 
ATOM     42  C   UNL     1       6.588   6.479   3.005  1.00  0.00     0.010 A 
ATOM     43  C   UNL     1       6.442   7.873   2.985  1.00  0.00    -0.014 A 
BRANCH  43  44
ATOM     44  C   UNL     1       6.836   8.675   4.174  1.00  0.00     0.031 A 
ATOM     45  C   UNL     1       8.251   8.618   4.693  1.00  0.00     0.074 A 
ATOM     46  C   UNL     1       5.916   9.419   4.821  1.00  0.00     0.049 A 
ATOM     47  N   UNL     1       8.781   9.238   5.718  1.00  0.00    -0.248 NA
ATOM     48  C   UNL     1       9.185   7.722   3.990  1.00  0.00     0.031 C 
ATOM     49  C   UNL     1       4.497   9.515   4.468  1.00  0.00     0.029 A 
ATOM     50  N   UNL     1       6.041  10.245   5.911  1.00  0.00    -0.354 N 
ATOM     51  C   UNL     1      10.095   8.790   5.791  1.00  0.00     0.074 A 
ATOM     52  C   UNL     1      10.262   7.796   4.755  1.00  0.00     0.031 C 
ATOM     53  C   UNL     1       3.897  10.388   5.293  1.00  0.00     0.029 A 
ATOM     54  C   UNL     1       4.875  10.886   6.254  1.00  0.00     0.049 A 
ATOM     55  H   UNL     1       6.886  10.365   6.401  1.00  0.00     0.167 HD
ATOM     56  C   UNL     1      11.088   9.190   6.620  1.00  0.00     0.031 A 
ATOM     57  C   UNL     1       4.624  11.784   7.225  1.00  0.00     0.031 A 
ATOM     58  C   UNL     1      10.934  10.194   7.638  1.00  0.00     0.049 A 
ATOM     59  C   UNL     1       5.748  12.230   8.120  1.00  0.00     0.074 A 
ATOM     60  C   UNL     1      11.892  10.711   8.492  1.00  0.00     0.029 A 
ATOM     61  N   UNL     1       9.742  10.835   7.935  1.00  0.00    -0.354 N 
ATOM     62  N   UNL     1       7.004  11.854   8.123  1.00  0.00    -0.248 NA
ATOM     63  C   UNL     1       5.420  13.245   9.131  1.00  0.00     0.031 C 
ATOM     64  C   UNL     1      11.268  11.635   9.338  1.00  0.00     0.029 A 
ATOM     65  C   UNL     1       9.937  11.736   8.968  1.00  0.00     0.049 A 
ATOM     66  H   UNL     1       8.885  10.675   7.479  1.00  0.00     0.167 HD
ATOM     67  C   UNL     1       7.623  12.613   9.109  1.00  0.00     0.074 A 
ATOM     68  C   UNL     1       6.608  13.481   9.668  1.00  0.00     0.031 C 
ATOM     69  C   UNL     1       8.917  12.595   9.513  1.00  0.00     0.031 A 
BRANCH  56  70
ATOM     70  C   UNL     1      12.433   8.536   6.450  1.00  0.00    -0.014 A 
ATOM     71  C   UNL     1      13.214   8.763   5.304  1.00  0.00     0.009 A 
ATOM     72  C   UNL     1      12.934   7.694   7.455  1.00  0.00     0.009 A 
ATOM     73  C   UNL     1      14.446   8.125   5.148  1.00  0.00     0.001 A 
ATOM     74  C   UNL     1      14.182   7.084   7.311  1.00  0.00     0.001 A 
ATOM     75  C   UNL     1      14.931   7.290   6.153  1.00  0.00     0.000 A 
ENDBRANCH  56  70
BRANCH  57  76
ATOM     76  C   UNL     1       3.262  12.361   7.379  1.00  0.00    -0.014 A 
ATOM     77  C   UNL     1       3.018  13.706   7.057  1.00  0.00     0.009 A 
ATOM     78  C   UNL     1       2.203  11.579   7.864  1.00  0.00     0.009 A 
ATOM     79  C   UNL     1       1.751  14.263   7.250  1.00  0.00     0.001 A 
ATOM     80  C   UNL     1       0.930  12.130   8.027  1.00  0.00     0.001 A 
ATOM     81  C   UNL     1       0.708  13.474   7.731  1.00  0.00     0.000 A 
ENDBRANCH  57  76
BRANCH  69  82
ATOM     82  C   UNL     1       9.317  13.581  10.575  1.00  0.00    -0.014 A 
ATOM     83  C   UNL     1       8.877  13.453  11.902  1.00  0.00     0.009 A 
ATOM     84  C   UNL     1      10.164  14.649  10.240  1.00  0.00     0.009 A 
ATOM     85  C   UNL     1       9.236  14.403  12.859  1.00  0.00     0.001 A 
ATOM     86  C   UNL     1      10.549  15.579  11.207  1.00  0.00     0.001 A 
ATOM     87  C   UNL     1      10.074  15.463  12.512  1.00  0.00     0.000 A 
ENDBRANCH  69  82
ENDBRANCH  43  44
ENDBRANCH  35  38
ENDBRANCH  33  34
ENDBRANCH  32  33
ENDBRANCH  31  32
ENDBRANCH   3  31
TORSDOF 16
