REMARK SMILES O=C(NCCCNC(=O)c1ccc(-c2c3nc(c(-c4ccccc4)c4ccc([nH]4)c(-c4ccccc4)c4nc(c(-c5ccccc5)c5ccc2[nH]5)C=C4)C=C3)cc1)c1ccc(Nc2ccc(F)cc2[N+](=O)[O-])cc1
REMARK SMILES IDX 4 1 3 2 1 3 2 4 58 6 59 7 74 8 60 9 73 10 61 11 62 12 63 14
REMARK SMILES IDX 64 15 69 16 65 17 68 18 66 19 67 20 70 21 71 22 72 23 5 24
REMARK SMILES IDX 6 25 7 26 8 27 9 29 10 30 11 31 57 32 12 33 56 34 13 35
REMARK SMILES IDX 14 36 15 37 50 38 16 39 55 40 49 41 51 42 17 43 54 44 48 45
REMARK SMILES IDX 47 46 18 48 40 49 25 50 39 51 26 52 29 53 38 54 52 55 27 56
REMARK SMILES IDX 28 57 37 59 53 60 30 61 19 62 20 63 24 64 21 65 23 66 22 67
REMARK SMILES IDX 41 68 42 69 46 70 43 71 45 72 44 73 31 74 32 75 36 76 33 77
REMARK SMILES IDX 35 78 34 79
REMARK H PARENT 3 5 62 13 7 28 51 47 29 58
REMARK Flexibility Score: inf
ROOT
ATOM      1  C   UNL     1       4.358   1.318   0.267  1.00  0.00     0.118 C 
ENDROOT
BRANCH   1   2
ATOM      2  N   UNL     1       2.921   1.072   0.273  1.00  0.00    -0.352 N 
ATOM      3  O   UNL     1       1.006  -0.036  -0.165  1.00  0.00    -0.269 OA
ATOM      4  C   UNL     1       2.223  -0.077  -0.015  1.00  0.00     0.251 C 
ATOM      5  H   UNL     1       2.366   1.846   0.520  1.00  0.00     0.163 HD
BRANCH   4   6
ATOM      6  C   UNL     1       2.945  -1.356  -0.167  1.00  0.00     0.039 A 
ATOM      7  C   UNL     1       3.940  -1.715   0.739  1.00  0.00     0.016 A 
ATOM      8  C   UNL     1       2.633  -2.207  -1.228  1.00  0.00     0.016 A 
ATOM      9  C   UNL     1       4.728  -2.834   0.495  1.00  0.00     0.027 A 
ATOM     10  C   UNL     1       3.382  -3.374  -1.422  1.00  0.00     0.027 A 
ATOM     11  C   UNL     1       4.465  -3.684  -0.585  1.00  0.00     0.039 A 
BRANCH  11  12
ATOM     12  N   UNL     1       5.218  -4.850  -0.825  1.00  0.00    -0.350 N 
ATOM     13  H   UNL     1       4.986  -5.338  -1.648  1.00  0.00     0.167 HD
BRANCH  12  14
ATOM     14  C   UNL     1       6.254  -5.420  -0.059  1.00  0.00     0.118 A 
ATOM     15  C   UNL     1       7.486  -5.632  -0.703  1.00  0.00     0.036 A 
ATOM     16  C   UNL     1       6.207  -5.655   1.329  1.00  0.00     0.295 A 
ATOM     17  C   UNL     1       8.621  -6.020   0.016  1.00  0.00     0.042 A 
ATOM     18  C   UNL     1       7.341  -6.027   2.064  1.00  0.00     0.127 A 
ATOM     19  C   UNL     1       8.540  -6.197   1.392  1.00  0.00     0.130 A 
ATOM     20  F   UNL     1       9.636  -6.541   2.078  1.00  0.00    -0.207 F 
BRANCH  16  21
ATOM     21  N   UNL     1       4.952  -5.584   2.060  1.00  0.00     0.065 N 
ATOM     22  O   UNL     1       4.942  -4.882   3.083  1.00  0.00    -0.258 OA
ATOM     23  O   UNL     1       4.008  -6.272   1.651  1.00  0.00    -0.258 OA
ENDBRANCH  16  21
ENDBRANCH  12  14
ENDBRANCH  11  12
ENDBRANCH   4   6
ENDBRANCH   1   2
BRANCH   1  24
ATOM     24  C   UNL     1       4.785   2.233  -0.868  1.00  0.00     0.042 C 
BRANCH  24  25
ATOM     25  C   UNL     1       4.239   3.646  -0.745  1.00  0.00     0.118 C 
BRANCH  25  26
ATOM     26  N   UNL     1       4.770   4.355   0.413  1.00  0.00    -0.352 N 
ATOM     27  C   UNL     1       5.604   5.445   0.477  1.00  0.00     0.251 C 
ATOM     28  H   UNL     1       4.486   3.998   1.286  1.00  0.00     0.163 HD
ATOM     29  O   UNL     1       6.089   5.790   1.551  1.00  0.00    -0.269 OA
BRANCH  27  30
ATOM     30  C   UNL     1       5.942   6.185  -0.756  1.00  0.00     0.039 A 
ATOM     31  C   UNL     1       7.270   6.554  -0.989  1.00  0.00     0.014 A 
ATOM     32  C   UNL     1       4.953   6.496  -1.690  1.00  0.00     0.014 A 
ATOM     33  C   UNL     1       7.619   7.148  -2.204  1.00  0.00     0.010 A 
ATOM     34  C   UNL     1       5.314   6.998  -2.933  1.00  0.00     0.010 A 
ATOM     35  C   UNL     1       6.652   7.325  -3.205  1.00  0.00    -0.014 A 
BRANCH  35  36
ATOM     36  C   UNL     1       6.992   7.846  -4.552  1.00  0.00     0.031 A 
ATOM     37  C   UNL     1       6.354   9.118  -5.040  1.00  0.00     0.074 A 
ATOM     38  C   UNL     1       7.775   7.123  -5.375  1.00  0.00     0.049 A 
ATOM     39  N   UNL     1       6.368   9.642  -6.238  1.00  0.00    -0.248 NA
ATOM     40  C   UNL     1       5.568   9.880  -4.056  1.00  0.00     0.031 C 
ATOM     41  C   UNL     1       8.431   5.859  -5.037  1.00  0.00     0.029 A 
ATOM     42  N   UNL     1       8.133   7.342  -6.683  1.00  0.00    -0.354 N 
ATOM     43  C   UNL     1       5.563  10.772  -6.161  1.00  0.00     0.074 A 
ATOM     44  C   UNL     1       5.048  10.836  -4.811  1.00  0.00     0.031 C 
ATOM     45  C   UNL     1       9.125   5.424  -6.101  1.00  0.00     0.029 A 
ATOM     46  C   UNL     1       8.921   6.349  -7.211  1.00  0.00     0.049 A 
ATOM     47  H   UNL     1       7.851   8.136  -7.193  1.00  0.00     0.167 HD
ATOM     48  C   UNL     1       5.288  11.683  -7.124  1.00  0.00     0.031 A 
ATOM     49  C   UNL     1       9.408   6.189  -8.456  1.00  0.00     0.031 A 
ATOM     50  C   UNL     1       5.823  11.635  -8.457  1.00  0.00     0.049 A 
ATOM     51  C   UNL     1       9.083   7.210  -9.510  1.00  0.00     0.074 A 
ATOM     52  C   UNL     1       5.652  12.543  -9.487  1.00  0.00     0.029 A 
ATOM     53  N   UNL     1       6.639  10.625  -8.941  1.00  0.00    -0.354 N 
ATOM     54  N   UNL     1       8.355   8.295  -9.411  1.00  0.00    -0.248 NA
ATOM     55  C   UNL     1       9.651   6.984 -10.847  1.00  0.00     0.031 C 
ATOM     56  C   UNL     1       6.336  12.062 -10.608  1.00  0.00     0.029 A 
ATOM     57  C   UNL     1       6.969  10.880 -10.261  1.00  0.00     0.049 A 
ATOM     58  H   UNL     1       6.940   9.844  -8.424  1.00  0.00     0.167 HD
ATOM     59  C   UNL     1       8.400   8.896 -10.661  1.00  0.00     0.074 A 
ATOM     60  C   UNL     1       9.233   8.059 -11.501  1.00  0.00     0.031 C 
ATOM     61  C   UNL     1       7.807  10.041 -11.076  1.00  0.00     0.031 A 
BRANCH  48  62
ATOM     62  C   UNL     1       4.359  12.807  -6.764  1.00  0.00    -0.014 A 
ATOM     63  C   UNL     1       4.761  13.832  -5.894  1.00  0.00     0.009 A 
ATOM     64  C   UNL     1       3.072  12.853  -7.322  1.00  0.00     0.009 A 
ATOM     65  C   UNL     1       3.879  14.861  -5.558  1.00  0.00     0.001 A 
ATOM     66  C   UNL     1       2.202  13.898  -7.007  1.00  0.00     0.001 A 
ATOM     67  C   UNL     1       2.602  14.895  -6.118  1.00  0.00     0.000 A 
ENDBRANCH  48  62
BRANCH  49  68
ATOM     68  C   UNL     1      10.262   5.017  -8.776  1.00  0.00    -0.014 A 
ATOM     69  C   UNL     1      11.640   5.182  -8.982  1.00  0.00     0.009 A 
ATOM     70  C   UNL     1       9.709   3.731  -8.879  1.00  0.00     0.009 A 
ATOM     71  C   UNL     1      12.444   4.088  -9.308  1.00  0.00     0.001 A 
ATOM     72  C   UNL     1      10.520   2.634  -9.180  1.00  0.00     0.001 A 
ATOM     73  C   UNL     1      11.884   2.814  -9.402  1.00  0.00     0.000 A 
ENDBRANCH  49  68
BRANCH  61  74
ATOM     74  C   UNL     1       8.073  10.483 -12.486  1.00  0.00    -0.014 A 
ATOM     75  C   UNL     1       7.449   9.856 -13.574  1.00  0.00     0.009 A 
ATOM     76  C   UNL     1       8.914  11.582 -12.718  1.00  0.00     0.009 A 
ATOM     77  C   UNL     1       7.681  10.311 -14.874  1.00  0.00     0.001 A 
ATOM     78  C   UNL     1       9.124  12.049 -14.016  1.00  0.00     0.001 A 
ATOM     79  C   UNL     1       8.512  11.409 -15.093  1.00  0.00     0.000 A 
ENDBRANCH  61  74
ENDBRANCH  35  36
ENDBRANCH  27  30
ENDBRANCH  25  26
ENDBRANCH  24  25
ENDBRANCH   1  24
TORSDOF 13
