REMARK SMILES CO[C@@H]1C[C@@H](C(=O)NCCCNC(=O)c2ccc(-c3c4nc(c(-c5ccccc5)c5ccc([nH]5)c(-c5ccccc5)c5nc(c(-c6ccccc6)c6ccc3[nH]6)C=C5)C=C4)cc2)N(C(=O)c2nc(C(C)C)n[nH]2)C1
REMARK SMILES IDX 9 1 8 2 6 3 7 4 5 6 3 7 4 8 74 9 63 10 2 11 1 12 64 13 65 14
REMARK SMILES IDX 66 15 67 16 73 17 68 18 72 19 69 21 70 22 71 23 10 24 11 25
REMARK SMILES IDX 12 26 13 27 14 29 15 30 16 31 62 32 17 33 61 34 18 35 19 36
REMARK SMILES IDX 20 37 55 38 21 39 60 40 54 41 56 42 22 43 59 44 53 45 52 46
REMARK SMILES IDX 23 48 45 49 30 50 44 51 31 52 34 53 43 54 57 55 32 56 33 57
REMARK SMILES IDX 42 59 58 60 35 61 24 62 25 63 29 64 26 65 28 66 27 67 46 68
REMARK SMILES IDX 47 69 51 70 48 71 50 72 49 73 36 74 37 75 41 76 38 77 40 78
REMARK SMILES IDX 39 79
REMARK H PARENT 8 5 73 20 12 28 56 47 34 58
REMARK Flexibility Score: inf
ROOT
ATOM      1  C   UNL     1       4.081   4.872  -0.184  1.00  0.00     0.117 C 
ENDROOT
BRANCH   1   2
ATOM      2  N   UNL     1       3.798   4.331   1.137  1.00  0.00    -0.354 N 
ATOM      3  C   UNL     1       2.848   3.460   1.571  1.00  0.00     0.242 C 
ATOM      4  O   UNL     1       3.021   2.959   2.684  1.00  0.00    -0.273 OA
ATOM      5  H   UNL     1       4.402   4.654   1.844  1.00  0.00     0.163 HD
BRANCH   3   6
ATOM      6  C   UNL     1       1.624   3.077   0.742  1.00  0.00     0.177 C 
ATOM      7  C   UNL     1       1.037   1.805  -1.204  1.00  0.00     0.139 C 
ATOM      8  C   UNL     1       2.086   1.889  -0.114  1.00  0.00     0.069 C 
ATOM      9  C   UNL     1       0.710   3.284  -1.462  1.00  0.00     0.153 C 
ATOM     10  N   UNL     1       1.004   4.004  -0.210  1.00  0.00    -0.321 N 
BRANCH   7  11
ATOM     11  O   UNL     1      -0.131   1.111  -0.759  1.00  0.00    -0.380 OA
ATOM     12  C   UNL     1       0.106  -0.260  -0.443  1.00  0.00     0.195 C 
ENDBRANCH   7  11
BRANCH  10  13
ATOM     13  C   UNL     1       0.326   5.222   0.005  1.00  0.00     0.291 C 
ATOM     14  O   UNL     1      -0.340   5.671  -0.933  1.00  0.00    -0.265 OA
BRANCH  13  15
ATOM     15  C   UNL     1       0.455   5.997   1.244  1.00  0.00     0.214 A 
ATOM     16  N   UNL     1      -0.297   7.057   1.530  1.00  0.00    -0.207 NA
ATOM     17  N   UNL     1       1.409   5.929   2.213  1.00  0.00    -0.255 N 
ATOM     18  C   UNL     1       0.268   7.589   2.662  1.00  0.00     0.153 A 
ATOM     19  N   UNL     1       1.345   6.932   3.091  1.00  0.00    -0.158 NA
ATOM     20  H   UNL     1       2.079   5.210   2.262  1.00  0.00     0.192 HD
BRANCH  18  21
ATOM     21  C   UNL     1      -0.237   8.791   3.387  1.00  0.00     0.053 C 
ATOM     22  C   UNL     1      -0.071  10.071   2.572  1.00  0.00     0.016 C 
ATOM     23  C   UNL     1      -1.680   8.599   3.844  1.00  0.00     0.016 C 
ENDBRANCH  18  21
ENDBRANCH  13  15
ENDBRANCH  10  13
ENDBRANCH   3   6
ENDBRANCH   1   2
BRANCH   1  24
ATOM     24  C   UNL     1       3.738   6.350  -0.361  1.00  0.00     0.042 C 
BRANCH  24  25
ATOM     25  C   UNL     1       4.227   7.286   0.741  1.00  0.00     0.118 C 
BRANCH  25  26
ATOM     26  N   UNL     1       5.666   7.464   0.730  1.00  0.00    -0.352 N 
ATOM     27  C   UNL     1       6.406   8.609   0.570  1.00  0.00     0.251 C 
ATOM     28  H   UNL     1       6.191   6.640   0.857  1.00  0.00     0.163 HD
ATOM     29  O   UNL     1       7.625   8.523   0.445  1.00  0.00    -0.269 OA
BRANCH  27  30
ATOM     30  C   UNL     1       5.758   9.940   0.516  1.00  0.00     0.039 A 
ATOM     31  C   UNL     1       6.184  10.839  -0.467  1.00  0.00     0.014 A 
ATOM     32  C   UNL     1       4.787  10.333   1.442  1.00  0.00     0.014 A 
ATOM     33  C   UNL     1       5.611  12.110  -0.548  1.00  0.00     0.010 A 
ATOM     34  C   UNL     1       4.174  11.584   1.325  1.00  0.00     0.010 A 
ATOM     35  C   UNL     1       4.585  12.489   0.333  1.00  0.00    -0.014 A 
BRANCH  35  36
ATOM     36  C   UNL     1       3.949  13.827   0.215  1.00  0.00     0.031 A 
ATOM     37  C   UNL     1       4.135  14.865   1.289  1.00  0.00     0.074 A 
ATOM     38  C   UNL     1       3.188  14.111  -0.860  1.00  0.00     0.049 A 
ATOM     39  N   UNL     1       3.673  16.090   1.341  1.00  0.00    -0.248 NA
ATOM     40  C   UNL     1       4.933  14.474   2.461  1.00  0.00     0.031 C 
ATOM     41  C   UNL     1       2.903  13.189  -1.961  1.00  0.00     0.029 A 
ATOM     42  N   UNL     1       2.517  15.259  -1.205  1.00  0.00    -0.354 N 
ATOM     43  C   UNL     1       4.117  16.612   2.550  1.00  0.00     0.074 A 
ATOM     44  C   UNL     1       4.847  15.557   3.220  1.00  0.00     0.031 C 
ATOM     45  C   UNL     1       2.141  13.817  -2.872  1.00  0.00     0.029 A 
ATOM     46  C   UNL     1       1.853  15.169  -2.404  1.00  0.00     0.049 A 
ATOM     47  H   UNL     1       2.513  16.069  -0.646  1.00  0.00     0.167 HD
ATOM     48  C   UNL     1       3.948  17.859   3.051  1.00  0.00     0.031 A 
ATOM     49  C   UNL     1       1.092  16.070  -3.054  1.00  0.00     0.031 A 
ATOM     50  C   UNL     1       3.221  18.912   2.391  1.00  0.00     0.049 A 
ATOM     51  C   UNL     1       0.891  17.436  -2.459  1.00  0.00     0.074 A 
ATOM     52  C   UNL     1       3.040  20.222   2.801  1.00  0.00     0.029 A 
ATOM     53  N   UNL     1       2.545  18.773   1.189  1.00  0.00    -0.354 N 
ATOM     54  N   UNL     1       1.381  17.936  -1.351  1.00  0.00    -0.248 NA
ATOM     55  C   UNL     1       0.038  18.366  -3.213  1.00  0.00     0.031 C 
ATOM     56  C   UNL     1       2.207  20.860   1.875  1.00  0.00     0.029 A 
ATOM     57  C   UNL     1       1.920  19.964   0.859  1.00  0.00     0.049 A 
ATOM     58  H   UNL     1       2.514  17.950   0.650  1.00  0.00     0.167 HD
ATOM     59  C   UNL     1       0.915  19.243  -1.286  1.00  0.00     0.074 A 
ATOM     60  C   UNL     1       0.122  19.466  -2.477  1.00  0.00     0.031 C 
ATOM     61  C   UNL     1       1.127  20.175  -0.325  1.00  0.00     0.031 A 
BRANCH  48  62
ATOM     62  C   UNL     1       4.555  18.153   4.396  1.00  0.00    -0.014 A 
ATOM     63  C   UNL     1       5.946  18.258   4.560  1.00  0.00     0.009 A 
ATOM     64  C   UNL     1       3.723  18.371   5.506  1.00  0.00     0.009 A 
ATOM     65  C   UNL     1       6.492  18.538   5.815  1.00  0.00     0.001 A 
ATOM     66  C   UNL     1       4.270  18.680   6.753  1.00  0.00     0.001 A 
ATOM     67  C   UNL     1       5.654  18.753   6.908  1.00  0.00     0.000 A 
ENDBRANCH  48  62
BRANCH  49  68
ATOM     68  C   UNL     1       0.464  15.714  -4.354  1.00  0.00    -0.014 A 
ATOM     69  C   UNL     1       0.904  16.307  -5.546  1.00  0.00     0.009 A 
ATOM     70  C   UNL     1      -0.590  14.788  -4.405  1.00  0.00     0.009 A 
ATOM     71  C   UNL     1       0.285  16.000  -6.760  1.00  0.00     0.001 A 
ATOM     72  C   UNL     1      -1.187  14.460  -5.624  1.00  0.00     0.001 A 
ATOM     73  C   UNL     1      -0.756  15.074  -6.799  1.00  0.00     0.000 A 
ENDBRANCH  49  68
BRANCH  61  74
ATOM     74  C   UNL     1       0.513  21.531  -0.535  1.00  0.00    -0.014 A 
ATOM     75  C   UNL     1      -0.871  21.731  -0.418  1.00  0.00     0.009 A 
ATOM     76  C   UNL     1       1.337  22.632  -0.818  1.00  0.00     0.009 A 
ATOM     77  C   UNL     1      -1.421  23.000  -0.616  1.00  0.00     0.001 A 
ATOM     78  C   UNL     1       0.788  23.904  -0.985  1.00  0.00     0.001 A 
ATOM     79  C   UNL     1      -0.591  24.086  -0.894  1.00  0.00     0.000 A 
ENDBRANCH  61  74
ENDBRANCH  35  36
ENDBRANCH  27  30
ENDBRANCH  25  26
ENDBRANCH  24  25
ENDBRANCH   1  24
TORSDOF 14
