REMARK SMILES Cc1cccc(C(=O)NCCCNC(=O)c2ccc(-c3c4nc(c(-c5ccccc5)c5ccc([nH]5)c(-c5ccccc5)c5nc(c(-c6ccccc6)c6ccc3[nH]6)C=C5)C=C4)cc2)c1OC[C@@H]1C[C@H]2CC[C@@H]1C2
REMARK SMILES IDX 10 1 9 2 7 3 8 4 6 6 1 7 2 8 3 9 64 10 4 11 5 12 65 13 66 14
REMARK SMILES IDX 67 15 68 16 72 17 69 18 71 19 73 20 70 21 11 22 12 23 13 24
REMARK SMILES IDX 14 25 15 27 16 28 17 29 63 30 18 31 62 32 19 33 20 34 21 35
REMARK SMILES IDX 56 36 22 37 61 38 55 39 57 40 23 41 60 42 54 43 53 44 24 46
REMARK SMILES IDX 46 47 31 48 45 49 32 50 35 51 44 52 58 53 33 54 34 55 43 57
REMARK SMILES IDX 59 58 36 59 25 60 26 61 30 62 27 63 29 64 28 65 47 66 48 67
REMARK SMILES IDX 52 68 49 69 51 70 50 71 37 72 38 73 42 74 39 75 41 76 40 77
REMARK H PARENT 9 5 13 26 57 45 35 56
REMARK Flexibility Score: inf
ROOT
ATOM      1  C   UNL     1       0.293   3.993   0.673  1.00  0.00     0.118 C 
ENDROOT
BRANCH   1   2
ATOM      2  N   UNL     1      -1.048   3.502   0.469  1.00  0.00    -0.352 N 
ATOM      3  C   UNL     1      -1.551   2.273   0.148  1.00  0.00     0.255 C 
ATOM      4  O   UNL     1      -2.761   2.273  -0.118  1.00  0.00    -0.269 OA
ATOM      5  H   UNL     1      -1.741   4.192   0.584  1.00  0.00     0.163 HD
BRANCH   3   6
ATOM      6  C   UNL     1      -0.835   0.951   0.138  1.00  0.00     0.082 A 
ATOM      7  C   UNL     1       1.910  -1.198  -1.467  1.00  0.00     0.048 C 
ATOM      8  C   UNL     1       0.770  -0.729  -0.602  1.00  0.00    -0.008 A 
ATOM      9  C   UNL     1      -0.123  -1.746  -0.210  1.00  0.00     0.007 A 
ATOM     10  C   UNL     1       0.469   0.625  -0.315  1.00  0.00     0.134 A 
ATOM     11  C   UNL     1      -1.348  -1.439   0.354  1.00  0.00     0.001 A 
ATOM     12  C   UNL     1      -1.710  -0.106   0.486  1.00  0.00     0.018 A 
BRANCH  10  13
ATOM     13  O   UNL     1       1.359   1.626  -0.573  1.00  0.00    -0.492 OA
BRANCH  13  14
ATOM     14  C   UNL     1       2.724   1.536  -0.105  1.00  0.00     0.233 C 
BRANCH  14  15
ATOM     15  C   UNL     1       2.944   1.125   1.365  1.00  0.00     0.030 C 
ATOM     16  C   UNL     1       3.817   2.145   2.155  1.00  0.00     0.011 C 
ATOM     17  C   UNL     1       3.830  -0.147   1.450  1.00  0.00    -0.004 C 
ATOM     18  C   UNL     1       5.034   1.315   2.607  1.00  0.00    -0.010 C 
ATOM     19  C   UNL     1       3.765  -0.706   2.879  1.00  0.00     0.004 C 
ATOM     20  C   UNL     1       5.252   0.415   1.397  1.00  0.00     0.007 C 
ATOM     21  C   UNL     1       4.592   0.307   3.679  1.00  0.00     0.004 C 
ENDBRANCH  14  15
ENDBRANCH  13  14
ENDBRANCH  10  13
ENDBRANCH   3   6
ENDBRANCH   1   2
BRANCH   1  22
ATOM     22  C   UNL     1       0.896   4.384  -0.671  1.00  0.00     0.042 C 
BRANCH  22  23
ATOM     23  C   UNL     1       1.007   5.874  -0.900  1.00  0.00     0.118 C 
BRANCH  23  24
ATOM     24  N   UNL     1       2.338   6.388  -0.562  1.00  0.00    -0.352 N 
ATOM     25  C   UNL     1       2.900   7.615  -0.874  1.00  0.00     0.251 C 
ATOM     26  H   UNL     1       2.910   5.778  -0.042  1.00  0.00     0.163 HD
ATOM     27  O   UNL     1       4.006   7.931  -0.478  1.00  0.00    -0.269 OA
BRANCH  25  28
ATOM     28  C   UNL     1       2.042   8.584  -1.589  1.00  0.00     0.039 A 
ATOM     29  C   UNL     1       1.621   9.693  -0.855  1.00  0.00     0.014 A 
ATOM     30  C   UNL     1       1.368   8.168  -2.733  1.00  0.00     0.014 A 
ATOM     31  C   UNL     1       0.355  10.206  -1.099  1.00  0.00     0.010 A 
ATOM     32  C   UNL     1       0.066   8.598  -2.896  1.00  0.00     0.010 A 
ATOM     33  C   UNL     1      -0.462   9.560  -2.025  1.00  0.00    -0.014 A 
BRANCH  33  34
ATOM     34  C   UNL     1      -1.909   9.748  -2.048  1.00  0.00     0.031 A 
ATOM     35  C   UNL     1      -2.530  10.485  -3.163  1.00  0.00     0.074 A 
ATOM     36  C   UNL     1      -2.680   9.255  -1.052  1.00  0.00     0.049 A 
ATOM     37  N   UNL     1      -3.660  11.101  -3.088  1.00  0.00    -0.248 NA
ATOM     38  C   UNL     1      -1.863  10.653  -4.449  1.00  0.00     0.031 C 
ATOM     39  C   UNL     1      -4.136   9.146  -1.023  1.00  0.00     0.029 A 
ATOM     40  N   UNL     1      -2.285   8.966   0.256  1.00  0.00    -0.354 N 
ATOM     41  C   UNL     1      -3.996  11.499  -4.360  1.00  0.00     0.074 A 
ATOM     42  C   UNL     1      -2.811  11.274  -5.152  1.00  0.00     0.031 C 
ATOM     43  C   UNL     1      -4.540   9.073   0.255  1.00  0.00     0.029 A 
ATOM     44  C   UNL     1      -3.371   9.283   1.093  1.00  0.00     0.049 A 
ATOM     45  H   UNL     1      -1.412   8.609   0.539  1.00  0.00     0.167 HD
ATOM     46  C   UNL     1      -5.283  11.849  -4.636  1.00  0.00     0.031 A 
ATOM     47  C   UNL     1      -3.269  10.238   2.062  1.00  0.00     0.031 A 
ATOM     48  C   UNL     1      -6.108  11.879  -3.431  1.00  0.00     0.049 A 
ATOM     49  C   UNL     1      -4.237  11.390   1.891  1.00  0.00     0.074 A 
ATOM     50  C   UNL     1      -7.006  10.982  -2.875  1.00  0.00     0.029 A 
ATOM     51  N   UNL     1      -5.837  12.824  -2.450  1.00  0.00    -0.354 N 
ATOM     52  N   UNL     1      -4.862  11.659   0.779  1.00  0.00    -0.248 NA
ATOM     53  C   UNL     1      -4.531  12.360   2.944  1.00  0.00     0.031 C 
ATOM     54  C   UNL     1      -7.217  11.355  -1.521  1.00  0.00     0.029 A 
ATOM     55  C   UNL     1      -6.474  12.495  -1.270  1.00  0.00     0.049 A 
ATOM     56  H   UNL     1      -5.269  13.618  -2.578  1.00  0.00     0.167 HD
ATOM     57  C   UNL     1      -5.601  12.803   0.934  1.00  0.00     0.074 A 
ATOM     58  C   UNL     1      -5.376  13.195   2.312  1.00  0.00     0.031 C 
ATOM     59  C   UNL     1      -6.318  13.341  -0.095  1.00  0.00     0.031 A 
BRANCH  46  60
ATOM     60  C   UNL     1      -5.843  11.868  -6.038  1.00  0.00    -0.014 A 
ATOM     61  C   UNL     1      -7.208  11.596  -6.241  1.00  0.00     0.009 A 
ATOM     62  C   UNL     1      -5.079  12.066  -7.200  1.00  0.00     0.009 A 
ATOM     63  C   UNL     1      -7.750  11.427  -7.523  1.00  0.00     0.001 A 
ATOM     64  C   UNL     1      -5.600  11.856  -8.484  1.00  0.00     0.001 A 
ATOM     65  C   UNL     1      -6.936  11.523  -8.645  1.00  0.00     0.000 A 
ENDBRANCH  46  60
BRANCH  47  66
ATOM     66  C   UNL     1      -1.902  10.370   2.638  1.00  0.00    -0.014 A 
ATOM     67  C   UNL     1      -1.366   9.279   3.353  1.00  0.00     0.009 A 
ATOM     68  C   UNL     1      -1.031  11.377   2.203  1.00  0.00     0.009 A 
ATOM     69  C   UNL     1       0.015   9.143   3.523  1.00  0.00     0.001 A 
ATOM     70  C   UNL     1       0.351  11.243   2.389  1.00  0.00     0.001 A 
ATOM     71  C   UNL     1       0.874  10.111   3.015  1.00  0.00     0.000 A 
ENDBRANCH  47  66
BRANCH  59  72
ATOM     72  C   UNL     1      -6.988  14.693  -0.100  1.00  0.00    -0.014 A 
ATOM     73  C   UNL     1      -6.597  15.773   0.702  1.00  0.00     0.009 A 
ATOM     74  C   UNL     1      -7.982  14.952  -1.071  1.00  0.00     0.009 A 
ATOM     75  C   UNL     1      -7.196  17.034   0.567  1.00  0.00     0.001 A 
ATOM     76  C   UNL     1      -8.550  16.217  -1.239  1.00  0.00     0.001 A 
ATOM     77  C   UNL     1      -8.163  17.258  -0.409  1.00  0.00     0.000 A 
ENDBRANCH  59  72
ENDBRANCH  33  34
ENDBRANCH  25  28
ENDBRANCH  23  24
ENDBRANCH  22  23
ENDBRANCH   1  22
TORSDOF 13
