REMARK SMILES CC(C)(C)OC(=O)N1CCC[C@H]1C(=O)N1CCC[C@H]1C(=O)N1CCC[C@@H]1C(=O)NCCCNC(=O)c1ccc(-c2c3nc(c(-c4ccccc4)c4ccc([nH]4)c(-c4ccccc4)c4nc(c(-c5ccccc5)c5ccc2[nH]5)C=C4)C=C3)cc1
REMARK SMILES IDX 22 1 23 2 24 3 25 4 26 5 20 6 21 7 19 8 15 9 16 10 17 11
REMARK SMILES IDX 18 12 13 13 14 14 12 15 8 16 9 17 10 18 11 19 6 20 7 21 5 22
REMARK SMILES IDX 2 23 1 24 3 25 4 26 27 27 28 28 29 29 30 31 31 32 32 33
REMARK SMILES IDX 33 34 34 35 35 37 36 38 37 39 83 40 38 41 82 42 39 43 40 44
REMARK SMILES IDX 41 45 76 46 42 47 81 48 75 49 77 50 43 51 80 52 74 53 73 54
REMARK SMILES IDX 44 56 66 57 51 58 65 59 52 60 55 61 64 62 78 63 53 64 54 65
REMARK SMILES IDX 63 67 79 68 56 69 45 70 46 71 50 72 47 73 49 74 48 75 67 76
REMARK SMILES IDX 68 77 72 78 69 79 71 80 70 81 57 82 58 83 62 84 59 85 61 86
REMARK SMILES IDX 60 87
REMARK H PARENT 29 30 33 36 77 55 55 66
REMARK Flexibility Score: inf
ROOT
ATOM      1  N   UNL     1      -0.265  -8.842  -3.297  1.00  0.00    -0.329 N 
ATOM      2  C   UNL     1      -0.190  -9.068  -4.726  1.00  0.00     0.120 C 
ATOM      3  C   UNL     1      -1.641  -9.243  -5.130  1.00  0.00     0.024 C 
ATOM      4  C   UNL     1      -2.270  -9.952  -3.924  1.00  0.00     0.037 C 
ATOM      5  C   UNL     1      -1.273  -9.757  -2.771  1.00  0.00     0.174 C 
ENDROOT
BRANCH   1   6
ATOM      6  C   UNL     1       0.904  -8.670  -2.588  1.00  0.00     0.246 C 
ATOM      7  O   UNL     1       1.482  -9.645  -2.099  1.00  0.00    -0.272 OA
BRANCH   6   8
ATOM      8  C   UNL     1       1.557  -7.258  -2.574  1.00  0.00     0.174 C 
ATOM      9  N   UNL     1       0.726  -6.041  -2.635  1.00  0.00    -0.329 N 
ATOM     10  C   UNL     1       0.592  -5.481  -1.307  1.00  0.00     0.120 C 
ATOM     11  C   UNL     1       1.948  -5.714  -0.693  1.00  0.00     0.024 C 
ATOM     12  C   UNL     1       2.290  -7.110  -1.207  1.00  0.00     0.037 C 
BRANCH   9  13
ATOM     13  C   UNL     1       0.272  -5.496  -3.813  1.00  0.00     0.246 C 
ATOM     14  O   UNL     1      -0.240  -6.208  -4.684  1.00  0.00    -0.272 OA
BRANCH  13  15
ATOM     15  C   UNL     1       0.571  -4.022  -4.206  1.00  0.00     0.178 C 
ATOM     16  N   UNL     1       1.204  -3.105  -3.274  1.00  0.00    -0.296 N 
ATOM     17  C   UNL     1       2.580  -2.842  -3.635  1.00  0.00     0.124 C 
ATOM     18  C   UNL     1       2.546  -2.937  -5.149  1.00  0.00     0.024 C 
ATOM     19  C   UNL     1       1.552  -4.066  -5.402  1.00  0.00     0.037 C 
BRANCH  16  20
ATOM     20  C   UNL     1       0.450  -2.386  -2.377  1.00  0.00     0.410 C 
ATOM     21  O   UNL     1      -0.752  -2.543  -2.272  1.00  0.00    -0.224 OA
BRANCH  20  22
ATOM     22  O   UNL     1       1.220  -1.577  -1.610  1.00  0.00    -0.444 OA
BRANCH  22  23
ATOM     23  C   UNL     1       0.757  -1.030  -0.345  1.00  0.00     0.106 C 
ATOM     24  C   UNL     1       1.569   0.256  -0.144  1.00  0.00     0.056 C 
ATOM     25  C   UNL     1       1.119  -2.038   0.751  1.00  0.00     0.056 C 
ATOM     26  C   UNL     1      -0.730  -0.671  -0.284  1.00  0.00     0.056 C 
ENDBRANCH  22  23
ENDBRANCH  20  22
ENDBRANCH  16  20
ENDBRANCH  13  15
ENDBRANCH   9  13
ENDBRANCH   6   8
ENDBRANCH   1   6
BRANCH   5  27
ATOM     27  C   UNL     1      -1.931  -9.293  -1.463  1.00  0.00     0.242 C 
ATOM     28  O   UNL     1      -2.094 -10.077  -0.523  1.00  0.00    -0.273 OA
ATOM     29  N   UNL     1      -2.458  -8.048  -1.315  1.00  0.00    -0.354 N 
ATOM     30  H   UNL     1      -2.805  -7.849  -0.416  1.00  0.00     0.163 HD
BRANCH  29  31
ATOM     31  C   UNL     1      -2.591  -6.968  -2.272  1.00  0.00     0.117 C 
BRANCH  31  32
ATOM     32  C   UNL     1      -3.999  -6.400  -2.309  1.00  0.00     0.042 C 
BRANCH  32  33
ATOM     33  C   UNL     1      -4.503  -5.890  -0.965  1.00  0.00     0.118 C 
BRANCH  33  34
ATOM     34  N   UNL     1      -3.633  -4.912  -0.323  1.00  0.00    -0.352 N 
ATOM     35  C   UNL     1      -3.935  -3.661   0.159  1.00  0.00     0.251 C 
ATOM     36  H   UNL     1      -2.694  -5.188  -0.219  1.00  0.00     0.163 HD
ATOM     37  O   UNL     1      -3.094  -2.984   0.738  1.00  0.00    -0.269 OA
BRANCH  35  38
ATOM     38  C   UNL     1      -5.296  -3.137  -0.029  1.00  0.00     0.039 A 
ATOM     39  C   UNL     1      -5.484  -1.931  -0.709  1.00  0.00     0.014 A 
ATOM     40  C   UNL     1      -6.384  -3.877   0.435  1.00  0.00     0.014 A 
ATOM     41  C   UNL     1      -6.782  -1.494  -0.980  1.00  0.00     0.010 A 
ATOM     42  C   UNL     1      -7.668  -3.487   0.086  1.00  0.00     0.010 A 
ATOM     43  C   UNL     1      -7.881  -2.287  -0.613  1.00  0.00    -0.014 A 
BRANCH  43  44
ATOM     44  C   UNL     1      -9.279  -1.886  -0.897  1.00  0.00     0.031 A 
ATOM     45  C   UNL     1     -10.221  -1.662   0.254  1.00  0.00     0.074 A 
ATOM     46  C   UNL     1      -9.729  -1.844  -2.166  1.00  0.00     0.049 A 
ATOM     47  N   UNL     1     -11.518  -1.502   0.245  1.00  0.00    -0.248 NA
ATOM     48  C   UNL     1      -9.624  -1.665   1.601  1.00  0.00     0.031 C 
ATOM     49  C   UNL     1      -8.922  -2.079  -3.365  1.00  0.00     0.029 A 
ATOM     50  N   UNL     1     -10.990  -1.612  -2.653  1.00  0.00    -0.354 N 
ATOM     51  C   UNL     1     -11.896  -1.435   1.580  1.00  0.00     0.074 A 
ATOM     52  C   UNL     1     -10.699  -1.611   2.372  1.00  0.00     0.031 C 
ATOM     53  C   UNL     1      -9.706  -1.966  -4.450  1.00  0.00     0.029 A 
ATOM     54  C   UNL     1     -11.075  -1.698  -4.022  1.00  0.00     0.049 A 
ATOM     55  H   UNL     1     -11.761  -1.404  -2.078  1.00  0.00     0.167 HD
ATOM     56  C   UNL     1     -13.128  -1.231   2.101  1.00  0.00     0.031 A 
ATOM     57  C   UNL     1     -12.141  -1.589  -4.836  1.00  0.00     0.031 A 
ATOM     58  C   UNL     1     -14.307  -1.016   1.309  1.00  0.00     0.049 A 
ATOM     59  C   UNL     1     -13.496  -1.334  -4.235  1.00  0.00     0.074 A 
ATOM     60  C   UNL     1     -15.591  -0.726   1.733  1.00  0.00     0.029 A 
ATOM     61  N   UNL     1     -14.340  -1.060  -0.077  1.00  0.00    -0.354 N 
ATOM     62  N   UNL     1     -13.831  -1.221  -2.972  1.00  0.00    -0.248 NA
ATOM     63  C   UNL     1     -14.617  -1.183  -5.173  1.00  0.00     0.031 C 
ATOM     64  C   UNL     1     -16.410  -0.630   0.603  1.00  0.00     0.029 A 
ATOM     65  C   UNL     1     -15.626  -0.815  -0.524  1.00  0.00     0.049 A 
ATOM     66  H   UNL     1     -13.564  -1.239  -0.655  1.00  0.00     0.167 HD
ATOM     67  C   UNL     1     -15.195  -0.960  -2.964  1.00  0.00     0.074 A 
ATOM     68  C   UNL     1     -15.621  -0.917  -4.349  1.00  0.00     0.031 C 
ATOM     69  C   UNL     1     -16.022  -0.773  -1.908  1.00  0.00     0.031 A 
BRANCH  56  70
ATOM     70  C   UNL     1     -13.256  -1.239   3.599  1.00  0.00    -0.014 A 
ATOM     71  C   UNL     1     -12.720  -0.205   4.384  1.00  0.00     0.009 A 
ATOM     72  C   UNL     1     -13.938  -2.288   4.234  1.00  0.00     0.009 A 
ATOM     73  C   UNL     1     -12.827  -0.244   5.775  1.00  0.00     0.001 A 
ATOM     74  C   UNL     1     -14.071  -2.309   5.624  1.00  0.00     0.001 A 
ATOM     75  C   UNL     1     -13.506  -1.293   6.394  1.00  0.00     0.000 A 
ENDBRANCH  56  70
BRANCH  57  76
ATOM     76  C   UNL     1     -11.972  -1.705  -6.308  1.00  0.00    -0.014 A 
ATOM     77  C   UNL     1     -12.088  -0.571  -7.125  1.00  0.00     0.009 A 
ATOM     78  C   UNL     1     -11.694  -2.945  -6.904  1.00  0.00     0.009 A 
ATOM     79  C   UNL     1     -11.955  -0.679  -8.512  1.00  0.00     0.001 A 
ATOM     80  C   UNL     1     -11.535  -3.046  -8.288  1.00  0.00     0.001 A 
ATOM     81  C   UNL     1     -11.674  -1.915  -9.091  1.00  0.00     0.000 A 
ENDBRANCH  57  76
BRANCH  69  82
ATOM     82  C   UNL     1     -17.460  -0.466  -2.211  1.00  0.00    -0.014 A 
ATOM     83  C   UNL     1     -18.337  -1.462  -2.663  1.00  0.00     0.009 A 
ATOM     84  C   UNL     1     -17.951   0.831  -1.995  1.00  0.00     0.009 A 
ATOM     85  C   UNL     1     -19.674  -1.157  -2.924  1.00  0.00     0.001 A 
ATOM     86  C   UNL     1     -19.294   1.127  -2.231  1.00  0.00     0.001 A 
ATOM     87  C   UNL     1     -20.151   0.134  -2.703  1.00  0.00     0.000 A 
ENDBRANCH  69  82
ENDBRANCH  43  44
ENDBRANCH  35  38
ENDBRANCH  33  34
ENDBRANCH  32  33
ENDBRANCH  31  32
ENDBRANCH  29  31
ENDBRANCH   5  27
TORSDOF 17
