REMARK SMILES O=C(NCCCNC(=O)[C@]1(CCc2ccccc2)C[C@H]2CC[C@@H]1O2)c1ccc(-c2c3nc(c(-c4ccccc4)c4ccc([nH]4)c(-c4ccccc4)c4nc(c(-c5ccccc5)c5ccc2[nH]5)C=C4)C=C3)cc1
REMARK SMILES IDX 5 1 4 2 3 3 1 4 2 5 25 7 26 8 72 9 27 10 71 11 28 12 29 13
REMARK SMILES IDX 30 14 65 15 31 16 70 17 64 18 66 19 32 20 69 21 63 22 62 23
REMARK SMILES IDX 33 25 55 26 40 27 54 28 41 29 44 30 53 31 67 32 42 33 43 34
REMARK SMILES IDX 52 36 68 37 45 38 34 39 35 40 39 41 36 42 38 43 37 44 56 45
REMARK SMILES IDX 57 46 61 47 58 48 60 49 59 50 46 51 47 52 51 53 48 54 50 55
REMARK SMILES IDX 49 56 6 57 7 58 8 59 9 61 10 62 19 63 23 64 20 65 22 66
REMARK SMILES IDX 24 67 21 68 11 69 12 70 13 71 14 72 18 73 15 74 17 75 16 76
REMARK H PARENT 3 6 66 24 44 35 7 60
REMARK Flexibility Score: inf
ROOT
ATOM      1  C   UNL     1       4.701  -0.757   2.225  1.00  0.00     0.042 C 
ENDROOT
BRANCH   1   2
ATOM      2  C   UNL     1       4.504  -0.793   0.714  1.00  0.00     0.118 C 
BRANCH   2   3
ATOM      3  N   UNL     1       3.087  -0.881   0.362  1.00  0.00    -0.352 N 
ATOM      4  O   UNL     1       1.065  -0.058  -0.206  1.00  0.00    -0.269 OA
ATOM      5  C   UNL     1       2.290   0.044  -0.252  1.00  0.00     0.251 C 
ATOM      6  H   UNL     1       2.645  -1.727   0.602  1.00  0.00     0.163 HD
BRANCH   5   7
ATOM      7  C   UNL     1       2.918   1.159  -0.977  1.00  0.00     0.039 A 
ATOM      8  C   UNL     1       4.024   0.914  -1.798  1.00  0.00     0.014 A 
ATOM      9  C   UNL     1       2.392   2.444  -0.850  1.00  0.00     0.014 A 
ATOM     10  C   UNL     1       4.686   1.975  -2.392  1.00  0.00     0.010 A 
ATOM     11  C   UNL     1       3.004   3.498  -1.524  1.00  0.00     0.010 A 
ATOM     12  C   UNL     1       4.166   3.271  -2.281  1.00  0.00    -0.014 A 
BRANCH  12  13
ATOM     13  C   UNL     1       4.804   4.381  -3.017  1.00  0.00     0.031 A 
ATOM     14  C   UNL     1       5.423   5.527  -2.279  1.00  0.00     0.074 A 
ATOM     15  C   UNL     1       4.783   4.355  -4.362  1.00  0.00     0.049 A 
ATOM     16  N   UNL     1       5.927   6.636  -2.756  1.00  0.00    -0.248 NA
ATOM     17  C   UNL     1       5.468   5.423  -0.813  1.00  0.00     0.031 C 
ATOM     18  C   UNL     1       4.218   3.276  -5.178  1.00  0.00     0.029 A 
ATOM     19  N   UNL     1       5.238   5.264  -5.280  1.00  0.00    -0.354 N 
ATOM     20  C   UNL     1       6.321   7.375  -1.650  1.00  0.00     0.074 A 
ATOM     21  C   UNL     1       5.977   6.599  -0.477  1.00  0.00     0.031 C 
ATOM     22  C   UNL     1       4.372   3.579  -6.473  1.00  0.00     0.029 A 
ATOM     23  C   UNL     1       4.974   4.902  -6.577  1.00  0.00     0.049 A 
ATOM     24  H   UNL     1       5.707   6.093  -5.034  1.00  0.00     0.167 HD
ATOM     25  C   UNL     1       6.912   8.593  -1.621  1.00  0.00     0.031 A 
ATOM     26  C   UNL     1       5.154   5.579  -7.724  1.00  0.00     0.031 A 
ATOM     27  C   UNL     1       7.230   9.356  -2.800  1.00  0.00     0.049 A 
ATOM     28  C   UNL     1       5.756   6.950  -7.666  1.00  0.00     0.074 A 
ATOM     29  C   UNL     1       7.853  10.588  -2.890  1.00  0.00     0.029 A 
ATOM     30  N   UNL     1       6.935   8.961  -4.098  1.00  0.00    -0.354 N 
ATOM     31  N   UNL     1       6.149   7.632  -6.617  1.00  0.00    -0.248 NA
ATOM     32  C   UNL     1       5.945   7.644  -8.945  1.00  0.00     0.031 C 
ATOM     33  C   UNL     1       7.875  10.967  -4.236  1.00  0.00     0.029 A 
ATOM     34  C   UNL     1       7.336   9.938  -4.993  1.00  0.00     0.049 A 
ATOM     35  H   UNL     1       6.505   8.111  -4.346  1.00  0.00     0.167 HD
ATOM     36  C   UNL     1       6.661   8.823  -7.109  1.00  0.00     0.074 A 
ATOM     37  C   UNL     1       6.531   8.768  -8.552  1.00  0.00     0.031 C 
ATOM     38  C   UNL     1       7.199   9.863  -6.427  1.00  0.00     0.031 A 
BRANCH  25  39
ATOM     39  C   UNL     1       7.194   9.192  -0.270  1.00  0.00    -0.014 A 
ATOM     40  C   UNL     1       8.155   8.645   0.596  1.00  0.00     0.009 A 
ATOM     41  C   UNL     1       6.484  10.330   0.144  1.00  0.00     0.009 A 
ATOM     42  C   UNL     1       8.359   9.191   1.865  1.00  0.00     0.001 A 
ATOM     43  C   UNL     1       6.713  10.895   1.400  1.00  0.00     0.001 A 
ATOM     44  C   UNL     1       7.640  10.316   2.265  1.00  0.00     0.000 A 
ENDBRANCH  25  39
BRANCH  26  45
ATOM     45  C   UNL     1       4.733   4.959  -9.006  1.00  0.00    -0.014 A 
ATOM     46  C   UNL     1       5.687   4.500  -9.925  1.00  0.00     0.009 A 
ATOM     47  C   UNL     1       3.370   4.765  -9.286  1.00  0.00     0.009 A 
ATOM     48  C   UNL     1       5.283   3.869 -11.104  1.00  0.00     0.001 A 
ATOM     49  C   UNL     1       2.971   4.107 -10.450  1.00  0.00     0.001 A 
ATOM     50  C   UNL     1       3.928   3.665 -11.361  1.00  0.00     0.000 A 
ENDBRANCH  26  45
BRANCH  38  51
ATOM     51  C   UNL     1       7.743  11.008  -7.233  1.00  0.00    -0.014 A 
ATOM     52  C   UNL     1       6.896  11.922  -7.877  1.00  0.00     0.009 A 
ATOM     53  C   UNL     1       9.131  11.212  -7.284  1.00  0.00     0.009 A 
ATOM     54  C   UNL     1       7.431  13.008  -8.572  1.00  0.00     0.001 A 
ATOM     55  C   UNL     1       9.662  12.314  -7.953  1.00  0.00     0.001 A 
ATOM     56  C   UNL     1       8.812  13.208  -8.602  1.00  0.00     0.000 A 
ENDBRANCH  38  51
ENDBRANCH  12  13
ENDBRANCH   5   7
ENDBRANCH   2   3
ENDBRANCH   1   2
BRANCH   1  57
ATOM     57  C   UNL     1       4.283  -2.075   2.855  1.00  0.00     0.117 C 
BRANCH  57  58
ATOM     58  N   UNL     1       5.293  -3.090   2.643  1.00  0.00    -0.355 N 
ATOM     59  C   UNL     1       6.201  -3.681   3.456  1.00  0.00     0.228 C 
ATOM     60  H   UNL     1       5.326  -3.420   1.716  1.00  0.00     0.163 HD
ATOM     61  O   UNL     1       6.896  -4.555   2.921  1.00  0.00    -0.274 OA
BRANCH  59  62
ATOM     62  C   UNL     1       6.301  -3.425   4.970  1.00  0.00     0.078 C 
ATOM     63  C   UNL     1       5.994  -2.001   5.488  1.00  0.00     0.051 C 
ATOM     64  C   UNL     1       7.838  -3.469   5.278  1.00  0.00     0.134 C 
ATOM     65  C   UNL     1       7.354  -1.462   5.928  1.00  0.00     0.120 C 
ATOM     66  C   UNL     1       8.199  -3.500   6.766  1.00  0.00     0.036 C 
ATOM     67  O   UNL     1       8.222  -2.096   4.971  1.00  0.00    -0.374 OA
ATOM     68  C   UNL     1       7.801  -2.102   7.231  1.00  0.00     0.035 C 
BRANCH  62  69
ATOM     69  C   UNL     1       5.538  -4.567   5.709  1.00  0.00     0.024 C 
BRANCH  69  70
ATOM     70  C   UNL     1       4.014  -4.724   5.490  1.00  0.00     0.037 C 
BRANCH  70  71
ATOM     71  C   UNL     1       3.549  -5.282   4.164  1.00  0.00    -0.048 A 
ATOM     72  C   UNL     1       2.524  -4.638   3.455  1.00  0.00     0.004 A 
ATOM     73  C   UNL     1       4.114  -6.434   3.604  1.00  0.00     0.004 A 
ATOM     74  C   UNL     1       2.191  -5.032   2.155  1.00  0.00     0.000 A 
ATOM     75  C   UNL     1       3.757  -6.850   2.317  1.00  0.00     0.000 A 
ATOM     76  C   UNL     1       2.823  -6.128   1.579  1.00  0.00     0.000 A 
ENDBRANCH  70  71
ENDBRANCH  69  70
ENDBRANCH  62  69
ENDBRANCH  59  62
ENDBRANCH  57  58
ENDBRANCH   1  57
TORSDOF 13
