REMARK SMILES CC(C)CN(CC(N)=O)C(=O)N1CC[C@H](C(=O)NCCCNC(=O)c2ccc(-c3c4nc(c(-c5ccccc5)c5ccc([nH]5)c(-c5ccccc5)c5nc(c(-c6ccccc6)c6ccc3[nH]6)C=C5)C=C4)cc2)[C@@H]1C
REMARK SMILES IDX 19 1 18 2 16 3 17 4 15 6 12 7 13 8 73 9 14 10 74 11 10 12
REMARK SMILES IDX 11 13 5 14 4 15 2 16 1 17 3 18 6 19 7 20 8 21 9 22 20 25
REMARK SMILES IDX 21 26 22 27 23 28 24 30 25 31 26 32 72 33 27 34 71 35 28 36
REMARK SMILES IDX 29 37 30 38 65 39 31 40 70 41 64 42 66 43 32 44 69 45 63 46
REMARK SMILES IDX 62 47 33 49 55 50 40 51 54 52 41 53 44 54 53 55 67 56 42 57
REMARK SMILES IDX 43 58 52 60 68 61 45 62 34 63 35 64 39 65 36 66 38 67 37 68
REMARK SMILES IDX 56 69 57 70 61 71 58 72 60 73 59 74 46 75 47 76 51 77 48 78
REMARK SMILES IDX 50 79 49 80
REMARK H PARENT 18 5 8 23 8 24 22 29 66 48 44 59
REMARK Flexibility Score: inf
ROOT
ATOM      1  C   UNL     1      -3.512   3.651  -1.469  1.00  0.00     0.117 C 
ENDROOT
BRANCH   1   2
ATOM      2  N   UNL     1      -3.852   4.213  -2.768  1.00  0.00    -0.356 N 
ATOM      3  C   UNL     1      -3.732   3.740  -4.031  1.00  0.00     0.225 C 
ATOM      4  O   UNL     1      -4.271   4.424  -4.911  1.00  0.00    -0.275 OA
ATOM      5  H   UNL     1      -4.247   5.113  -2.719  1.00  0.00     0.163 HD
BRANCH   3   6
ATOM      6  C   UNL     1      -2.929   2.511  -4.454  1.00  0.00     0.102 C 
ATOM      7  N   UNL     1      -1.720   1.321  -2.797  1.00  0.00    -0.321 N 
ATOM      8  C   UNL     1      -0.849   2.390  -3.278  1.00  0.00     0.122 C 
ATOM      9  C   UNL     1      -2.936   1.221  -3.619  1.00  0.00     0.096 C 
ATOM     10  C   UNL     1      -1.448   2.853  -4.588  1.00  0.00     0.037 C 
ATOM     11  C   UNL     1      -4.276   0.943  -2.945  1.00  0.00     0.032 C 
BRANCH   7  12
ATOM     12  C   UNL     1      -1.416   0.771  -1.579  1.00  0.00     0.320 C 
ATOM     13  O   UNL     1      -0.949   1.507  -0.704  1.00  0.00    -0.248 OA
BRANCH  12  14
ATOM     14  N   UNL     1      -1.511  -0.588  -1.388  1.00  0.00    -0.315 N 
BRANCH  14  15
ATOM     15  C   UNL     1      -1.055  -1.116  -0.092  1.00  0.00     0.125 C 
BRANCH  15  16
ATOM     16  C   UNL     1       0.463  -1.432  -0.054  1.00  0.00     0.002 C 
ATOM     17  C   UNL     1       1.347  -0.180  -0.031  1.00  0.00     0.009 C 
ATOM     18  C   UNL     1       0.787  -2.283   1.177  1.00  0.00     0.009 C 
ENDBRANCH  15  16
ENDBRANCH  14  15
BRANCH  14  19
ATOM     19  C   UNL     1      -1.909  -1.587  -2.381  1.00  0.00     0.221 C 
BRANCH  19  20
ATOM     20  C   UNL     1      -3.383  -1.994  -2.251  1.00  0.00     0.237 C 
ATOM     21  N   UNL     1      -4.049  -2.202  -3.427  1.00  0.00    -0.368 N 
ATOM     22  O   UNL     1      -3.967  -2.159  -1.184  1.00  0.00    -0.273 OA
ATOM     23  H   UNL     1      -3.585  -2.071  -4.285  1.00  0.00     0.159 HD
ATOM     24  H   UNL     1      -4.993  -2.482  -3.415  1.00  0.00     0.159 HD
ENDBRANCH  19  20
ENDBRANCH  14  19
ENDBRANCH  12  14
ENDBRANCH   7  12
ENDBRANCH   3   6
ENDBRANCH   1   2
BRANCH   1  25
ATOM     25  C   UNL     1      -3.558   4.664  -0.347  1.00  0.00     0.042 C 
BRANCH  25  26
ATOM     26  C   UNL     1      -4.956   5.198  -0.099  1.00  0.00     0.118 C 
BRANCH  26  27
ATOM     27  N   UNL     1      -5.876   4.211   0.459  1.00  0.00    -0.352 N 
ATOM     28  C   UNL     1      -6.431   4.114   1.714  1.00  0.00     0.251 C 
ATOM     29  H   UNL     1      -6.144   3.498  -0.165  1.00  0.00     0.163 HD
ATOM     30  O   UNL     1      -7.099   3.131   2.022  1.00  0.00    -0.269 OA
BRANCH  28  31
ATOM     31  C   UNL     1      -6.199   5.184   2.705  1.00  0.00     0.039 A 
ATOM     32  C   UNL     1      -5.940   4.856   4.037  1.00  0.00     0.014 A 
ATOM     33  C   UNL     1      -6.210   6.519   2.308  1.00  0.00     0.014 A 
ATOM     34  C   UNL     1      -5.613   5.868   4.944  1.00  0.00     0.010 A 
ATOM     35  C   UNL     1      -5.715   7.492   3.157  1.00  0.00     0.010 A 
ATOM     36  C   UNL     1      -5.457   7.191   4.500  1.00  0.00    -0.014 A 
BRANCH  36  37
ATOM     37  C   UNL     1      -5.113   8.306   5.417  1.00  0.00     0.031 A 
ATOM     38  C   UNL     1      -6.040   9.495   5.507  1.00  0.00     0.074 A 
ATOM     39  C   UNL     1      -3.949   8.299   6.094  1.00  0.00     0.049 A 
ATOM     40  N   UNL     1      -5.875  10.630   6.136  1.00  0.00    -0.248 NA
ATOM     41  C   UNL     1      -7.297   9.420   4.738  1.00  0.00     0.031 C 
ATOM     42  C   UNL     1      -2.939   7.239   6.049  1.00  0.00     0.029 A 
ATOM     43  N   UNL     1      -3.417   9.225   6.955  1.00  0.00    -0.354 N 
ATOM     44  C   UNL     1      -6.977  11.408   5.799  1.00  0.00     0.074 A 
ATOM     45  C   UNL     1      -7.758  10.654   4.848  1.00  0.00     0.031 C 
ATOM     46  C   UNL     1      -1.933   7.553   6.883  1.00  0.00     0.029 A 
ATOM     47  C   UNL     1      -2.203   8.854   7.483  1.00  0.00     0.049 A 
ATOM     48  H   UNL     1      -3.862  10.075   7.175  1.00  0.00     0.167 HD
ATOM     49  C   UNL     1      -7.335  12.626   6.268  1.00  0.00     0.031 A 
ATOM     50  C   UNL     1      -1.403   9.495   8.356  1.00  0.00     0.031 A 
ATOM     51  C   UNL     1      -6.585  13.347   7.257  1.00  0.00     0.049 A 
ATOM     52  C   UNL     1      -1.837  10.833   8.891  1.00  0.00     0.074 A 
ATOM     53  C   UNL     1      -6.890  14.553   7.861  1.00  0.00     0.029 A 
ATOM     54  N   UNL     1      -5.385  12.914   7.798  1.00  0.00    -0.354 N 
ATOM     55  N   UNL     1      -2.914  11.527   8.613  1.00  0.00    -0.248 NA
ATOM     56  C   UNL     1      -0.951  11.466   9.878  1.00  0.00     0.031 C 
ATOM     57  C   UNL     1      -5.848  14.872   8.738  1.00  0.00     0.029 A 
ATOM     58  C   UNL     1      -4.928  13.835   8.723  1.00  0.00     0.049 A 
ATOM     59  H   UNL     1      -4.926  12.076   7.560  1.00  0.00     0.167 HD
ATOM     60  C   UNL     1      -2.855  12.658   9.416  1.00  0.00     0.074 A 
ATOM     61  C   UNL     1      -1.643  12.548  10.203  1.00  0.00     0.031 C 
ATOM     62  C   UNL     1      -3.724  13.695   9.501  1.00  0.00     0.031 A 
BRANCH  49  63
ATOM     63  C   UNL     1      -8.597  13.236   5.722  1.00  0.00    -0.014 A 
ATOM     64  C   UNL     1      -9.857  12.674   5.990  1.00  0.00     0.009 A 
ATOM     65  C   UNL     1      -8.529  14.395   4.935  1.00  0.00     0.009 A 
ATOM     66  C   UNL     1     -11.015  13.230   5.442  1.00  0.00     0.001 A 
ATOM     67  C   UNL     1      -9.692  14.972   4.418  1.00  0.00     0.001 A 
ATOM     68  C   UNL     1     -10.931  14.382   4.661  1.00  0.00     0.000 A 
ENDBRANCH  49  63
BRANCH  50  69
ATOM     69  C   UNL     1      -0.134   8.867   8.812  1.00  0.00    -0.014 A 
ATOM     70  C   UNL     1      -0.002   8.409  10.133  1.00  0.00     0.009 A 
ATOM     71  C   UNL     1       0.955   8.729   7.938  1.00  0.00     0.009 A 
ATOM     72  C   UNL     1       1.203   7.861  10.578  1.00  0.00     0.001 A 
ATOM     73  C   UNL     1       2.149   8.151   8.376  1.00  0.00     0.001 A 
ATOM     74  C   UNL     1       2.276   7.728   9.698  1.00  0.00     0.000 A 
ENDBRANCH  50  69
BRANCH  62  75
ATOM     75  C   UNL     1      -3.426  14.761  10.516  1.00  0.00    -0.014 A 
ATOM     76  C   UNL     1      -2.366  15.663  10.344  1.00  0.00     0.009 A 
ATOM     77  C   UNL     1      -4.253  14.886  11.644  1.00  0.00     0.009 A 
ATOM     78  C   UNL     1      -2.116  16.646  11.303  1.00  0.00     0.001 A 
ATOM     79  C   UNL     1      -4.022  15.891  12.583  1.00  0.00     0.001 A 
ATOM     80  C   UNL     1      -2.947  16.762  12.418  1.00  0.00     0.000 A 
ENDBRANCH  62  75
ENDBRANCH  36  37
ENDBRANCH  28  31
ENDBRANCH  26  27
ENDBRANCH  25  26
ENDBRANCH   1  25
TORSDOF 16
