REMARK SMILES CC(C)[NH2+][C@@]1(C(=O)NCCCNC(=O)c2ccc(-c3c4nc(c(-c5ccccc5)c5ccc([nH]5)c(-c5ccccc5)c5nc(c(-c6ccccc6)c6ccc3[nH]6)C=C5)C=C4)cc2)CC[C@@H](Sc2ccncc2)C1
REMARK SMILES IDX 10 1 9 2 8 3 6 4 7 5 5 7 63 8 73 9 64 10 65 11 4 12 2 15
REMARK SMILES IDX 1 16 3 17 66 18 67 19 68 20 72 21 69 22 71 23 70 24 11 25
REMARK SMILES IDX 12 26 13 27 14 29 15 30 16 31 62 32 17 33 61 34 18 35 19 36
REMARK SMILES IDX 20 37 55 38 21 39 60 40 54 41 56 42 22 43 59 44 53 45 52 46
REMARK SMILES IDX 23 48 45 49 30 50 44 51 31 52 34 53 43 54 57 55 32 56 33 57
REMARK SMILES IDX 42 59 58 60 35 61 24 62 25 63 29 64 26 65 28 66 27 67 46 68
REMARK SMILES IDX 47 69 51 70 48 71 50 72 49 73 36 74 37 75 41 76 38 77 40 78
REMARK SMILES IDX 39 79
REMARK H PARENT 8 6 4 13 4 14 12 28 56 47 34 58
REMARK Flexibility Score: inf
ROOT
ATOM      1  C   UNL     1      -3.878   0.681  -6.050  1.00  0.00     0.042 C 
ENDROOT
BRANCH   1   2
ATOM      2  C   UNL     1      -3.716   1.677  -4.909  1.00  0.00     0.118 C 
BRANCH   2   3
ATOM      3  N   UNL     1      -3.823   1.034  -3.620  1.00  0.00    -0.351 N 
ATOM      4  C   UNL     1      -2.901   0.569  -2.740  1.00  0.00     0.281 C 
ATOM      5  O   UNL     1      -3.382  -0.055  -1.780  1.00  0.00    -0.268 OA
ATOM      6  H   UNL     1      -4.752   0.906  -3.321  1.00  0.00     0.163 HD
BRANCH   4   7
ATOM      7  C   UNL     1      -1.325   0.728  -2.894  1.00  0.00     0.176 C 
ATOM      8  C   UNL     1      -0.929   2.191  -3.145  1.00  0.00     0.080 C 
ATOM      9  C   UNL     1      -0.823  -0.090  -4.095  1.00  0.00     0.094 C 
ATOM     10  C   UNL     1      -0.259   2.274  -4.515  1.00  0.00     0.022 C 
ATOM     11  C   UNL     1      -0.360   0.898  -5.167  1.00  0.00     0.058 C 
BRANCH   7  12
ATOM     12  N   UNL     1      -0.809   0.267  -1.585  1.00  0.00    -0.332 N 
ATOM     13  H   UNL     1      -1.218   0.894  -0.893  1.00  0.00     0.347 HD
ATOM     14  H   UNL     1      -1.062  -0.721  -1.620  1.00  0.00     0.347 HD
BRANCH  12  15
ATOM     15  C   UNL     1       0.600   0.172  -1.244  1.00  0.00     0.176 C 
ATOM     16  C   UNL     1       0.677   0.327   0.284  1.00  0.00     0.075 C 
ATOM     17  C   UNL     1       1.234  -1.177  -1.586  1.00  0.00     0.075 C 
ENDBRANCH  12  15
ENDBRANCH   7  12
BRANCH  11  18
ATOM     18  S   UNL     1       1.079   0.302  -6.162  1.00  0.00    -0.122 SA
BRANCH  18  19
ATOM     19  C   UNL     1       2.478   1.003  -5.313  1.00  0.00     0.011 A 
ATOM     20  C   UNL     1       3.144   0.290  -4.323  1.00  0.00     0.035 A 
ATOM     21  C   UNL     1       2.929   2.280  -5.644  1.00  0.00     0.035 A 
ATOM     22  C   UNL     1       4.165   0.920  -3.632  1.00  0.00     0.112 A 
ATOM     23  C   UNL     1       3.960   2.825  -4.900  1.00  0.00     0.112 A 
ATOM     24  N   UNL     1       4.576   2.179  -3.889  1.00  0.00    -0.265 NA
ENDBRANCH  18  19
ENDBRANCH  11  18
ENDBRANCH   4   7
ENDBRANCH   2   3
ENDBRANCH   1   2
BRANCH   1  25
ATOM     25  C   UNL     1      -5.335   0.392  -6.372  1.00  0.00     0.118 C 
BRANCH  25  26
ATOM     26  N   UNL     1      -5.993   1.545  -6.976  1.00  0.00    -0.352 N 
ATOM     27  C   UNL     1      -6.520   1.699  -8.236  1.00  0.00     0.251 C 
ATOM     28  H   UNL     1      -6.071   2.334  -6.393  1.00  0.00     0.163 HD
ATOM     29  O   UNL     1      -6.811   2.814  -8.646  1.00  0.00    -0.269 OA
BRANCH  27  30
ATOM     30  C   UNL     1      -6.723   0.515  -9.097  1.00  0.00     0.039 A 
ATOM     31  C   UNL     1      -6.424   0.600 -10.460  1.00  0.00     0.014 A 
ATOM     32  C   UNL     1      -7.216  -0.674  -8.559  1.00  0.00     0.014 A 
ATOM     33  C   UNL     1      -6.552  -0.533 -11.266  1.00  0.00     0.010 A 
ATOM     34  C   UNL     1      -7.247  -1.822  -9.338  1.00  0.00     0.010 A 
ATOM     35  C   UNL     1      -6.926  -1.762 -10.702  1.00  0.00    -0.014 A 
BRANCH  35  36
ATOM     36  C   UNL     1      -7.016  -3.006 -11.505  1.00  0.00     0.031 A 
ATOM     37  C   UNL     1      -8.331  -3.728 -11.610  1.00  0.00     0.074 A 
ATOM     38  C   UNL     1      -5.903  -3.536 -12.048  1.00  0.00     0.049 A 
ATOM     39  N   UNL     1      -8.592  -4.902 -12.126  1.00  0.00    -0.248 NA
ATOM     40  C   UNL     1      -9.503  -3.057 -11.021  1.00  0.00     0.031 C 
ATOM     41  C   UNL     1      -4.562  -2.950 -11.988  1.00  0.00     0.029 A 
ATOM     42  N   UNL     1      -5.722  -4.705 -12.744  1.00  0.00    -0.354 N 
ATOM     43  C   UNL     1      -9.944  -5.121 -11.893  1.00  0.00     0.074 A 
ATOM     44  C   UNL     1     -10.437  -3.986 -11.146  1.00  0.00     0.031 C 
ATOM     45  C   UNL     1      -3.703  -3.750 -12.638  1.00  0.00     0.029 A 
ATOM     46  C   UNL     1      -4.418  -4.928 -13.115  1.00  0.00     0.049 A 
ATOM     47  H   UNL     1      -6.457  -5.325 -12.957  1.00  0.00     0.167 HD
ATOM     48  C   UNL     1     -10.711  -6.167 -12.282  1.00  0.00     0.031 A 
ATOM     49  C   UNL     1      -3.860  -5.974 -13.753  1.00  0.00     0.031 A 
ATOM     50  C   UNL     1     -10.220  -7.282 -13.043  1.00  0.00     0.049 A 
ATOM     51  C   UNL     1      -4.730  -7.127 -14.168  1.00  0.00     0.074 A 
ATOM     52  C   UNL     1     -10.925  -8.365 -13.539  1.00  0.00     0.029 A 
ATOM     53  N   UNL     1      -8.898  -7.455 -13.423  1.00  0.00    -0.354 N 
ATOM     54  N   UNL     1      -6.018  -7.296 -13.988  1.00  0.00    -0.248 NA
ATOM     55  C   UNL     1      -4.072  -8.230 -14.882  1.00  0.00     0.031 C 
ATOM     56  C   UNL     1     -10.020  -9.218 -14.176  1.00  0.00     0.029 A 
ATOM     57  C   UNL     1      -8.763  -8.636 -14.131  1.00  0.00     0.049 A 
ATOM     58  H   UNL     1      -8.165  -6.831 -13.219  1.00  0.00     0.167 HD
ATOM     59  C   UNL     1      -6.331  -8.504 -14.600  1.00  0.00     0.074 A 
ATOM     60  C   UNL     1      -5.099  -9.021 -15.160  1.00  0.00     0.031 C 
ATOM     61  C   UNL     1      -7.531  -9.126 -14.693  1.00  0.00     0.031 A 
BRANCH  48  62
ATOM     62  C   UNL     1     -12.161  -6.150 -11.882  1.00  0.00    -0.014 A 
ATOM     63  C   UNL     1     -13.060  -5.222 -12.432  1.00  0.00     0.009 A 
ATOM     64  C   UNL     1     -12.641  -7.095 -10.961  1.00  0.00     0.009 A 
ATOM     65  C   UNL     1     -14.399  -5.213 -12.036  1.00  0.00     0.001 A 
ATOM     66  C   UNL     1     -13.988  -7.105 -10.593  1.00  0.00     0.001 A 
ATOM     67  C   UNL     1     -14.863  -6.158 -11.122  1.00  0.00     0.000 A 
ENDBRANCH  48  62
BRANCH  49  68
ATOM     68  C   UNL     1      -2.403  -5.973 -14.054  1.00  0.00    -0.014 A 
ATOM     69  C   UNL     1      -1.952  -5.840 -15.376  1.00  0.00     0.009 A 
ATOM     70  C   UNL     1      -1.458  -6.107 -13.026  1.00  0.00     0.009 A 
ATOM     71  C   UNL     1      -0.586  -5.870 -15.665  1.00  0.00     0.001 A 
ATOM     72  C   UNL     1      -0.091  -6.106 -13.315  1.00  0.00     0.001 A 
ATOM     73  C   UNL     1       0.344  -5.999 -14.634  1.00  0.00     0.000 A 
ENDBRANCH  49  68
BRANCH  61  74
ATOM     74  C   UNL     1      -7.588 -10.405 -15.479  1.00  0.00    -0.014 A 
ATOM     75  C   UNL     1      -7.047 -11.598 -14.978  1.00  0.00     0.009 A 
ATOM     76  C   UNL     1      -8.253 -10.423 -16.715  1.00  0.00     0.009 A 
ATOM     77  C   UNL     1      -7.149 -12.780 -15.715  1.00  0.00     0.001 A 
ATOM     78  C   UNL     1      -8.379 -11.611 -17.435  1.00  0.00     0.001 A 
ATOM     79  C   UNL     1      -7.820 -12.787 -16.938  1.00  0.00     0.000 A 
ENDBRANCH  61  74
ENDBRANCH  35  36
ENDBRANCH  27  30
ENDBRANCH  25  26
ENDBRANCH   1  25
TORSDOF 14
