REMARK SMILES CC1(C)[C@@]2(CC[C@@H]2C(=O)NCc2ccco2)[C@]1(C)C(=O)NCCCNC(=O)c1ccc(-c2c3nc(c(-c4ccccc4)c4ccc([nH]4)c(-c4ccccc4)c4nc(c(-c5ccccc5)c5ccc2[nH]5)C=C4)C=C3)cc1
REMARK SMILES IDX 22 1 21 2 19 3 20 4 17 6 1 7 2 8 3 9 4 10 18 11 5 12 7 13
REMARK SMILES IDX 6 14 8 15 9 16 10 17 11 19 12 20 13 21 16 22 14 23 15 24
REMARK SMILES IDX 23 25 24 26 25 27 26 28 27 30 28 31 29 32 75 33 30 34 74 35
REMARK SMILES IDX 31 36 32 37 33 38 68 39 34 40 73 41 67 42 69 43 35 44 72 45
REMARK SMILES IDX 66 46 65 47 36 49 58 50 43 51 57 52 44 53 47 54 56 55 70 56
REMARK SMILES IDX 45 57 46 58 55 60 71 61 48 62 37 63 38 64 42 65 39 66 41 67
REMARK SMILES IDX 40 68 59 69 60 70 64 71 61 72 63 73 62 74 49 75 50 76 54 77
REMARK SMILES IDX 51 78 53 79 52 80
REMARK H PARENT 21 5 10 18 25 29 69 48 47 59
REMARK Flexibility Score: inf
ROOT
ATOM      1  C   UNL     1       2.511   2.451   4.133  1.00  0.00     0.117 C 
ENDROOT
BRANCH   1   2
ATOM      2  N   UNL     1       3.181   1.608   3.169  1.00  0.00    -0.356 N 
ATOM      3  C   UNL     1       2.665   0.599   2.394  1.00  0.00     0.227 C 
ATOM      4  O   UNL     1       3.403  -0.014   1.633  1.00  0.00    -0.274 OA
ATOM      5  H   UNL     1       4.143   1.781   3.052  1.00  0.00     0.163 HD
BRANCH   3   6
ATOM      6  C   UNL     1       1.236   0.156   2.596  1.00  0.00     0.059 C 
ATOM      7  C   UNL     1       0.944   0.116  -0.019  1.00  0.00     0.013 C 
ATOM      8  C   UNL     1       0.341  -0.105   1.357  1.00  0.00    -0.013 C 
ATOM      9  C   UNL     1      -0.637  -1.260   1.349  1.00  0.00     0.013 C 
ATOM     10  C   UNL     1       0.042   1.080   2.242  1.00  0.00     0.003 C 
ATOM     11  C   UNL     1       1.114  -0.864   3.723  1.00  0.00     0.023 C 
ATOM     12  C   UNL     1      -1.026   1.308   3.261  1.00  0.00     0.010 C 
ATOM     13  C   UNL     1       0.037   2.519   1.797  1.00  0.00     0.086 C 
ATOM     14  C   UNL     1      -0.889   2.804   2.987  1.00  0.00     0.015 C 
BRANCH  13  15
ATOM     15  C   UNL     1      -0.415   2.947   0.385  1.00  0.00     0.224 C 
ATOM     16  O   UNL     1       0.319   3.644  -0.336  1.00  0.00    -0.275 OA
ATOM     17  N   UNL     1      -1.643   2.655  -0.151  1.00  0.00    -0.349 N 
ATOM     18  H   UNL     1      -1.819   3.101  -1.012  1.00  0.00     0.163 HD
BRANCH  17  19
ATOM     19  C   UNL     1      -2.724   1.819   0.308  1.00  0.00     0.191 C 
BRANCH  19  20
ATOM     20  C   UNL     1      -3.832   2.602   0.922  1.00  0.00     0.122 A 
ATOM     21  C   UNL     1      -5.025   2.214   1.502  1.00  0.00     0.047 A 
ATOM     22  O   UNL     1      -3.734   3.965   0.948  1.00  0.00    -0.467 OA
ATOM     23  C   UNL     1      -5.686   3.400   1.901  1.00  0.00     0.042 A 
ATOM     24  C   UNL     1      -4.857   4.437   1.546  1.00  0.00     0.195 A 
ENDBRANCH  19  20
ENDBRANCH  17  19
ENDBRANCH  13  15
ENDBRANCH   3   6
ENDBRANCH   1   2
BRANCH   1  25
ATOM     25  C   UNL     1       2.965   2.262   5.569  1.00  0.00     0.042 C 
BRANCH  25  26
ATOM     26  C   UNL     1       4.427   2.578   5.833  1.00  0.00     0.118 C 
BRANCH  26  27
ATOM     27  N   UNL     1       4.800   3.938   5.477  1.00  0.00    -0.352 N 
ATOM     28  C   UNL     1       5.243   4.999   6.226  1.00  0.00     0.251 C 
ATOM     29  H   UNL     1       4.718   4.135   4.516  1.00  0.00     0.163 HD
ATOM     30  O   UNL     1       5.364   6.093   5.679  1.00  0.00    -0.269 OA
BRANCH  28  31
ATOM     31  C   UNL     1       5.552   4.876   7.671  1.00  0.00     0.039 A 
ATOM     32  C   UNL     1       5.320   5.987   8.491  1.00  0.00     0.014 A 
ATOM     33  C   UNL     1       6.115   3.727   8.227  1.00  0.00     0.014 A 
ATOM     34  C   UNL     1       5.595   5.923   9.859  1.00  0.00     0.010 A 
ATOM     35  C   UNL     1       6.293   3.626   9.607  1.00  0.00     0.010 A 
ATOM     36  C   UNL     1       6.052   4.729  10.437  1.00  0.00    -0.014 A 
BRANCH  36  37
ATOM     37  C   UNL     1       6.286   4.635  11.900  1.00  0.00     0.031 A 
ATOM     38  C   UNL     1       7.663   4.367  12.447  1.00  0.00     0.074 A 
ATOM     39  C   UNL     1       5.244   4.747  12.746  1.00  0.00     0.049 A 
ATOM     40  N   UNL     1       8.053   4.287  13.695  1.00  0.00    -0.248 NA
ATOM     41  C   UNL     1       8.734   4.126  11.469  1.00  0.00     0.031 C 
ATOM     42  C   UNL     1       3.846   4.928  12.348  1.00  0.00     0.029 A 
ATOM     43  N   UNL     1       5.200   4.728  14.117  1.00  0.00    -0.354 N 
ATOM     44  C   UNL     1       9.404   3.969  13.650  1.00  0.00     0.074 A 
ATOM     45  C   UNL     1       9.754   3.815  12.255  1.00  0.00     0.031 C 
ATOM     46  C   UNL     1       3.088   5.040  13.450  1.00  0.00     0.029 A 
ATOM     47  C   UNL     1       3.940   4.917  14.628  1.00  0.00     0.049 A 
ATOM     48  H   UNL     1       5.996   4.592  14.680  1.00  0.00     0.167 HD
ATOM     49  C   UNL     1      10.284   3.838  14.672  1.00  0.00     0.031 A 
ATOM     50  C   UNL     1       3.516   4.999  15.902  1.00  0.00     0.031 A 
ATOM     51  C   UNL     1       9.945   4.006  16.060  1.00  0.00     0.049 A 
ATOM     52  C   UNL     1       4.514   4.912  17.020  1.00  0.00     0.074 A 
ATOM     53  C   UNL     1      10.779   3.967  17.164  1.00  0.00     0.029 A 
ATOM     54  N   UNL     1       8.664   4.242  16.534  1.00  0.00    -0.354 N 
ATOM     55  N   UNL     1       5.807   4.707  16.956  1.00  0.00    -0.248 NA
ATOM     56  C   UNL     1       3.997   5.095  18.383  1.00  0.00     0.031 C 
ATOM     57  C   UNL     1       9.994   4.141  18.311  1.00  0.00     0.029 A 
ATOM     58  C   UNL     1       8.680   4.334  17.916  1.00  0.00     0.049 A 
ATOM     59  H   UNL     1       7.861   4.331  15.971  1.00  0.00     0.167 HD
ATOM     60  C   UNL     1       6.263   4.755  18.266  1.00  0.00     0.074 A 
ATOM     61  C   UNL     1       5.109   5.028  19.101  1.00  0.00     0.031 C 
ATOM     62  C   UNL     1       7.524   4.591  18.735  1.00  0.00     0.031 A 
BRANCH  49  63
ATOM     63  C   UNL     1      11.702   3.489  14.313  1.00  0.00    -0.014 A 
ATOM     64  C   UNL     1      12.535   4.411  13.656  1.00  0.00     0.009 A 
ATOM     65  C   UNL     1      12.214   2.224  14.635  1.00  0.00     0.009 A 
ATOM     66  C   UNL     1      13.833   4.054  13.286  1.00  0.00     0.001 A 
ATOM     67  C   UNL     1      13.523   1.880  14.290  1.00  0.00     0.001 A 
ATOM     68  C   UNL     1      14.327   2.790  13.604  1.00  0.00     0.000 A 
ENDBRANCH  49  63
BRANCH  50  69
ATOM     69  C   UNL     1       2.075   5.226  16.177  1.00  0.00    -0.014 A 
ATOM     70  C   UNL     1       1.619   6.489  16.582  1.00  0.00     0.009 A 
ATOM     71  C   UNL     1       1.144   4.191  15.996  1.00  0.00     0.009 A 
ATOM     72  C   UNL     1       0.259   6.708  16.814  1.00  0.00     0.001 A 
ATOM     73  C   UNL     1      -0.217   4.420  16.206  1.00  0.00     0.001 A 
ATOM     74  C   UNL     1      -0.657   5.676  16.620  1.00  0.00     0.000 A 
ENDBRANCH  50  69
BRANCH  62  75
ATOM     75  C   UNL     1       7.722   4.719  20.218  1.00  0.00    -0.014 A 
ATOM     76  C   UNL     1       7.280   3.720  21.100  1.00  0.00     0.009 A 
ATOM     77  C   UNL     1       8.378   5.845  20.738  1.00  0.00     0.009 A 
ATOM     78  C   UNL     1       7.460   3.866  22.477  1.00  0.00     0.001 A 
ATOM     79  C   UNL     1       8.579   5.976  22.113  1.00  0.00     0.001 A 
ATOM     80  C   UNL     1       8.111   4.991  22.982  1.00  0.00     0.000 A 
ENDBRANCH  62  75
ENDBRANCH  36  37
ENDBRANCH  28  31
ENDBRANCH  26  27
ENDBRANCH  25  26
ENDBRANCH   1  25
TORSDOF 13
