REMARK SMILES [NH3+][C@H]1C=C[C@@H](C(=O)N2CCC(CC(=O)NCCCNC(=O)c3ccc(-c4c5nc(c(-c6ccccc6)c6ccc([nH]6)c(-c6ccccc6)c6nc(c(-c7ccccc7)c7ccc4[nH]7)C=C6)C=C5)cc3)CC2)C1
REMARK SMILES IDX 16 1 15 2 13 3 14 4 12 6 11 7 6 8 7 9 8 10 9 11 71 12 10 13
REMARK SMILES IDX 70 14 5 15 2 16 3 17 72 18 4 19 1 20 17 24 18 25 19 26 20 27
REMARK SMILES IDX 21 29 22 30 23 31 69 32 24 33 68 34 25 35 26 36 27 37 62 38
REMARK SMILES IDX 28 39 67 40 61 41 63 42 29 43 66 44 60 45 59 46 30 48 52 49
REMARK SMILES IDX 37 50 51 51 38 52 41 53 50 54 64 55 39 56 40 57 49 59 65 60
REMARK SMILES IDX 42 61 31 62 32 63 36 64 33 65 35 66 34 67 53 68 54 69 58 70
REMARK SMILES IDX 55 71 57 72 56 73 43 74 44 75 48 76 45 77 47 78 46 79
REMARK H PARENT 15 5 1 21 1 22 1 23 19 28 63 47 41 58
REMARK Flexibility Score: inf
ROOT
ATOM      1  C   UNL     1       3.549  -7.952  -5.365  1.00  0.00     0.117 C 
ENDROOT
BRANCH   1   2
ATOM      2  N   UNL     1       4.512  -7.044  -5.977  1.00  0.00    -0.356 N 
ATOM      3  C   UNL     1       5.310  -6.082  -5.433  1.00  0.00     0.220 C 
ATOM      4  O   UNL     1       6.026  -5.424  -6.190  1.00  0.00    -0.275 OA
ATOM      5  H   UNL     1       4.602  -7.143  -6.952  1.00  0.00     0.163 HD
BRANCH   3   6
ATOM      6  C   UNL     1       5.304  -5.814  -3.942  1.00  0.00     0.103 C 
BRANCH   6   7
ATOM      7  C   UNL     1       4.456  -4.591  -3.547  1.00  0.00     0.002 C 
ATOM      8  C   UNL     1       1.359  -4.270  -1.162  1.00  0.00     0.229 C 
ATOM      9  O   UNL     1       1.156  -5.472  -1.350  1.00  0.00    -0.274 OA
ATOM     10  N   UNL     1       2.235  -3.551  -1.964  1.00  0.00    -0.342 N 
ATOM     11  C   UNL     1       2.083  -3.680  -3.400  1.00  0.00     0.120 C 
ATOM     12  C   UNL     1       3.595  -3.290  -1.519  1.00  0.00     0.120 C 
ATOM     13  C   UNL     1       2.989  -4.769  -3.952  1.00  0.00     0.026 C 
ATOM     14  C   UNL     1       4.567  -4.355  -2.029  1.00  0.00     0.026 C 
BRANCH   8  15
ATOM     15  C   UNL     1       0.452  -3.457  -0.227  1.00  0.00     0.107 C 
ATOM     16  C   UNL     1       0.212  -1.105   0.465  1.00  0.00     0.205 C 
ATOM     17  C   UNL     1      -0.670  -1.434  -0.687  1.00  0.00     0.033 C 
ATOM     18  C   UNL     1       1.099  -2.350   0.611  1.00  0.00     0.087 C 
ATOM     19  C   UNL     1      -0.570  -2.718  -1.046  1.00  0.00    -0.012 C 
BRANCH  16  20
ATOM     20  N   UNL     1       1.007   0.083   0.209  1.00  0.00    -0.352 N 
ATOM     21  H   UNL     1       0.391   0.891   0.118  1.00  0.00     0.345 HD
ATOM     22  H   UNL     1       1.536  -0.041  -0.654  1.00  0.00     0.345 HD
ATOM     23  H   UNL     1       1.652   0.234   0.985  1.00  0.00     0.345 HD
ENDBRANCH  16  20
ENDBRANCH   8  15
ENDBRANCH   6   7
ENDBRANCH   3   6
ENDBRANCH   1   2
BRANCH   1  24
ATOM     24  C   UNL     1       2.103  -7.620  -5.742  1.00  0.00     0.042 C 
BRANCH  24  25
ATOM     25  C   UNL     1       1.776  -7.816  -7.217  1.00  0.00     0.118 C 
BRANCH  25  26
ATOM     26  N   UNL     1       1.313  -9.164  -7.495  1.00  0.00    -0.352 N 
ATOM     27  C   UNL     1       0.056  -9.616  -7.817  1.00  0.00     0.251 C 
ATOM     28  H   UNL     1       2.006  -9.861  -7.444  1.00  0.00     0.163 HD
ATOM     29  O   UNL     1      -0.177 -10.820  -7.770  1.00  0.00    -0.269 OA
BRANCH  27  30
ATOM     30  C   UNL     1      -1.027  -8.680  -8.213  1.00  0.00     0.039 A 
ATOM     31  C   UNL     1      -2.330  -8.944  -7.778  1.00  0.00     0.014 A 
ATOM     32  C   UNL     1      -0.796  -7.601  -9.071  1.00  0.00     0.014 A 
ATOM     33  C   UNL     1      -3.385  -8.111  -8.166  1.00  0.00     0.010 A 
ATOM     34  C   UNL     1      -1.837  -6.730  -9.402  1.00  0.00     0.010 A 
ATOM     35  C   UNL     1      -3.146  -6.983  -8.966  1.00  0.00    -0.014 A 
BRANCH  35  36
ATOM     36  C   UNL     1      -4.255  -6.079  -9.373  1.00  0.00     0.031 A 
ATOM     37  C   UNL     1      -4.646  -5.957 -10.823  1.00  0.00     0.074 A 
ATOM     38  C   UNL     1      -4.891  -5.332  -8.449  1.00  0.00     0.049 A 
ATOM     39  N   UNL     1      -5.547  -5.181 -11.374  1.00  0.00    -0.248 NA
ATOM     40  C   UNL     1      -3.920  -6.805 -11.782  1.00  0.00     0.031 C 
ATOM     41  C   UNL     1      -4.600  -5.329  -7.014  1.00  0.00     0.029 A 
ATOM     42  N   UNL     1      -5.913  -4.425  -8.583  1.00  0.00    -0.354 N 
ATOM     43  C   UNL     1      -5.481  -5.433 -12.739  1.00  0.00     0.074 A 
ATOM     44  C   UNL     1      -4.428  -6.405 -12.938  1.00  0.00     0.031 C 
ATOM     45  C   UNL     1      -5.437  -4.478  -6.398  1.00  0.00     0.029 A 
ATOM     46  C   UNL     1      -6.298  -3.850  -7.396  1.00  0.00     0.049 A 
ATOM     47  H   UNL     1      -6.331  -4.207  -9.447  1.00  0.00     0.167 HD
ATOM     48  C   UNL     1      -6.239  -4.918 -13.738  1.00  0.00     0.031 A 
ATOM     49  C   UNL     1      -7.234  -2.916  -7.137  1.00  0.00     0.031 A 
ATOM     50  C   UNL     1      -7.302  -3.968 -13.549  1.00  0.00     0.049 A 
ATOM     51  C   UNL     1      -8.054  -2.354  -8.264  1.00  0.00     0.074 A 
ATOM     52  C   UNL     1      -8.153  -3.428 -14.499  1.00  0.00     0.029 A 
ATOM     53  N   UNL     1      -7.661  -3.418 -12.330  1.00  0.00    -0.354 N 
ATOM     54  N   UNL     1      -8.009  -2.641  -9.542  1.00  0.00    -0.248 NA
ATOM     55  C   UNL     1      -9.060  -1.342  -7.909  1.00  0.00     0.031 C 
ATOM     56  C   UNL     1      -9.006  -2.522 -13.858  1.00  0.00     0.029 A 
ATOM     57  C   UNL     1      -8.711  -2.532 -12.505  1.00  0.00     0.049 A 
ATOM     58  H   UNL     1      -7.234  -3.626 -11.468  1.00  0.00     0.167 HD
ATOM     59  C   UNL     1      -8.993  -1.864 -10.139  1.00  0.00     0.074 A 
ATOM     60  C   UNL     1      -9.630  -1.105  -9.083  1.00  0.00     0.031 C 
ATOM     61  C   UNL     1      -9.336  -1.785 -11.447  1.00  0.00     0.031 A 
BRANCH  48  62
ATOM     62  C   UNL     1      -5.944  -5.378 -15.138  1.00  0.00    -0.014 A 
ATOM     63  C   UNL     1      -6.303  -6.665 -15.567  1.00  0.00     0.009 A 
ATOM     64  C   UNL     1      -5.348  -4.496 -16.053  1.00  0.00     0.009 A 
ATOM     65  C   UNL     1      -6.044  -7.070 -16.878  1.00  0.00     0.001 A 
ATOM     66  C   UNL     1      -5.113  -4.896 -17.370  1.00  0.00     0.001 A 
ATOM     67  C   UNL     1      -5.454  -6.184 -17.779  1.00  0.00     0.000 A 
ENDBRANCH  48  62
BRANCH  49  68
ATOM     68  C   UNL     1      -7.454  -2.448  -5.745  1.00  0.00    -0.014 A 
ATOM     69  C   UNL     1      -8.616  -2.812  -5.047  1.00  0.00     0.009 A 
ATOM     70  C   UNL     1      -6.513  -1.620  -5.114  1.00  0.00     0.009 A 
ATOM     71  C   UNL     1      -8.843  -2.334  -3.755  1.00  0.00     0.001 A 
ATOM     72  C   UNL     1      -6.731  -1.165  -3.812  1.00  0.00     0.001 A 
ATOM     73  C   UNL     1      -7.900  -1.514  -3.138  1.00  0.00     0.000 A 
ENDBRANCH  49  68
BRANCH  61  74
ATOM     74  C   UNL     1     -10.469  -0.867 -11.804  1.00  0.00    -0.014 A 
ATOM     75  C   UNL     1     -10.297   0.526 -11.818  1.00  0.00     0.009 A 
ATOM     76  C   UNL     1     -11.714  -1.405 -12.166  1.00  0.00     0.009 A 
ATOM     77  C   UNL     1     -11.361   1.363 -12.159  1.00  0.00     0.001 A 
ATOM     78  C   UNL     1     -12.768  -0.566 -12.529  1.00  0.00     0.001 A 
ATOM     79  C   UNL     1     -12.593   0.817 -12.518  1.00  0.00     0.000 A 
ENDBRANCH  61  74
ENDBRANCH  35  36
ENDBRANCH  27  30
ENDBRANCH  25  26
ENDBRANCH  24  25
ENDBRANCH   1  24
TORSDOF 13
