REMARK SMILES Cc1cc(Cl)c(C)c2c1O[C@H](C(F)(F)F)C(C(=O)NCCCNC(=O)c1ccc(-c3c4nc(c(-c5ccccc5)c5ccc([nH]5)c(-c5ccccc5)c5nc(c(-c6ccccc6)c6ccc3[nH]6)C=C5)C=C4)cc1)=C2
REMARK SMILES IDX 21 1 20 2 19 3 17 4 18 5 16 7 1 8 2 9 3 10 9 11 4 12 8 13
REMARK SMILES IDX 10 14 5 15 6 16 74 17 11 18 7 19 12 20 13 21 14 22 15 23
REMARK SMILES IDX 22 24 23 25 24 26 25 28 26 29 27 30 73 31 28 32 72 33 29 34
REMARK SMILES IDX 30 35 31 36 66 37 32 38 71 39 65 40 67 41 33 42 70 43 64 44
REMARK SMILES IDX 63 45 34 47 56 48 41 49 55 50 42 51 45 52 54 53 68 54 43 55
REMARK SMILES IDX 44 56 53 58 69 59 46 60 35 61 36 62 40 63 37 64 39 65 38 66
REMARK SMILES IDX 57 67 58 68 62 69 59 70 61 71 60 72 47 73 48 74 52 75 49 76
REMARK SMILES IDX 51 77 50 78
REMARK H PARENT 19 6 23 27 67 46 45 57
REMARK Flexibility Score: inf
ROOT
ATOM      1  C   UNL     1      -3.078  -4.065  -4.745  1.00  0.00     0.042 C 
ENDROOT
BRANCH   1   2
ATOM      2  C   UNL     1      -1.773  -3.482  -5.264  1.00  0.00     0.118 C 
BRANCH   2   3
ATOM      3  N   UNL     1      -1.983  -2.212  -5.943  1.00  0.00    -0.352 N 
ATOM      4  C   UNL     1      -1.729  -0.905  -5.705  1.00  0.00     0.251 C 
ATOM      5  O   UNL     1      -2.106  -0.128  -6.587  1.00  0.00    -0.270 OA
ATOM      6  H   UNL     1      -2.432  -2.338  -6.810  1.00  0.00     0.163 HD
BRANCH   4   7
ATOM      7  C   UNL     1      -1.048  -0.374  -4.490  1.00  0.00     0.067 C 
ATOM      8  C   UNL     1       1.064   0.330   0.135  1.00  0.00     0.048 C 
ATOM      9  C   UNL     1       0.669   1.221  -1.009  1.00  0.00    -0.007 A 
ATOM     10  C   UNL     1       0.980   2.580  -0.953  1.00  0.00     0.028 A 
ATOM     11  C   UNL     1       0.041   0.730  -2.158  1.00  0.00     0.131 A 
ATOM     12  C   UNL     1       0.663   3.435  -2.015  1.00  0.00     0.045 A 
ATOM     13  C   UNL     1      -0.283   1.570  -3.239  1.00  0.00     0.022 A 
ATOM     14  O   UNL     1      -0.287  -0.597  -2.146  1.00  0.00    -0.475 OA
ATOM     15  Cl  UNL     1       1.086   5.101  -1.812  1.00  0.00    -0.084 Cl
ATOM     16  C   UNL     1       0.032   2.949  -3.177  1.00  0.00    -0.021 A 
ATOM     17  C   UNL     1      -0.970   0.965  -4.388  1.00  0.00     0.026 C 
ATOM     18  C   UNL     1      -0.449  -1.240  -3.429  1.00  0.00     0.314 C 
ATOM     19  C   UNL     1      -0.302   3.856  -4.336  1.00  0.00     0.047 C 
BRANCH  18  20
ATOM     20  C   UNL     1       0.883  -1.887  -3.854  1.00  0.00     0.429 C 
ATOM     21  F   UNL     1       1.169  -2.943  -3.051  1.00  0.00    -0.167 F 
ATOM     22  F   UNL     1       0.848  -2.369  -5.120  1.00  0.00    -0.167 F 
ATOM     23  F   UNL     1       1.927  -1.032  -3.789  1.00  0.00    -0.167 F 
ENDBRANCH  18  20
ENDBRANCH   4   7
ENDBRANCH   2   3
ENDBRANCH   1   2
BRANCH   1  24
ATOM     24  C   UNL     1      -3.892  -4.710  -5.857  1.00  0.00     0.118 C 
BRANCH  24  25
ATOM     25  N   UNL     1      -3.198  -5.857  -6.439  1.00  0.00    -0.352 N 
ATOM     26  C   UNL     1      -3.417  -7.199  -6.274  1.00  0.00     0.251 C 
ATOM     27  H   UNL     1      -2.456  -5.629  -7.045  1.00  0.00     0.163 HD
ATOM     28  O   UNL     1      -2.554  -8.009  -6.607  1.00  0.00    -0.269 OA
BRANCH  26  29
ATOM     29  C   UNL     1      -4.689  -7.670  -5.697  1.00  0.00     0.039 A 
ATOM     30  C   UNL     1      -4.686  -8.748  -4.809  1.00  0.00     0.014 A 
ATOM     31  C   UNL     1      -5.890  -7.056  -6.057  1.00  0.00     0.014 A 
ATOM     32  C   UNL     1      -5.886  -9.167  -4.236  1.00  0.00     0.010 A 
ATOM     33  C   UNL     1      -7.063  -7.399  -5.405  1.00  0.00     0.010 A 
ATOM     34  C   UNL     1      -7.077  -8.473  -4.506  1.00  0.00    -0.014 A 
BRANCH  34  35
ATOM     35  C   UNL     1      -8.364  -8.878  -3.897  1.00  0.00     0.031 A 
ATOM     36  C   UNL     1      -9.487  -9.353  -4.776  1.00  0.00     0.074 A 
ATOM     37  C   UNL     1      -8.535  -8.768  -2.566  1.00  0.00     0.049 A 
ATOM     38  N   UNL     1     -10.701  -9.706  -4.441  1.00  0.00    -0.248 NA
ATOM     39  C   UNL     1      -9.222  -9.411  -6.224  1.00  0.00     0.031 C 
ATOM     40  C   UNL     1      -7.526  -8.290  -1.618  1.00  0.00     0.029 A 
ATOM     41  N   UNL     1      -9.620  -9.059  -1.780  1.00  0.00    -0.354 N 
ATOM     42  C   UNL     1     -11.341 -10.019  -5.634  1.00  0.00     0.074 A 
ATOM     43  C   UNL     1     -10.410  -9.744  -6.704  1.00  0.00     0.031 C 
ATOM     44  C   UNL     1      -8.023  -8.367  -0.374  1.00  0.00     0.029 A 
ATOM     45  C   UNL     1      -9.397  -8.856  -0.440  1.00  0.00     0.049 A 
ATOM     46  H   UNL     1     -10.476  -9.383  -2.141  1.00  0.00     0.167 HD
ATOM     47  C   UNL     1     -12.582 -10.523  -5.821  1.00  0.00     0.031 A 
ATOM     48  C   UNL     1     -10.209  -9.047   0.616  1.00  0.00     0.031 A 
ATOM     49  C   UNL     1     -13.500 -10.805  -4.753  1.00  0.00     0.049 A 
ATOM     50  C   UNL     1     -11.598  -9.570   0.382  1.00  0.00     0.074 A 
ATOM     51  C   UNL     1     -14.766 -11.355  -4.829  1.00  0.00     0.029 A 
ATOM     52  N   UNL     1     -13.246 -10.559  -3.412  1.00  0.00    -0.354 N 
ATOM     53  N   UNL     1     -12.171  -9.913  -0.747  1.00  0.00    -0.248 NA
ATOM     54  C   UNL     1     -12.451  -9.738   1.567  1.00  0.00     0.031 C 
ATOM     55  C   UNL     1     -15.301 -11.390  -3.538  1.00  0.00     0.029 A 
ATOM     56  C   UNL     1     -14.344 -10.920  -2.652  1.00  0.00     0.049 A 
ATOM     57  H   UNL     1     -12.409 -10.184  -3.054  1.00  0.00     0.167 HD
ATOM     58  C   UNL     1     -13.443 -10.355  -0.408  1.00  0.00     0.074 A 
ATOM     59  C   UNL     1     -13.550 -10.254   1.033  1.00  0.00     0.031 C 
ATOM     60  C   UNL     1     -14.433 -10.803  -1.218  1.00  0.00     0.031 A 
BRANCH  47  61
ATOM     61  C   UNL     1     -13.008 -10.808  -7.234  1.00  0.00    -0.014 A 
ATOM     62  C   UNL     1     -12.416 -11.845  -7.975  1.00  0.00     0.009 A 
ATOM     63  C   UNL     1     -14.034 -10.054  -7.824  1.00  0.00     0.009 A 
ATOM     64  C   UNL     1     -12.817 -12.096  -9.288  1.00  0.00     0.001 A 
ATOM     65  C   UNL     1     -14.456 -10.329  -9.127  1.00  0.00     0.001 A 
ATOM     66  C   UNL     1     -13.841 -11.343  -9.860  1.00  0.00     0.000 A 
ENDBRANCH  47  61
BRANCH  48  67
ATOM     67  C   UNL     1      -9.706  -8.781   1.989  1.00  0.00    -0.014 A 
ATOM     68  C   UNL     1      -9.442  -9.846   2.863  1.00  0.00     0.009 A 
ATOM     69  C   UNL     1      -9.449  -7.470   2.421  1.00  0.00     0.009 A 
ATOM     70  C   UNL     1      -8.942  -9.604   4.145  1.00  0.00     0.001 A 
ATOM     71  C   UNL     1      -8.923  -7.233   3.693  1.00  0.00     0.001 A 
ATOM     72  C   UNL     1      -8.676  -8.299   4.556  1.00  0.00     0.000 A 
ENDBRANCH  48  67
BRANCH  60  73
ATOM     73  C   UNL     1     -15.720 -11.228  -0.571  1.00  0.00    -0.014 A 
ATOM     74  C   UNL     1     -16.612 -10.281  -0.046  1.00  0.00     0.009 A 
ATOM     75  C   UNL     1     -16.084 -12.584  -0.567  1.00  0.00     0.009 A 
ATOM     76  C   UNL     1     -17.837 -10.687   0.488  1.00  0.00     0.001 A 
ATOM     77  C   UNL     1     -17.321 -12.983  -0.061  1.00  0.00     0.001 A 
ATOM     78  C   UNL     1     -18.193 -12.036   0.471  1.00  0.00     0.000 A 
ENDBRANCH  60  73
ENDBRANCH  34  35
ENDBRANCH  26  29
ENDBRANCH  24  25
ENDBRANCH   1  24
TORSDOF 11
