REMARK SMILES CC(C)[C@@H]([NH3+])C(=O)N[C@@H](Cc1ccccc1)C(=O)NCCCNC(=O)c1ccc(-c2c3nc(c(-c4ccccc4)c4ccc([nH]4)c(-c4ccccc4)c4nc(c(-c5ccccc5)c5ccc2[nH]5)C=C4)C=C3)cc1
REMARK SMILES IDX 20 1 19 2 17 3 18 4 9 6 8 7 6 8 7 9 4 11 2 12 1 13 3 14 5 15
REMARK SMILES IDX 10 19 11 20 12 21 16 22 13 23 15 24 14 25 21 26 22 27 23 28
REMARK SMILES IDX 24 29 25 31 26 32 27 33 73 34 28 35 72 36 29 37 30 38 31 39
REMARK SMILES IDX 66 40 32 41 71 42 65 43 67 44 33 45 70 46 64 47 63 48 34 50
REMARK SMILES IDX 56 51 41 52 55 53 42 54 45 55 54 56 68 57 43 58 44 59 53 61
REMARK SMILES IDX 69 62 46 63 35 64 36 65 40 66 37 67 39 68 38 69 57 70 58 71
REMARK SMILES IDX 62 72 59 73 61 74 60 75 47 76 48 77 52 78 49 79 51 80 50 81
REMARK H PARENT 19 5 8 10 5 16 5 17 5 18 23 30 67 49 45 60
REMARK Flexibility Score: inf
ROOT
ATOM      1  C   UNL     1      -1.860  -5.743   3.218  1.00  0.00     0.117 C 
ENDROOT
BRANCH   1   2
ATOM      2  N   UNL     1      -1.888  -5.527   1.787  1.00  0.00    -0.354 N 
ATOM      3  C   UNL     1      -1.044  -4.788   1.010  1.00  0.00     0.242 C 
ATOM      4  O   UNL     1      -0.921  -5.159  -0.164  1.00  0.00    -0.273 OA
ATOM      5  H   UNL     1      -2.620  -5.976   1.306  1.00  0.00     0.163 HD
BRANCH   3   6
ATOM      6  C   UNL     1      -0.174  -3.638   1.564  1.00  0.00     0.175 C 
BRANCH   6   7
ATOM      7  N   UNL     1      -0.881  -2.754   2.502  1.00  0.00    -0.339 N 
ATOM      8  C   UNL     1      -1.355  -1.491   2.322  1.00  0.00     0.279 C 
ATOM      9  O   UNL     1      -2.130  -1.048   3.176  1.00  0.00    -0.268 OA
ATOM     10  H   UNL     1      -1.035  -3.134   3.397  1.00  0.00     0.164 HD
BRANCH   8  11
ATOM     11  C   UNL     1      -0.924  -0.615   1.122  1.00  0.00     0.273 C 
BRANCH  11  12
ATOM     12  C   UNL     1       0.603  -0.358   1.100  1.00  0.00     0.051 C 
ATOM     13  C   UNL     1       1.033   0.517  -0.081  1.00  0.00     0.014 C 
ATOM     14  C   UNL     1       1.069   0.295   2.408  1.00  0.00     0.014 C 
ENDBRANCH  11  12
BRANCH  11  15
ATOM     15  N   UNL     1      -1.446  -1.213  -0.122  1.00  0.00    -0.347 N 
ATOM     16  H   UNL     1      -1.052  -2.146  -0.242  1.00  0.00     0.345 HD
ATOM     17  H   UNL     1      -1.184  -0.629  -0.916  1.00  0.00     0.345 HD
ATOM     18  H   UNL     1      -2.463  -1.277  -0.069  1.00  0.00     0.345 HD
ENDBRANCH  11  15
ENDBRANCH   8  11
ENDBRANCH   6   7
BRANCH   6  19
ATOM     19  C   UNL     1       1.218  -4.088   2.063  1.00  0.00     0.070 C 
BRANCH  19  20
ATOM     20  C   UNL     1       1.270  -5.058   3.220  1.00  0.00    -0.045 A 
ATOM     21  C   UNL     1       1.117  -4.614   4.542  1.00  0.00     0.004 A 
ATOM     22  C   UNL     1       1.433  -6.432   2.980  1.00  0.00     0.004 A 
ATOM     23  C   UNL     1       1.059  -5.533   5.593  1.00  0.00     0.000 A 
ATOM     24  C   UNL     1       1.386  -7.346   4.034  1.00  0.00     0.000 A 
ATOM     25  C   UNL     1       1.182  -6.898   5.338  1.00  0.00     0.000 A 
ENDBRANCH  19  20
ENDBRANCH   6  19
ENDBRANCH   3   6
ENDBRANCH   1   2
BRANCH   1  26
ATOM     26  C   UNL     1      -3.225  -5.910   3.845  1.00  0.00     0.042 C 
BRANCH  26  27
ATOM     27  C   UNL     1      -3.906  -7.207   3.441  1.00  0.00     0.118 C 
BRANCH  27  28
ATOM     28  N   UNL     1      -3.163  -8.399   3.848  1.00  0.00    -0.352 N 
ATOM     29  C   UNL     1      -3.448  -9.357   4.790  1.00  0.00     0.251 C 
ATOM     30  H   UNL     1      -2.317  -8.538   3.365  1.00  0.00     0.163 HD
ATOM     31  O   UNL     1      -2.598 -10.187   5.100  1.00  0.00    -0.269 OA
BRANCH  29  32
ATOM     32  C   UNL     1      -4.767  -9.371   5.453  1.00  0.00     0.039 A 
ATOM     33  C   UNL     1      -4.843  -9.619   6.826  1.00  0.00     0.014 A 
ATOM     34  C   UNL     1      -5.927  -9.111   4.725  1.00  0.00     0.014 A 
ATOM     35  C   UNL     1      -6.072  -9.504   7.480  1.00  0.00     0.010 A 
ATOM     36  C   UNL     1      -7.119  -8.872   5.393  1.00  0.00     0.010 A 
ATOM     37  C   UNL     1      -7.208  -9.073   6.778  1.00  0.00    -0.014 A 
BRANCH  37  38
ATOM     38  C   UNL     1      -8.508  -8.832   7.452  1.00  0.00     0.031 A 
ATOM     39  C   UNL     1      -9.734  -9.582   7.001  1.00  0.00     0.074 A 
ATOM     40  C   UNL     1      -8.610  -7.866   8.387  1.00  0.00     0.049 A 
ATOM     41  N   UNL     1     -10.981  -9.420   7.364  1.00  0.00    -0.248 NA
ATOM     42  C   UNL     1      -9.542 -10.620   5.972  1.00  0.00     0.031 C 
ATOM     43  C   UNL     1      -7.513  -7.016   8.860  1.00  0.00     0.029 A 
ATOM     44  N   UNL     1      -9.698  -7.423   9.096  1.00  0.00    -0.354 N 
ATOM     45  C   UNL     1     -11.719 -10.294   6.575  1.00  0.00     0.074 A 
ATOM     46  C   UNL     1     -10.791 -10.954   5.685  1.00  0.00     0.031 C 
ATOM     47  C   UNL     1      -7.980  -6.174   9.797  1.00  0.00     0.029 A 
ATOM     48  C   UNL     1      -9.412  -6.395   9.962  1.00  0.00     0.049 A 
ATOM     49  H   UNL     1     -10.600  -7.806   8.994  1.00  0.00     0.167 HD
ATOM     50  C   UNL     1     -13.048 -10.543   6.603  1.00  0.00     0.031 A 
ATOM     51  C   UNL     1     -10.216  -5.701  10.790  1.00  0.00     0.031 A 
ATOM     52  C   UNL     1     -13.960  -9.937   7.533  1.00  0.00     0.049 A 
ATOM     53  C   UNL     1     -11.678  -6.045  10.846  1.00  0.00     0.074 A 
ATOM     54  C   UNL     1     -15.305 -10.203   7.716  1.00  0.00     0.029 A 
ATOM     55  N   UNL     1     -13.614  -8.951   8.442  1.00  0.00    -0.354 N 
ATOM     56  N   UNL     1     -12.342  -6.942  10.158  1.00  0.00    -0.248 NA
ATOM     57  C   UNL     1     -12.499  -5.291  11.805  1.00  0.00     0.031 C 
ATOM     58  C   UNL     1     -15.784  -9.348   8.713  1.00  0.00     0.029 A 
ATOM     59  C   UNL     1     -14.726  -8.584   9.179  1.00  0.00     0.049 A 
ATOM     60  H   UNL     1     -12.713  -8.569   8.549  1.00  0.00     0.167 HD
ATOM     61  C   UNL     1     -13.650  -6.878  10.619  1.00  0.00     0.074 A 
ATOM     62  C   UNL     1     -13.682  -5.869  11.657  1.00  0.00     0.031 C 
ATOM     63  C   UNL     1     -14.731  -7.588  10.216  1.00  0.00     0.031 A 
BRANCH  50  64
ATOM     64  C   UNL     1     -13.598 -11.524   5.607  1.00  0.00    -0.014 A 
ATOM     65  C   UNL     1     -13.342 -12.899   5.720  1.00  0.00     0.009 A 
ATOM     66  C   UNL     1     -14.429 -11.069   4.571  1.00  0.00     0.009 A 
ATOM     67  C   UNL     1     -13.884 -13.797   4.797  1.00  0.00     0.001 A 
ATOM     68  C   UNL     1     -14.991 -11.972   3.667  1.00  0.00     0.001 A 
ATOM     69  C   UNL     1     -14.713 -13.333   3.776  1.00  0.00     0.000 A 
ENDBRANCH  50  64
BRANCH  51  70
ATOM     70  C   UNL     1      -9.662  -4.619  11.645  1.00  0.00    -0.014 A 
ATOM     71  C   UNL     1      -9.563  -4.791  13.035  1.00  0.00     0.009 A 
ATOM     72  C   UNL     1      -9.256  -3.399  11.082  1.00  0.00     0.009 A 
ATOM     73  C   UNL     1      -9.104  -3.751  13.847  1.00  0.00     0.001 A 
ATOM     74  C   UNL     1      -8.770  -2.371  11.894  1.00  0.00     0.001 A 
ATOM     75  C   UNL     1      -8.707  -2.543  13.276  1.00  0.00     0.000 A 
ENDBRANCH  51  70
BRANCH  63  76
ATOM     76  C   UNL     1     -16.026  -7.328  10.928  1.00  0.00    -0.014 A 
ATOM     77  C   UNL     1     -16.760  -6.155  10.695  1.00  0.00     0.009 A 
ATOM     78  C   UNL     1     -16.540  -8.295  11.806  1.00  0.00     0.009 A 
ATOM     79  C   UNL     1     -17.972  -5.942  11.355  1.00  0.00     0.001 A 
ATOM     80  C   UNL     1     -17.765  -8.091  12.442  1.00  0.00     0.001 A 
ATOM     81  C   UNL     1     -18.475  -6.912  12.223  1.00  0.00     0.000 A 
ENDBRANCH  63  76
ENDBRANCH  37  38
ENDBRANCH  29  32
ENDBRANCH  27  28
ENDBRANCH  26  27
ENDBRANCH   1  26
TORSDOF 16
