REMARK SMILES Cc1ccc(NC(=O)NC2CCCC2)cc1/C=C/C(=O)NCCCNC(=O)c1ccc(-c2c3nc(c(-c4ccccc4)c4ccc([nH]4)c(-c4ccccc4)c4nc(c(-c5ccccc5)c5ccc2[nH]5)C=C4)C=C3)cc1
REMARK SMILES IDX 22 1 21 2 19 3 20 4 18 6 17 7 16 8 1 9 2 10 3 11 4 12 15 13
REMARK SMILES IDX 5 14 6 15 7 16 8 18 9 19 10 21 11 22 14 23 12 24 13 25 23 26
REMARK SMILES IDX 24 27 25 28 26 29 27 31 28 32 29 33 75 34 30 35 74 36 31 37
REMARK SMILES IDX 32 38 33 39 68 40 34 41 73 42 67 43 69 44 35 45 72 46 66 47
REMARK SMILES IDX 65 48 36 50 58 51 43 52 57 53 44 54 47 55 56 56 70 57 45 58
REMARK SMILES IDX 46 59 55 61 71 62 48 63 37 64 38 65 42 66 39 67 41 68 40 69
REMARK SMILES IDX 59 70 60 71 64 72 61 73 63 74 62 75 49 76 50 77 54 78 51 79
REMARK SMILES IDX 53 80 52 81
REMARK H PARENT 21 5 6 17 9 20 25 30 69 49 47 60
REMARK Flexibility Score: inf
ROOT
ATOM      1  C   UNL     1       3.529   3.860   0.238  1.00  0.00     0.118 C 
ENDROOT
BRANCH   1   2
ATOM      2  N   UNL     1       2.626   4.919  -0.190  1.00  0.00    -0.352 N 
ATOM      3  C   UNL     1       1.261   4.930  -0.209  1.00  0.00     0.244 C 
ATOM      4  O   UNL     1       0.649   5.952  -0.515  1.00  0.00    -0.270 OA
ATOM      5  H   UNL     1       3.060   5.743  -0.509  1.00  0.00     0.163 HD
BRANCH   3   6
ATOM      6  C   UNL     1       0.521   3.738   0.256  1.00  0.00     0.072 C 
ATOM      7  C   UNL     1       0.666   2.520  -0.286  1.00  0.00     0.014 C 
BRANCH   7   8
ATOM      8  C   UNL     1       0.029   1.348   0.320  1.00  0.00    -0.020 A 
ATOM      9  C   UNL     1       2.283   0.186   0.652  1.00  0.00     0.045 C 
ATOM     10  C   UNL     1       0.803   0.311   0.882  1.00  0.00    -0.044 A 
ATOM     11  C   UNL     1       0.161  -0.699   1.605  1.00  0.00     0.006 A 
ATOM     12  C   UNL     1      -1.226  -0.790   1.597  1.00  0.00     0.026 A 
ATOM     13  C   UNL     1      -1.367   1.231   0.296  1.00  0.00     0.034 A 
ATOM     14  C   UNL     1      -1.967   0.080   0.806  1.00  0.00     0.043 A 
BRANCH  14  15
ATOM     15  N   UNL     1      -3.283  -0.206   0.433  1.00  0.00    -0.308 N 
ATOM     16  C   UNL     1      -3.880  -1.375   0.097  1.00  0.00     0.319 C 
ATOM     17  H   UNL     1      -3.879   0.578   0.411  1.00  0.00     0.171 HD
ATOM     18  O   UNL     1      -5.112  -1.435   0.112  1.00  0.00    -0.248 OA
ATOM     19  N   UNL     1      -3.208  -2.447  -0.384  1.00  0.00    -0.335 N 
ATOM     20  H   UNL     1      -3.779  -3.237  -0.521  1.00  0.00     0.165 HD
BRANCH  19  21
ATOM     21  C   UNL     1      -1.819  -2.672  -0.740  1.00  0.00     0.083 C 
ATOM     22  C   UNL     1      -1.510  -4.076  -1.259  1.00  0.00     0.025 C 
ATOM     23  C   UNL     1      -1.276  -1.820  -1.883  1.00  0.00     0.025 C 
ATOM     24  C   UNL     1      -0.066  -3.929  -1.742  1.00  0.00     0.002 C 
ATOM     25  C   UNL     1       0.069  -2.472  -2.197  1.00  0.00     0.002 C 
ENDBRANCH  19  21
ENDBRANCH  14  15
ENDBRANCH   7   8
ENDBRANCH   3   6
ENDBRANCH   1   2
BRANCH   1  26
ATOM     26  C   UNL     1       4.013   3.022  -0.944  1.00  0.00     0.042 C 
BRANCH  26  27
ATOM     27  C   UNL     1       5.292   3.560  -1.559  1.00  0.00     0.118 C 
BRANCH  27  28
ATOM     28  N   UNL     1       6.509   2.868  -1.135  1.00  0.00    -0.352 N 
ATOM     29  C   UNL     1       7.829   3.166  -1.439  1.00  0.00     0.251 C 
ATOM     30  H   UNL     1       6.373   2.084  -0.554  1.00  0.00     0.163 HD
ATOM     31  O   UNL     1       8.740   2.476  -0.995  1.00  0.00    -0.269 OA
BRANCH  29  32
ATOM     32  C   UNL     1       8.127   4.426  -2.162  1.00  0.00     0.039 A 
ATOM     33  C   UNL     1       8.990   5.319  -1.520  1.00  0.00     0.014 A 
ATOM     34  C   UNL     1       7.274   4.861  -3.168  1.00  0.00     0.014 A 
ATOM     35  C   UNL     1       8.730   6.679  -1.620  1.00  0.00     0.010 A 
ATOM     36  C   UNL     1       6.936   6.195  -3.184  1.00  0.00     0.010 A 
ATOM     37  C   UNL     1       7.606   7.082  -2.338  1.00  0.00    -0.014 A 
BRANCH  37  38
ATOM     38  C   UNL     1       7.057   8.422  -2.263  1.00  0.00     0.031 A 
ATOM     39  C   UNL     1       7.487   9.391  -3.277  1.00  0.00     0.074 A 
ATOM     40  C   UNL     1       6.212   8.795  -1.278  1.00  0.00     0.049 A 
ATOM     41  N   UNL     1       7.616  10.653  -3.060  1.00  0.00    -0.248 NA
ATOM     42  C   UNL     1       7.893   8.982  -4.616  1.00  0.00     0.031 C 
ATOM     43  C   UNL     1       5.467  10.046  -1.168  1.00  0.00     0.029 A 
ATOM     44  N   UNL     1       5.976   8.188  -0.064  1.00  0.00    -0.354 N 
ATOM     45  C   UNL     1       7.791  11.249  -4.284  1.00  0.00     0.074 A 
ATOM     46  C   UNL     1       8.091  10.169  -5.194  1.00  0.00     0.031 C 
ATOM     47  C   UNL     1       5.097  10.223   0.113  1.00  0.00     0.029 A 
ATOM     48  C   UNL     1       5.699   9.162   0.897  1.00  0.00     0.049 A 
ATOM     49  H   UNL     1       6.000   7.218   0.101  1.00  0.00     0.167 HD
ATOM     50  C   UNL     1       7.489  12.569  -4.422  1.00  0.00     0.031 A 
ATOM     51  C   UNL     1       6.511   9.346   1.983  1.00  0.00     0.031 A 
ATOM     52  C   UNL     1       7.099  13.166  -3.139  1.00  0.00     0.049 A 
ATOM     53  C   UNL     1       7.243  10.675   1.968  1.00  0.00     0.074 A 
ATOM     54  C   UNL     1       5.872  13.477  -2.574  1.00  0.00     0.029 A 
ATOM     55  N   UNL     1       8.017  13.192  -2.095  1.00  0.00    -0.354 N 
ATOM     56  N   UNL     1       7.205  11.529   0.983  1.00  0.00    -0.248 NA
ATOM     57  C   UNL     1       8.142  11.107   3.033  1.00  0.00     0.031 C 
ATOM     58  C   UNL     1       6.059  13.659  -1.174  1.00  0.00     0.029 A 
ATOM     59  C   UNL     1       7.403  13.498  -0.891  1.00  0.00     0.049 A 
ATOM     60  H   UNL     1       8.980  13.016  -2.199  1.00  0.00     0.167 HD
ATOM     61  C   UNL     1       8.049  12.582   1.232  1.00  0.00     0.074 A 
ATOM     62  C   UNL     1       8.617  12.261   2.533  1.00  0.00     0.031 C 
ATOM     63  C   UNL     1       8.212  13.600   0.328  1.00  0.00     0.031 A 
BRANCH  50  64
ATOM     64  C   UNL     1       7.240  13.209  -5.769  1.00  0.00    -0.014 A 
ATOM     65  C   UNL     1       6.388  14.322  -5.862  1.00  0.00     0.009 A 
ATOM     66  C   UNL     1       7.757  12.733  -6.989  1.00  0.00     0.009 A 
ATOM     67  C   UNL     1       5.998  14.860  -7.098  1.00  0.00     0.001 A 
ATOM     68  C   UNL     1       7.341  13.235  -8.229  1.00  0.00     0.001 A 
ATOM     69  C   UNL     1       6.451  14.297  -8.284  1.00  0.00     0.000 A 
ENDBRANCH  50  64
BRANCH  51  70
ATOM     70  C   UNL     1       7.062   8.056   2.496  1.00  0.00    -0.014 A 
ATOM     71  C   UNL     1       6.120   7.132   2.995  1.00  0.00     0.009 A 
ATOM     72  C   UNL     1       8.288   7.578   2.018  1.00  0.00     0.009 A 
ATOM     73  C   UNL     1       6.291   5.764   2.775  1.00  0.00     0.001 A 
ATOM     74  C   UNL     1       8.467   6.202   1.837  1.00  0.00     0.001 A 
ATOM     75  C   UNL     1       7.441   5.306   2.142  1.00  0.00     0.000 A 
ENDBRANCH  51  70
BRANCH  63  76
ATOM     76  C   UNL     1       9.134  14.805   0.452  1.00  0.00    -0.014 A 
ATOM     77  C   UNL     1       9.840  15.178   1.599  1.00  0.00     0.009 A 
ATOM     78  C   UNL     1       9.290  15.666  -0.663  1.00  0.00     0.009 A 
ATOM     79  C   UNL     1      10.707  16.283   1.612  1.00  0.00     0.001 A 
ATOM     80  C   UNL     1      10.149  16.769  -0.661  1.00  0.00     0.001 A 
ATOM     81  C   UNL     1      10.872  17.070   0.479  1.00  0.00     0.000 A 
ENDBRANCH  63  76
ENDBRANCH  37  38
ENDBRANCH  29  32
ENDBRANCH  27  28
ENDBRANCH  26  27
ENDBRANCH   1  26
TORSDOF 13
