REMARK SMILES COc1ccc(NS(=O)(=O)c2ccc(Cl)c(C(=O)NCCCNC(=O)c3ccc(-c4c5nc(c(-c6ccccc6)c6ccc([nH]6)c(-c6ccccc6)c6nc(c(-c7ccccc7)c7ccc4[nH]7)C=C6)C=C5)cc3)c2)cc1Cl
REMARK SMILES IDX 20 1 19 2 17 3 18 4 16 6 11 7 12 8 74 9 13 10 14 11 15 12
REMARK SMILES IDX 8 13 9 14 10 15 7 16 6 18 3 19 4 20 76 21 5 22 75 23 77 24
REMARK SMILES IDX 2 25 1 26 21 27 22 28 23 29 24 30 25 32 26 33 27 34 73 35
REMARK SMILES IDX 28 36 72 37 29 38 30 39 31 40 66 41 32 42 71 43 65 44 67 45
REMARK SMILES IDX 33 46 70 47 64 48 63 49 34 51 56 52 41 53 55 54 42 55 45 56
REMARK SMILES IDX 54 57 68 58 43 59 44 60 53 62 69 63 46 64 35 65 36 66 40 67
REMARK SMILES IDX 37 68 39 69 38 70 57 71 58 72 62 73 59 74 61 75 60 76 47 77
REMARK SMILES IDX 48 78 52 79 49 80 51 81 50 82
REMARK H PARENT 19 5 7 17 23 31 67 50 45 61
REMARK Flexibility Score: inf
ROOT
ATOM      1  C   UNL     1      -6.402  -4.045   4.949  1.00  0.00     0.118 C 
ENDROOT
BRANCH   1   2
ATOM      2  N   UNL     1      -5.762  -5.201   4.357  1.00  0.00    -0.352 N 
ATOM      3  C   UNL     1      -4.481  -5.526   4.014  1.00  0.00     0.252 C 
ATOM      4  O   UNL     1      -4.376  -6.541   3.317  1.00  0.00    -0.269 OA
ATOM      5  H   UNL     1      -6.400  -5.923   4.154  1.00  0.00     0.163 HD
BRANCH   3   6
ATOM      6  C   UNL     1      -3.220  -4.868   4.478  1.00  0.00     0.059 A 
ATOM      7  C   UNL     1      -0.832  -5.337   4.860  1.00  0.00     0.088 A 
ATOM      8  C   UNL     1      -0.611  -4.038   5.292  1.00  0.00     0.024 A 
ATOM      9  C   UNL     1      -2.130  -5.765   4.546  1.00  0.00     0.037 A 
ATOM     10  C   UNL     1      -1.665  -3.130   5.204  1.00  0.00     0.023 A 
ATOM     11  C   UNL     1      -2.934  -3.519   4.719  1.00  0.00     0.053 A 
ATOM     12  Cl  UNL     1      -3.920  -2.195   4.224  1.00  0.00    -0.083 Cl
BRANCH   7  13
ATOM     13  S   UNL     1       0.523  -6.403   4.407  1.00  0.00     0.261 S 
ATOM     14  O   UNL     1       0.016  -7.387   3.477  1.00  0.00    -0.201 OA
ATOM     15  O   UNL     1       1.172  -6.793   5.639  1.00  0.00    -0.201 OA
BRANCH  13  16
ATOM     16  N   UNL     1       1.654  -5.477   3.571  1.00  0.00    -0.280 N 
ATOM     17  H   UNL     1       2.594  -5.765   3.627  1.00  0.00     0.180 HD
BRANCH  16  18
ATOM     18  C   UNL     1       1.382  -4.313   2.789  1.00  0.00     0.051 A 
ATOM     19  C   UNL     1       0.949  -1.805   1.618  1.00  0.00     0.137 A 
ATOM     20  C   UNL     1      -0.067  -2.764   1.625  1.00  0.00     0.050 A 
ATOM     21  C   UNL     1       2.212  -2.133   2.110  1.00  0.00     0.085 A 
ATOM     22  C   UNL     1       0.168  -4.039   2.160  1.00  0.00     0.030 A 
ATOM     23  C   UNL     1       2.428  -3.390   2.678  1.00  0.00     0.051 A 
ATOM     24  Cl  UNL     1       3.517  -1.005   2.109  1.00  0.00    -0.080 Cl
BRANCH  19  25
ATOM     25  O   UNL     1       0.618  -0.525   1.261  1.00  0.00    -0.495 OA
ATOM     26  C   UNL     1       0.906  -0.271  -0.112  1.00  0.00     0.278 C 
ENDBRANCH  19  25
ENDBRANCH  16  18
ENDBRANCH  13  16
ENDBRANCH   7  13
ENDBRANCH   3   6
ENDBRANCH   1   2
BRANCH   1  27
ATOM     27  C   UNL     1      -6.978  -3.158   3.838  1.00  0.00     0.042 C 
BRANCH  27  28
ATOM     28  C   UNL     1      -8.333  -3.640   3.322  1.00  0.00     0.118 C 
BRANCH  28  29
ATOM     29  N   UNL     1      -9.410  -3.262   4.226  1.00  0.00    -0.352 N 
ATOM     30  C   UNL     1     -10.456  -2.396   4.027  1.00  0.00     0.251 C 
ATOM     31  H   UNL     1      -9.384  -3.693   5.111  1.00  0.00     0.163 HD
ATOM     32  O   UNL     1     -11.106  -1.998   4.991  1.00  0.00    -0.269 OA
BRANCH  30  33
ATOM     33  C   UNL     1     -10.809  -1.931   2.667  1.00  0.00     0.039 A 
ATOM     34  C   UNL     1     -11.161  -0.590   2.479  1.00  0.00     0.014 A 
ATOM     35  C   UNL     1     -10.853  -2.820   1.589  1.00  0.00     0.014 A 
ATOM     36  C   UNL     1     -11.501  -0.128   1.204  1.00  0.00     0.010 A 
ATOM     37  C   UNL     1     -11.137  -2.347   0.308  1.00  0.00     0.010 A 
ATOM     38  C   UNL     1     -11.464  -0.998   0.103  1.00  0.00    -0.014 A 
BRANCH  38  39
ATOM     39  C   UNL     1     -11.753  -0.523  -1.274  1.00  0.00     0.031 A 
ATOM     40  C   UNL     1     -12.953  -1.040  -2.018  1.00  0.00     0.074 A 
ATOM     41  C   UNL     1     -10.889   0.309  -1.887  1.00  0.00     0.049 A 
ATOM     42  N   UNL     1     -13.298  -0.845  -3.266  1.00  0.00    -0.248 NA
ATOM     43  C   UNL     1     -13.872  -1.909  -1.267  1.00  0.00     0.031 C 
ATOM     44  C   UNL     1      -9.675   0.865  -1.287  1.00  0.00     0.029 A 
ATOM     45  N   UNL     1     -10.892   0.816  -3.163  1.00  0.00    -0.354 N 
ATOM     46  C   UNL     1     -14.456  -1.589  -3.457  1.00  0.00     0.074 A 
ATOM     47  C   UNL     1     -14.738  -2.261  -2.207  1.00  0.00     0.031 C 
ATOM     48  C   UNL     1      -9.057   1.646  -2.188  1.00  0.00     0.029 A 
ATOM     49  C   UNL     1      -9.806   1.610  -3.441  1.00  0.00     0.049 A 
ATOM     50  H   UNL     1     -11.604   0.629  -3.816  1.00  0.00     0.167 HD
ATOM     51  C   UNL     1     -15.221  -1.695  -4.570  1.00  0.00     0.031 A 
ATOM     52  C   UNL     1      -9.441   2.226  -4.581  1.00  0.00     0.031 A 
ATOM     53  C   UNL     1     -14.954  -1.013  -5.808  1.00  0.00     0.049 A 
ATOM     54  C   UNL     1     -10.298   2.080  -5.806  1.00  0.00     0.074 A 
ATOM     55  C   UNL     1     -15.706  -1.009  -6.970  1.00  0.00     0.029 A 
ATOM     56  N   UNL     1     -13.848  -0.211  -6.043  1.00  0.00    -0.354 N 
ATOM     57  N   UNL     1     -11.414   1.410  -5.956  1.00  0.00    -0.248 NA
ATOM     58  C   UNL     1      -9.843   2.776  -7.018  1.00  0.00     0.031 C 
ATOM     59  C   UNL     1     -15.033  -0.237  -7.923  1.00  0.00     0.029 A 
ATOM     60  C   UNL     1     -13.885   0.274  -7.339  1.00  0.00     0.049 A 
ATOM     61  H   UNL     1     -13.142  -0.016  -5.386  1.00  0.00     0.167 HD
ATOM     62  C   UNL     1     -11.806   1.619  -7.271  1.00  0.00     0.074 A 
ATOM     63  C   UNL     1     -10.815   2.488  -7.873  1.00  0.00     0.031 C 
ATOM     64  C   UNL     1     -12.890   1.135  -7.922  1.00  0.00     0.031 A 
BRANCH  51  65
ATOM     65  C   UNL     1     -16.421  -2.597  -4.500  1.00  0.00    -0.014 A 
ATOM     66  C   UNL     1     -17.562  -2.233  -3.768  1.00  0.00     0.009 A 
ATOM     67  C   UNL     1     -16.422  -3.812  -5.202  1.00  0.00     0.009 A 
ATOM     68  C   UNL     1     -18.668  -3.085  -3.713  1.00  0.00     0.001 A 
ATOM     69  C   UNL     1     -17.538  -4.651  -5.165  1.00  0.00     0.001 A 
ATOM     70  C   UNL     1     -18.656  -4.290  -4.413  1.00  0.00     0.000 A 
ENDBRANCH  51  65
BRANCH  52  71
ATOM     71  C   UNL     1      -8.200   3.040  -4.618  1.00  0.00    -0.014 A 
ATOM     72  C   UNL     1      -8.273   4.440  -4.662  1.00  0.00     0.009 A 
ATOM     73  C   UNL     1      -6.939   2.424  -4.606  1.00  0.00     0.009 A 
ATOM     74  C   UNL     1      -7.108   5.208  -4.711  1.00  0.00     0.001 A 
ATOM     75  C   UNL     1      -5.775   3.195  -4.631  1.00  0.00     0.001 A 
ATOM     76  C   UNL     1      -5.860   4.585  -4.691  1.00  0.00     0.000 A 
ENDBRANCH  52  71
BRANCH  64  77
ATOM     77  C   UNL     1     -13.075   1.553  -9.351  1.00  0.00    -0.014 A 
ATOM     78  C   UNL     1     -12.300   0.989 -10.376  1.00  0.00     0.009 A 
ATOM     79  C   UNL     1     -14.068   2.488  -9.680  1.00  0.00     0.009 A 
ATOM     80  C   UNL     1     -12.501   1.373 -11.703  1.00  0.00     0.001 A 
ATOM     81  C   UNL     1     -14.282   2.853 -11.010  1.00  0.00     0.001 A 
ATOM     82  C   UNL     1     -13.495   2.300 -12.019  1.00  0.00     0.000 A 
ENDBRANCH  64  77
ENDBRANCH  38  39
ENDBRANCH  30  33
ENDBRANCH  28  29
ENDBRANCH  27  28
ENDBRANCH   1  27
TORSDOF 14
