REMARK SMILES C=CCOC(=O)N[C@@H](Cc1ccccc1)C(=O)NCCCNC(=O)c1ccc(-c2c3nc(c(-c4ccccc4)c4ccc([nH]4)c(-c4ccccc4)c4nc(c(-c5ccccc5)c5ccc2[nH]5)C=C4)C=C3)cc1
REMARK SMILES IDX 19 1 18 2 16 3 17 4 8 6 7 7 5 8 6 9 4 11 3 12 2 13 1 14 9 15
REMARK SMILES IDX 10 16 11 17 15 18 12 19 14 20 13 21 20 22 21 23 22 24 23 25
REMARK SMILES IDX 24 27 25 28 26 29 72 30 27 31 71 32 28 33 29 34 30 35 65 36
REMARK SMILES IDX 31 37 70 38 64 39 66 40 32 41 69 42 63 43 62 44 33 46 55 47
REMARK SMILES IDX 40 48 54 49 41 50 44 51 53 52 67 53 42 54 43 55 52 57 68 58
REMARK SMILES IDX 45 59 34 60 35 61 39 62 36 63 38 64 37 65 56 66 57 67 61 68
REMARK SMILES IDX 58 69 60 70 59 71 46 72 47 73 51 74 48 75 50 76 49 77
REMARK H PARENT 18 5 7 10 22 26 66 45 44 56
REMARK Flexibility Score: inf
ROOT
ATOM      1  C   UNL     1      -1.254   3.623  -5.961  1.00  0.00     0.117 C 
ENDROOT
BRANCH   1   2
ATOM      2  N   UNL     1      -1.085   2.196  -6.105  1.00  0.00    -0.354 N 
ATOM      3  C   UNL     1      -1.976   1.233  -5.713  1.00  0.00     0.243 C 
ATOM      4  O   UNL     1      -2.042   0.218  -6.416  1.00  0.00    -0.273 OA
ATOM      5  H   UNL     1      -0.251   1.887  -6.525  1.00  0.00     0.163 HD
BRANCH   3   6
ATOM      6  C   UNL     1      -2.954   1.435  -4.530  1.00  0.00     0.179 C 
BRANCH   6   7
ATOM      7  N   UNL     1      -2.372   2.152  -3.395  1.00  0.00    -0.309 N 
ATOM      8  C   UNL     1      -1.689   1.604  -2.352  1.00  0.00     0.408 C 
ATOM      9  O   UNL     1      -1.255   2.311  -1.448  1.00  0.00    -0.225 OA
ATOM     10  H   UNL     1      -2.486   3.130  -3.384  1.00  0.00     0.167 HD
BRANCH   8  11
ATOM     11  O   UNL     1      -1.609   0.254  -2.406  1.00  0.00    -0.445 OA
BRANCH  11  12
ATOM     12  C   UNL     1      -1.191  -0.386  -1.195  1.00  0.00     0.262 C 
BRANCH  12  13
ATOM     13  C   UNL     1       0.300  -0.525  -1.149  1.00  0.00     0.006 C 
ATOM     14  C   UNL     1       1.063  -0.028  -0.167  1.00  0.00     0.007 C 
ENDBRANCH  12  13
ENDBRANCH  11  12
ENDBRANCH   8  11
ENDBRANCH   6   7
BRANCH   6  15
ATOM     15  C   UNL     1      -4.358   1.946  -4.938  1.00  0.00     0.070 C 
BRANCH  15  16
ATOM     16  C   UNL     1      -4.520   3.413  -5.278  1.00  0.00    -0.045 A 
ATOM     17  C   UNL     1      -4.302   3.873  -6.584  1.00  0.00     0.004 A 
ATOM     18  C   UNL     1      -4.882   4.345  -4.294  1.00  0.00     0.004 A 
ATOM     19  C   UNL     1      -4.319   5.241  -6.872  1.00  0.00     0.000 A 
ATOM     20  C   UNL     1      -4.946   5.709  -4.594  1.00  0.00     0.000 A 
ATOM     21  C   UNL     1      -4.633   6.160  -5.874  1.00  0.00     0.000 A 
ENDBRANCH  15  16
ENDBRANCH   6  15
ENDBRANCH   3   6
ENDBRANCH   1   2
BRANCH   1  22
ATOM     22  C   UNL     1       0.018   4.436  -5.959  1.00  0.00     0.042 C 
BRANCH  22  23
ATOM     23  C   UNL     1       0.533   4.726  -7.362  1.00  0.00     0.118 C 
BRANCH  23  24
ATOM     24  N   UNL     1      -0.409   5.486  -8.192  1.00  0.00    -0.352 N 
ATOM     25  C   UNL     1      -0.334   6.754  -8.720  1.00  0.00     0.251 C 
ATOM     26  H   UNL     1      -1.239   5.005  -8.410  1.00  0.00     0.163 HD
ATOM     27  O   UNL     1      -1.318   7.259  -9.252  1.00  0.00    -0.269 OA
BRANCH  25  28
ATOM     28  C   UNL     1       0.927   7.514  -8.619  1.00  0.00     0.039 A 
ATOM     29  C   UNL     1       0.897   8.874  -8.302  1.00  0.00     0.014 A 
ATOM     30  C   UNL     1       2.145   6.861  -8.791  1.00  0.00     0.014 A 
ATOM     31  C   UNL     1       2.095   9.543  -8.043  1.00  0.00     0.010 A 
ATOM     32  C   UNL     1       3.314   7.484  -8.391  1.00  0.00     0.010 A 
ATOM     33  C   UNL     1       3.308   8.835  -8.022  1.00  0.00    -0.014 A 
BRANCH  33  34
ATOM     34  C   UNL     1       4.593   9.469  -7.635  1.00  0.00     0.031 A 
ATOM     35  C   UNL     1       5.756   9.432  -8.592  1.00  0.00     0.074 A 
ATOM     36  C   UNL     1       4.747   9.977  -6.396  1.00  0.00     0.049 A 
ATOM     37  N   UNL     1       6.997   9.798  -8.399  1.00  0.00    -0.248 NA
ATOM     38  C   UNL     1       5.501   8.867  -9.930  1.00  0.00     0.031 C 
ATOM     39  C   UNL     1       3.716  10.020  -5.355  1.00  0.00     0.029 A 
ATOM     40  N   UNL     1       5.842  10.546  -5.796  1.00  0.00    -0.354 N 
ATOM     41  C   UNL     1       7.669   9.478  -9.573  1.00  0.00     0.074 A 
ATOM     42  C   UNL     1       6.720   8.824 -10.444  1.00  0.00     0.031 C 
ATOM     43  C   UNL     1       4.216  10.620  -4.263  1.00  0.00     0.029 A 
ATOM     44  C   UNL     1       5.614  10.955  -4.503  1.00  0.00     0.049 A 
ATOM     45  H   UNL     1       6.710  10.653  -6.249  1.00  0.00     0.167 HD
ATOM     46  C   UNL     1       8.953   9.734  -9.912  1.00  0.00     0.031 A 
ATOM     47  C   UNL     1       6.444  11.528  -3.611  1.00  0.00     0.031 A 
ATOM     48  C   UNL     1       9.886  10.414  -9.057  1.00  0.00     0.049 A 
ATOM     49  C   UNL     1       7.868  11.800  -4.013  1.00  0.00     0.074 A 
ATOM     50  C   UNL     1      11.193  10.780  -9.326  1.00  0.00     0.029 A 
ATOM     51  N   UNL     1       9.605  10.838  -7.768  1.00  0.00    -0.354 N 
ATOM     52  N   UNL     1       8.468  11.554  -5.153  1.00  0.00    -0.248 NA
ATOM     53  C   UNL     1       8.726  12.442  -3.007  1.00  0.00     0.031 C 
ATOM     54  C   UNL     1      11.719  11.382  -8.180  1.00  0.00     0.029 A 
ATOM     55  C   UNL     1      10.721  11.447  -7.221  1.00  0.00     0.049 A 
ATOM     56  H   UNL     1       8.742  10.722  -7.310  1.00  0.00     0.167 HD
ATOM     57  C   UNL     1       9.760  12.043  -5.013  1.00  0.00     0.074 A 
ATOM     58  C   UNL     1       9.851  12.615  -3.686  1.00  0.00     0.031 C 
ATOM     59  C   UNL     1      10.783  12.020  -5.902  1.00  0.00     0.031 A 
BRANCH  46  60
ATOM     60  C   UNL     1       9.416   9.287 -11.271  1.00  0.00    -0.014 A 
ATOM     61  C   UNL     1       8.927   9.893 -12.441  1.00  0.00     0.009 A 
ATOM     62  C   UNL     1      10.381   8.275 -11.386  1.00  0.00     0.009 A 
ATOM     63  C   UNL     1       9.366   9.468 -13.696  1.00  0.00     0.001 A 
ATOM     64  C   UNL     1      10.843   7.875 -12.641  1.00  0.00     0.001 A 
ATOM     65  C   UNL     1      10.329   8.465 -13.795  1.00  0.00     0.000 A 
ENDBRANCH  46  60
BRANCH  47  66
ATOM     66  C   UNL     1       5.956  11.900  -2.255  1.00  0.00    -0.014 A 
ATOM     67  C   UNL     1       5.850  13.250  -1.884  1.00  0.00     0.009 A 
ATOM     68  C   UNL     1       5.624  10.914  -1.314  1.00  0.00     0.009 A 
ATOM     69  C   UNL     1       5.463  13.603  -0.589  1.00  0.00     0.001 A 
ATOM     70  C   UNL     1       5.204  11.269  -0.030  1.00  0.00     0.001 A 
ATOM     71  C   UNL     1       5.138  12.613   0.336  1.00  0.00     0.000 A 
ENDBRANCH  47  66
BRANCH  59  72
ATOM     72  C   UNL     1      12.068  12.680  -5.489  1.00  0.00    -0.014 A 
ATOM     73  C   UNL     1      12.902  12.113  -4.514  1.00  0.00     0.009 A 
ATOM     74  C   UNL     1      12.470  13.866  -6.124  1.00  0.00     0.009 A 
ATOM     75  C   UNL     1      14.096  12.742  -4.156  1.00  0.00     0.001 A 
ATOM     76  C   UNL     1      13.679  14.474  -5.789  1.00  0.00     0.001 A 
ATOM     77  C   UNL     1      14.486  13.917  -4.798  1.00  0.00     0.000 A 
ENDBRANCH  59  72
ENDBRANCH  33  34
ENDBRANCH  25  28
ENDBRANCH  23  24
ENDBRANCH  22  23
ENDBRANCH   1  22
TORSDOF 16
