REMARK SMILES CC[C@@](C)(NC(=O)Nc1c(C)cccc1Cl)C(=O)NCCCNC(=O)c1ccc(-c2c3nc(c(-c4ccccc4)c4ccc([nH]4)c(-c4ccccc4)c4nc(c(-c5ccccc5)c5ccc2[nH]5)C=C4)C=C3)cc1
REMARK SMILES IDX 21 1 20 2 19 3 17 4 18 5 3 7 4 8 2 9 1 10 5 11 6 12 7 14
REMARK SMILES IDX 8 15 9 17 10 18 15 19 11 20 12 21 14 22 16 23 13 24 22 25
REMARK SMILES IDX 23 26 24 27 25 29 26 30 27 31 73 32 28 33 72 34 29 35 30 36
REMARK SMILES IDX 31 37 66 38 32 39 71 40 65 41 67 42 33 43 70 44 64 45 63 46
REMARK SMILES IDX 34 48 56 49 41 50 55 51 42 52 45 53 54 54 68 55 43 56 44 57
REMARK SMILES IDX 53 59 69 60 46 61 35 62 36 63 40 64 37 65 39 66 38 67 57 68
REMARK SMILES IDX 58 69 62 70 59 71 61 72 60 73 47 74 48 75 52 76 49 77 51 78
REMARK SMILES IDX 50 79
REMARK H PARENT 19 6 5 13 8 16 23 28 67 47 45 58
REMARK Flexibility Score: inf
ROOT
ATOM      1  C   UNL     1       2.161  -5.748  -3.359  1.00  0.00     0.042 C 
ENDROOT
BRANCH   1   2
ATOM      2  C   UNL     1       1.292  -5.393  -2.131  1.00  0.00     0.117 C 
BRANCH   2   3
ATOM      3  N   UNL     1       1.754  -4.239  -1.375  1.00  0.00    -0.354 N 
ATOM      4  C   UNL     1       1.026  -3.203  -0.798  1.00  0.00     0.245 C 
ATOM      5  O   UNL     1       0.907  -3.106   0.421  1.00  0.00    -0.272 OA
ATOM      6  H   UNL     1       2.729  -4.182  -1.253  1.00  0.00     0.163 HD
BRANCH   4   7
ATOM      7  C   UNL     1       0.321  -2.239  -1.785  1.00  0.00     0.117 C 
ATOM      8  C   UNL     1      -1.137  -2.791  -1.709  1.00  0.00     0.045 C 
BRANCH   7   9
ATOM      9  C   UNL     1       0.211  -0.707  -1.554  1.00  0.00     0.035 C 
ATOM     10  C   UNL     1       0.440  -0.138  -0.174  1.00  0.00     0.007 C 
ENDBRANCH   7   9
BRANCH   7  11
ATOM     11  N   UNL     1       0.915  -2.409  -3.126  1.00  0.00    -0.324 N 
ATOM     12  C   UNL     1       2.180  -2.264  -3.590  1.00  0.00     0.320 C 
ATOM     13  H   UNL     1       0.267  -2.680  -3.816  1.00  0.00     0.166 HD
ATOM     14  O   UNL     1       2.320  -2.238  -4.816  1.00  0.00    -0.248 OA
ATOM     15  N   UNL     1       3.303  -2.476  -2.822  1.00  0.00    -0.306 N 
ATOM     16  H   UNL     1       3.782  -3.313  -3.020  1.00  0.00     0.171 HD
BRANCH  15  17
ATOM     17  C   UNL     1       3.893  -1.678  -1.778  1.00  0.00     0.064 A 
ATOM     18  C   UNL     1       4.158  -2.162  -0.465  1.00  0.00    -0.026 A 
ATOM     19  C   UNL     1       4.591  -0.509  -2.151  1.00  0.00     0.064 A 
ATOM     20  C   UNL     1       4.122  -3.595   0.021  1.00  0.00     0.046 C 
ATOM     21  C   UNL     1       4.712  -1.295   0.499  1.00  0.00     0.005 A 
ATOM     22  C   UNL     1       5.304   0.253  -1.217  1.00  0.00     0.023 A 
ATOM     23  Cl  UNL     1       4.772  -0.061  -3.817  1.00  0.00    -0.082 Cl
ATOM     24  C   UNL     1       5.297  -0.099   0.124  1.00  0.00     0.002 A 
ENDBRANCH  15  17
ENDBRANCH   7  11
ENDBRANCH   4   7
ENDBRANCH   2   3
ENDBRANCH   1   2
BRANCH   1  25
ATOM     25  C   UNL     1       3.688  -5.733  -3.244  1.00  0.00     0.118 C 
BRANCH  25  26
ATOM     26  N   UNL     1       4.249  -6.649  -2.272  1.00  0.00    -0.352 N 
ATOM     27  C   UNL     1       5.129  -7.687  -2.444  1.00  0.00     0.251 C 
ATOM     28  H   UNL     1       3.954  -6.503  -1.344  1.00  0.00     0.163 HD
ATOM     29  O   UNL     1       5.519  -8.330  -1.468  1.00  0.00    -0.269 OA
BRANCH  27  30
ATOM     30  C   UNL     1       5.553  -8.101  -3.797  1.00  0.00     0.039 A 
ATOM     31  C   UNL     1       5.328  -9.429  -4.168  1.00  0.00     0.014 A 
ATOM     32  C   UNL     1       6.143  -7.212  -4.700  1.00  0.00     0.014 A 
ATOM     33  C   UNL     1       5.601  -9.844  -5.472  1.00  0.00     0.010 A 
ATOM     34  C   UNL     1       6.358  -7.613  -6.021  1.00  0.00     0.010 A 
ATOM     35  C   UNL     1       6.063  -8.925  -6.428  1.00  0.00    -0.014 A 
BRANCH  35  36
ATOM     36  C   UNL     1       6.173  -9.308  -7.862  1.00  0.00     0.031 A 
ATOM     37  C   UNL     1       7.502  -9.312  -8.562  1.00  0.00     0.074 A 
ATOM     38  C   UNL     1       5.051  -9.588  -8.557  1.00  0.00     0.049 A 
ATOM     39  N   UNL     1       7.769  -9.546  -9.823  1.00  0.00    -0.248 NA
ATOM     40  C   UNL     1       8.683  -8.997  -7.744  1.00  0.00     0.031 C 
ATOM     41  C   UNL     1       3.693  -9.595  -8.007  1.00  0.00     0.029 A 
ATOM     42  N   UNL     1       4.872  -9.913  -9.880  1.00  0.00    -0.354 N 
ATOM     43  C   UNL     1       9.143  -9.389  -9.954  1.00  0.00     0.074 A 
ATOM     44  C   UNL     1       9.648  -9.002  -8.653  1.00  0.00     0.031 C 
ATOM     45  C   UNL     1       2.826  -9.928  -8.977  1.00  0.00     0.029 A 
ATOM     46  C   UNL     1       3.557 -10.108 -10.227  1.00  0.00     0.049 A 
ATOM     47  H   UNL     1       5.616  -9.997 -10.519  1.00  0.00     0.167 HD
ATOM     48  C   UNL     1       9.917  -9.564 -11.053  1.00  0.00     0.031 A 
ATOM     49  C   UNL     1       2.994 -10.383 -11.419  1.00  0.00     0.031 A 
ATOM     50  C   UNL     1       9.417  -9.947 -12.348  1.00  0.00     0.049 A 
ATOM     51  C   UNL     1       3.870 -10.527 -12.632  1.00  0.00     0.074 A 
ATOM     52  C   UNL     1      10.131 -10.197 -13.508  1.00  0.00     0.029 A 
ATOM     53  N   UNL     1       8.077 -10.124 -12.658  1.00  0.00    -0.354 N 
ATOM     54  N   UNL     1       5.175 -10.441 -12.723  1.00  0.00    -0.248 NA
ATOM     55  C   UNL     1       3.195 -10.810 -13.907  1.00  0.00     0.031 C 
ATOM     56  C   UNL     1       9.220 -10.465 -14.534  1.00  0.00     0.029 A 
ATOM     57  C   UNL     1       7.942 -10.447 -13.999  1.00  0.00     0.049 A 
ATOM     58  H   UNL     1       7.333 -10.034 -12.021  1.00  0.00     0.167 HD
ATOM     59  C   UNL     1       5.478 -10.687 -14.056  1.00  0.00     0.074 A 
ATOM     60  C   UNL     1       4.223 -10.942 -14.733  1.00  0.00     0.031 C 
ATOM     61  C   UNL     1       6.689 -10.699 -14.664  1.00  0.00     0.031 A 
BRANCH  48  62
ATOM     62  C   UNL     1      11.395  -9.324 -10.906  1.00  0.00    -0.014 A 
ATOM     63  C   UNL     1      12.205 -10.193 -10.157  1.00  0.00     0.009 A 
ATOM     64  C   UNL     1      11.995  -8.238 -11.563  1.00  0.00     0.009 A 
ATOM     65  C   UNL     1      13.576  -9.956 -10.036  1.00  0.00     0.001 A 
ATOM     66  C   UNL     1      13.371  -8.021 -11.466  1.00  0.00     0.001 A 
ATOM     67  C   UNL     1      14.158  -8.874 -10.694  1.00  0.00     0.000 A 
ENDBRANCH  48  62
BRANCH  49  68
ATOM     68  C   UNL     1       1.518 -10.535 -11.531  1.00  0.00    -0.014 A 
ATOM     69  C   UNL     1       0.950 -11.787 -11.812  1.00  0.00     0.009 A 
ATOM     70  C   UNL     1       0.670  -9.428 -11.371  1.00  0.00     0.009 A 
ATOM     71  C   UNL     1      -0.433 -11.921 -11.958  1.00  0.00     0.001 A 
ATOM     72  C   UNL     1      -0.715  -9.571 -11.486  1.00  0.00     0.001 A 
ATOM     73  C   UNL     1      -1.264 -10.815 -11.790  1.00  0.00     0.000 A 
ENDBRANCH  49  68
BRANCH  61  74
ATOM     74  C   UNL     1       6.724 -11.033 -16.130  1.00  0.00    -0.014 A 
ATOM     75  C   UNL     1       6.257 -10.129 -17.096  1.00  0.00     0.009 A 
ATOM     76  C   UNL     1       7.280 -12.251 -16.551  1.00  0.00     0.009 A 
ATOM     77  C   UNL     1       6.321 -10.452 -18.454  1.00  0.00     0.001 A 
ATOM     78  C   UNL     1       7.371 -12.558 -17.909  1.00  0.00     0.001 A 
ATOM     79  C   UNL     1       6.884 -11.662 -18.859  1.00  0.00     0.000 A 
ENDBRANCH  61  74
ENDBRANCH  35  36
ENDBRANCH  27  30
ENDBRANCH  25  26
ENDBRANCH   1  25
TORSDOF 13
