REMARK SMILES CCOc1cc(/C=C/C(=O)NCCCNC(=O)c2ccc(-c3c4nc(c(-c5ccccc5)c5ccc([nH]5)c(-c5ccccc5)c5nc(c(-c6ccccc6)c6ccc3[nH]6)C=C5)C=C4)cc2)c(Br)cc1OCC#N
REMARK SMILES IDX 12 1 11 2 9 3 10 4 8 6 7 7 6 8 4 9 5 10 69 11 68 12 66 13
REMARK SMILES IDX 67 14 3 15 2 16 1 17 70 18 71 19 72 20 73 21 13 22 14 23
REMARK SMILES IDX 15 24 16 25 17 27 18 28 19 29 65 30 20 31 64 32 21 33 22 34
REMARK SMILES IDX 23 35 58 36 24 37 63 38 57 39 59 40 25 41 62 42 56 43 55 44
REMARK SMILES IDX 26 46 48 47 33 48 47 49 34 50 37 51 46 52 60 53 35 54 36 55
REMARK SMILES IDX 45 57 61 58 38 59 27 60 28 61 32 62 29 63 31 64 30 65 49 66
REMARK SMILES IDX 50 67 54 68 51 69 53 70 52 71 39 72 40 73 44 74 41 75 43 76
REMARK SMILES IDX 42 77
REMARK H PARENT 11 5 15 26 59 45 37 56
REMARK Flexibility Score: inf
ROOT
ATOM      1  C   UNL     1       8.073   2.389  -0.529  1.00  0.00     0.118 C 
ENDROOT
BRANCH   1   2
ATOM      2  N   UNL     1       7.288   2.131  -1.723  1.00  0.00    -0.352 N 
ATOM      3  C   UNL     1       5.983   1.773  -1.837  1.00  0.00     0.244 C 
ATOM      4  O   UNL     1       5.463   1.666  -2.943  1.00  0.00    -0.270 OA
ATOM      5  H   UNL     1       7.773   2.229  -2.574  1.00  0.00     0.163 HD
BRANCH   3   6
ATOM      6  C   UNL     1       5.165   1.591  -0.623  1.00  0.00     0.072 C 
ATOM      7  C   UNL     1       5.507   0.767   0.380  1.00  0.00     0.015 C 
BRANCH   7   8
ATOM      8  C   UNL     1       4.644   0.513   1.541  1.00  0.00    -0.007 A 
ATOM      9  C   UNL     1       2.395  -0.053   2.318  1.00  0.00     0.161 A 
ATOM     10  C   UNL     1       3.289   0.265   1.297  1.00  0.00     0.059 A 
ATOM     11  C   UNL     1       2.850  -0.056   3.643  1.00  0.00     0.163 A 
ATOM     12  C   UNL     1       4.212   0.166   3.898  1.00  0.00     0.066 A 
ATOM     13  C   UNL     1       5.106   0.437   2.859  1.00  0.00     0.029 A 
ATOM     14  Br  UNL     1       6.925   0.737   3.321  1.00  0.00    -0.050 Br
BRANCH   9  15
ATOM     15  O   UNL     1       1.073  -0.242   2.032  1.00  0.00    -0.490 OA
BRANCH  15  16
ATOM     16  C   UNL     1       0.737  -1.090   0.930  1.00  0.00     0.226 C 
ATOM     17  C   UNL     1       0.555  -0.335  -0.380  1.00  0.00     0.049 C 
ENDBRANCH  15  16
ENDBRANCH   9  15
BRANCH  11  18
ATOM     18  O   UNL     1       2.131  -0.247   4.794  1.00  0.00    -0.475 OA
BRANCH  18  19
ATOM     19  C   UNL     1       0.702  -0.291   4.739  1.00  0.00     0.349 C 
BRANCH  19  20
ATOM     20  C   UNL     1       0.091   0.988   4.190  1.00  0.00     0.104 C 
ATOM     21  N   UNL     1      -0.415   2.050   3.734  1.00  0.00    -0.195 NA
ENDBRANCH  19  20
ENDBRANCH  18  19
ENDBRANCH  11  18
ENDBRANCH   7   8
ENDBRANCH   3   6
ENDBRANCH   1   2
BRANCH   1  22
ATOM     22  C   UNL     1       9.021   1.230  -0.232  1.00  0.00     0.042 C 
BRANCH  22  23
ATOM     23  C   UNL     1      10.166   1.129  -1.229  1.00  0.00     0.118 C 
BRANCH  23  24
ATOM     24  N   UNL     1      11.072   2.262  -1.122  1.00  0.00    -0.352 N 
ATOM     25  C   UNL     1      12.409   2.286  -0.819  1.00  0.00     0.251 C 
ATOM     26  H   UNL     1      10.665   3.142  -1.292  1.00  0.00     0.163 HD
ATOM     27  O   UNL     1      12.947   3.345  -0.518  1.00  0.00    -0.269 OA
BRANCH  25  28
ATOM     28  C   UNL     1      13.200   1.039  -0.855  1.00  0.00     0.039 A 
ATOM     29  C   UNL     1      14.168   0.827   0.130  1.00  0.00     0.014 A 
ATOM     30  C   UNL     1      13.025   0.105  -1.881  1.00  0.00     0.014 A 
ATOM     31  C   UNL     1      14.932  -0.340   0.109  1.00  0.00     0.010 A 
ATOM     32  C   UNL     1      13.733  -1.091  -1.858  1.00  0.00     0.010 A 
ATOM     33  C   UNL     1      14.704  -1.318  -0.872  1.00  0.00    -0.014 A 
BRANCH  33  34
ATOM     34  C   UNL     1      15.484  -2.578  -0.896  1.00  0.00     0.031 A 
ATOM     35  C   UNL     1      16.395  -2.877  -2.055  1.00  0.00     0.074 A 
ATOM     36  C   UNL     1      15.322  -3.478   0.093  1.00  0.00     0.049 A 
ATOM     37  N   UNL     1      17.103  -3.953  -2.291  1.00  0.00    -0.248 NA
ATOM     38  C   UNL     1      16.506  -1.845  -3.099  1.00  0.00     0.031 C 
ATOM     39  C   UNL     1      14.438  -3.318   1.249  1.00  0.00     0.029 A 
ATOM     40  N   UNL     1      15.892  -4.712   0.278  1.00  0.00    -0.354 N 
ATOM     41  C   UNL     1      17.722  -3.735  -3.516  1.00  0.00     0.074 A 
ATOM     42  C   UNL     1      17.274  -2.446  -3.995  1.00  0.00     0.031 C 
ATOM     43  C   UNL     1      14.541  -4.403   2.034  1.00  0.00     0.029 A 
ATOM     44  C   UNL     1      15.466  -5.349   1.418  1.00  0.00     0.049 A 
ATOM     45  H   UNL     1      16.544  -5.104  -0.347  1.00  0.00     0.167 HD
ATOM     46  C   UNL     1      18.599  -4.529  -4.174  1.00  0.00     0.031 A 
ATOM     47  C   UNL     1      15.779  -6.563   1.906  1.00  0.00     0.031 A 
ATOM     48  C   UNL     1      19.059  -5.801  -3.684  1.00  0.00     0.049 A 
ATOM     49  C   UNL     1      16.756  -7.424   1.156  1.00  0.00     0.074 A 
ATOM     50  C   UNL     1      19.993  -6.653  -4.246  1.00  0.00     0.029 A 
ATOM     51  N   UNL     1      18.619  -6.400  -2.515  1.00  0.00    -0.354 N 
ATOM     52  N   UNL     1      17.384  -7.173   0.033  1.00  0.00    -0.248 NA
ATOM     53  C   UNL     1      17.076  -8.730   1.748  1.00  0.00     0.031 C 
ATOM     54  C   UNL     1      20.084  -7.792  -3.439  1.00  0.00     0.029 A 
ATOM     55  C   UNL     1      19.247  -7.622  -2.348  1.00  0.00     0.049 A 
ATOM     56  H   UNL     1      17.959  -6.014  -1.895  1.00  0.00     0.167 HD
ATOM     57  C   UNL     1      18.195  -8.276  -0.200  1.00  0.00     0.074 A 
ATOM     58  C   UNL     1      17.991  -9.188   0.905  1.00  0.00     0.031 C 
ATOM     59  C   UNL     1      19.035  -8.512  -1.237  1.00  0.00     0.031 A 
BRANCH  46  60
ATOM     60  C   UNL     1      19.117  -4.048  -5.500  1.00  0.00    -0.014 A 
ATOM     61  C   UNL     1      20.020  -2.975  -5.583  1.00  0.00     0.009 A 
ATOM     62  C   UNL     1      18.738  -4.708  -6.679  1.00  0.00     0.009 A 
ATOM     63  C   UNL     1      20.508  -2.555  -6.822  1.00  0.00     0.001 A 
ATOM     64  C   UNL     1      19.249  -4.304  -7.914  1.00  0.00     0.001 A 
ATOM     65  C   UNL     1      20.127  -3.223  -7.985  1.00  0.00     0.000 A 
ENDBRANCH  46  60
BRANCH  47  66
ATOM     66  C   UNL     1      15.171  -7.037   3.177  1.00  0.00    -0.014 A 
ATOM     67  C   UNL     1      15.951  -7.165   4.336  1.00  0.00     0.009 A 
ATOM     68  C   UNL     1      13.810  -7.379   3.233  1.00  0.00     0.009 A 
ATOM     69  C   UNL     1      15.390  -7.657   5.516  1.00  0.00     0.001 A 
ATOM     70  C   UNL     1      13.245  -7.842   4.423  1.00  0.00     0.001 A 
ATOM     71  C   UNL     1      14.037  -7.992   5.560  1.00  0.00     0.000 A 
ENDBRANCH  47  66
BRANCH  59  72
ATOM     72  C   UNL     1      19.824  -9.790  -1.202  1.00  0.00    -0.014 A 
ATOM     73  C   UNL     1      19.215 -11.030  -1.442  1.00  0.00     0.009 A 
ATOM     74  C   UNL     1      21.207  -9.742  -0.967  1.00  0.00     0.009 A 
ATOM     75  C   UNL     1      19.971 -12.203  -1.413  1.00  0.00     0.001 A 
ATOM     76  C   UNL     1      21.965 -10.913  -0.968  1.00  0.00     0.001 A 
ATOM     77  C   UNL     1      21.346 -12.143  -1.182  1.00  0.00     0.000 A 
ENDBRANCH  59  72
ENDBRANCH  33  34
ENDBRANCH  25  28
ENDBRANCH  23  24
ENDBRANCH  22  23
ENDBRANCH   1  22
TORSDOF 16
