REMARK SMILES O=C(NCCCNC(=O)c1ccc(NC(=O)c2ccc([N+](=O)[O-])cc2Cl)cc1Cl)c1ccc(-c2c3nc(c(-c4ccccc4)c4ccc([nH]4)c(-c4ccccc4)c4nc(c(-c5ccccc5)c5ccc2[nH]5)C=C4)C=C3)cc1
REMARK SMILES IDX 5 1 4 2 3 3 1 4 2 5 30 7 31 8 77 9 32 10 76 11 33 12 34 13
REMARK SMILES IDX 35 14 70 15 36 16 75 17 69 18 71 19 37 20 74 21 68 22 67 23
REMARK SMILES IDX 38 25 60 26 45 27 59 28 46 29 49 30 58 31 72 32 47 33 48 34
REMARK SMILES IDX 57 36 73 37 50 38 39 39 40 40 44 41 41 42 43 43 42 44 61 45
REMARK SMILES IDX 62 46 66 47 63 48 65 49 64 50 51 51 52 52 56 53 53 54 55 55
REMARK SMILES IDX 54 56 6 57 7 58 8 59 9 61 10 62 11 63 28 64 12 65 27 66
REMARK SMILES IDX 29 67 13 68 14 69 15 70 16 72 17 73 18 74 25 75 19 76 24 77
REMARK SMILES IDX 26 78 20 79 21 80 22 81 23 82
REMARK H PARENT 3 6 71 24 49 35 7 60 14 71
REMARK Flexibility Score: inf
ROOT
ATOM      1  C   UNL     1       4.918   1.856  -1.509  1.00  0.00     0.042 C 
ENDROOT
BRANCH   1   2
ATOM      2  C   UNL     1       4.490   1.361  -0.137  1.00  0.00     0.118 C 
BRANCH   2   3
ATOM      3  N   UNL     1       3.057   1.124  -0.030  1.00  0.00    -0.352 N 
ATOM      4  O   UNL     1       1.119  -0.018   0.016  1.00  0.00    -0.269 OA
ATOM      5  C   UNL     1       2.345  -0.043   0.099  1.00  0.00     0.251 C 
ATOM      6  H   UNL     1       2.505   1.939  -0.056  1.00  0.00     0.163 HD
BRANCH   5   7
ATOM      7  C   UNL     1       3.036  -1.334   0.311  1.00  0.00     0.039 A 
ATOM      8  C   UNL     1       4.131  -1.432   1.168  1.00  0.00     0.014 A 
ATOM      9  C   UNL     1       2.553  -2.480  -0.331  1.00  0.00     0.014 A 
ATOM     10  C   UNL     1       4.847  -2.621   1.246  1.00  0.00     0.010 A 
ATOM     11  C   UNL     1       3.209  -3.704  -0.165  1.00  0.00     0.010 A 
ATOM     12  C   UNL     1       4.382  -3.777   0.600  1.00  0.00    -0.014 A 
BRANCH  12  13
ATOM     13  C   UNL     1       5.105  -5.057   0.810  1.00  0.00     0.031 A 
ATOM     14  C   UNL     1       5.779  -5.774  -0.326  1.00  0.00     0.074 A 
ATOM     15  C   UNL     1       5.184  -5.550   2.062  1.00  0.00     0.049 A 
ATOM     16  N   UNL     1       6.489  -6.874  -0.295  1.00  0.00    -0.248 NA
ATOM     17  C   UNL     1       5.637  -5.190  -1.669  1.00  0.00     0.031 C 
ATOM     18  C   UNL     1       4.563  -4.947   3.246  1.00  0.00     0.029 A 
ATOM     19  N   UNL     1       5.841  -6.647   2.555  1.00  0.00    -0.354 N 
ATOM     20  C   UNL     1       6.861  -7.126  -1.610  1.00  0.00     0.074 A 
ATOM     21  C   UNL     1       6.280  -6.076  -2.419  1.00  0.00     0.031 C 
ATOM     22  C   UNL     1       4.921  -5.644   4.333  1.00  0.00     0.029 A 
ATOM     23  C   UNL     1       5.735  -6.779   3.918  1.00  0.00     0.049 A 
ATOM     24  H   UNL     1       6.340  -7.278   1.988  1.00  0.00     0.167 HD
ATOM     25  C   UNL     1       7.619  -8.138  -2.096  1.00  0.00     0.031 A 
ATOM     26  C   UNL     1       6.225  -7.718   4.748  1.00  0.00     0.031 A 
ATOM     27  C   UNL     1       8.198  -9.180  -1.288  1.00  0.00     0.049 A 
ATOM     28  C   UNL     1       7.038  -8.841   4.177  1.00  0.00     0.074 A 
ATOM     29  C   UNL     1       9.005 -10.232  -1.687  1.00  0.00     0.029 A 
ATOM     30  N   UNL     1       8.028  -9.305   0.082  1.00  0.00    -0.354 N 
ATOM     31  N   UNL     1       7.402  -9.044   2.935  1.00  0.00    -0.248 NA
ATOM     32  C   UNL     1       7.502  -9.864   5.122  1.00  0.00     0.031 C 
ATOM     33  C   UNL     1       9.283 -11.021  -0.565  1.00  0.00     0.029 A 
ATOM     34  C   UNL     1       8.693 -10.431   0.540  1.00  0.00     0.049 A 
ATOM     35  H   UNL     1       7.511  -8.686   0.646  1.00  0.00     0.167 HD
ATOM     36  C   UNL     1       8.148 -10.214   2.949  1.00  0.00     0.074 A 
ATOM     37  C   UNL     1       8.206 -10.658   4.327  1.00  0.00     0.031 C 
ATOM     38  C   UNL     1       8.730 -10.864   1.913  1.00  0.00     0.031 A 
BRANCH  25  39
ATOM     39  C   UNL     1       7.848  -8.186  -3.582  1.00  0.00    -0.014 A 
ATOM     40  C   UNL     1       8.711  -7.280  -4.218  1.00  0.00     0.009 A 
ATOM     41  C   UNL     1       7.232  -9.188  -4.348  1.00  0.00     0.009 A 
ATOM     42  C   UNL     1       8.931  -7.361  -5.595  1.00  0.00     0.001 A 
ATOM     43  C   UNL     1       7.472  -9.282  -5.720  1.00  0.00     0.001 A 
ATOM     44  C   UNL     1       8.316  -8.364  -6.344  1.00  0.00     0.000 A 
ENDBRANCH  25  39
BRANCH  26  45
ATOM     45  C   UNL     1       5.939  -7.639   6.203  1.00  0.00    -0.014 A 
ATOM     46  C   UNL     1       6.958  -7.337   7.117  1.00  0.00     0.009 A 
ATOM     47  C   UNL     1       4.636  -7.850   6.681  1.00  0.00     0.009 A 
ATOM     48  C   UNL     1       6.681  -7.266   8.485  1.00  0.00     0.001 A 
ATOM     49  C   UNL     1       4.356  -7.748   8.044  1.00  0.00     0.001 A 
ATOM     50  C   UNL     1       5.380  -7.465   8.946  1.00  0.00     0.000 A 
ENDBRANCH  26  45
BRANCH  38  51
ATOM     51  C   UNL     1       9.492 -12.115   2.241  1.00  0.00    -0.014 A 
ATOM     52  C   UNL     1       8.826 -13.300   2.588  1.00  0.00     0.009 A 
ATOM     53  C   UNL     1      10.894 -12.110   2.188  1.00  0.00     0.009 A 
ATOM     54  C   UNL     1       9.552 -14.448   2.909  1.00  0.00     0.001 A 
ATOM     55  C   UNL     1      11.616 -13.267   2.483  1.00  0.00     0.001 A 
ATOM     56  C   UNL     1      10.945 -14.431   2.853  1.00  0.00     0.000 A 
ENDBRANCH  38  51
ENDBRANCH  12  13
ENDBRANCH   5   7
ENDBRANCH   2   3
ENDBRANCH   1   2
BRANCH   1  57
ATOM     57  C   UNL     1       4.307   3.185  -1.923  1.00  0.00     0.118 C 
BRANCH  57  58
ATOM     58  N   UNL     1       4.585   4.271  -0.994  1.00  0.00    -0.352 N 
ATOM     59  C   UNL     1       5.133   5.508  -1.221  1.00  0.00     0.252 C 
ATOM     60  H   UNL     1       4.341   4.089  -0.058  1.00  0.00     0.163 HD
ATOM     61  O   UNL     1       5.322   6.278  -0.283  1.00  0.00    -0.269 OA
BRANCH  59  62
ATOM     62  C   UNL     1       5.614   5.876  -2.564  1.00  0.00     0.058 A 
ATOM     63  C   UNL     1       6.959   6.236  -2.661  1.00  0.00     0.017 A 
ATOM     64  C   UNL     1       4.824   5.879  -3.713  1.00  0.00     0.055 A 
ATOM     65  C   UNL     1       7.537   6.455  -3.912  1.00  0.00     0.027 A 
ATOM     66  C   UNL     1       5.429   6.024  -4.968  1.00  0.00     0.047 A 
ATOM     67  Cl  UNL     1       3.103   5.725  -3.664  1.00  0.00    -0.083 Cl
ATOM     68  C   UNL     1       6.809   6.241  -5.081  1.00  0.00     0.043 A 
BRANCH  68  69
ATOM     69  N   UNL     1       7.353   6.202  -6.381  1.00  0.00    -0.322 N 
ATOM     70  C   UNL     1       8.643   6.144  -6.863  1.00  0.00     0.257 C 
ATOM     71  H   UNL     1       6.671   6.221  -7.091  1.00  0.00     0.170 HD
ATOM     72  O   UNL     1       8.854   6.150  -8.074  1.00  0.00    -0.269 OA
BRANCH  70  73
ATOM     73  C   UNL     1       9.805   6.113  -5.966  1.00  0.00     0.059 A 
ATOM     74  C   UNL     1      10.566   7.290  -5.888  1.00  0.00     0.022 A 
ATOM     75  C   UNL     1      10.117   5.005  -5.167  1.00  0.00     0.060 A 
ATOM     76  C   UNL     1      11.575   7.400  -4.932  1.00  0.00     0.086 A 
ATOM     77  C   UNL     1      11.120   5.116  -4.199  1.00  0.00     0.107 A 
ATOM     78  Cl  UNL     1       9.257   3.513  -5.277  1.00  0.00    -0.083 Cl
ATOM     79  C   UNL     1      11.824   6.324  -4.068  1.00  0.00     0.270 A 
BRANCH  79  80
ATOM     80  N   UNL     1      12.795   6.483  -2.979  1.00  0.00     0.062 N 
ATOM     81  O   UNL     1      13.534   7.475  -3.010  1.00  0.00    -0.258 OA
ATOM     82  O   UNL     1      12.792   5.627  -2.084  1.00  0.00    -0.258 OA
ENDBRANCH  79  80
ENDBRANCH  70  73
ENDBRANCH  68  69
ENDBRANCH  59  62
ENDBRANCH  57  58
ENDBRANCH   1  57
TORSDOF 13
