REMARK SMILES Cc1c(/C=C/c2cc(C(=O)NCCCNC(=O)c3ccc(-c4c5nc(c(-c6ccccc6)c6ccc([nH]6)c(-c6ccccc6)c6nc(c(-c7ccccc7)c7ccc4[nH]7)C=C6)C=C5)cc3)c3ccccc3n2)cc(C#N)n1C
REMARK SMILES IDX 12 1 11 2 9 3 10 4 8 6 6 7 7 8 72 9 71 10 66 11 70 12 67 13
REMARK SMILES IDX 69 14 68 15 5 16 4 17 3 18 1 19 2 20 77 21 73 22 74 23 78 24
REMARK SMILES IDX 75 25 76 26 13 27 14 28 15 29 16 30 17 32 18 33 19 34 65 35
REMARK SMILES IDX 20 36 64 37 21 38 22 39 23 40 58 41 24 42 63 43 57 44 59 45
REMARK SMILES IDX 25 46 62 47 56 48 55 49 26 51 48 52 33 53 47 54 34 55 37 56
REMARK SMILES IDX 46 57 60 58 35 59 36 60 45 62 61 63 38 64 27 65 28 66 32 67
REMARK SMILES IDX 29 68 31 69 30 70 49 71 50 72 54 73 51 74 53 75 52 76 39 77
REMARK SMILES IDX 40 78 44 79 41 80 43 81 42 82
REMARK H PARENT 11 5 15 31 59 50 37 61
REMARK Flexibility Score: inf
ROOT
ATOM      1  C   UNL     1      -9.359   5.905   1.440  1.00  0.00     0.118 C 
ENDROOT
BRANCH   1   2
ATOM      2  N   UNL     1      -9.040   4.514   1.653  1.00  0.00    -0.352 N 
ATOM      3  C   UNL     1      -8.129   3.649   1.119  1.00  0.00     0.252 C 
ATOM      4  O   UNL     1      -8.303   2.469   1.443  1.00  0.00    -0.269 OA
ATOM      5  H   UNL     1      -9.608   4.093   2.339  1.00  0.00     0.163 HD
BRANCH   3   6
ATOM      6  C   UNL     1      -6.908   3.990   0.313  1.00  0.00     0.051 A 
ATOM      7  C   UNL     1      -4.665   3.212  -0.067  1.00  0.00     0.065 A 
ATOM      8  C   UNL     1      -5.885   3.066   0.554  1.00  0.00     0.042 A 
ATOM      9  N   UNL     1      -4.364   4.263  -0.843  1.00  0.00    -0.248 NA
ATOM     10  C   UNL     1      -5.326   5.147  -1.115  1.00  0.00     0.072 A 
ATOM     11  C   UNL     1      -6.650   5.030  -0.628  1.00  0.00     0.013 A 
ATOM     12  C   UNL     1      -4.978   6.198  -1.957  1.00  0.00     0.029 A 
ATOM     13  C   UNL     1      -7.581   5.931  -1.188  1.00  0.00     0.011 A 
ATOM     14  C   UNL     1      -5.901   7.155  -2.370  1.00  0.00     0.002 A 
ATOM     15  C   UNL     1      -7.220   7.009  -1.998  1.00  0.00     0.001 A 
BRANCH   7  16
ATOM     16  C   UNL     1      -3.685   2.139   0.056  1.00  0.00     0.029 C 
ATOM     17  C   UNL     1      -2.368   2.295  -0.126  1.00  0.00     0.012 C 
BRANCH  17  18
ATOM     18  C   UNL     1      -1.369   1.278  -0.052  1.00  0.00    -0.003 A 
ATOM     19  C   UNL     1      -2.749  -0.958  -0.061  1.00  0.00     0.065 C 
ATOM     20  C   UNL     1      -1.522  -0.104  -0.028  1.00  0.00     0.023 A 
ATOM     21  N   UNL     1      -0.246  -0.647   0.014  1.00  0.00    -0.339 N 
ATOM     22  C   UNL     1       0.020   1.558  -0.023  1.00  0.00     0.048 A 
ATOM     23  C   UNL     1       0.692   0.357   0.010  1.00  0.00     0.120 A 
ATOM     24  C   UNL     1       0.044  -2.067   0.036  1.00  0.00     0.150 C 
BRANCH  23  25
ATOM     25  C   UNL     1       2.106   0.182   0.024  1.00  0.00     0.118 C 
ATOM     26  N   UNL     1       3.252   0.018   0.031  1.00  0.00    -0.191 NA
ENDBRANCH  23  25
ENDBRANCH  17  18
ENDBRANCH   7  16
ENDBRANCH   3   6
ENDBRANCH   1   2
BRANCH   1  27
ATOM     27  C   UNL     1     -10.458   6.004   0.380  1.00  0.00     0.042 C 
BRANCH  27  28
ATOM     28  C   UNL     1     -11.860   5.986   0.948  1.00  0.00     0.118 C 
BRANCH  28  29
ATOM     29  N   UNL     1     -12.161   7.243   1.612  1.00  0.00    -0.352 N 
ATOM     30  C   UNL     1     -13.005   8.253   1.228  1.00  0.00     0.251 C 
ATOM     31  H   UNL     1     -11.690   7.390   2.464  1.00  0.00     0.163 HD
ATOM     32  O   UNL     1     -12.877   9.368   1.726  1.00  0.00    -0.269 OA
BRANCH  30  33
ATOM     33  C   UNL     1     -14.057   8.009   0.216  1.00  0.00     0.039 A 
ATOM     34  C   UNL     1     -14.422   9.047  -0.645  1.00  0.00     0.014 A 
ATOM     35  C   UNL     1     -14.709   6.776   0.136  1.00  0.00     0.014 A 
ATOM     36  C   UNL     1     -15.407   8.830  -1.610  1.00  0.00     0.010 A 
ATOM     37  C   UNL     1     -15.596   6.524  -0.901  1.00  0.00     0.010 A 
ATOM     38  C   UNL     1     -15.976   7.557  -1.768  1.00  0.00    -0.014 A 
BRANCH  38  39
ATOM     39  C   UNL     1     -16.989   7.286  -2.815  1.00  0.00     0.031 A 
ATOM     40  C   UNL     1     -18.369   6.828  -2.425  1.00  0.00     0.074 A 
ATOM     41  C   UNL     1     -16.649   7.396  -4.112  1.00  0.00     0.049 A 
ATOM     42  N   UNL     1     -19.372   6.489  -3.194  1.00  0.00    -0.248 NA
ATOM     43  C   UNL     1     -18.650   6.707  -0.985  1.00  0.00     0.031 C 
ATOM     44  C   UNL     1     -15.331   7.797  -4.612  1.00  0.00     0.029 A 
ATOM     45  N   UNL     1     -17.383   7.178  -5.250  1.00  0.00    -0.354 N 
ATOM     46  C   UNL     1     -20.390   6.100  -2.332  1.00  0.00     0.074 A 
ATOM     47  C   UNL     1     -19.865   6.182  -0.989  1.00  0.00     0.031 C 
ATOM     48  C   UNL     1     -15.363   7.834  -5.953  1.00  0.00     0.029 A 
ATOM     49  C   UNL     1     -16.681   7.404  -6.408  1.00  0.00     0.049 A 
ATOM     50  H   UNL     1     -18.323   6.888  -5.237  1.00  0.00     0.167 HD
ATOM     51  C   UNL     1     -21.657   5.728  -2.631  1.00  0.00     0.031 A 
ATOM     52  C   UNL     1     -17.053   7.267  -7.694  1.00  0.00     0.031 A 
ATOM     53  C   UNL     1     -22.171   5.644  -3.972  1.00  0.00     0.049 A 
ATOM     54  C   UNL     1     -18.452   6.812  -8.002  1.00  0.00     0.074 A 
ATOM     55  C   UNL     1     -23.453   5.326  -4.384  1.00  0.00     0.029 A 
ATOM     56  N   UNL     1     -21.424   5.869  -5.119  1.00  0.00    -0.354 N 
ATOM     57  N   UNL     1     -19.426   6.517  -7.175  1.00  0.00    -0.248 NA
ATOM     58  C   UNL     1     -18.805   6.681  -9.422  1.00  0.00     0.031 C 
ATOM     59  C   UNL     1     -23.461   5.282  -5.781  1.00  0.00     0.029 A 
ATOM     60  C   UNL     1     -22.208   5.659  -6.240  1.00  0.00     0.049 A 
ATOM     61  H   UNL     1     -20.477   6.139  -5.133  1.00  0.00     0.167 HD
ATOM     62  C   UNL     1     -20.517   6.197  -7.973  1.00  0.00     0.074 A 
ATOM     63  C   UNL     1     -20.087   6.352  -9.348  1.00  0.00     0.031 C 
ATOM     64  C   UNL     1     -21.763   5.814  -7.602  1.00  0.00     0.031 A 
BRANCH  51  65
ATOM     65  C   UNL     1     -22.563   5.361  -1.486  1.00  0.00    -0.014 A 
ATOM     66  C   UNL     1     -22.980   6.316  -0.543  1.00  0.00     0.009 A 
ATOM     67  C   UNL     1     -23.029   4.043  -1.362  1.00  0.00     0.009 A 
ATOM     68  C   UNL     1     -23.804   5.947   0.523  1.00  0.00     0.001 A 
ATOM     69  C   UNL     1     -23.883   3.685  -0.318  1.00  0.00     0.001 A 
ATOM     70  C   UNL     1     -24.259   4.634   0.631  1.00  0.00     0.000 A 
ENDBRANCH  51  65
BRANCH  52  71
ATOM     71  C   UNL     1     -16.086   7.567  -8.784  1.00  0.00    -0.014 A 
ATOM     72  C   UNL     1     -16.287   8.663  -9.638  1.00  0.00     0.009 A 
ATOM     73  C   UNL     1     -14.955   6.759  -8.977  1.00  0.00     0.009 A 
ATOM     74  C   UNL     1     -15.394   8.922 -10.680  1.00  0.00     0.001 A 
ATOM     75  C   UNL     1     -14.043   7.042  -9.996  1.00  0.00     0.001 A 
ATOM     76  C   UNL     1     -14.270   8.116 -10.854  1.00  0.00     0.000 A 
ENDBRANCH  52  71
BRANCH  64  77
ATOM     77  C   UNL     1     -22.768   5.576  -8.697  1.00  0.00    -0.014 A 
ATOM     78  C   UNL     1     -22.660   4.484  -9.571  1.00  0.00     0.009 A 
ATOM     79  C   UNL     1     -23.869   6.438  -8.819  1.00  0.00     0.009 A 
ATOM     80  C   UNL     1     -23.616   4.283 -10.570  1.00  0.00     0.001 A 
ATOM     81  C   UNL     1     -24.843   6.213  -9.792  1.00  0.00     0.001 A 
ATOM     82  C   UNL     1     -24.709   5.142 -10.674  1.00  0.00     0.000 A 
ENDBRANCH  64  77
ENDBRANCH  38  39
ENDBRANCH  30  33
ENDBRANCH  28  29
ENDBRANCH  27  28
ENDBRANCH   1  27
TORSDOF 13
