REMARK SMILES [NH3+][C@]1(C(=O)NCCCNC(=O)c2ccc(-c3c4nc(c(-c5ccccc5)c5ccc([nH]5)c(-c5ccccc5)c5nc(c(-c6ccccc6)c6ccc3[nH]6)C=C5)C=C4)cc2)CC[N@H+](Cc2ccccc2O)C1
REMARK SMILES IDX 6 1 5 2 3 3 4 4 2 6 60 7 71 8 61 9 62 10 1 12 63 16 64 17
REMARK SMILES IDX 65 18 69 19 66 20 68 21 67 22 70 23 7 25 8 26 9 27 10 28
REMARK SMILES IDX 11 30 12 31 13 32 59 33 14 34 58 35 15 36 16 37 17 38 52 39
REMARK SMILES IDX 18 40 57 41 51 42 53 43 19 44 56 45 50 46 49 47 20 49 42 50
REMARK SMILES IDX 27 51 41 52 28 53 31 54 40 55 54 56 29 57 30 58 39 60 55 61
REMARK SMILES IDX 32 62 21 63 22 64 26 65 23 66 25 67 24 68 43 69 44 70 48 71
REMARK SMILES IDX 45 72 47 73 46 74 33 75 34 76 38 77 35 78 37 79 36 80
REMARK H PARENT 5 5 62 11 1 13 1 14 1 15 70 24 9 29 53 48 31 59
REMARK Flexibility Score: inf
ROOT
ATOM      1  C   UNL     1       3.310  -1.113   0.910  1.00  0.00     0.118 C 
ENDROOT
BRANCH   1   2
ATOM      2  N   UNL     1       2.312  -0.792  -0.093  1.00  0.00    -0.350 N 
ATOM      3  C   UNL     1       1.308   0.129  -0.133  1.00  0.00     0.287 C 
ATOM      4  O   UNL     1       0.677   0.196  -1.197  1.00  0.00    -0.268 OA
ATOM      5  H   UNL     1       2.372  -1.349  -0.903  1.00  0.00     0.163 HD
BRANCH   3   6
ATOM      6  C   UNL     1       0.843   0.950   1.098  1.00  0.00     0.228 C 
ATOM      7  C   UNL     1       1.903   1.356   2.107  1.00  0.00     0.146 C 
ATOM      8  C   UNL     1       0.328   2.346   0.639  1.00  0.00     0.342 C 
ATOM      9  C   UNL     1       1.355   2.590   2.776  1.00  0.00     0.270 C 
ATOM     10  N   UNL     1       0.647   3.296   1.722  1.00  0.00    -0.325 N 
ATOM     11  H   UNL     1       1.269   3.997   1.318  1.00  0.00     0.348 HD
BRANCH   6  12
ATOM     12  N   UNL     1      -0.251   0.177   1.755  1.00  0.00    -0.340 N 
ATOM     13  H   UNL     1      -0.584   0.687   2.572  1.00  0.00     0.345 HD
ATOM     14  H   UNL     1       0.104  -0.735   2.044  1.00  0.00     0.345 HD
ATOM     15  H   UNL     1      -1.019   0.049   1.097  1.00  0.00     0.345 HD
ENDBRANCH   6  12
BRANCH  10  16
ATOM     16  C   UNL     1      -0.415   4.197   2.166  1.00  0.00     0.303 C 
BRANCH  16  17
ATOM     17  C   UNL     1      -1.664   3.542   2.723  1.00  0.00     0.048 A 
ATOM     18  C   UNL     1      -2.762   3.368   1.858  1.00  0.00     0.013 A 
ATOM     19  C   UNL     1      -1.788   3.055   4.032  1.00  0.00     0.124 A 
ATOM     20  C   UNL     1      -3.901   2.672   2.264  1.00  0.00     0.001 A 
ATOM     21  C   UNL     1      -2.906   2.319   4.425  1.00  0.00     0.046 A 
ATOM     22  C   UNL     1      -3.961   2.122   3.540  1.00  0.00     0.004 A 
BRANCH  19  23
ATOM     23  O   UNL     1      -0.855   3.253   5.011  1.00  0.00    -0.507 OA
ATOM     24  H   UNL     1      -0.076   3.739   4.824  1.00  0.00     0.293 HD
ENDBRANCH  19  23
ENDBRANCH  16  17
ENDBRANCH  10  16
ENDBRANCH   3   6
ENDBRANCH   1   2
BRANCH   1  25
ATOM     25  C   UNL     1       3.092  -2.463   1.573  1.00  0.00     0.042 C 
BRANCH  25  26
ATOM     26  C   UNL     1       3.499  -3.631   0.684  1.00  0.00     0.118 C 
BRANCH  26  27
ATOM     27  N   UNL     1       4.907  -3.562   0.292  1.00  0.00    -0.352 N 
ATOM     28  C   UNL     1       5.983  -4.314   0.677  1.00  0.00     0.251 C 
ATOM     29  H   UNL     1       5.115  -2.855  -0.361  1.00  0.00     0.163 HD
ATOM     30  O   UNL     1       7.125  -3.910   0.439  1.00  0.00    -0.269 OA
BRANCH  28  31
ATOM     31  C   UNL     1       5.793  -5.600   1.372  1.00  0.00     0.039 A 
ATOM     32  C   UNL     1       6.682  -5.971   2.385  1.00  0.00     0.014 A 
ATOM     33  C   UNL     1       4.755  -6.458   1.003  1.00  0.00     0.014 A 
ATOM     34  C   UNL     1       6.480  -7.166   3.077  1.00  0.00     0.010 A 
ATOM     35  C   UNL     1       4.497  -7.595   1.756  1.00  0.00     0.010 A 
ATOM     36  C   UNL     1       5.358  -7.963   2.798  1.00  0.00    -0.014 A 
BRANCH  36  37
ATOM     37  C   UNL     1       5.053  -9.177   3.591  1.00  0.00     0.031 A 
ATOM     38  C   UNL     1       5.003 -10.524   2.924  1.00  0.00     0.074 A 
ATOM     39  C   UNL     1       4.732  -9.050   4.893  1.00  0.00     0.049 A 
ATOM     40  N   UNL     1       4.673 -11.683   3.432  1.00  0.00    -0.248 NA
ATOM     41  C   UNL     1       5.339 -10.570   1.491  1.00  0.00     0.031 C 
ATOM     42  C   UNL     1       4.692  -7.789   5.638  1.00  0.00     0.029 A 
ATOM     43  N   UNL     1       4.368  -9.993   5.819  1.00  0.00    -0.354 N 
ATOM     44  C   UNL     1       4.740 -12.588   2.380  1.00  0.00     0.074 A 
ATOM     45  C   UNL     1       5.090 -11.837   1.195  1.00  0.00     0.031 C 
ATOM     46  C   UNL     1       4.355  -8.042   6.912  1.00  0.00     0.029 A 
ATOM     47  C   UNL     1       4.109  -9.471   7.062  1.00  0.00     0.049 A 
ATOM     48  H   UNL     1       4.298 -10.953   5.612  1.00  0.00     0.167 HD
ATOM     49  C   UNL     1       4.546 -13.928   2.403  1.00  0.00     0.031 A 
ATOM     50  C   UNL     1       3.707 -10.075   8.196  1.00  0.00     0.031 A 
ATOM     51  C   UNL     1       4.209 -14.672   3.587  1.00  0.00     0.049 A 
ATOM     52  C   UNL     1       3.487 -11.561   8.191  1.00  0.00     0.074 A 
ATOM     53  C   UNL     1       4.061 -16.040   3.731  1.00  0.00     0.029 A 
ATOM     54  N   UNL     1       3.963 -14.107   4.829  1.00  0.00    -0.354 N 
ATOM     55  N   UNL     1       3.634 -12.414   7.207  1.00  0.00    -0.248 NA
ATOM     56  C   UNL     1       3.052 -12.167   9.457  1.00  0.00     0.031 C 
ATOM     57  C   UNL     1       3.669 -16.298   5.049  1.00  0.00     0.029 A 
ATOM     58  C   UNL     1       3.631 -15.097   5.738  1.00  0.00     0.049 A 
ATOM     59  H   UNL     1       4.016 -13.146   5.033  1.00  0.00     0.167 HD
ATOM     60  C   UNL     1       3.327 -13.660   7.738  1.00  0.00     0.074 A 
ATOM     61  C   UNL     1       3.010 -13.452   9.136  1.00  0.00     0.031 C 
ATOM     62  C   UNL     1       3.307 -14.867   7.123  1.00  0.00     0.031 A 
BRANCH  49  63
ATOM     63  C   UNL     1       4.688 -14.671   1.103  1.00  0.00    -0.014 A 
ATOM     64  C   UNL     1       5.939 -14.824   0.483  1.00  0.00     0.009 A 
ATOM     65  C   UNL     1       3.560 -15.256   0.506  1.00  0.00     0.009 A 
ATOM     66  C   UNL     1       6.051 -15.513  -0.726  1.00  0.00     0.001 A 
ATOM     67  C   UNL     1       3.680 -15.970  -0.688  1.00  0.00     0.001 A 
ATOM     68  C   UNL     1       4.923 -16.090  -1.308  1.00  0.00     0.000 A 
ENDBRANCH  49  63
BRANCH  50  69
ATOM     69  C   UNL     1       3.495  -9.275   9.430  1.00  0.00    -0.014 A 
ATOM     70  C   UNL     1       4.373  -9.400  10.517  1.00  0.00     0.009 A 
ATOM     71  C   UNL     1       2.418  -8.381   9.528  1.00  0.00     0.009 A 
ATOM     72  C   UNL     1       4.162  -8.665  11.686  1.00  0.00     0.001 A 
ATOM     73  C   UNL     1       2.226  -7.625  10.687  1.00  0.00     0.001 A 
ATOM     74  C   UNL     1       3.092  -7.775  11.768  1.00  0.00     0.000 A 
ENDBRANCH  50  69
BRANCH  62  75
ATOM     75  C   UNL     1       2.944 -16.057   7.965  1.00  0.00    -0.014 A 
ATOM     76  C   UNL     1       1.625 -16.262   8.401  1.00  0.00     0.009 A 
ATOM     77  C   UNL     1       3.926 -17.003   8.295  1.00  0.00     0.009 A 
ATOM     78  C   UNL     1       1.306 -17.376   9.179  1.00  0.00     0.001 A 
ATOM     79  C   UNL     1       3.597 -18.132   9.046  1.00  0.00     0.001 A 
ATOM     80  C   UNL     1       2.290 -18.312   9.496  1.00  0.00     0.000 A 
ENDBRANCH  62  75
ENDBRANCH  36  37
ENDBRANCH  28  31
ENDBRANCH  26  27
ENDBRANCH  25  26
ENDBRANCH   1  25
TORSDOF 14
