REMARK SMILES C[C@H]1CCC[C@@](NC(=O)N2CCO[C@H](C#N)C2)(C(=O)NCCCNC(=O)c2ccc(-c3c4nc(c(-c5ccccc5)c5ccc([nH]5)c(-c5ccccc5)c5nc(c(-c6ccccc6)c6ccc3[nH]6)C=C5)C=C4)cc2)C1
REMARK SMILES IDX 21 1 20 2 18 3 19 4 6 6 1 7 2 8 3 9 75 10 4 11 5 12 7 13
REMARK SMILES IDX 8 14 9 16 10 17 11 18 17 19 12 20 14 21 13 22 15 23 16 24
REMARK SMILES IDX 22 25 23 26 24 27 25 28 26 30 27 31 28 32 74 33 29 34 73 35
REMARK SMILES IDX 30 36 31 37 32 38 67 39 33 40 72 41 66 42 68 43 34 44 71 45
REMARK SMILES IDX 65 46 64 47 35 49 57 50 42 51 56 52 43 53 46 54 55 55 69 56
REMARK SMILES IDX 44 57 45 58 54 60 70 61 47 62 36 63 37 64 41 65 38 66 40 67
REMARK SMILES IDX 39 68 58 69 59 70 63 71 60 72 62 73 61 74 48 75 49 76 53 77
REMARK SMILES IDX 50 78 52 79 51 80
REMARK H PARENT 20 5 7 15 24 29 68 48 46 59
REMARK Flexibility Score: inf
ROOT
ATOM      1  C   UNL     1      -4.249  -1.316   0.440  1.00  0.00     0.117 C 
ENDROOT
BRANCH   1   2
ATOM      2  N   UNL     1      -3.445  -1.784  -0.684  1.00  0.00    -0.354 N 
ATOM      3  C   UNL     1      -2.088  -1.773  -0.862  1.00  0.00     0.245 C 
ATOM      4  O   UNL     1      -1.654  -2.318  -1.880  1.00  0.00    -0.272 OA
ATOM      5  H   UNL     1      -3.959  -2.167  -1.432  1.00  0.00     0.163 HD
BRANCH   3   6
ATOM      6  C   UNL     1      -1.175  -1.009   0.123  1.00  0.00     0.121 C 
ATOM      7  C   UNL     1       2.668  -0.133  -0.074  1.00  0.00     0.008 C 
ATOM      8  C   UNL     1       1.218  -0.012   0.394  1.00  0.00    -0.011 C 
ATOM      9  C   UNL     1       0.695   1.375   0.011  1.00  0.00     0.003 C 
ATOM     10  C   UNL     1       0.340  -1.150  -0.189  1.00  0.00     0.042 C 
ATOM     11  C   UNL     1      -0.733   1.544   0.475  1.00  0.00     0.003 C 
ATOM     12  C   UNL     1      -1.599   0.475  -0.154  1.00  0.00     0.039 C 
BRANCH   6  13
ATOM     13  N   UNL     1      -1.440  -1.432   1.521  1.00  0.00    -0.323 N 
ATOM     14  C   UNL     1      -1.812  -2.579   2.147  1.00  0.00     0.318 C 
ATOM     15  H   UNL     1      -1.315  -0.691   2.157  1.00  0.00     0.166 HD
ATOM     16  O   UNL     1      -1.945  -2.502   3.372  1.00  0.00    -0.249 OA
BRANCH  14  17
ATOM     17  N   UNL     1      -2.251  -3.679   1.457  1.00  0.00    -0.319 N 
ATOM     18  C   UNL     1      -3.325  -4.483   2.067  1.00  0.00     0.150 C 
ATOM     19  C   UNL     1      -1.492  -4.442   0.448  1.00  0.00     0.169 C 
ATOM     20  C   UNL     1      -4.210  -5.112   0.981  1.00  0.00     0.183 C 
ATOM     21  C   UNL     1      -2.437  -5.093  -0.592  1.00  0.00     0.240 C 
ATOM     22  O   UNL     1      -3.429  -5.910   0.080  1.00  0.00    -0.360 OA
BRANCH  21  23
ATOM     23  C   UNL     1      -1.684  -5.900  -1.569  1.00  0.00     0.096 C 
ATOM     24  N   UNL     1      -1.105  -6.521  -2.358  1.00  0.00    -0.195 NA
ENDBRANCH  21  23
ENDBRANCH  14  17
ENDBRANCH   6  13
ENDBRANCH   3   6
ENDBRANCH   1   2
BRANCH   1  25
ATOM     25  C   UNL     1      -5.558  -0.732  -0.043  1.00  0.00     0.042 C 
BRANCH  25  26
ATOM     26  C   UNL     1      -6.502  -1.817  -0.529  1.00  0.00     0.118 C 
BRANCH  26  27
ATOM     27  N   UNL     1      -7.009  -2.655   0.551  1.00  0.00    -0.352 N 
ATOM     28  C   UNL     1      -8.288  -3.114   0.741  1.00  0.00     0.251 C 
ATOM     29  H   UNL     1      -6.350  -2.925   1.231  1.00  0.00     0.163 HD
ATOM     30  O   UNL     1      -8.578  -3.779   1.727  1.00  0.00    -0.269 OA
BRANCH  28  31
ATOM     31  C   UNL     1      -9.317  -2.704  -0.228  1.00  0.00     0.039 A 
ATOM     32  C   UNL     1     -10.401  -1.966   0.248  1.00  0.00     0.014 A 
ATOM     33  C   UNL     1      -9.114  -2.891  -1.598  1.00  0.00     0.014 A 
ATOM     34  C   UNL     1     -11.240  -1.332  -0.662  1.00  0.00     0.010 A 
ATOM     35  C   UNL     1      -9.898  -2.182  -2.500  1.00  0.00     0.010 A 
ATOM     36  C   UNL     1     -10.958  -1.384  -2.038  1.00  0.00    -0.014 A 
BRANCH  36  37
ATOM     37  C   UNL     1     -11.744  -0.574  -2.998  1.00  0.00     0.031 A 
ATOM     38  C   UNL     1     -12.561  -1.252  -4.059  1.00  0.00     0.074 A 
ATOM     39  C   UNL     1     -11.677   0.772  -2.940  1.00  0.00     0.049 A 
ATOM     40  N   UNL     1     -13.285  -0.713  -5.005  1.00  0.00    -0.248 NA
ATOM     41  C   UNL     1     -12.548  -2.724  -4.074  1.00  0.00     0.031 C 
ATOM     42  C   UNL     1     -10.886   1.543  -1.975  1.00  0.00     0.029 A 
ATOM     43  N   UNL     1     -12.281   1.734  -3.711  1.00  0.00    -0.354 N 
ATOM     44  C   UNL     1     -13.798  -1.777  -5.735  1.00  0.00     0.074 A 
ATOM     45  C   UNL     1     -13.272  -2.990  -5.151  1.00  0.00     0.031 C 
ATOM     46  C   UNL     1     -11.078   2.853  -2.195  1.00  0.00     0.029 A 
ATOM     47  C   UNL     1     -11.956   3.019  -3.347  1.00  0.00     0.049 A 
ATOM     48  H   UNL     1     -12.890   1.522  -4.455  1.00  0.00     0.167 HD
ATOM     49  C   UNL     1     -14.642  -1.742  -6.792  1.00  0.00     0.031 A 
ATOM     50  C   UNL     1     -12.307   4.199  -3.894  1.00  0.00     0.031 A 
ATOM     51  C   UNL     1     -15.167  -0.532  -7.363  1.00  0.00     0.049 A 
ATOM     52  C   UNL     1     -13.218   4.200  -5.093  1.00  0.00     0.074 A 
ATOM     53  C   UNL     1     -16.086  -0.397  -8.388  1.00  0.00     0.029 A 
ATOM     54  N   UNL     1     -14.808   0.748  -6.972  1.00  0.00    -0.354 N 
ATOM     55  N   UNL     1     -13.778   3.185  -5.706  1.00  0.00    -0.248 NA
ATOM     56  C   UNL     1     -13.549   5.509  -5.674  1.00  0.00     0.031 C 
ATOM     57  C   UNL     1     -16.217   0.963  -8.676  1.00  0.00     0.029 A 
ATOM     58  C   UNL     1     -15.445   1.678  -7.775  1.00  0.00     0.049 A 
ATOM     59  H   UNL     1     -14.192   0.963  -6.234  1.00  0.00     0.167 HD
ATOM     60  C   UNL     1     -14.542   3.734  -6.727  1.00  0.00     0.074 A 
ATOM     61  C   UNL     1     -14.399   5.171  -6.633  1.00  0.00     0.031 C 
ATOM     62  C   UNL     1     -15.290   3.105  -7.666  1.00  0.00     0.031 A 
BRANCH  49  63
ATOM     63  C   UNL     1     -15.033  -3.048  -7.425  1.00  0.00    -0.014 A 
ATOM     64  C   UNL     1     -15.876  -3.960  -6.771  1.00  0.00     0.009 A 
ATOM     65  C   UNL     1     -14.611  -3.332  -8.734  1.00  0.00     0.009 A 
ATOM     66  C   UNL     1     -16.269  -5.139  -7.408  1.00  0.00     0.001 A 
ATOM     67  C   UNL     1     -15.031  -4.495  -9.379  1.00  0.00     0.001 A 
ATOM     68  C   UNL     1     -15.855  -5.400  -8.714  1.00  0.00     0.000 A 
ENDBRANCH  49  63
BRANCH  50  69
ATOM     69  C   UNL     1     -11.772   5.478  -3.351  1.00  0.00    -0.014 A 
ATOM     70  C   UNL     1     -12.626   6.439  -2.788  1.00  0.00     0.009 A 
ATOM     71  C   UNL     1     -10.400   5.767  -3.439  1.00  0.00     0.009 A 
ATOM     72  C   UNL     1     -12.127   7.676  -2.372  1.00  0.00     0.001 A 
ATOM     73  C   UNL     1      -9.897   6.988  -2.985  1.00  0.00     0.001 A 
ATOM     74  C   UNL     1     -10.763   7.948  -2.468  1.00  0.00     0.000 A 
ENDBRANCH  50  69
BRANCH  62  75
ATOM     75  C   UNL     1     -16.032   3.965  -8.651  1.00  0.00    -0.014 A 
ATOM     76  C   UNL     1     -15.354   4.682  -9.649  1.00  0.00     0.009 A 
ATOM     77  C   UNL     1     -17.435   4.008  -8.617  1.00  0.00     0.009 A 
ATOM     78  C   UNL     1     -16.065   5.448 -10.574  1.00  0.00     0.001 A 
ATOM     79  C   UNL     1     -18.145   4.744  -9.566  1.00  0.00     0.001 A 
ATOM     80  C   UNL     1     -17.459   5.471 -10.537  1.00  0.00     0.000 A 
ENDBRANCH  62  75
ENDBRANCH  36  37
ENDBRANCH  28  31
ENDBRANCH  26  27
ENDBRANCH  25  26
ENDBRANCH   1  25
TORSDOF 13
