REMARK SMILES C[C@H]1CCCCN1c1nc2nc(CC(=O)NCCCNC(=O)c3ccc(-c4c5nc(c(-c6ccccc6)c6ccc([nH]6)c(-c6ccccc6)c6nc(c(-c7ccccc7)c7ccc4[nH]7)C=C6)C=C5)cc3)cc(O)n2n1
REMARK SMILES IDX 18 1 17 2 16 3 14 4 15 5 13 7 12 8 8 9 9 10 75 11 10 12
REMARK SMILES IDX 74 13 11 14 72 15 71 16 7 17 1 18 2 19 3 20 4 21 6 22 5 23
REMARK SMILES IDX 73 24 19 26 20 27 21 28 22 30 23 31 24 32 70 33 25 34 69 35
REMARK SMILES IDX 26 36 27 37 28 38 63 39 29 40 68 41 62 42 64 43 30 44 67 45
REMARK SMILES IDX 61 46 60 47 31 49 53 50 38 51 52 52 39 53 42 54 51 55 65 56
REMARK SMILES IDX 40 57 41 58 50 60 66 61 43 62 32 63 33 64 37 65 34 66 36 67
REMARK SMILES IDX 35 68 54 69 55 70 59 71 56 72 58 73 57 74 44 75 45 76 49 77
REMARK SMILES IDX 46 78 48 79 47 80
REMARK H PARENT 16 6 73 25 20 29 64 48 42 59
REMARK Flexibility Score: inf
ROOT
ATOM      1  C   UNL     1       1.394  -7.683  -1.765  1.00  0.00     0.042 C 
ENDROOT
BRANCH   1   2
ATOM      2  C   UNL     1       1.887  -8.251  -3.099  1.00  0.00     0.117 C 
BRANCH   2   3
ATOM      3  N   UNL     1       1.005  -7.934  -4.207  1.00  0.00    -0.356 N 
ATOM      4  C   UNL     1       1.104  -6.941  -5.141  1.00  0.00     0.226 C 
ATOM      5  O   UNL     1       0.275  -6.909  -6.050  1.00  0.00    -0.275 OA
ATOM      6  H   UNL     1       0.219  -8.520  -4.300  1.00  0.00     0.163 HD
BRANCH   4   7
ATOM      7  C   UNL     1       2.264  -5.977  -5.088  1.00  0.00     0.156 C 
BRANCH   7   8
ATOM      8  C   UNL     1       2.276  -5.093  -3.862  1.00  0.00     0.059 A 
ATOM      9  C   UNL     1       0.981  -2.191  -0.932  1.00  0.00     0.247 A 
ATOM     10  N   UNL     1       0.390  -2.724  -2.042  1.00  0.00    -0.173 NA
ATOM     11  N   UNL     1       2.151  -2.736  -0.611  1.00  0.00    -0.123 NA
ATOM     12  C   UNL     1       1.285  -3.564  -2.505  1.00  0.00     0.257 A 
ATOM     13  N   UNL     1       2.365  -3.602  -1.621  1.00  0.00    -0.161 N 
ATOM     14  N   UNL     1       1.248  -4.330  -3.635  1.00  0.00    -0.215 NA
ATOM     15  C   UNL     1       3.461  -4.449  -1.855  1.00  0.00     0.217 A 
ATOM     16  C   UNL     1       3.487  -5.185  -2.976  1.00  0.00     0.092 A 
BRANCH   9  17
ATOM     17  N   UNL     1       0.358  -1.181  -0.294  1.00  0.00    -0.337 N 
ATOM     18  C   UNL     1       2.521   0.132  -0.074  1.00  0.00     0.031 C 
ATOM     19  C   UNL     1       1.045  -0.029   0.304  1.00  0.00     0.082 C 
ATOM     20  C   UNL     1       0.299   1.248  -0.141  1.00  0.00     0.025 C 
ATOM     21  C   UNL     1      -1.187   1.185   0.201  1.00  0.00     0.004 C 
ATOM     22  C   UNL     1      -1.061  -1.323   0.024  1.00  0.00     0.120 C 
ATOM     23  C   UNL     1      -1.826  -0.069  -0.385  1.00  0.00     0.022 C 
ENDBRANCH   9  17
BRANCH  15  24
ATOM     24  O   UNL     1       4.481  -4.503  -0.920  1.00  0.00    -0.493 OA
ATOM     25  H   UNL     1       5.218  -5.064  -1.063  1.00  0.00     0.295 HD
ENDBRANCH  15  24
ENDBRANCH   7   8
ENDBRANCH   4   7
ENDBRANCH   2   3
ENDBRANCH   1   2
BRANCH   1  26
ATOM     26  C   UNL     1       0.254  -8.500  -1.186  1.00  0.00     0.118 C 
BRANCH  26  27
ATOM     27  N   UNL     1       0.693  -9.824  -0.754  1.00  0.00    -0.352 N 
ATOM     28  C   UNL     1      -0.034 -10.796  -0.101  1.00  0.00     0.251 C 
ATOM     29  H   UNL     1       1.629 -10.053  -0.956  1.00  0.00     0.163 HD
ATOM     30  O   UNL     1       0.527 -11.726   0.454  1.00  0.00    -0.269 OA
BRANCH  28  31
ATOM     31  C   UNL     1      -1.502 -10.694  -0.088  1.00  0.00     0.039 A 
ATOM     32  C   UNL     1      -2.225 -11.017   1.065  1.00  0.00     0.014 A 
ATOM     33  C   UNL     1      -2.153 -10.293  -1.254  1.00  0.00     0.014 A 
ATOM     34  C   UNL     1      -3.610 -10.887   1.049  1.00  0.00     0.010 A 
ATOM     35  C   UNL     1      -3.500 -10.043  -1.234  1.00  0.00     0.010 A 
ATOM     36  C   UNL     1      -4.233 -10.398  -0.105  1.00  0.00    -0.014 A 
BRANCH  36  37
ATOM     37  C   UNL     1      -5.673 -10.226  -0.161  1.00  0.00     0.031 A 
ATOM     38  C   UNL     1      -6.240  -9.151   0.697  1.00  0.00     0.074 A 
ATOM     39  C   UNL     1      -6.403 -10.819  -1.126  1.00  0.00     0.049 A 
ATOM     40  N   UNL     1      -7.116  -9.268   1.639  1.00  0.00    -0.248 NA
ATOM     41  C   UNL     1      -5.721  -7.784   0.530  1.00  0.00     0.031 C 
ATOM     42  C   UNL     1      -5.939 -11.614  -2.269  1.00  0.00     0.029 A 
ATOM     43  N   UNL     1      -7.732 -10.697  -1.363  1.00  0.00    -0.354 N 
ATOM     44  C   UNL     1      -7.366  -7.980   2.104  1.00  0.00     0.074 A 
ATOM     45  C   UNL     1      -6.394  -7.122   1.472  1.00  0.00     0.031 C 
ATOM     46  C   UNL     1      -6.923 -11.681  -3.194  1.00  0.00     0.029 A 
ATOM     47  C   UNL     1      -8.122 -11.081  -2.638  1.00  0.00     0.049 A 
ATOM     48  H   UNL     1      -8.367 -10.365  -0.688  1.00  0.00     0.167 HD
ATOM     49  C   UNL     1      -8.466  -7.671   2.846  1.00  0.00     0.031 A 
ATOM     50  C   UNL     1      -9.332 -10.844  -3.200  1.00  0.00     0.031 A 
ATOM     51  C   UNL     1      -9.144  -8.842   3.325  1.00  0.00     0.049 A 
ATOM     52  C   UNL     1     -10.275 -10.567  -2.087  1.00  0.00     0.074 A 
ATOM     53  C   UNL     1      -8.797  -9.883   4.163  1.00  0.00     0.029 A 
ATOM     54  N   UNL     1     -10.233  -9.282   2.608  1.00  0.00    -0.354 N 
ATOM     55  N   UNL     1     -10.607 -11.451  -1.187  1.00  0.00    -0.248 NA
ATOM     56  C   UNL     1     -10.497  -9.179  -1.708  1.00  0.00     0.031 C 
ATOM     57  C   UNL     1      -9.352 -11.042   3.546  1.00  0.00     0.029 A 
ATOM     58  C   UNL     1     -10.056 -10.628   2.412  1.00  0.00     0.049 A 
ATOM     59  H   UNL     1     -10.991  -8.736   2.297  1.00  0.00     0.167 HD
ATOM     60  C   UNL     1     -10.680 -10.740   0.002  1.00  0.00     0.074 A 
ATOM     61  C   UNL     1     -10.699  -9.333  -0.396  1.00  0.00     0.031 C 
ATOM     62  C   UNL     1     -10.427 -11.334   1.205  1.00  0.00     0.031 A 
BRANCH  49  63
ATOM     63  C   UNL     1      -9.108  -6.314   2.878  1.00  0.00    -0.014 A 
ATOM     64  C   UNL     1     -10.082  -6.032   3.851  1.00  0.00     0.009 A 
ATOM     65  C   UNL     1      -8.965  -5.386   1.829  1.00  0.00     0.009 A 
ATOM     66  C   UNL     1     -10.890  -4.891   3.761  1.00  0.00     0.001 A 
ATOM     67  C   UNL     1      -9.742  -4.228   1.758  1.00  0.00     0.001 A 
ATOM     68  C   UNL     1     -10.719  -3.990   2.714  1.00  0.00     0.000 A 
ENDBRANCH  49  63
BRANCH  50  69
ATOM     69  C   UNL     1      -9.636 -10.513  -4.612  1.00  0.00    -0.014 A 
ATOM     70  C   UNL     1     -10.969 -10.449  -5.051  1.00  0.00     0.009 A 
ATOM     71  C   UNL     1      -8.646  -9.992  -5.465  1.00  0.00     0.009 A 
ATOM     72  C   UNL     1     -11.301  -9.834  -6.266  1.00  0.00     0.001 A 
ATOM     73  C   UNL     1      -8.976  -9.386  -6.684  1.00  0.00     0.001 A 
ATOM     74  C   UNL     1     -10.306  -9.289  -7.074  1.00  0.00     0.000 A 
ENDBRANCH  50  69
BRANCH  62  75
ATOM     75  C   UNL     1     -10.217 -12.830   1.238  1.00  0.00    -0.014 A 
ATOM     76  C   UNL     1      -9.104 -13.447   0.637  1.00  0.00     0.009 A 
ATOM     77  C   UNL     1     -11.019 -13.597   2.094  1.00  0.00     0.009 A 
ATOM     78  C   UNL     1      -8.802 -14.789   0.892  1.00  0.00     0.001 A 
ATOM     79  C   UNL     1     -10.708 -14.933   2.361  1.00  0.00     0.001 A 
ATOM     80  C   UNL     1      -9.599 -15.527   1.764  1.00  0.00     0.000 A 
ENDBRANCH  62  75
ENDBRANCH  36  37
ENDBRANCH  28  31
ENDBRANCH  26  27
ENDBRANCH   1  26
TORSDOF 13
