REMARK SMILES CC[C@H]1CC[C@](CC(C)(C)O)(C(=O)NCCCNC(=O)c2ccc(-c3c4nc(c(-c5ccccc5)c5ccc([nH]5)c(-c5ccccc5)c5nc(c(-c6ccccc6)c6ccc3[nH]6)C=C5)C=C4)cc2)C1
REMARK SMILES IDX 15 1 14 2 12 3 13 4 6 6 3 7 4 8 69 9 5 10 2 11 1 12 7 13
REMARK SMILES IDX 8 14 9 15 10 16 11 17 16 19 17 20 18 21 19 22 20 24 21 25
REMARK SMILES IDX 22 26 68 27 23 28 67 29 24 30 25 31 26 32 61 33 27 34 66 35
REMARK SMILES IDX 60 36 62 37 28 38 65 39 59 40 58 41 29 43 51 44 36 45 50 46
REMARK SMILES IDX 37 47 40 48 49 49 63 50 38 51 39 52 48 54 64 55 41 56 30 57
REMARK SMILES IDX 31 58 35 59 32 60 34 61 33 62 52 63 53 64 57 65 54 66 56 67
REMARK SMILES IDX 55 68 42 69 43 70 47 71 44 72 46 73 45 74
REMARK H PARENT 14 5 11 18 18 23 62 42 40 53
REMARK Flexibility Score: inf
ROOT
ATOM      1  C   UNL     1       4.676  -2.554   4.144  1.00  0.00     0.117 C 
ENDROOT
BRANCH   1   2
ATOM      2  N   UNL     1       4.194  -3.754   3.477  1.00  0.00    -0.356 N 
ATOM      3  C   UNL     1       3.019  -4.024   2.841  1.00  0.00     0.226 C 
ATOM      4  O   UNL     1       3.018  -5.042   2.142  1.00  0.00    -0.274 OA
ATOM      5  H   UNL     1       4.830  -4.505   3.487  1.00  0.00     0.163 HD
BRANCH   3   6
ATOM      6  C   UNL     1       1.781  -3.122   2.995  1.00  0.00     0.052 C 
ATOM      7  C   UNL     1       0.201  -2.096   1.349  1.00  0.00    -0.010 C 
ATOM      8  C   UNL     1       1.479  -1.282   1.338  1.00  0.00     0.005 C 
ATOM      9  C   UNL     1       0.735  -3.448   1.862  1.00  0.00     0.020 C 
ATOM     10  C   UNL     1       2.145  -1.635   2.658  1.00  0.00     0.017 C 
BRANCH   7  11
ATOM     11  C   UNL     1      -0.913  -1.503   2.233  1.00  0.00     0.000 C 
ATOM     12  C   UNL     1      -1.268  -0.059   1.906  1.00  0.00     0.004 C 
ENDBRANCH   7  11
BRANCH   6  13
ATOM     13  C   UNL     1       1.070  -3.255   4.395  1.00  0.00     0.051 C 
BRANCH  13  14
ATOM     14  C   UNL     1       1.342  -4.427   5.377  1.00  0.00     0.060 C 
ATOM     15  C   UNL     1       2.558  -4.172   6.268  1.00  0.00     0.042 C 
ATOM     16  C   UNL     1       0.119  -4.628   6.289  1.00  0.00     0.042 C 
BRANCH  14  17
ATOM     17  O   UNL     1       1.517  -5.641   4.663  1.00  0.00    -0.390 OA
ATOM     18  H   UNL     1       2.282  -5.560   4.071  1.00  0.00     0.211 HD
ENDBRANCH  14  17
ENDBRANCH  13  14
ENDBRANCH   6  13
ENDBRANCH   3   6
ENDBRANCH   1   2
BRANCH   1  19
ATOM     19  C   UNL     1       5.667  -2.823   5.268  1.00  0.00     0.042 C 
BRANCH  19  20
ATOM     20  C   UNL     1       6.881  -3.624   4.827  1.00  0.00     0.118 C 
BRANCH  20  21
ATOM     21  N   UNL     1       7.915  -2.786   4.241  1.00  0.00    -0.352 N 
ATOM     22  C   UNL     1       8.836  -1.963   4.831  1.00  0.00     0.251 C 
ATOM     23  H   UNL     1       7.960  -2.815   3.258  1.00  0.00     0.163 HD
ATOM     24  O   UNL     1       9.477  -1.182   4.124  1.00  0.00    -0.269 OA
BRANCH  22  25
ATOM     25  C   UNL     1       9.061  -1.964   6.296  1.00  0.00     0.039 A 
ATOM     26  C   UNL     1       9.408  -0.761   6.926  1.00  0.00     0.014 A 
ATOM     27  C   UNL     1       9.029  -3.139   7.050  1.00  0.00     0.014 A 
ATOM     28  C   UNL     1       9.718  -0.747   8.290  1.00  0.00     0.010 A 
ATOM     29  C   UNL     1       9.204  -3.100   8.429  1.00  0.00     0.010 A 
ATOM     30  C   UNL     1       9.617  -1.919   9.055  1.00  0.00    -0.014 A 
BRANCH  30  31
ATOM     31  C   UNL     1      10.065  -1.971  10.471  1.00  0.00     0.031 A 
ATOM     32  C   UNL     1      11.192  -2.898  10.862  1.00  0.00     0.074 A 
ATOM     33  C   UNL     1       9.447  -1.232  11.411  1.00  0.00     0.049 A 
ATOM     34  N   UNL     1      11.681  -3.156  12.050  1.00  0.00    -0.248 NA
ATOM     35  C   UNL     1      11.822  -3.676   9.781  1.00  0.00     0.031 C 
ATOM     36  C   UNL     1       8.313  -0.335  11.182  1.00  0.00     0.029 A 
ATOM     37  N   UNL     1       9.695  -1.120  12.756  1.00  0.00    -0.354 N 
ATOM     38  C   UNL     1      12.627  -4.158  11.859  1.00  0.00     0.074 A 
ATOM     39  C   UNL     1      12.604  -4.502  10.456  1.00  0.00     0.031 C 
ATOM     40  C   UNL     1       7.993   0.270  12.339  1.00  0.00     0.029 A 
ATOM     41  C   UNL     1       8.878  -0.218  13.391  1.00  0.00     0.049 A 
ATOM     42  H   UNL     1      10.393  -1.637  13.220  1.00  0.00     0.167 HD
ATOM     43  C   UNL     1      13.466  -4.723  12.759  1.00  0.00     0.031 A 
ATOM     44  C   UNL     1       8.858   0.181  14.676  1.00  0.00     0.031 A 
ATOM     45  C   UNL     1      13.547  -4.329  14.138  1.00  0.00     0.049 A 
ATOM     46  C   UNL     1       9.859  -0.391  15.640  1.00  0.00     0.074 A 
ATOM     47  C   UNL     1      14.414  -4.780  15.117  1.00  0.00     0.029 A 
ATOM     48  N   UNL     1      12.742  -3.366  14.724  1.00  0.00    -0.354 N 
ATOM     49  N   UNL     1      10.778  -1.303  15.433  1.00  0.00    -0.248 NA
ATOM     50  C   UNL     1       9.833   0.141  17.010  1.00  0.00     0.031 C 
ATOM     51  C   UNL     1      14.119  -4.101  16.305  1.00  0.00     0.029 A 
ATOM     52  C   UNL     1      13.094  -3.204  16.052  1.00  0.00     0.049 A 
ATOM     53  H   UNL     1      12.027  -2.871  14.264  1.00  0.00     0.167 HD
ATOM     54  C   UNL     1      11.456  -1.437  16.637  1.00  0.00     0.074 A 
ATOM     55  C   UNL     1      10.853  -0.499  17.564  1.00  0.00     0.031 C 
ATOM     56  C   UNL     1      12.484  -2.262  16.952  1.00  0.00     0.031 A 
BRANCH  43  57
ATOM     57  C   UNL     1      14.371  -5.818  12.264  1.00  0.00    -0.014 A 
ATOM     58  C   UNL     1      15.437  -5.545  11.391  1.00  0.00     0.009 A 
ATOM     59  C   UNL     1      14.154  -7.142  12.676  1.00  0.00     0.009 A 
ATOM     60  C   UNL     1      16.235  -6.581  10.901  1.00  0.00     0.001 A 
ATOM     61  C   UNL     1      14.973  -8.172  12.209  1.00  0.00     0.001 A 
ATOM     62  C   UNL     1      16.004  -7.893  11.312  1.00  0.00     0.000 A 
ENDBRANCH  43  57
BRANCH  44  63
ATOM     63  C   UNL     1       7.894   1.222  15.114  1.00  0.00    -0.014 A 
ATOM     64  C   UNL     1       8.336   2.529  15.372  1.00  0.00     0.009 A 
ATOM     65  C   UNL     1       6.533   0.920  15.272  1.00  0.00     0.009 A 
ATOM     66  C   UNL     1       7.438   3.507  15.805  1.00  0.00     0.001 A 
ATOM     67  C   UNL     1       5.634   1.907  15.682  1.00  0.00     0.001 A 
ATOM     68  C   UNL     1       6.088   3.197  15.956  1.00  0.00     0.000 A 
ENDBRANCH  44  63
BRANCH  56  69
ATOM     69  C   UNL     1      13.039  -2.158  18.342  1.00  0.00    -0.014 A 
ATOM     70  C   UNL     1      12.340  -2.674  19.443  1.00  0.00     0.009 A 
ATOM     71  C   UNL     1      14.291  -1.558  18.546  1.00  0.00     0.009 A 
ATOM     72  C   UNL     1      12.869  -2.557  20.730  1.00  0.00     0.001 A 
ATOM     73  C   UNL     1      14.828  -1.464  19.830  1.00  0.00     0.001 A 
ATOM     74  C   UNL     1      14.112  -1.955  20.921  1.00  0.00     0.000 A 
ENDBRANCH  56  69
ENDBRANCH  30  31
ENDBRANCH  22  25
ENDBRANCH  20  21
ENDBRANCH  19  20
ENDBRANCH   1  19
TORSDOF 14
