REMARK SMILES O=C(/C=C/c1cccs1)NCC(=O)NCCCNC(=O)c1ccc(-c2c3nc(c(-c4ccccc4)c4ccc([nH]4)c(-c4ccccc4)c4nc(c(-c5ccccc5)c5ccc2[nH]5)C=C4)C=C3)cc1
REMARK SMILES IDX 15 1 14 2 12 3 13 4 11 6 10 7 1 8 2 9 3 11 4 12 5 13 6 14
REMARK SMILES IDX 9 15 7 16 8 17 16 18 17 19 18 20 19 21 20 23 21 24 22 25
REMARK SMILES IDX 68 26 23 27 67 28 24 29 25 30 26 31 61 32 27 33 66 34 60 35
REMARK SMILES IDX 62 36 28 37 65 38 59 39 58 40 29 42 51 43 36 44 50 45 37 46
REMARK SMILES IDX 40 47 49 48 63 49 38 50 39 51 48 53 64 54 41 55 30 56 31 57
REMARK SMILES IDX 35 58 32 59 34 60 33 61 52 62 53 63 57 64 54 65 56 66 55 67
REMARK SMILES IDX 42 68 43 69 47 70 44 71 46 72 45 73
REMARK H PARENT 14 5 10 10 18 22 62 41 40 52
REMARK Flexibility Score: inf
ROOT
ATOM      1  C   UNL     1       1.413  -0.451  -3.289  1.00  0.00     0.117 C 
ENDROOT
BRANCH   1   2
ATOM      2  N   UNL     1       2.202  -1.659  -3.456  1.00  0.00    -0.355 N 
ATOM      3  C   UNL     1       2.670  -2.511  -2.497  1.00  0.00     0.239 C 
ATOM      4  O   UNL     1       3.406  -3.438  -2.843  1.00  0.00    -0.273 OA
ATOM      5  H   UNL     1       2.431  -1.894  -4.384  1.00  0.00     0.163 HD
BRANCH   3   6
ATOM      6  C   UNL     1       2.302  -2.292  -1.031  1.00  0.00     0.216 C 
BRANCH   6   7
ATOM      7  N   UNL     1       3.011  -1.161  -0.457  1.00  0.00    -0.343 N 
ATOM      8  O   UNL     1       1.121  -0.083   0.250  1.00  0.00    -0.270 OA
ATOM      9  C   UNL     1       2.344  -0.137   0.152  1.00  0.00     0.244 C 
ATOM     10  H   UNL     1       3.994  -1.132  -0.509  1.00  0.00     0.164 HD
BRANCH   9  11
ATOM     11  C   UNL     1       3.154   0.953   0.747  1.00  0.00     0.072 C 
ATOM     12  C   UNL     1       4.450   1.212   0.519  1.00  0.00     0.024 C 
BRANCH  12  13
ATOM     13  C   UNL     1       5.101   2.322   1.138  1.00  0.00     0.027 A 
ATOM     14  C   UNL     1       4.766   3.054   2.268  1.00  0.00     0.020 A 
ATOM     15  S   UNL     1       6.563   2.931   0.451  1.00  0.00    -0.144 S 
ATOM     16  C   UNL     1       5.682   4.109   2.548  1.00  0.00     0.012 A 
ATOM     17  C   UNL     1       6.703   4.157   1.630  1.00  0.00     0.065 A 
ENDBRANCH  12  13
ENDBRANCH   9  11
ENDBRANCH   6   7
ENDBRANCH   3   6
ENDBRANCH   1   2
BRANCH   1  18
ATOM     18  C   UNL     1       2.269   0.808  -3.413  1.00  0.00     0.042 C 
BRANCH  18  19
ATOM     19  C   UNL     1       2.825   1.050  -4.816  1.00  0.00     0.118 C 
BRANCH  19  20
ATOM     20  N   UNL     1       1.783   1.319  -5.797  1.00  0.00    -0.352 N 
ATOM     21  C   UNL     1       1.633   2.365  -6.670  1.00  0.00     0.251 C 
ATOM     22  H   UNL     1       1.072   0.640  -5.840  1.00  0.00     0.163 HD
ATOM     23  O   UNL     1       0.584   2.477  -7.303  1.00  0.00    -0.269 OA
BRANCH  21  24
ATOM     24  C   UNL     1       2.703   3.370  -6.854  1.00  0.00     0.039 A 
ATOM     25  C   UNL     1       2.341   4.717  -6.968  1.00  0.00     0.014 A 
ATOM     26  C   UNL     1       4.045   2.999  -6.968  1.00  0.00     0.014 A 
ATOM     27  C   UNL     1       3.325   5.694  -7.137  1.00  0.00     0.010 A 
ATOM     28  C   UNL     1       5.032   3.980  -7.078  1.00  0.00     0.010 A 
ATOM     29  C   UNL     1       4.682   5.336  -7.163  1.00  0.00    -0.014 A 
BRANCH  29  30
ATOM     30  C   UNL     1       5.745   6.367  -7.273  1.00  0.00     0.031 A 
ATOM     31  C   UNL     1       6.624   6.429  -8.492  1.00  0.00     0.074 A 
ATOM     32  C   UNL     1       5.958   7.216  -6.248  1.00  0.00     0.049 A 
ATOM     33  N   UNL     1       7.651   7.206  -8.730  1.00  0.00    -0.248 NA
ATOM     34  C   UNL     1       6.320   5.484  -9.578  1.00  0.00     0.031 C 
ATOM     35  C   UNL     1       5.195   7.247  -4.998  1.00  0.00     0.029 A 
ATOM     36  N   UNL     1       6.889   8.212  -6.092  1.00  0.00    -0.354 N 
ATOM     37  C   UNL     1       8.124   6.834  -9.983  1.00  0.00     0.074 A 
ATOM     38  C   UNL     1       7.297   5.737 -10.438  1.00  0.00     0.031 C 
ATOM     39  C   UNL     1       5.678   8.223  -4.213  1.00  0.00     0.029 A 
ATOM     40  C   UNL     1       6.806   8.860  -4.884  1.00  0.00     0.049 A 
ATOM     41  H   UNL     1       7.554   8.441  -6.781  1.00  0.00     0.167 HD
ATOM     42  C   UNL     1       9.144   7.367 -10.697  1.00  0.00     0.031 A 
ATOM     43  C   UNL     1       7.560   9.849  -4.367  1.00  0.00     0.031 A 
ATOM     44  C   UNL     1       9.962   8.465 -10.255  1.00  0.00     0.049 A 
ATOM     45  C   UNL     1       8.697  10.409  -5.176  1.00  0.00     0.074 A 
ATOM     46  C   UNL     1      10.996   9.095 -10.927  1.00  0.00     0.029 A 
ATOM     47  N   UNL     1       9.835   9.099  -9.030  1.00  0.00    -0.354 N 
ATOM     48  N   UNL     1       9.101  10.074  -6.376  1.00  0.00    -0.248 NA
ATOM     49  C   UNL     1       9.475  11.493  -4.558  1.00  0.00     0.031 C 
ATOM     50  C   UNL     1      11.519  10.088 -10.093  1.00  0.00     0.029 A 
ATOM     51  C   UNL     1      10.780  10.105  -8.921  1.00  0.00     0.049 A 
ATOM     52  H   UNL     1       9.172   8.869  -8.340  1.00  0.00     0.167 HD
ATOM     53  C   UNL     1      10.160  10.923  -6.668  1.00  0.00     0.074 A 
ATOM     54  C   UNL     1      10.327  11.798  -5.527  1.00  0.00     0.031 C 
ATOM     55  C   UNL     1      10.928  10.973  -7.784  1.00  0.00     0.031 A 
BRANCH  42  56
ATOM     56  C   UNL     1       9.435   6.767 -12.044  1.00  0.00    -0.014 A 
ATOM     57  C   UNL     1       8.581   6.994 -13.135  1.00  0.00     0.009 A 
ATOM     58  C   UNL     1      10.603   6.014 -12.239  1.00  0.00     0.009 A 
ATOM     59  C   UNL     1       8.878   6.455 -14.388  1.00  0.00     0.001 A 
ATOM     60  C   UNL     1      10.910   5.497 -13.499  1.00  0.00     0.001 A 
ATOM     61  C   UNL     1      10.044   5.712 -14.570  1.00  0.00     0.000 A 
ENDBRANCH  42  56
BRANCH  43  62
ATOM     62  C   UNL     1       7.268  10.383  -3.012  1.00  0.00    -0.014 A 
ATOM     63  C   UNL     1       6.738  11.672  -2.854  1.00  0.00     0.009 A 
ATOM     64  C   UNL     1       7.546   9.617  -1.869  1.00  0.00     0.009 A 
ATOM     65  C   UNL     1       6.522  12.197  -1.578  1.00  0.00     0.001 A 
ATOM     66  C   UNL     1       7.302  10.134  -0.595  1.00  0.00     0.001 A 
ATOM     67  C   UNL     1       6.802  11.427  -0.450  1.00  0.00     0.000 A 
ENDBRANCH  43  62
BRANCH  55  68
ATOM     68  C   UNL     1      11.988  12.034  -7.839  1.00  0.00    -0.014 A 
ATOM     69  C   UNL     1      13.166  11.927  -7.084  1.00  0.00     0.009 A 
ATOM     70  C   UNL     1      11.819  13.140  -8.687  1.00  0.00     0.009 A 
ATOM     71  C   UNL     1      14.140  12.924  -7.153  1.00  0.00     0.001 A 
ATOM     72  C   UNL     1      12.807  14.122  -8.774  1.00  0.00     0.001 A 
ATOM     73  C   UNL     1      13.962  14.018  -8.001  1.00  0.00     0.000 A 
ENDBRANCH  55  68
ENDBRANCH  29  30
ENDBRANCH  21  24
ENDBRANCH  19  20
ENDBRANCH  18  19
ENDBRANCH   1  18
TORSDOF 13
