REMARK SMILES C[C@@H](C(=O)NCCCNC(=O)c1ccc(-c2c3nc(c(-c4ccccc4)c4ccc([nH]4)c(-c4ccccc4)c4nc(c(-c5ccccc5)c5ccc2[nH]5)C=C4)C=C3)cc1)c1ccc(-c2ccccc2)c(F)c1
REMARK SMILES IDX 7 1 6 2 5 3 3 4 4 5 2 7 1 8 60 9 61 10 72 11 62 12 70 13
REMARK SMILES IDX 63 14 71 15 64 16 65 17 69 18 66 19 68 20 67 21 8 22 9 23
REMARK SMILES IDX 10 24 11 26 12 27 13 28 59 29 14 30 58 31 15 32 16 33 17 34
REMARK SMILES IDX 52 35 18 36 57 37 51 38 53 39 19 40 56 41 50 42 49 43 20 45
REMARK SMILES IDX 42 46 27 47 41 48 28 49 31 50 40 51 54 52 29 53 30 54 39 56
REMARK SMILES IDX 55 57 32 58 21 59 22 60 26 61 23 62 25 63 24 64 43 65 44 66
REMARK SMILES IDX 48 67 45 68 47 69 46 70 33 71 34 72 38 73 35 74 37 75 36 76
REMARK H PARENT 5 6 9 25 53 44 31 55
REMARK Flexibility Score: inf
ROOT
ATOM      1  C   UNL     1       4.250   0.558   1.185  1.00  0.00     0.042 C 
ENDROOT
BRANCH   1   2
ATOM      2  C   UNL     1       3.373  -0.378   2.012  1.00  0.00     0.117 C 
BRANCH   2   3
ATOM      3  N   UNL     1       2.338   0.352   2.714  1.00  0.00    -0.356 N 
ATOM      4  C   UNL     1       1.012   0.503   2.436  1.00  0.00     0.227 C 
ATOM      5  O   UNL     1       0.397   1.296   3.150  1.00  0.00    -0.274 OA
ATOM      6  H   UNL     1       2.642   0.816   3.528  1.00  0.00     0.163 HD
BRANCH   4   7
ATOM      7  C   UNL     1       0.361  -0.307   1.301  1.00  0.00     0.105 C 
ATOM      8  C   UNL     1       0.759   0.207  -0.084  1.00  0.00     0.023 C 
BRANCH   7   9
ATOM      9  C   UNL     1      -1.161  -0.343   1.400  1.00  0.00    -0.033 A 
ATOM     10  C   UNL     1      -1.916   0.839   1.368  1.00  0.00     0.005 A 
ATOM     11  C   UNL     1      -1.840  -1.563   1.495  1.00  0.00     0.044 A 
ATOM     12  C   UNL     1      -3.310   0.802   1.441  1.00  0.00     0.012 A 
ATOM     13  C   UNL     1      -3.235  -1.591   1.562  1.00  0.00     0.131 A 
ATOM     14  C   UNL     1      -4.000  -0.416   1.534  1.00  0.00     0.017 A 
ATOM     15  F   UNL     1      -3.836  -2.789   1.640  1.00  0.00    -0.206 F 
BRANCH  14  16
ATOM     16  C   UNL     1      -5.469  -0.426   1.607  1.00  0.00    -0.015 A 
ATOM     17  C   UNL     1      -6.239   0.263   0.654  1.00  0.00     0.009 A 
ATOM     18  C   UNL     1      -6.142  -1.085   2.647  1.00  0.00     0.009 A 
ATOM     19  C   UNL     1      -7.632   0.303   0.744  1.00  0.00     0.001 A 
ATOM     20  C   UNL     1      -7.536  -1.044   2.740  1.00  0.00     0.001 A 
ATOM     21  C   UNL     1      -8.280  -0.347   1.791  1.00  0.00     0.000 A 
ENDBRANCH  14  16
ENDBRANCH   7   9
ENDBRANCH   4   7
ENDBRANCH   2   3
ENDBRANCH   1   2
BRANCH   1  22
ATOM     22  C   UNL     1       4.989   1.606   2.010  1.00  0.00     0.118 C 
BRANCH  22  23
ATOM     23  N   UNL     1       5.993   1.025   2.891  1.00  0.00    -0.352 N 
ATOM     24  C   UNL     1       7.344   1.268   2.948  1.00  0.00     0.251 C 
ATOM     25  H   UNL     1       5.655   0.364   3.537  1.00  0.00     0.163 HD
ATOM     26  O   UNL     1       8.071   0.561   3.638  1.00  0.00    -0.269 OA
BRANCH  24  27
ATOM     27  C   UNL     1       7.922   2.373   2.156  1.00  0.00     0.039 A 
ATOM     28  C   UNL     1       9.070   2.138   1.394  1.00  0.00     0.014 A 
ATOM     29  C   UNL     1       7.323   3.635   2.160  1.00  0.00     0.014 A 
ATOM     30  C   UNL     1       9.576   3.151   0.576  1.00  0.00     0.010 A 
ATOM     31  C   UNL     1       7.783   4.616   1.291  1.00  0.00     0.010 A 
ATOM     32  C   UNL     1       8.914   4.385   0.491  1.00  0.00    -0.014 A 
BRANCH  32  33
ATOM     33  C   UNL     1       9.375   5.470  -0.410  1.00  0.00     0.031 A 
ATOM     34  C   UNL     1       9.811   6.782   0.175  1.00  0.00     0.074 A 
ATOM     35  C   UNL     1       9.284   5.322  -1.745  1.00  0.00     0.049 A 
ATOM     36  N   UNL     1      10.063   7.916  -0.427  1.00  0.00    -0.248 NA
ATOM     37  C   UNL     1       9.945   6.833   1.640  1.00  0.00     0.031 C 
ATOM     38  C   UNL     1       8.852   4.109  -2.439  1.00  0.00     0.029 A 
ATOM     39  N   UNL     1       9.522   6.219  -2.757  1.00  0.00    -0.354 N 
ATOM     40  C   UNL     1      10.347   8.822   0.586  1.00  0.00     0.074 A 
ATOM     41  C   UNL     1      10.197   8.117   1.841  1.00  0.00     0.031 C 
ATOM     42  C   UNL     1       8.855   4.337  -3.762  1.00  0.00     0.029 A 
ATOM     43  C   UNL     1       9.239   5.723  -4.006  1.00  0.00     0.049 A 
ATOM     44  H   UNL     1       9.863   7.130  -2.602  1.00  0.00     0.167 HD
ATOM     45  C   UNL     1      10.710  10.123   0.482  1.00  0.00     0.031 A 
ATOM     46  C   UNL     1       9.259   6.324  -5.211  1.00  0.00     0.031 A 
ATOM     47  C   UNL     1      10.867  10.818  -0.767  1.00  0.00     0.049 A 
ATOM     48  C   UNL     1       9.652   7.771  -5.308  1.00  0.00     0.074 A 
ATOM     49  C   UNL     1      11.286  12.118  -0.984  1.00  0.00     0.029 A 
ATOM     50  N   UNL     1      10.607  10.266  -2.013  1.00  0.00    -0.354 N 
ATOM     51  N   UNL     1       9.968   8.605  -4.347  1.00  0.00    -0.248 NA
ATOM     52  C   UNL     1       9.700   8.358  -6.654  1.00  0.00     0.031 C 
ATOM     53  C   UNL     1      11.231  12.369  -2.359  1.00  0.00     0.029 A 
ATOM     54  C   UNL     1      10.836  11.207  -3.002  1.00  0.00     0.049 A 
ATOM     55  H   UNL     1      10.305   9.342  -2.170  1.00  0.00     0.167 HD
ATOM     56  C   UNL     1      10.283   9.804  -4.972  1.00  0.00     0.074 A 
ATOM     57  C   UNL     1      10.121   9.589  -6.396  1.00  0.00     0.031 C 
ATOM     58  C   UNL     1      10.678  10.975  -4.415  1.00  0.00     0.031 A 
BRANCH  45  59
ATOM     59  C   UNL     1      10.931  10.877   1.764  1.00  0.00    -0.014 A 
ATOM     60  C   UNL     1      12.010  10.580   2.612  1.00  0.00     0.009 A 
ATOM     61  C   UNL     1      10.043  11.900   2.132  1.00  0.00     0.009 A 
ATOM     62  C   UNL     1      12.161  11.250   3.828  1.00  0.00     0.001 A 
ATOM     63  C   UNL     1      10.216  12.593   3.331  1.00  0.00     0.001 A 
ATOM     64  C   UNL     1      11.266  12.257   4.185  1.00  0.00     0.000 A 
ENDBRANCH  45  59
BRANCH  46  65
ATOM     65  C   UNL     1       8.894   5.545  -6.423  1.00  0.00    -0.014 A 
ATOM     66  C   UNL     1       9.883   5.141  -7.332  1.00  0.00     0.009 A 
ATOM     67  C   UNL     1       7.561   5.169  -6.656  1.00  0.00     0.009 A 
ATOM     68  C   UNL     1       9.543   4.387  -8.457  1.00  0.00     0.001 A 
ATOM     69  C   UNL     1       7.229   4.393  -7.768  1.00  0.00     0.001 A 
ATOM     70  C   UNL     1       8.218   4.007  -8.670  1.00  0.00     0.000 A 
ENDBRANCH  46  65
BRANCH  58  71
ATOM     71  C   UNL     1      11.015  12.108  -5.343  1.00  0.00    -0.014 A 
ATOM     72  C   UNL     1      10.015  12.837  -6.003  1.00  0.00     0.009 A 
ATOM     73  C   UNL     1      12.355  12.500  -5.492  1.00  0.00     0.009 A 
ATOM     74  C   UNL     1      10.354  13.927  -6.808  1.00  0.00     0.001 A 
ATOM     75  C   UNL     1      12.688  13.605  -6.276  1.00  0.00     0.001 A 
ATOM     76  C   UNL     1      11.688  14.315  -6.937  1.00  0.00     0.000 A 
ENDBRANCH  58  71
ENDBRANCH  32  33
ENDBRANCH  24  27
ENDBRANCH  22  23
ENDBRANCH   1  22
TORSDOF 12
