REMARK SMILES C[C@@H](NS(=O)(=O)/C=C/c1ccccc1)C(=O)NCCCNC(=O)c1ccc(-c2c3nc(c(-c4ccccc4)c4ccc([nH]4)c(-c4ccccc4)c4nc(c(-c5ccccc5)c5ccc2[nH]5)C=C4)C=C3)cc1
REMARK SMILES IDX 18 1 17 2 15 3 16 4 2 6 1 7 3 8 4 10 5 11 6 12 7 13 8 14
REMARK SMILES IDX 9 15 10 16 14 17 11 18 13 19 12 20 19 21 20 22 21 23 22 24
REMARK SMILES IDX 23 26 24 27 25 28 71 29 26 30 70 31 27 32 28 33 29 34 64 35
REMARK SMILES IDX 30 36 69 37 63 38 65 39 31 40 68 41 62 42 61 43 32 45 54 46
REMARK SMILES IDX 39 47 53 48 40 49 43 50 52 51 66 52 41 53 42 54 51 56 67 57
REMARK SMILES IDX 44 58 33 59 34 60 38 61 35 62 37 63 36 64 55 65 56 66 60 67
REMARK SMILES IDX 57 68 59 69 58 70 45 71 46 72 50 73 47 74 49 75 48 76
REMARK H PARENT 17 5 3 9 21 25 65 44 43 55
REMARK Flexibility Score: inf
ROOT
ATOM      1  C   UNL     1      -0.860  -0.781   1.764  1.00  0.00     0.117 C 
ENDROOT
BRANCH   1   2
ATOM      2  N   UNL     1      -1.321  -0.445   0.426  1.00  0.00    -0.355 N 
ATOM      3  C   UNL     1      -0.731  -0.654  -0.787  1.00  0.00     0.237 C 
ATOM      4  O   UNL     1      -1.384  -0.377  -1.796  1.00  0.00    -0.273 OA
ATOM      5  H   UNL     1      -2.196   0.004   0.389  1.00  0.00     0.163 HD
BRANCH   3   6
ATOM      6  C   UNL     1       0.691  -1.197  -0.897  1.00  0.00     0.155 C 
ATOM      7  C   UNL     1       1.694  -0.140  -0.444  1.00  0.00     0.036 C 
BRANCH   6   8
ATOM      8  N   UNL     1       0.868  -2.457  -0.127  1.00  0.00    -0.199 NA
ATOM      9  H   UNL     1       0.371  -2.353   0.758  1.00  0.00     0.142 HD
BRANCH   8  10
ATOM     10  S   UNL     1       0.306  -3.883  -0.872  1.00  0.00     0.234 S 
ATOM     11  O   UNL     1       0.945  -3.914  -2.170  1.00  0.00    -0.208 OA
ATOM     12  O   UNL     1       0.587  -4.923   0.095  1.00  0.00    -0.208 OA
BRANCH  10  13
ATOM     13  C   UNL     1      -1.403  -3.732  -1.084  1.00  0.00     0.123 C 
ATOM     14  C   UNL     1      -2.190  -3.671  -0.001  1.00  0.00     0.021 C 
BRANCH  14  15
ATOM     15  C   UNL     1      -3.639  -3.474  -0.055  1.00  0.00    -0.025 A 
ATOM     16  C   UNL     1      -4.207  -2.312  -0.593  1.00  0.00     0.008 A 
ATOM     17  C   UNL     1      -4.473  -4.432   0.529  1.00  0.00     0.008 A 
ATOM     18  C   UNL     1      -5.584  -2.095  -0.513  1.00  0.00     0.001 A 
ATOM     19  C   UNL     1      -5.853  -4.225   0.588  1.00  0.00     0.001 A 
ATOM     20  C   UNL     1      -6.406  -3.051   0.081  1.00  0.00     0.000 A 
ENDBRANCH  14  15
ENDBRANCH  10  13
ENDBRANCH   8  10
ENDBRANCH   6   8
ENDBRANCH   3   6
ENDBRANCH   1   2
BRANCH   1  21
ATOM     21  C   UNL     1      -1.174   0.326   2.759  1.00  0.00     0.042 C 
BRANCH  21  22
ATOM     22  C   UNL     1      -2.662   0.493   3.039  1.00  0.00     0.118 C 
BRANCH  22  23
ATOM     23  N   UNL     1      -3.231  -0.615   3.793  1.00  0.00    -0.352 N 
ATOM     24  C   UNL     1      -3.992  -0.584   4.938  1.00  0.00     0.251 C 
ATOM     25  H   UNL     1      -3.044  -1.512   3.434  1.00  0.00     0.163 HD
ATOM     26  O   UNL     1      -4.263  -1.624   5.529  1.00  0.00    -0.269 OA
BRANCH  24  27
ATOM     27  C   UNL     1      -4.456   0.713   5.477  1.00  0.00     0.039 A 
ATOM     28  C   UNL     1      -4.335   0.957   6.846  1.00  0.00     0.014 A 
ATOM     29  C   UNL     1      -4.984   1.694   4.633  1.00  0.00     0.014 A 
ATOM     30  C   UNL     1      -4.673   2.211   7.356  1.00  0.00     0.010 A 
ATOM     31  C   UNL     1      -5.234   2.971   5.127  1.00  0.00     0.010 A 
ATOM     32  C   UNL     1      -5.083   3.244   6.494  1.00  0.00    -0.014 A 
BRANCH  32  33
ATOM     33  C   UNL     1      -5.334   4.613   7.013  1.00  0.00     0.031 A 
ATOM     34  C   UNL     1      -6.702   5.230   6.918  1.00  0.00     0.074 A 
ATOM     35  C   UNL     1      -4.311   5.321   7.532  1.00  0.00     0.049 A 
ATOM     36  N   UNL     1      -7.106   6.406   7.330  1.00  0.00    -0.248 NA
ATOM     37  C   UNL     1      -7.748   4.437   6.252  1.00  0.00     0.031 C 
ATOM     38  C   UNL     1      -2.923   4.863   7.626  1.00  0.00     0.029 A 
ATOM     39  N   UNL     1      -4.283   6.577   8.084  1.00  0.00    -0.354 N 
ATOM     40  C   UNL     1      -8.444   6.495   6.965  1.00  0.00     0.074 A 
ATOM     41  C   UNL     1      -8.768   5.283   6.247  1.00  0.00     0.031 C 
ATOM     42  C   UNL     1      -2.190   5.803   8.243  1.00  0.00     0.029 A 
ATOM     43  C   UNL     1      -3.045   6.944   8.553  1.00  0.00     0.049 A 
ATOM     44  H   UNL     1      -5.075   7.160   8.139  1.00  0.00     0.167 HD
ATOM     45  C   UNL     1      -9.331   7.485   7.225  1.00  0.00     0.031 A 
ATOM     46  C   UNL     1      -2.642   8.070   9.172  1.00  0.00     0.031 A 
ATOM     47  C   UNL     1      -9.012   8.690   7.944  1.00  0.00     0.049 A 
ATOM     48  C   UNL     1      -3.647   9.151   9.453  1.00  0.00     0.074 A 
ATOM     49  C   UNL     1      -9.854   9.728   8.305  1.00  0.00     0.029 A 
ATOM     50  N   UNL     1      -7.748   9.021   8.407  1.00  0.00    -0.354 N 
ATOM     51  N   UNL     1      -4.927   9.184   9.172  1.00  0.00    -0.248 NA
ATOM     52  C   UNL     1      -3.152  10.343  10.155  1.00  0.00     0.031 C 
ATOM     53  C   UNL     1      -9.089  10.710   8.943  1.00  0.00     0.029 A 
ATOM     54  C   UNL     1      -7.783  10.257   9.033  1.00  0.00     0.049 A 
ATOM     55  H   UNL     1      -6.945   8.461   8.307  1.00  0.00     0.167 HD
ATOM     56  C   UNL     1      -5.396  10.385   9.688  1.00  0.00     0.074 A 
ATOM     57  C   UNL     1      -4.267  11.040  10.318  1.00  0.00     0.031 C 
ATOM     58  C   UNL     1      -6.650  10.900   9.646  1.00  0.00     0.031 A 
BRANCH  45  59
ATOM     59  C   UNL     1     -10.737   7.303   6.721  1.00  0.00    -0.014 A 
ATOM     60  C   UNL     1     -11.589   6.333   7.275  1.00  0.00     0.009 A 
ATOM     61  C   UNL     1     -11.229   8.133   5.701  1.00  0.00     0.009 A 
ATOM     62  C   UNL     1     -12.889   6.173   6.792  1.00  0.00     0.001 A 
ATOM     63  C   UNL     1     -12.539   7.991   5.241  1.00  0.00     0.001 A 
ATOM     64  C   UNL     1     -13.365   7.005   5.779  1.00  0.00     0.000 A 
ENDBRANCH  45  59
BRANCH  46  65
ATOM     65  C   UNL     1      -1.226   8.221   9.599  1.00  0.00    -0.014 A 
ATOM     66  C   UNL     1      -0.887   8.202  10.961  1.00  0.00     0.009 A 
ATOM     67  C   UNL     1      -0.207   8.392   8.649  1.00  0.00     0.009 A 
ATOM     68  C   UNL     1       0.438   8.383  11.364  1.00  0.00     0.001 A 
ATOM     69  C   UNL     1       1.121   8.541   9.053  1.00  0.00     0.001 A 
ATOM     70  C   UNL     1       1.441   8.547  10.410  1.00  0.00     0.000 A 
ENDBRANCH  46  65
BRANCH  58  71
ATOM     71  C   UNL     1      -6.868  12.220  10.332  1.00  0.00    -0.014 A 
ATOM     72  C   UNL     1      -6.333  13.411   9.816  1.00  0.00     0.009 A 
ATOM     73  C   UNL     1      -7.632  12.272  11.509  1.00  0.00     0.009 A 
ATOM     74  C   UNL     1      -6.519  14.619  10.492  1.00  0.00     0.001 A 
ATOM     75  C   UNL     1      -7.844  13.486  12.163  1.00  0.00     0.001 A 
ATOM     76  C   UNL     1      -7.276  14.656  11.662  1.00  0.00     0.000 A 
ENDBRANCH  58  71
ENDBRANCH  32  33
ENDBRANCH  24  27
ENDBRANCH  22  23
ENDBRANCH  21  22
ENDBRANCH   1  21
TORSDOF 14
