REMARK SMILES CC(C)Cc1ccc([C@H](CC(=O)NCCCNC(=O)c2ccc(-c3c4nc(c(-c5ccccc5)c5ccc([nH]5)c(-c5ccccc5)c5nc(c(-c6ccccc6)c6ccc3[nH]6)C=C5)C=C4)cc2)NC=O)cc1
REMARK SMILES IDX 14 1 13 2 11 3 12 4 10 6 9 7 8 8 5 9 6 10 72 11 7 12 71 13
REMARK SMILES IDX 4 14 2 15 1 16 3 17 68 18 69 19 70 21 15 22 16 23 17 24
REMARK SMILES IDX 18 25 19 27 20 28 21 29 67 30 22 31 66 32 23 33 24 34 25 35
REMARK SMILES IDX 60 36 26 37 65 38 59 39 61 40 27 41 64 42 58 43 57 44 28 46
REMARK SMILES IDX 50 47 35 48 49 49 36 50 39 51 48 52 62 53 37 54 38 55 47 57
REMARK SMILES IDX 63 58 40 59 29 60 30 61 34 62 31 63 33 64 32 65 51 66 52 67
REMARK SMILES IDX 56 68 53 69 55 70 54 71 41 72 42 73 46 74 43 75 45 76 44 77
REMARK H PARENT 13 5 68 20 17 26 61 45 39 56
REMARK Flexibility Score: inf
ROOT
ATOM      1  C   UNL     1      -4.304   0.498   3.495  1.00  0.00     0.117 C 
ENDROOT
BRANCH   1   2
ATOM      2  N   UNL     1      -4.417   1.306   2.299  1.00  0.00    -0.356 N 
ATOM      3  C   UNL     1      -3.614   2.288   1.818  1.00  0.00     0.222 C 
ATOM      4  O   UNL     1      -3.978   2.886   0.804  1.00  0.00    -0.275 OA
ATOM      5  H   UNL     1      -5.206   1.111   1.744  1.00  0.00     0.163 HD
BRANCH   3   6
ATOM      6  C   UNL     1      -2.290   2.608   2.466  1.00  0.00     0.129 C 
BRANCH   6   7
ATOM      7  C   UNL     1      -2.384   3.381   3.789  1.00  0.00     0.121 C 
BRANCH   7   8
ATOM      8  C   UNL     1      -1.040   3.861   4.336  1.00  0.00    -0.025 A 
ATOM      9  C   UNL     1       1.356   4.971   5.368  1.00  0.00    -0.048 A 
ATOM     10  C   UNL     1       1.308   4.462   4.068  1.00  0.00     0.004 A 
ATOM     11  C   UNL     1       0.220   4.867   6.174  1.00  0.00     0.004 A 
ATOM     12  C   UNL     1       0.127   3.919   3.559  1.00  0.00     0.006 A 
ATOM     13  C   UNL     1      -0.961   4.318   5.665  1.00  0.00     0.006 A 
BRANCH   9  14
ATOM     14  C   UNL     1       2.584   5.707   5.847  1.00  0.00     0.038 C 
BRANCH  14  15
ATOM     15  C   UNL     1       2.708   7.108   5.209  1.00  0.00    -0.013 C 
ATOM     16  C   UNL     1       1.578   8.043   5.651  1.00  0.00     0.008 C 
ATOM     17  C   UNL     1       4.060   7.730   5.555  1.00  0.00     0.008 C 
ENDBRANCH  14  15
ENDBRANCH   9  14
ENDBRANCH   7   8
BRANCH   7  18
ATOM     18  N   UNL     1      -3.292   4.514   3.673  1.00  0.00    -0.351 N 
ATOM     19  C   UNL     1      -4.224   4.861   4.605  1.00  0.00     0.337 C 
ATOM     20  H   UNL     1      -3.229   5.069   2.862  1.00  0.00     0.163 HD
ATOM     21  O   UNL     1      -5.006   5.788   4.467  1.00  0.00    -0.279 OA
ENDBRANCH   7  18
ENDBRANCH   6   7
ENDBRANCH   3   6
ENDBRANCH   1   2
BRANCH   1  22
ATOM     22  C   UNL     1      -5.217   1.005   4.609  1.00  0.00     0.042 C 
BRANCH  22  23
ATOM     23  C   UNL     1      -6.693   1.093   4.231  1.00  0.00     0.118 C 
BRANCH  23  24
ATOM     24  N   UNL     1      -7.285  -0.213   3.994  1.00  0.00    -0.352 N 
ATOM     25  C   UNL     1      -8.369  -0.806   4.593  1.00  0.00     0.251 C 
ATOM     26  H   UNL     1      -6.843  -0.754   3.300  1.00  0.00     0.163 HD
ATOM     27  O   UNL     1      -8.601  -1.994   4.385  1.00  0.00    -0.269 OA
BRANCH  25  28
ATOM     28  C   UNL     1      -9.248  -0.035   5.501  1.00  0.00     0.039 A 
ATOM     29  C   UNL     1      -9.686  -0.642   6.682  1.00  0.00     0.014 A 
ATOM     30  C   UNL     1      -9.676   1.257   5.181  1.00  0.00     0.014 A 
ATOM     31  C   UNL     1     -10.510   0.062   7.564  1.00  0.00     0.010 A 
ATOM     32  C   UNL     1     -10.445   1.981   6.091  1.00  0.00     0.010 A 
ATOM     33  C   UNL     1     -10.876   1.389   7.288  1.00  0.00    -0.014 A 
BRANCH  33  34
ATOM     34  C   UNL     1     -11.713   2.166   8.239  1.00  0.00     0.031 A 
ATOM     35  C   UNL     1     -13.095   2.613   7.846  1.00  0.00     0.074 A 
ATOM     36  C   UNL     1     -11.207   2.522   9.437  1.00  0.00     0.049 A 
ATOM     37  N   UNL     1     -13.950   3.339   8.523  1.00  0.00    -0.248 NA
ATOM     38  C   UNL     1     -13.572   2.212   6.513  1.00  0.00     0.031 C 
ATOM     39  C   UNL     1      -9.866   2.191   9.925  1.00  0.00     0.029 A 
ATOM     40  N   UNL     1     -11.760   3.253  10.459  1.00  0.00    -0.354 N 
ATOM     41  C   UNL     1     -15.049   3.505   7.688  1.00  0.00     0.074 A 
ATOM     42  C   UNL     1     -14.743   2.830   6.446  1.00  0.00     0.031 C 
ATOM     43  C   UNL     1      -9.707   2.704  11.156  1.00  0.00     0.029 A 
ATOM     44  C   UNL     1     -10.918   3.429  11.530  1.00  0.00     0.049 A 
ATOM     45  H   UNL     1     -12.674   3.617  10.427  1.00  0.00     0.167 HD
ATOM     46  C   UNL     1     -16.213   4.150   7.938  1.00  0.00     0.031 A 
ATOM     47  C   UNL     1     -11.094   4.106  12.680  1.00  0.00     0.031 A 
ATOM     48  C   UNL     1     -16.534   4.795   9.183  1.00  0.00     0.049 A 
ATOM     49  C   UNL     1     -12.402   4.803  12.934  1.00  0.00     0.074 A 
ATOM     50  C   UNL     1     -17.723   5.397   9.558  1.00  0.00     0.029 A 
ATOM     51  N   UNL     1     -15.663   4.927  10.251  1.00  0.00    -0.354 N 
ATOM     52  N   UNL     1     -13.465   4.867  12.171  1.00  0.00    -0.248 NA
ATOM     53  C   UNL     1     -12.537   5.511  14.216  1.00  0.00     0.031 C 
ATOM     54  C   UNL     1     -17.555   5.937  10.836  1.00  0.00     0.029 A 
ATOM     55  C   UNL     1     -16.279   5.627  11.275  1.00  0.00     0.049 A 
ATOM     56  H   UNL     1     -14.743   4.577  10.278  1.00  0.00     0.167 HD
ATOM     57  C   UNL     1     -14.403   5.596  12.890  1.00  0.00     0.074 A 
ATOM     58  C   UNL     1     -13.790   5.938  14.156  1.00  0.00     0.031 C 
ATOM     59  C   UNL     1     -15.661   5.952  12.533  1.00  0.00     0.031 A 
BRANCH  46  60
ATOM     60  C   UNL     1     -17.236   4.200   6.839  1.00  0.00    -0.014 A 
ATOM     61  C   UNL     1     -17.979   3.064   6.482  1.00  0.00     0.009 A 
ATOM     62  C   UNL     1     -17.507   5.419   6.197  1.00  0.00     0.009 A 
ATOM     63  C   UNL     1     -18.957   3.143   5.488  1.00  0.00     0.001 A 
ATOM     64  C   UNL     1     -18.501   5.501   5.221  1.00  0.00     0.001 A 
ATOM     65  C   UNL     1     -19.221   4.362   4.863  1.00  0.00     0.000 A 
ENDBRANCH  46  60
BRANCH  47  66
ATOM     66  C   UNL     1     -10.006   4.163  13.691  1.00  0.00    -0.014 A 
ATOM     67  C   UNL     1     -10.131   3.484  14.913  1.00  0.00     0.009 A 
ATOM     68  C   UNL     1      -8.851   4.923  13.452  1.00  0.00     0.009 A 
ATOM     69  C   UNL     1      -9.137   3.595  15.889  1.00  0.00     0.001 A 
ATOM     70  C   UNL     1      -7.846   5.008  14.417  1.00  0.00     0.001 A 
ATOM     71  C   UNL     1      -7.995   4.354  15.639  1.00  0.00     0.000 A 
ENDBRANCH  47  66
BRANCH  59  72
ATOM     72  C   UNL     1     -16.471   6.718  13.538  1.00  0.00    -0.014 A 
ATOM     73  C   UNL     1     -16.203   8.067  13.815  1.00  0.00     0.009 A 
ATOM     74  C   UNL     1     -17.545   6.088  14.188  1.00  0.00     0.009 A 
ATOM     75  C   UNL     1     -16.976   8.762  14.747  1.00  0.00     0.001 A 
ATOM     76  C   UNL     1     -18.333   6.794  15.098  1.00  0.00     0.001 A 
ATOM     77  C   UNL     1     -18.042   8.127  15.383  1.00  0.00     0.000 A 
ENDBRANCH  59  72
ENDBRANCH  33  34
ENDBRANCH  25  28
ENDBRANCH  23  24
ENDBRANCH  22  23
ENDBRANCH   1  22
TORSDOF 15
