REMARK SMILES CCCCCCOC(=O)Nc1cccc(-c2ccc([C@@H](C)C(=O)NCCCNC(=O)c3ccc(-c4c5nc(c(-c6ccccc6)c6ccc([nH]6)c(-c6ccccc6)c6nc(c(-c7ccccc7)c7ccc4[nH]7)C=C6)C=C5)cc3)cc2F)c1
REMARK SMILES IDX 16 1 17 2 18 3 19 4 79 5 80 6 81 7 15 8 11 9 12 10 82 11
REMARK SMILES IDX 13 12 14 13 10 14 8 15 9 16 7 18 6 19 5 20 4 21 3 22 2 23
REMARK SMILES IDX 1 24 20 25 21 26 22 27 23 28 24 29 25 31 26 32 27 33 28 34
REMARK SMILES IDX 29 35 30 37 31 38 32 39 78 40 33 41 77 42 34 43 35 44 36 45
REMARK SMILES IDX 71 46 37 47 76 48 70 49 72 50 38 51 75 52 69 53 68 54 39 56
REMARK SMILES IDX 61 57 46 58 60 59 47 60 50 61 59 62 73 63 48 64 49 65 58 67
REMARK SMILES IDX 74 68 51 69 40 70 41 71 45 72 42 73 44 74 43 75 62 76 63 77
REMARK SMILES IDX 67 78 64 79 66 80 65 81 52 82 53 83 57 84 54 85 56 86 55 87
REMARK H PARENT 10 17 24 30 28 36 72 55 50 66
REMARK Flexibility Score: inf
ROOT
ATOM      1  C   UNL     1      -2.939  -6.934   6.739  1.00  0.00     0.018 A 
ATOM      2  C   UNL     1      -4.136  -7.048   7.458  1.00  0.00     0.012 A 
ATOM      3  C   UNL     1      -5.150  -7.926   7.053  1.00  0.00     0.005 A 
ATOM      4  C   UNL     1      -5.039  -8.672   5.875  1.00  0.00    -0.033 A 
ATOM      5  C   UNL     1      -3.832  -8.593   5.171  1.00  0.00     0.044 A 
ATOM      6  C   UNL     1      -2.802  -7.761   5.611  1.00  0.00     0.131 A 
ATOM      7  F   UNL     1      -1.659  -7.773   4.907  1.00  0.00    -0.206 F 
ENDROOT
BRANCH   1   8
ATOM      8  C   UNL     1      -1.886  -5.981   7.147  1.00  0.00    -0.013 A 
ATOM      9  C   UNL     1      -0.080  -4.445   6.531  1.00  0.00     0.045 A 
ATOM     10  C   UNL     1       0.250  -4.275   7.872  1.00  0.00     0.026 A 
ATOM     11  C   UNL     1      -1.152  -5.274   6.182  1.00  0.00     0.035 A 
ATOM     12  C   UNL     1      -0.511  -4.903   8.855  1.00  0.00     0.003 A 
ATOM     13  C   UNL     1      -1.561  -5.755   8.495  1.00  0.00     0.009 A 
BRANCH   9  14
ATOM     14  N   UNL     1       0.749  -3.882   5.553  1.00  0.00    -0.291 N 
ATOM     15  C   UNL     1       0.430  -3.633   4.244  1.00  0.00     0.411 C 
ATOM     16  O   UNL     1       1.280  -3.632   3.374  1.00  0.00    -0.224 OA
ATOM     17  H   UNL     1       1.660  -3.639   5.837  1.00  0.00     0.173 HD
BRANCH  15  18
ATOM     18  O   UNL     1      -0.873  -3.274   4.084  1.00  0.00    -0.449 OA
BRANCH  18  19
ATOM     19  C   UNL     1      -1.302  -2.831   2.787  1.00  0.00     0.235 C 
BRANCH  19  20
ATOM     20  C   UNL     1      -1.043  -1.336   2.571  1.00  0.00     0.042 C 
BRANCH  20  21
ATOM     21  C   UNL     1       0.419  -0.944   2.325  1.00  0.00     0.003 C 
BRANCH  21  22
ATOM     22  C   UNL     1       1.069  -1.603   1.101  1.00  0.00    -0.000 C 
BRANCH  22  23
ATOM     23  C   UNL     1       0.538  -1.122  -0.248  1.00  0.00    -0.003 C 
ATOM     24  C   UNL     1       0.919   0.319  -0.546  1.00  0.00     0.004 C 
ENDBRANCH  22  23
ENDBRANCH  21  22
ENDBRANCH  20  21
ENDBRANCH  19  20
ENDBRANCH  18  19
ENDBRANCH  15  18
ENDBRANCH   9  14
ENDBRANCH   1   8
BRANCH   4  25
ATOM     25  C   UNL     1      -6.167  -9.523   5.317  1.00  0.00     0.105 C 
ATOM     26  C   UNL     1      -6.870 -10.429   6.325  1.00  0.00     0.023 C 
BRANCH  25  27
ATOM     27  C   UNL     1      -7.112  -8.752   4.382  1.00  0.00     0.227 C 
ATOM     28  O   UNL     1      -7.032  -8.909   3.158  1.00  0.00    -0.274 OA
ATOM     29  N   UNL     1      -8.064  -7.879   4.811  1.00  0.00    -0.356 N 
ATOM     30  H   UNL     1      -8.633  -7.521   4.091  1.00  0.00     0.163 HD
BRANCH  29  31
ATOM     31  C   UNL     1      -8.395  -7.379   6.129  1.00  0.00     0.117 C 
BRANCH  31  32
ATOM     32  C   UNL     1      -7.782  -6.007   6.396  1.00  0.00     0.042 C 
BRANCH  32  33
ATOM     33  C   UNL     1      -8.585  -4.852   5.813  1.00  0.00     0.118 C 
BRANCH  33  34
ATOM     34  N   UNL     1      -9.857  -4.670   6.500  1.00  0.00    -0.352 N 
ATOM     35  C   UNL     1     -10.329  -3.621   7.248  1.00  0.00     0.251 C 
ATOM     36  H   UNL     1     -10.483  -5.425   6.411  1.00  0.00     0.163 HD
ATOM     37  O   UNL     1     -11.341  -3.779   7.927  1.00  0.00    -0.269 OA
BRANCH  35  38
ATOM     38  C   UNL     1      -9.639  -2.311   7.259  1.00  0.00     0.039 A 
ATOM     39  C   UNL     1      -9.616  -1.574   8.448  1.00  0.00     0.014 A 
ATOM     40  C   UNL     1      -9.071  -1.773   6.101  1.00  0.00     0.014 A 
ATOM     41  C   UNL     1      -8.982  -0.330   8.487  1.00  0.00     0.010 A 
ATOM     42  C   UNL     1      -8.365  -0.574   6.162  1.00  0.00     0.010 A 
ATOM     43  C   UNL     1      -8.323   0.167   7.351  1.00  0.00    -0.014 A 
BRANCH  43  44
ATOM     44  C   UNL     1      -7.602   1.465   7.384  1.00  0.00     0.031 A 
ATOM     45  C   UNL     1      -8.057   2.607   6.514  1.00  0.00     0.074 A 
ATOM     46  C   UNL     1      -6.508   1.601   8.158  1.00  0.00     0.049 A 
ATOM     47  N   UNL     1      -7.522   3.792   6.361  1.00  0.00    -0.248 NA
ATOM     48  C   UNL     1      -9.257   2.381   5.692  1.00  0.00     0.031 C 
ATOM     49  C   UNL     1      -5.945   0.562   9.023  1.00  0.00     0.029 A 
ATOM     50  N   UNL     1      -5.668   2.672   8.338  1.00  0.00    -0.354 N 
ATOM     51  C   UNL     1      -8.309   4.443   5.418  1.00  0.00     0.074 A 
ATOM     52  C   UNL     1      -9.325   3.505   4.995  1.00  0.00     0.031 C 
ATOM     53  C   UNL     1      -4.874   1.056   9.664  1.00  0.00     0.029 A 
ATOM     54  C   UNL     1      -4.645   2.427   9.222  1.00  0.00     0.049 A 
ATOM     55  H   UNL     1      -5.787   3.534   7.877  1.00  0.00     0.167 HD
ATOM     56  C   UNL     1      -8.209   5.714   4.960  1.00  0.00     0.031 A 
ATOM     57  C   UNL     1      -3.632   3.216   9.626  1.00  0.00     0.031 A 
ATOM     58  C   UNL     1      -7.205   6.651   5.387  1.00  0.00     0.049 A 
ATOM     59  C   UNL     1      -3.527   4.613   9.078  1.00  0.00     0.074 A 
ATOM     60  C   UNL     1      -7.046   7.974   5.015  1.00  0.00     0.029 A 
ATOM     61  N   UNL     1      -6.186   6.361   6.282  1.00  0.00    -0.354 N 
ATOM     62  N   UNL     1      -4.316   5.231   8.233  1.00  0.00    -0.248 NA
ATOM     63  C   UNL     1      -2.396   5.424   9.550  1.00  0.00     0.031 C 
ATOM     64  C   UNL     1      -5.902   8.471   5.646  1.00  0.00     0.029 A 
ATOM     65  C   UNL     1      -5.383   7.475   6.457  1.00  0.00     0.049 A 
ATOM     66  H   UNL     1      -6.054   5.493   6.726  1.00  0.00     0.167 HD
ATOM     67  C   UNL     1      -3.794   6.511   8.096  1.00  0.00     0.074 A 
ATOM     68  C   UNL     1      -2.634   6.586   8.960  1.00  0.00     0.031 C 
ATOM     69  C   UNL     1      -4.235   7.534   7.324  1.00  0.00     0.031 A 
BRANCH  56  70
ATOM     70  C   UNL     1      -9.218   6.166   3.940  1.00  0.00    -0.014 A 
ATOM     71  C   UNL     1     -10.563   6.370   4.288  1.00  0.00     0.009 A 
ATOM     72  C   UNL     1      -8.810   6.438   2.624  1.00  0.00     0.009 A 
ATOM     73  C   UNL     1     -11.485   6.802   3.333  1.00  0.00     0.001 A 
ATOM     74  C   UNL     1      -9.729   6.899   1.678  1.00  0.00     0.001 A 
ATOM     75  C   UNL     1     -11.066   7.072   2.031  1.00  0.00     0.000 A 
ENDBRANCH  56  70
BRANCH  57  76
ATOM     76  C   UNL     1      -2.633   2.713  10.606  1.00  0.00    -0.014 A 
ATOM     77  C   UNL     1      -2.576   3.249  11.902  1.00  0.00     0.009 A 
ATOM     78  C   UNL     1      -1.716   1.714  10.245  1.00  0.00     0.009 A 
ATOM     79  C   UNL     1      -1.599   2.820  12.804  1.00  0.00     0.001 A 
ATOM     80  C   UNL     1      -0.761   1.264  11.160  1.00  0.00     0.001 A 
ATOM     81  C   UNL     1      -0.695   1.826  12.434  1.00  0.00     0.000 A 
ENDBRANCH  57  76
BRANCH  69  82
ATOM     82  C   UNL     1      -3.485   8.833   7.410  1.00  0.00    -0.014 A 
ATOM     83  C   UNL     1      -2.202   8.973   6.859  1.00  0.00     0.009 A 
ATOM     84  C   UNL     1      -4.089   9.943   8.021  1.00  0.00     0.009 A 
ATOM     85  C   UNL     1      -1.525  10.191   6.951  1.00  0.00     0.001 A 
ATOM     86  C   UNL     1      -3.423  11.167   8.083  1.00  0.00     0.001 A 
ATOM     87  C   UNL     1      -2.138  11.288   7.557  1.00  0.00     0.000 A 
ENDBRANCH  69  82
ENDBRANCH  43  44
ENDBRANCH  35  38
ENDBRANCH  33  34
ENDBRANCH  32  33
ENDBRANCH  31  32
ENDBRANCH  29  31
ENDBRANCH  25  27
ENDBRANCH   4  25
TORSDOF 19
