REMARK SMILES Cc1cc(Br)cc2c1O[C@H](C(F)(F)F)C(C(=O)NCCCNC(=O)c1ccc(-c3c4nc(c(-c5ccccc5)c5ccc([nH]5)c(-c5ccccc5)c5nc(c(-c6ccccc6)c6ccc3[nH]6)C=C5)C=C4)cc1)=C2
REMARK SMILES IDX 20 1 19 2 18 3 16 4 17 5 15 7 1 8 2 9 3 10 8 11 4 12 7 13
REMARK SMILES IDX 9 14 5 15 6 16 73 17 10 18 11 19 12 20 13 21 14 22 21 23
REMARK SMILES IDX 22 24 23 25 24 27 25 28 26 29 72 30 27 31 71 32 28 33 29 34
REMARK SMILES IDX 30 35 65 36 31 37 70 38 64 39 66 40 32 41 69 42 63 43 62 44
REMARK SMILES IDX 33 46 55 47 40 48 54 49 41 50 44 51 53 52 67 53 42 54 43 55
REMARK SMILES IDX 52 57 68 58 45 59 34 60 35 61 39 62 36 63 38 64 37 65 56 66
REMARK SMILES IDX 57 67 61 68 58 69 60 70 59 71 46 72 47 73 51 74 48 75 50 76
REMARK SMILES IDX 49 77
REMARK H PARENT 18 6 22 26 66 45 44 56
REMARK Flexibility Score: inf
ROOT
ATOM      1  C   UNL     1       6.672  -4.141   2.584  1.00  0.00     0.042 C 
ENDROOT
BRANCH   1   2
ATOM      2  C   UNL     1       6.260  -4.401   1.144  1.00  0.00     0.118 C 
BRANCH   2   3
ATOM      3  N   UNL     1       5.289  -5.480   1.047  1.00  0.00    -0.352 N 
ATOM      4  C   UNL     1       3.967  -5.606   0.788  1.00  0.00     0.251 C 
ATOM      5  O   UNL     1       3.534  -6.762   0.816  1.00  0.00    -0.270 OA
ATOM      6  H   UNL     1       5.707  -6.356   1.216  1.00  0.00     0.163 HD
BRANCH   4   7
ATOM      7  C   UNL     1       3.044  -4.476   0.486  1.00  0.00     0.067 C 
ATOM      8  C   UNL     1       0.750   0.093  -0.037  1.00  0.00     0.048 C 
ATOM      9  C   UNL     1       0.328  -1.341  -0.178  1.00  0.00    -0.007 A 
ATOM     10  C   UNL     1      -0.983  -1.648  -0.563  1.00  0.00     0.023 A 
ATOM     11  C   UNL     1       1.205  -2.395   0.111  1.00  0.00     0.130 A 
ATOM     12  C   UNL     1      -1.390  -2.979  -0.672  1.00  0.00     0.019 A 
ATOM     13  C   UNL     1       0.801  -3.731  -0.003  1.00  0.00     0.019 A 
ATOM     14  O   UNL     1       2.454  -2.063   0.556  1.00  0.00    -0.475 OA
ATOM     15  Br  UNL     1      -3.167  -3.371  -1.189  1.00  0.00    -0.051 Br
ATOM     16  C   UNL     1      -0.506  -4.022  -0.396  1.00  0.00     0.027 A 
ATOM     17  C   UNL     1       1.746  -4.794   0.323  1.00  0.00     0.025 C 
ATOM     18  C   UNL     1       3.490  -3.052   0.333  1.00  0.00     0.314 C 
BRANCH  18  19
ATOM     19  C   UNL     1       4.179  -2.781  -1.018  1.00  0.00     0.429 C 
ATOM     20  F   UNL     1       4.900  -1.633  -0.956  1.00  0.00    -0.167 F 
ATOM     21  F   UNL     1       5.050  -3.760  -1.364  1.00  0.00    -0.167 F 
ATOM     22  F   UNL     1       3.305  -2.657  -2.041  1.00  0.00    -0.167 F 
ENDBRANCH  18  19
ENDBRANCH   4   7
ENDBRANCH   2   3
ENDBRANCH   1   2
BRANCH   1  23
ATOM     23  C   UNL     1       7.680  -5.168   3.079  1.00  0.00     0.118 C 
BRANCH  23  24
ATOM     24  N   UNL     1       8.939  -5.088   2.340  1.00  0.00    -0.352 N 
ATOM     25  C   UNL     1      10.151  -4.567   2.712  1.00  0.00     0.251 C 
ATOM     26  H   UNL     1       8.912  -5.469   1.433  1.00  0.00     0.163 HD
ATOM     27  O   UNL     1      11.005  -4.329   1.859  1.00  0.00    -0.269 OA
BRANCH  25  28
ATOM     28  C   UNL     1      10.428  -4.290   4.132  1.00  0.00     0.039 A 
ATOM     29  C   UNL     1      11.139  -3.141   4.483  1.00  0.00     0.014 A 
ATOM     30  C   UNL     1      10.004  -5.185   5.117  1.00  0.00     0.014 A 
ATOM     31  C   UNL     1      11.367  -2.861   5.830  1.00  0.00     0.010 A 
ATOM     32  C   UNL     1      10.134  -4.851   6.456  1.00  0.00     0.010 A 
ATOM     33  C   UNL     1      10.836  -3.698   6.826  1.00  0.00    -0.014 A 
BRANCH  33  34
ATOM     34  C   UNL     1      11.040  -3.409   8.264  1.00  0.00     0.031 A 
ATOM     35  C   UNL     1      11.815  -4.376   9.117  1.00  0.00     0.074 A 
ATOM     36  C   UNL     1      10.493  -2.304   8.806  1.00  0.00     0.049 A 
ATOM     37  N   UNL     1      12.078  -4.315  10.397  1.00  0.00    -0.248 NA
ATOM     38  C   UNL     1      12.340  -5.583   8.454  1.00  0.00     0.031 C 
ATOM     39  C   UNL     1       9.689  -1.315   8.084  1.00  0.00     0.029 A 
ATOM     40  N   UNL     1      10.539  -1.823  10.089  1.00  0.00    -0.354 N 
ATOM     41  C   UNL     1      12.788  -5.473  10.688  1.00  0.00     0.074 A 
ATOM     42  C   UNL     1      12.854  -6.252   9.474  1.00  0.00     0.031 C 
ATOM     43  C   UNL     1       9.361  -0.320   8.923  1.00  0.00     0.029 A 
ATOM     44  C   UNL     1       9.892  -0.621  10.248  1.00  0.00     0.049 A 
ATOM     45  H   UNL     1      10.991  -2.294  10.825  1.00  0.00     0.167 HD
ATOM     46  C   UNL     1      13.367  -5.838  11.854  1.00  0.00     0.031 A 
ATOM     47  C   UNL     1       9.751   0.154  11.340  1.00  0.00     0.031 A 
ATOM     48  C   UNL     1      13.316  -5.050  13.054  1.00  0.00     0.049 A 
ATOM     49  C   UNL     1      10.376  -0.289  12.633  1.00  0.00     0.074 A 
ATOM     50  C   UNL     1      13.910  -5.306  14.276  1.00  0.00     0.029 A 
ATOM     51  N   UNL     1      12.633  -3.850  13.178  1.00  0.00    -0.354 N 
ATOM     52  N   UNL     1      11.101  -1.355  12.876  1.00  0.00    -0.248 NA
ATOM     53  C   UNL     1      10.170   0.579  13.801  1.00  0.00     0.031 C 
ATOM     54  C   UNL     1      13.541  -4.287  15.158  1.00  0.00     0.029 A 
ATOM     55  C   UNL     1      12.766  -3.368  14.467  1.00  0.00     0.049 A 
ATOM     56  H   UNL     1      12.128  -3.408  12.458  1.00  0.00     0.167 HD
ATOM     57  C   UNL     1      11.453  -1.276  14.217  1.00  0.00     0.074 A 
ATOM     58  C   UNL     1      10.879  -0.050  14.730  1.00  0.00     0.031 C 
ATOM     59  C   UNL     1      12.185  -2.144  14.957  1.00  0.00     0.031 A 
BRANCH  46  60
ATOM     60  C   UNL     1      14.117  -7.139  11.884  1.00  0.00    -0.014 A 
ATOM     61  C   UNL     1      15.334  -7.287  11.198  1.00  0.00     0.009 A 
ATOM     62  C   UNL     1      13.633  -8.213  12.646  1.00  0.00     0.009 A 
ATOM     63  C   UNL     1      16.035  -8.493  11.252  1.00  0.00     0.001 A 
ATOM     64  C   UNL     1      14.352  -9.407  12.724  1.00  0.00     0.001 A 
ATOM     65  C   UNL     1      15.548  -9.549  12.021  1.00  0.00     0.000 A 
ENDBRANCH  46  60
BRANCH  47  66
ATOM     66  C   UNL     1       9.017   1.443  11.243  1.00  0.00    -0.014 A 
ATOM     67  C   UNL     1       9.709   2.660  11.329  1.00  0.00     0.009 A 
ATOM     68  C   UNL     1       7.628   1.466  11.039  1.00  0.00     0.009 A 
ATOM     69  C   UNL     1       9.024   3.874  11.229  1.00  0.00     0.001 A 
ATOM     70  C   UNL     1       6.950   2.681  10.911  1.00  0.00     0.001 A 
ATOM     71  C   UNL     1       7.647   3.883  11.013  1.00  0.00     0.000 A 
ENDBRANCH  47  66
BRANCH  59  72
ATOM     72  C   UNL     1      12.419  -1.804  16.400  1.00  0.00    -0.014 A 
ATOM     73  C   UNL     1      11.392  -1.930  17.347  1.00  0.00     0.009 A 
ATOM     74  C   UNL     1      13.709  -1.454  16.833  1.00  0.00     0.009 A 
ATOM     75  C   UNL     1      11.649  -1.700  18.699  1.00  0.00     0.001 A 
ATOM     76  C   UNL     1      13.969  -1.254  18.188  1.00  0.00     0.001 A 
ATOM     77  C   UNL     1      12.939  -1.373  19.119  1.00  0.00     0.000 A 
ENDBRANCH  59  72
ENDBRANCH  33  34
ENDBRANCH  25  28
ENDBRANCH  23  24
ENDBRANCH   1  23
TORSDOF 11
