REMARK SMILES Cc1cc(C(=O)NCCCNC(=O)c2ccc(-c3c4nc(c(-c5ccccc5)c5ccc([nH]5)c(-c5ccccc5)c5nc(c(-c6ccccc6)c6ccc3[nH]6)C=C5)C=C4)cc2)ccc1NC(=O)N1C[C@@H](C)[C@H](C)C1
REMARK SMILES IDX 9 1 8 2 7 3 5 4 6 5 4 7 1 8 2 9 3 10 64 11 63 12 62 13 65 14
REMARK SMILES IDX 66 15 67 17 68 18 69 19 74 20 70 21 72 22 71 23 73 24 10 25
REMARK SMILES IDX 11 26 12 27 13 29 14 30 15 31 61 32 16 33 60 34 17 35 18 36
REMARK SMILES IDX 19 37 54 38 20 39 59 40 53 41 55 42 21 43 58 44 52 45 51 46
REMARK SMILES IDX 22 48 44 49 29 50 43 51 30 52 33 53 42 54 56 55 31 56 32 57
REMARK SMILES IDX 41 59 57 60 34 61 23 62 24 63 28 64 25 65 27 66 26 67 45 68
REMARK SMILES IDX 46 69 50 70 47 71 49 72 48 73 35 74 36 75 40 76 37 77 39 78
REMARK SMILES IDX 38 79
REMARK H PARENT 7 6 65 16 11 28 55 47 33 58
REMARK Flexibility Score: inf
ROOT
ATOM      1  C   UNL     1      -4.769  -0.617  -0.975  1.00  0.00     0.042 C 
ENDROOT
BRANCH   1   2
ATOM      2  C   UNL     1      -4.096  -1.233   0.253  1.00  0.00     0.118 C 
BRANCH   2   3
ATOM      3  N   UNL     1      -3.217  -2.358  -0.070  1.00  0.00    -0.352 N 
ATOM      4  C   UNL     1      -1.846  -2.403  -0.255  1.00  0.00     0.251 C 
ATOM      5  O   UNL     1      -1.279  -3.493  -0.273  1.00  0.00    -0.269 OA
ATOM      6  H   UNL     1      -3.675  -3.223  -0.172  1.00  0.00     0.163 HD
BRANCH   4   7
ATOM      7  C   UNL     1      -1.039  -1.162  -0.387  1.00  0.00     0.040 A 
ATOM      8  C   UNL     1       2.439   0.071   0.503  1.00  0.00     0.046 C 
ATOM      9  C   UNL     1       0.984   0.124   0.126  1.00  0.00    -0.027 A 
ATOM     10  C   UNL     1       0.258  -1.092   0.135  1.00  0.00     0.019 A 
ATOM     11  C   UNL     1       0.335   1.287  -0.321  1.00  0.00     0.045 A 
ATOM     12  C   UNL     1      -0.846   1.144  -1.044  1.00  0.00     0.027 A 
ATOM     13  C   UNL     1      -1.504  -0.072  -1.102  1.00  0.00     0.016 A 
BRANCH  11  14
ATOM     14  N   UNL     1       0.858   2.576  -0.094  1.00  0.00    -0.308 N 
ATOM     15  C   UNL     1       0.227   3.785  -0.237  1.00  0.00     0.321 C 
ATOM     16  H   UNL     1       1.795   2.613   0.204  1.00  0.00     0.171 HD
ATOM     17  O   UNL     1       0.889   4.772  -0.556  1.00  0.00    -0.248 OA
ATOM     18  N   UNL     1      -1.127   3.856  -0.006  1.00  0.00    -0.324 N 
ATOM     19  C   UNL     1      -1.958   4.829  -0.687  1.00  0.00     0.125 C 
ATOM     20  C   UNL     1      -1.792   3.325   1.181  1.00  0.00     0.125 C 
ATOM     21  C   UNL     1      -3.125   5.105   0.258  1.00  0.00     0.010 C 
ATOM     22  C   UNL     1      -3.244   3.808   1.079  1.00  0.00     0.010 C 
ATOM     23  C   UNL     1      -4.407   5.458  -0.485  1.00  0.00     0.010 C 
ATOM     24  C   UNL     1      -3.910   4.022   2.436  1.00  0.00     0.010 C 
ENDBRANCH  11  14
ENDBRANCH   4   7
ENDBRANCH   2   3
ENDBRANCH   1   2
BRANCH   1  25
ATOM     25  C   UNL     1      -6.091  -1.243  -1.372  1.00  0.00     0.118 C 
BRANCH  25  26
ATOM     26  N   UNL     1      -7.275  -0.440  -1.070  1.00  0.00    -0.352 N 
ATOM     27  C   UNL     1      -8.591  -0.696  -1.428  1.00  0.00     0.251 C 
ATOM     28  H   UNL     1      -7.120   0.381  -0.550  1.00  0.00     0.163 HD
ATOM     29  O   UNL     1      -9.500   0.040  -1.046  1.00  0.00    -0.269 OA
BRANCH  27  30
ATOM     30  C   UNL     1      -8.901  -1.960  -2.137  1.00  0.00     0.039 A 
ATOM     31  C   UNL     1      -9.749  -2.853  -1.479  1.00  0.00     0.014 A 
ATOM     32  C   UNL     1      -8.058  -2.397  -3.153  1.00  0.00     0.014 A 
ATOM     33  C   UNL     1      -9.486  -4.212  -1.577  1.00  0.00     0.010 A 
ATOM     34  C   UNL     1      -7.714  -3.732  -3.164  1.00  0.00     0.010 A 
ATOM     35  C   UNL     1      -8.369  -4.618  -2.306  1.00  0.00    -0.014 A 
BRANCH  35  36
ATOM     36  C   UNL     1      -7.813  -5.957  -2.220  1.00  0.00     0.031 A 
ATOM     37  C   UNL     1      -8.233  -6.942  -3.224  1.00  0.00     0.074 A 
ATOM     38  C   UNL     1      -6.976  -6.324  -1.226  1.00  0.00     0.049 A 
ATOM     39  N   UNL     1      -8.356  -8.202  -2.990  1.00  0.00    -0.248 NA
ATOM     40  C   UNL     1      -8.633  -6.555  -4.571  1.00  0.00     0.031 C 
ATOM     41  C   UNL     1      -6.234  -7.576  -1.102  1.00  0.00     0.029 A 
ATOM     42  N   UNL     1      -6.743  -5.712  -0.014  1.00  0.00    -0.354 N 
ATOM     43  C   UNL     1      -8.520  -8.818  -4.206  1.00  0.00     0.074 A 
ATOM     44  C   UNL     1      -8.819  -7.751  -5.133  1.00  0.00     0.031 C 
ATOM     45  C   UNL     1      -5.875  -7.747   0.183  1.00  0.00     0.029 A 
ATOM     46  C   UNL     1      -6.481  -6.681   0.956  1.00  0.00     0.049 A 
ATOM     47  H   UNL     1      -6.759  -4.740   0.143  1.00  0.00     0.167 HD
ATOM     48  C   UNL     1      -8.215 -10.139  -4.324  1.00  0.00     0.031 A 
ATOM     49  C   UNL     1      -7.301  -6.854   2.038  1.00  0.00     0.031 A 
ATOM     50  C   UNL     1      -7.831 -10.722  -3.034  1.00  0.00     0.049 A 
ATOM     51  C   UNL     1      -8.037  -8.183   2.032  1.00  0.00     0.074 A 
ATOM     52  C   UNL     1      -6.610 -11.044  -2.460  1.00  0.00     0.029 A 
ATOM     53  N   UNL     1      -8.753 -10.733  -1.995  1.00  0.00    -0.354 N 
ATOM     54  N   UNL     1      -7.954  -9.070   1.078  1.00  0.00    -0.248 NA
ATOM     55  C   UNL     1      -9.002  -8.575   3.057  1.00  0.00     0.031 C 
ATOM     56  C   UNL     1      -6.809 -11.227  -1.061  1.00  0.00     0.029 A 
ATOM     57  C   UNL     1      -8.152 -11.052  -0.788  1.00  0.00     0.049 A 
ATOM     58  H   UNL     1      -9.712 -10.539  -2.103  1.00  0.00     0.167 HD
ATOM     59  C   UNL     1      -8.835 -10.097   1.305  1.00  0.00     0.074 A 
ATOM     60  C   UNL     1      -9.475  -9.732   2.558  1.00  0.00     0.031 C 
ATOM     61  C   UNL     1      -8.974 -11.133   0.420  1.00  0.00     0.031 A 
BRANCH  48  62
ATOM     62  C   UNL     1      -7.967 -10.800  -5.662  1.00  0.00    -0.014 A 
ATOM     63  C   UNL     1      -7.118 -11.918  -5.737  1.00  0.00     0.009 A 
ATOM     64  C   UNL     1      -8.482 -10.343  -6.888  1.00  0.00     0.009 A 
ATOM     65  C   UNL     1      -6.727 -12.474  -6.963  1.00  0.00     0.001 A 
ATOM     66  C   UNL     1      -8.064 -10.863  -8.120  1.00  0.00     0.001 A 
ATOM     67  C   UNL     1      -7.176 -11.925  -8.158  1.00  0.00     0.000 A 
ENDBRANCH  48  62
BRANCH  49  68
ATOM     68  C   UNL     1      -7.851  -5.559   2.534  1.00  0.00    -0.014 A 
ATOM     69  C   UNL     1      -6.914  -4.628   3.032  1.00  0.00     0.009 A 
ATOM     70  C   UNL     1      -9.080  -5.087   2.055  1.00  0.00     0.009 A 
ATOM     71  C   UNL     1      -7.098  -3.260   2.821  1.00  0.00     0.001 A 
ATOM     72  C   UNL     1      -9.272  -3.712   1.885  1.00  0.00     0.001 A 
ATOM     73  C   UNL     1      -8.255  -2.808   2.197  1.00  0.00     0.000 A 
ENDBRANCH  49  68
BRANCH  61  74
ATOM     74  C   UNL     1      -9.906 -12.326   0.559  1.00  0.00    -0.014 A 
ATOM     75  C   UNL     1     -10.528 -12.729   1.745  1.00  0.00     0.009 A 
ATOM     76  C   UNL     1     -10.134 -13.158  -0.565  1.00  0.00     0.009 A 
ATOM     77  C   UNL     1     -11.405 -13.826   1.783  1.00  0.00     0.001 A 
ATOM     78  C   UNL     1     -10.992 -14.260  -0.533  1.00  0.00     0.001 A 
ATOM     79  C   UNL     1     -11.647 -14.582   0.642  1.00  0.00     0.000 A 
ENDBRANCH  61  74
ENDBRANCH  35  36
ENDBRANCH  27  30
ENDBRANCH  25  26
ENDBRANCH   1  25
TORSDOF 11
