REMARK SMILES CN(C)C(=O)CC(C)(C)CC(=O)NCCCNC(=O)c1ccc(-c2c3nc(c(-c4ccccc4)c4ccc([nH]4)c(-c4ccccc4)c4nc(c(-c5ccccc5)c5ccc2[nH]5)C=C4)C=C3)cc1
REMARK SMILES IDX 14 1 13 2 11 3 12 4 10 6 7 7 8 8 9 9 6 10 4 11 1 12 2 13
REMARK SMILES IDX 3 14 5 15 15 16 16 17 17 18 18 19 19 21 20 22 21 23 67 24
REMARK SMILES IDX 22 25 66 26 23 27 24 28 25 29 60 30 26 31 65 32 59 33 61 34
REMARK SMILES IDX 27 35 64 36 58 37 57 38 28 40 50 41 35 42 49 43 36 44 39 45
REMARK SMILES IDX 48 46 62 47 37 48 38 49 47 51 63 52 40 53 29 54 30 55 34 56
REMARK SMILES IDX 31 57 33 58 32 59 51 60 52 61 56 62 53 63 55 64 54 65 41 66
REMARK SMILES IDX 42 67 46 68 43 69 45 70 44 71
REMARK H PARENT 13 5 17 20 61 39 39 50
REMARK Flexibility Score: inf
ROOT
ATOM      1  C   UNL     1       2.300   3.342   7.036  1.00  0.00     0.117 C 
ENDROOT
BRANCH   1   2
ATOM      2  N   UNL     1       2.674   2.039   6.518  1.00  0.00    -0.356 N 
ATOM      3  C   UNL     1       2.594   1.512   5.268  1.00  0.00     0.220 C 
ATOM      4  O   UNL     1       2.867   0.318   5.148  1.00  0.00    -0.275 OA
ATOM      5  H   UNL     1       3.053   1.429   7.191  1.00  0.00     0.163 HD
BRANCH   3   6
ATOM      6  C   UNL     1       2.226   2.377   4.076  1.00  0.00     0.107 C 
BRANCH   6   7
ATOM      7  C   UNL     1       0.753   2.337   3.584  1.00  0.00    -0.018 C 
ATOM      8  C   UNL     1       0.655   3.312   2.393  1.00  0.00     0.012 C 
ATOM      9  C   UNL     1      -0.220   2.858   4.654  1.00  0.00     0.012 C 
BRANCH   7  10
ATOM     10  C   UNL     1       0.283   0.904   3.218  1.00  0.00     0.107 C 
BRANCH  10  11
ATOM     11  C   UNL     1       0.954   0.283   2.004  1.00  0.00     0.222 C 
ATOM     12  C   UNL     1       1.071  -0.123  -0.389  1.00  0.00     0.146 C 
ATOM     13  N   UNL     1       0.383   0.458   0.752  1.00  0.00    -0.349 N 
ATOM     14  C   UNL     1      -0.879   1.119   0.452  1.00  0.00     0.146 C 
ATOM     15  O   UNL     1       2.000  -0.350   2.151  1.00  0.00    -0.275 OA
ENDBRANCH  10  11
ENDBRANCH   7  10
ENDBRANCH   6   7
ENDBRANCH   3   6
ENDBRANCH   1   2
BRANCH   1  16
ATOM     16  C   UNL     1       1.029   3.255   7.876  1.00  0.00     0.042 C 
BRANCH  16  17
ATOM     17  C   UNL     1       1.193   2.440   9.149  1.00  0.00     0.118 C 
BRANCH  17  18
ATOM     18  N   UNL     1       1.766   3.230  10.224  1.00  0.00    -0.352 N 
ATOM     19  C   UNL     1       1.179   3.677  11.383  1.00  0.00     0.251 C 
ATOM     20  H   UNL     1       2.710   3.482  10.105  1.00  0.00     0.163 HD
ATOM     21  O   UNL     1       1.736   4.542  12.050  1.00  0.00    -0.269 OA
BRANCH  19  22
ATOM     22  C   UNL     1      -0.127   3.134  11.826  1.00  0.00     0.039 A 
ATOM     23  C   UNL     1      -1.054   4.002  12.410  1.00  0.00     0.014 A 
ATOM     24  C   UNL     1      -0.424   1.772  11.721  1.00  0.00     0.014 A 
ATOM     25  C   UNL     1      -2.284   3.511  12.857  1.00  0.00     0.010 A 
ATOM     26  C   UNL     1      -1.685   1.301  12.078  1.00  0.00     0.010 A 
ATOM     27  C   UNL     1      -2.618   2.159  12.679  1.00  0.00    -0.014 A 
BRANCH  27  28
ATOM     28  C   UNL     1      -3.907   1.611  13.171  1.00  0.00     0.031 A 
ATOM     29  C   UNL     1      -3.914   0.568  14.258  1.00  0.00     0.074 A 
ATOM     30  C   UNL     1      -5.068   2.016  12.624  1.00  0.00     0.049 A 
ATOM     31  N   UNL     1      -4.930  -0.057  14.800  1.00  0.00    -0.248 NA
ATOM     32  C   UNL     1      -2.605   0.154  14.788  1.00  0.00     0.031 C 
ATOM     33  C   UNL     1      -5.202   2.999  11.547  1.00  0.00     0.029 A 
ATOM     34  N   UNL     1      -6.361   1.651  12.905  1.00  0.00    -0.354 N 
ATOM     35  C   UNL     1      -4.380  -0.949  15.713  1.00  0.00     0.074 A 
ATOM     36  C   UNL     1      -2.943  -0.827  15.610  1.00  0.00     0.031 C 
ATOM     37  C   UNL     1      -6.507   3.191  11.290  1.00  0.00     0.029 A 
ATOM     38  C   UNL     1      -7.296   2.319  12.154  1.00  0.00     0.049 A 
ATOM     39  H   UNL     1      -6.595   0.976  13.582  1.00  0.00     0.167 HD
ATOM     40  C   UNL     1      -5.009  -1.780  16.578  1.00  0.00     0.031 A 
ATOM     41  C   UNL     1      -8.640   2.242  12.163  1.00  0.00     0.031 A 
ATOM     42  C   UNL     1      -6.438  -1.893  16.696  1.00  0.00     0.049 A 
ATOM     43  C   UNL     1      -9.319   1.301  13.119  1.00  0.00     0.074 A 
ATOM     44  C   UNL     1      -7.174  -2.668  17.575  1.00  0.00     0.029 A 
ATOM     45  N   UNL     1      -7.348  -1.209  15.905  1.00  0.00    -0.354 N 
ATOM     46  N   UNL     1      -8.786   0.503  14.012  1.00  0.00    -0.248 NA
ATOM     47  C   UNL     1     -10.787   1.261  13.073  1.00  0.00     0.031 C 
ATOM     48  C   UNL     1      -8.531  -2.484  17.288  1.00  0.00     0.029 A 
ATOM     49  C   UNL     1      -8.639  -1.557  16.263  1.00  0.00     0.049 A 
ATOM     50  H   UNL     1      -7.111  -0.570  15.195  1.00  0.00     0.167 HD
ATOM     51  C   UNL     1      -9.853  -0.113  14.653  1.00  0.00     0.074 A 
ATOM     52  C   UNL     1     -11.062   0.412  14.054  1.00  0.00     0.031 C 
ATOM     53  C   UNL     1      -9.832  -1.027  15.654  1.00  0.00     0.031 A 
BRANCH  40  54
ATOM     54  C   UNL     1      -4.140  -2.635  17.458  1.00  0.00    -0.014 A 
ATOM     55  C   UNL     1      -3.364  -2.071  18.485  1.00  0.00     0.009 A 
ATOM     56  C   UNL     1      -4.089  -4.023  17.255  1.00  0.00     0.009 A 
ATOM     57  C   UNL     1      -2.517  -2.872  19.254  1.00  0.00     0.001 A 
ATOM     58  C   UNL     1      -3.265  -4.825  18.047  1.00  0.00     0.001 A 
ATOM     59  C   UNL     1      -2.469  -4.248  19.036  1.00  0.00     0.000 A 
ENDBRANCH  40  54
BRANCH  41  60
ATOM     60  C   UNL     1      -9.437   3.116  11.265  1.00  0.00    -0.014 A 
ATOM     61  C   UNL     1     -10.150   4.204  11.792  1.00  0.00     0.009 A 
ATOM     62  C   UNL     1      -9.482   2.878   9.883  1.00  0.00     0.009 A 
ATOM     63  C   UNL     1     -10.905   5.027  10.955  1.00  0.00     0.001 A 
ATOM     64  C   UNL     1     -10.219   3.718   9.045  1.00  0.00     0.001 A 
ATOM     65  C   UNL     1     -10.935   4.787   9.582  1.00  0.00     0.000 A 
ENDBRANCH  41  60
BRANCH  53  66
ATOM     66  C   UNL     1     -11.158  -1.491  16.186  1.00  0.00    -0.014 A 
ATOM     67  C   UNL     1     -11.975  -2.362  15.450  1.00  0.00     0.009 A 
ATOM     68  C   UNL     1     -11.576  -1.076  17.460  1.00  0.00     0.009 A 
ATOM     69  C   UNL     1     -13.202  -2.783  15.968  1.00  0.00     0.001 A 
ATOM     70  C   UNL     1     -12.790  -1.520  17.986  1.00  0.00     0.001 A 
ATOM     71  C   UNL     1     -13.606  -2.365  17.236  1.00  0.00     0.000 A 
ENDBRANCH  53  66
ENDBRANCH  27  28
ENDBRANCH  19  22
ENDBRANCH  17  18
ENDBRANCH  16  17
ENDBRANCH   1  16
TORSDOF 13
