REMARK SMILES CS(=O)(=O)c1ccc(C2=NN(c3ccc(C(=O)NCCCNC(=O)c4ccc(-c5c6nc(c(-c7ccccc7)c7ccc([nH]7)c(-c7ccccc7)c7nc(c(-c8ccccc8)c8ccc5[nH]8)C=C7)C=C6)cc4)cc3)[C@H](c3cccs3)C2)cc1
REMARK SMILES IDX 19 1 18 2 16 3 17 4 15 6 12 7 13 8 74 9 14 10 73 11 11 12
REMARK SMILES IDX 9 13 10 14 81 15 75 16 8 17 5 18 6 19 83 20 7 21 82 22 2 23
REMARK SMILES IDX 1 24 3 25 4 26 76 27 77 28 80 29 78 30 79 31 20 32 21 33
REMARK SMILES IDX 22 34 23 35 24 37 25 38 26 39 72 40 27 41 71 42 28 43 29 44
REMARK SMILES IDX 30 45 65 46 31 47 70 48 64 49 66 50 32 51 69 52 63 53 62 54
REMARK SMILES IDX 33 56 55 57 40 58 54 59 41 60 44 61 53 62 67 63 42 64 43 65
REMARK SMILES IDX 52 67 68 68 45 69 34 70 35 71 39 72 36 73 38 74 37 75 56 76
REMARK SMILES IDX 57 77 61 78 58 79 60 80 59 81 46 82 47 83 51 84 48 85 50 86
REMARK SMILES IDX 49 87
REMARK H PARENT 18 5 22 36 66 55 44 66
REMARK Flexibility Score: inf
ROOT
ATOM      1  C   UNL     1       6.757  -2.498  12.956  1.00  0.00     0.118 C 
ENDROOT
BRANCH   1   2
ATOM      2  N   UNL     1       7.879  -2.139  12.107  1.00  0.00    -0.352 N 
ATOM      3  C   UNL     1       7.938  -1.463  10.914  1.00  0.00     0.251 C 
ATOM      4  O   UNL     1       9.048  -1.226  10.439  1.00  0.00    -0.269 OA
ATOM      5  H   UNL     1       8.755  -2.432  12.449  1.00  0.00     0.163 HD
BRANCH   3   6
ATOM      6  C   UNL     1       6.723  -0.963  10.220  1.00  0.00     0.039 A 
ATOM      7  C   UNL     1       4.469   0.149   8.941  1.00  0.00     0.060 A 
ATOM      8  C   UNL     1       5.717   0.773   8.852  1.00  0.00     0.029 A 
ATOM      9  C   UNL     1       4.382  -1.071   9.613  1.00  0.00     0.029 A 
ATOM     10  C   UNL     1       6.835   0.227   9.491  1.00  0.00     0.016 A 
ATOM     11  C   UNL     1       5.500  -1.634  10.226  1.00  0.00     0.016 A 
BRANCH   7  12
ATOM     12  N   UNL     1       3.350   0.686   8.340  1.00  0.00    -0.257 N 
ATOM     13  C   UNL     1       2.194   1.334   6.696  1.00  0.00     0.071 C 
ATOM     14  N   UNL     1       3.206   0.589   7.003  1.00  0.00    -0.176 NA
ATOM     15  C   UNL     1       1.571   2.105   7.828  1.00  0.00     0.091 C 
ATOM     16  C   UNL     1       2.340   1.503   9.018  1.00  0.00     0.154 C 
BRANCH  13  17
ATOM     17  C   UNL     1       1.687   1.409   5.322  1.00  0.00    -0.002 A 
ATOM     18  C   UNL     1       0.829   1.450   2.683  1.00  0.00     0.067 A 
ATOM     19  C   UNL     1       1.056   0.223   3.309  1.00  0.00     0.021 A 
ATOM     20  C   UNL     1       1.031   2.655   3.371  1.00  0.00     0.021 A 
ATOM     21  C   UNL     1       1.502   0.206   4.630  1.00  0.00     0.011 A 
ATOM     22  C   UNL     1       1.451   2.636   4.703  1.00  0.00     0.011 A 
BRANCH  18  23
ATOM     23  S   UNL     1       0.293   1.519   0.989  1.00  0.00     0.175 S 
ATOM     24  C   UNL     1       1.033   0.132   0.171  1.00  0.00     0.163 C 
ATOM     25  O   UNL     1       0.878   2.713   0.412  1.00  0.00    -0.224 OA
ATOM     26  O   UNL     1      -1.145   1.320   1.010  1.00  0.00    -0.224 OA
ENDBRANCH  18  23
ENDBRANCH  13  17
BRANCH  16  27
ATOM     27  C   UNL     1       1.514   0.773  10.070  1.00  0.00     0.030 A 
ATOM     28  C   UNL     1       1.921   0.475  11.363  1.00  0.00     0.017 A 
ATOM     29  S   UNL     1      -0.057   0.147   9.781  1.00  0.00    -0.147 S 
ATOM     30  C   UNL     1       0.950  -0.257  12.102  1.00  0.00     0.012 A 
ATOM     31  C   UNL     1      -0.191  -0.474  11.366  1.00  0.00     0.065 A 
ENDBRANCH  16  27
ENDBRANCH   7  12
ENDBRANCH   3   6
ENDBRANCH   1   2
BRANCH   1  32
ATOM     32  C   UNL     1       6.391  -3.971  12.788  1.00  0.00     0.042 C 
BRANCH  32  33
ATOM     33  C   UNL     1       7.390  -4.915  13.447  1.00  0.00     0.118 C 
BRANCH  33  34
ATOM     34  N   UNL     1       7.348  -4.823  14.899  1.00  0.00    -0.352 N 
ATOM     35  C   UNL     1       7.090  -5.792  15.834  1.00  0.00     0.251 C 
ATOM     36  H   UNL     1       7.534  -3.929  15.266  1.00  0.00     0.163 HD
ATOM     37  O   UNL     1       6.868  -5.469  16.998  1.00  0.00    -0.269 OA
BRANCH  35  38
ATOM     38  C   UNL     1       7.067  -7.219  15.449  1.00  0.00     0.039 A 
ATOM     39  C   UNL     1       6.096  -8.053  16.011  1.00  0.00     0.014 A 
ATOM     40  C   UNL     1       8.017  -7.744  14.569  1.00  0.00     0.014 A 
ATOM     41  C   UNL     1       6.046  -9.400  15.649  1.00  0.00     0.010 A 
ATOM     42  C   UNL     1       7.917  -9.066  14.149  1.00  0.00     0.010 A 
ATOM     43  C   UNL     1       6.936  -9.910  14.690  1.00  0.00    -0.014 A 
BRANCH  43  44
ATOM     44  C   UNL     1       6.861 -11.323  14.242  1.00  0.00     0.031 A 
ATOM     45  C   UNL     1       8.011 -12.259  14.492  1.00  0.00     0.074 A 
ATOM     46  C   UNL     1       5.785 -11.743  13.549  1.00  0.00     0.049 A 
ATOM     47  N   UNL     1       8.161 -13.503  14.112  1.00  0.00    -0.248 NA
ATOM     48  C   UNL     1       9.153 -11.720  15.248  1.00  0.00     0.031 C 
ATOM     49  C   UNL     1       4.618 -10.924  13.214  1.00  0.00     0.029 A 
ATOM     50  N   UNL     1       5.502 -12.966  12.994  1.00  0.00    -0.354 N 
ATOM     51  C   UNL     1       9.417 -13.887  14.566  1.00  0.00     0.074 A 
ATOM     52  C   UNL     1      10.008 -12.731  15.203  1.00  0.00     0.031 C 
ATOM     53  C   UNL     1       3.736 -11.673  12.535  1.00  0.00     0.029 A 
ATOM     54  C   UNL     1       4.292 -13.008  12.345  1.00  0.00     0.049 A 
ATOM     55  H   UNL     1       6.108 -13.739  13.056  1.00  0.00     0.167 HD
ATOM     56  C   UNL     1      10.018 -15.097  14.475  1.00  0.00     0.031 A 
ATOM     57  C   UNL     1       3.702 -14.007  11.661  1.00  0.00     0.031 A 
ATOM     58  C   UNL     1       9.427 -16.246  13.841  1.00  0.00     0.049 A 
ATOM     59  C   UNL     1       4.403 -15.332  11.548  1.00  0.00     0.074 A 
ATOM     60  C   UNL     1       9.933 -17.530  13.740  1.00  0.00     0.029 A 
ATOM     61  N   UNL     1       8.200 -16.247  13.195  1.00  0.00    -0.354 N 
ATOM     62  N   UNL     1       5.563 -15.698  12.038  1.00  0.00    -0.248 NA
ATOM     63  C   UNL     1       3.708 -16.384  10.795  1.00  0.00     0.031 C 
ATOM     64  C   UNL     1       9.040 -18.292  12.981  1.00  0.00     0.029 A 
ATOM     65  C   UNL     1       7.946 -17.502  12.668  1.00  0.00     0.049 A 
ATOM     66  H   UNL     1       7.600 -15.470  13.121  1.00  0.00     0.167 HD
ATOM     67  C   UNL     1       5.721 -17.031  11.681  1.00  0.00     0.074 A 
ATOM     68  C   UNL     1       4.531 -17.412  10.948  1.00  0.00     0.031 C 
ATOM     69  C   UNL     1       6.757 -17.866  11.941  1.00  0.00     0.031 A 
BRANCH  56  70
ATOM     70  C   UNL     1      11.396 -15.234  15.065  1.00  0.00    -0.014 A 
ATOM     71  C   UNL     1      11.605 -15.179  16.453  1.00  0.00     0.009 A 
ATOM     72  C   UNL     1      12.497 -15.455  14.223  1.00  0.00     0.009 A 
ATOM     73  C   UNL     1      12.892 -15.300  16.981  1.00  0.00     0.001 A 
ATOM     74  C   UNL     1      13.778 -15.609  14.756  1.00  0.00     0.001 A 
ATOM     75  C   UNL     1      13.977 -15.521  16.133  1.00  0.00     0.000 A 
ENDBRANCH  56  70
BRANCH  57  76
ATOM     76  C   UNL     1       2.369 -13.796  11.037  1.00  0.00    -0.014 A 
ATOM     77  C   UNL     1       1.236 -14.457  11.537  1.00  0.00     0.009 A 
ATOM     78  C   UNL     1       2.222 -12.940   9.934  1.00  0.00     0.009 A 
ATOM     79  C   UNL     1      -0.009 -14.288  10.927  1.00  0.00     0.001 A 
ATOM     80  C   UNL     1       0.970 -12.748   9.347  1.00  0.00     0.001 A 
ATOM     81  C   UNL     1      -0.142 -13.430   9.836  1.00  0.00     0.000 A 
ENDBRANCH  57  76
BRANCH  69  82
ATOM     82  C   UNL     1       6.631 -19.287  11.466  1.00  0.00    -0.014 A 
ATOM     83  C   UNL     1       6.700 -19.614  10.103  1.00  0.00     0.009 A 
ATOM     84  C   UNL     1       6.482 -20.319  12.406  1.00  0.00     0.009 A 
ATOM     85  C   UNL     1       6.586 -20.944   9.690  1.00  0.00     0.001 A 
ATOM     86  C   UNL     1       6.403 -21.649  11.993  1.00  0.00     0.001 A 
ATOM     87  C   UNL     1       6.444 -21.960  10.635  1.00  0.00     0.000 A 
ENDBRANCH  69  82
ENDBRANCH  43  44
ENDBRANCH  35  38
ENDBRANCH  33  34
ENDBRANCH  32  33
ENDBRANCH   1  32
TORSDOF 14
