REMARK SMILES C[C@H](CNC(=O)N1C[C@H]2CCCC[N@@H+]2C[C@@H]1C)C(=O)NCCCNC(=O)c1ccc(-c2c3nc(c(-c4ccccc4)c4ccc([nH]4)c(-c4ccccc4)c4nc(c(-c5ccccc5)c5ccc2[nH]5)C=C4)C=C3)cc1
REMARK SMILES IDX 21 1 20 2 18 3 19 4 2 6 1 7 3 8 4 9 5 10 6 12 7 13 8 14
REMARK SMILES IDX 16 15 9 16 15 17 17 18 10 19 14 20 11 21 13 22 12 24 22 25
REMARK SMILES IDX 23 26 24 27 25 28 26 30 27 31 28 32 74 33 29 34 73 35 30 36
REMARK SMILES IDX 31 37 32 38 67 39 33 40 72 41 66 42 68 43 34 44 71 45 65 46
REMARK SMILES IDX 64 47 35 49 57 50 42 51 56 52 43 53 46 54 55 55 69 56 44 57
REMARK SMILES IDX 45 58 54 60 70 61 47 62 36 63 37 64 41 65 38 66 40 67 39 68
REMARK SMILES IDX 58 69 59 70 63 71 60 72 62 73 61 74 48 75 49 76 53 77 50 78
REMARK SMILES IDX 52 79 51 80
REMARK H PARENT 20 5 4 11 14 23 24 29 68 48 46 59
REMARK Flexibility Score: inf
ROOT
ATOM      1  C   UNL     1      -1.326  -2.375   1.150  1.00  0.00     0.117 C 
ENDROOT
BRANCH   1   2
ATOM      2  N   UNL     1      -1.723  -1.623  -0.031  1.00  0.00    -0.356 N 
ATOM      3  C   UNL     1      -1.022  -1.018  -1.019  1.00  0.00     0.224 C 
ATOM      4  O   UNL     1      -1.685  -0.407  -1.866  1.00  0.00    -0.275 OA
ATOM      5  H   UNL     1      -2.698  -1.538  -0.132  1.00  0.00     0.163 HD
BRANCH   3   6
ATOM      6  C   UNL     1       0.497  -1.003  -1.112  1.00  0.00     0.094 C 
ATOM      7  C   UNL     1       1.205  -2.335  -0.908  1.00  0.00     0.020 C 
BRANCH   6   8
ATOM      8  C   UNL     1       1.117   0.180  -0.363  1.00  0.00     0.130 C 
BRANCH   8   9
ATOM      9  N   UNL     1       0.940   0.166   1.081  1.00  0.00    -0.337 N 
ATOM     10  C   UNL     1       1.746  -0.312   2.068  1.00  0.00     0.318 C 
ATOM     11  H   UNL     1       0.098   0.567   1.395  1.00  0.00     0.165 HD
ATOM     12  O   UNL     1       1.249  -0.561   3.163  1.00  0.00    -0.249 OA
BRANCH  10  13
ATOM     13  N   UNL     1       3.064  -0.519   1.762  1.00  0.00    -0.311 N 
ATOM     14  C   UNL     1       3.836   0.638   1.305  1.00  0.00     0.186 C 
ATOM     15  C   UNL     1       3.893  -1.503   2.491  1.00  0.00     0.139 C 
ATOM     16  C   UNL     1       4.978   0.197   0.381  1.00  0.00     0.203 C 
ATOM     17  C   UNL     1       5.169  -1.856   1.658  1.00  0.00     0.287 C 
ATOM     18  C   UNL     1       3.171  -2.818   2.818  1.00  0.00     0.037 C 
ATOM     19  C   UNL     1       5.709   1.428  -0.168  1.00  0.00     0.067 C 
ATOM     20  N   UNL     1       5.908  -0.691   1.117  1.00  0.00    -0.329 N 
ATOM     21  C   UNL     1       6.861   1.008  -1.071  1.00  0.00     0.012 C 
ATOM     22  C   UNL     1       7.007  -1.140   0.249  1.00  0.00     0.262 C 
ATOM     23  H   UNL     1       6.314  -0.164   1.890  1.00  0.00     0.348 HD
ATOM     24  C   UNL     1       7.783   0.042  -0.336  1.00  0.00     0.062 C 
ENDBRANCH  10  13
ENDBRANCH   8   9
ENDBRANCH   6   8
ENDBRANCH   3   6
ENDBRANCH   1   2
BRANCH   1  25
ATOM     25  C   UNL     1      -1.724  -1.681   2.448  1.00  0.00     0.042 C 
BRANCH  25  26
ATOM     26  C   UNL     1      -3.220  -1.482   2.641  1.00  0.00     0.118 C 
BRANCH  26  27
ATOM     27  N   UNL     1      -3.904  -2.698   3.039  1.00  0.00    -0.352 N 
ATOM     28  C   UNL     1      -4.558  -3.002   4.208  1.00  0.00     0.251 C 
ATOM     29  H   UNL     1      -3.899  -3.417   2.367  1.00  0.00     0.163 HD
ATOM     30  O   UNL     1      -4.920  -4.160   4.408  1.00  0.00    -0.269 OA
BRANCH  28  31
ATOM     31  C   UNL     1      -4.822  -1.969   5.241  1.00  0.00     0.039 A 
ATOM     32  C   UNL     1      -4.718  -2.335   6.587  1.00  0.00     0.014 A 
ATOM     33  C   UNL     1      -5.234  -0.674   4.913  1.00  0.00     0.014 A 
ATOM     34  C   UNL     1      -4.989  -1.403   7.593  1.00  0.00     0.010 A 
ATOM     35  C   UNL     1      -5.425   0.280   5.914  1.00  0.00     0.010 A 
ATOM     36  C   UNL     1      -5.330  -0.080   7.266  1.00  0.00    -0.014 A 
BRANCH  36  37
ATOM     37  C   UNL     1      -5.635   0.909   8.331  1.00  0.00     0.031 A 
ATOM     38  C   UNL     1      -7.026   1.471   8.474  1.00  0.00     0.074 A 
ATOM     39  C   UNL     1      -4.663   1.323   9.166  1.00  0.00     0.049 A 
ATOM     40  N   UNL     1      -7.485   2.325   9.355  1.00  0.00    -0.248 NA
ATOM     41  C   UNL     1      -8.025   1.037   7.484  1.00  0.00     0.031 C 
ATOM     42  C   UNL     1      -3.260   0.908   9.110  1.00  0.00     0.029 A 
ATOM     43  N   UNL     1      -4.714   2.182  10.236  1.00  0.00    -0.354 N 
ATOM     44  C   UNL     1      -8.810   2.552   9.007  1.00  0.00     0.074 A 
ATOM     45  C   UNL     1      -9.074   1.774   7.817  1.00  0.00     0.031 C 
ATOM     46  C   UNL     1      -2.593   1.480  10.126  1.00  0.00     0.029 A 
ATOM     47  C   UNL     1      -3.515   2.313  10.893  1.00  0.00     0.049 A 
ATOM     48  H   UNL     1      -5.532   2.659  10.505  1.00  0.00     0.167 HD
ATOM     49  C   UNL     1      -9.735   3.323   9.628  1.00  0.00     0.031 A 
ATOM     50  C   UNL     1      -3.198   3.007  12.001  1.00  0.00     0.031 A 
ATOM     51  C   UNL     1      -9.500   4.067  10.834  1.00  0.00     0.049 A 
ATOM     52  C   UNL     1      -4.259   3.790  12.719  1.00  0.00     0.074 A 
ATOM     53  C   UNL     1     -10.393   4.830  11.567  1.00  0.00     0.029 A 
ATOM     54  N   UNL     1      -8.284   4.130  11.493  1.00  0.00    -0.354 N 
ATOM     55  N   UNL     1      -5.522   3.946  12.408  1.00  0.00    -0.248 NA
ATOM     56  C   UNL     1      -3.851   4.475  13.955  1.00  0.00     0.031 C 
ATOM     57  C   UNL     1      -9.711   5.367  12.665  1.00  0.00     0.029 A 
ATOM     58  C   UNL     1      -8.402   4.918  12.626  1.00  0.00     0.049 A 
ATOM     59  H   UNL     1      -7.458   3.682  11.200  1.00  0.00     0.167 HD
ATOM     60  C   UNL     1      -6.064   4.729  13.418  1.00  0.00     0.074 A 
ATOM     61  C   UNL     1      -4.998   5.006  14.358  1.00  0.00     0.031 C 
ATOM     62  C   UNL     1      -7.335   5.179  13.553  1.00  0.00     0.031 A 
BRANCH  49  63
ATOM     63  C   UNL     1     -11.097   3.392   9.002  1.00  0.00    -0.014 A 
ATOM     64  C   UNL     1     -11.995   2.318   9.105  1.00  0.00     0.009 A 
ATOM     65  C   UNL     1     -11.492   4.549   8.314  1.00  0.00     0.009 A 
ATOM     66  C   UNL     1     -13.252   2.390   8.501  1.00  0.00     0.001 A 
ATOM     67  C   UNL     1     -12.757   4.625   7.729  1.00  0.00     0.001 A 
ATOM     68  C   UNL     1     -13.632   3.543   7.815  1.00  0.00     0.000 A 
ENDBRANCH  49  63
BRANCH  50  69
ATOM     69  C   UNL     1      -1.817   2.948  12.539  1.00  0.00    -0.014 A 
ATOM     70  C   UNL     1      -1.528   2.141  13.649  1.00  0.00     0.009 A 
ATOM     71  C   UNL     1      -0.787   3.692  11.948  1.00  0.00     0.009 A 
ATOM     72  C   UNL     1      -0.235   2.096  14.172  1.00  0.00     0.001 A 
ATOM     73  C   UNL     1       0.510   3.632  12.463  1.00  0.00     0.001 A 
ATOM     74  C   UNL     1       0.783   2.840  13.577  1.00  0.00     0.000 A 
ENDBRANCH  50  69
BRANCH  62  75
ATOM     75  C   UNL     1      -7.643   5.992  14.774  1.00  0.00    -0.014 A 
ATOM     76  C   UNL     1      -7.258   7.339  14.861  1.00  0.00     0.009 A 
ATOM     77  C   UNL     1      -8.347   5.410  15.839  1.00  0.00     0.009 A 
ATOM     78  C   UNL     1      -7.547   8.080  16.008  1.00  0.00     0.001 A 
ATOM     79  C   UNL     1      -8.649   6.159  16.977  1.00  0.00     0.001 A 
ATOM     80  C   UNL     1      -8.243   7.490  17.063  1.00  0.00     0.000 A 
ENDBRANCH  62  75
ENDBRANCH  36  37
ENDBRANCH  28  31
ENDBRANCH  26  27
ENDBRANCH  25  26
ENDBRANCH   1  25
TORSDOF 13
