REMARK SMILES Cc1cc(C)n(-c2nc(C)c(C)c(Oc3cccc(C(=O)NCCCNC(=O)c4ccc(-c5c6nc(c(-c7ccccc7)c7ccc([nH]7)c(-c7ccccc7)c7nc(c(-c8ccccc8)c8ccc5[nH]8)C=C7)C=C6)cc4)c3)n2)n1
REMARK SMILES IDX 23 1 22 2 20 3 21 4 19 6 15 7 16 8 77 9 17 10 18 11 14 12
REMARK SMILES IDX 13 13 7 14 8 15 78 16 9 17 10 18 11 19 12 20 6 21 1 22 2 23
REMARK SMILES IDX 3 24 79 25 4 26 5 27 24 28 25 29 26 30 27 31 28 33 29 34
REMARK SMILES IDX 30 35 76 36 31 37 75 38 32 39 33 40 34 41 69 42 35 43 74 44
REMARK SMILES IDX 68 45 70 46 36 47 73 48 67 49 66 50 37 52 59 53 44 54 58 55
REMARK SMILES IDX 45 56 48 57 57 58 71 59 46 60 47 61 56 63 72 64 49 65 38 66
REMARK SMILES IDX 39 67 43 68 40 69 42 70 41 71 60 72 61 73 65 74 62 75 64 76
REMARK SMILES IDX 63 77 50 78 51 79 55 80 52 81 54 82 53 83
REMARK H PARENT 22 5 26 32 70 51 48 62
REMARK Flexibility Score: inf
ROOT
ATOM      1  C   UNL     1       3.672   0.467  -5.621  1.00  0.00     0.118 C 
ENDROOT
BRANCH   1   2
ATOM      2  N   UNL     1       4.951   1.064  -5.272  1.00  0.00    -0.352 N 
ATOM      3  C   UNL     1       5.353   2.355  -5.033  1.00  0.00     0.251 C 
ATOM      4  O   UNL     1       6.540   2.517  -4.744  1.00  0.00    -0.269 OA
ATOM      5  H   UNL     1       5.679   0.407  -5.190  1.00  0.00     0.163 HD
BRANCH   3   6
ATOM      6  C   UNL     1       4.448   3.543  -5.064  1.00  0.00     0.043 A 
ATOM      7  C   UNL     1       2.357   4.685  -5.522  1.00  0.00     0.130 A 
ATOM      8  C   UNL     1       2.821   5.839  -4.899  1.00  0.00     0.047 A 
ATOM      9  C   UNL     1       3.198   3.578  -5.680  1.00  0.00     0.061 A 
ATOM     10  C   UNL     1       4.103   5.856  -4.357  1.00  0.00     0.005 A 
ATOM     11  C   UNL     1       4.899   4.708  -4.419  1.00  0.00     0.014 A 
BRANCH   7  12
ATOM     12  O   UNL     1       1.078   4.707  -6.027  1.00  0.00    -0.439 OA
BRANCH  12  13
ATOM     13  C   UNL     1       0.232   3.639  -5.709  1.00  0.00     0.227 A 
ATOM     14  C   UNL     1      -0.274   1.794  -4.452  1.00  0.00     0.254 A 
ATOM     15  N   UNL     1      -1.383   1.550  -5.183  1.00  0.00    -0.216 NA
ATOM     16  N   UNL     1       0.532   2.850  -4.656  1.00  0.00    -0.175 NA
ATOM     17  C   UNL     1      -1.717   2.426  -6.152  1.00  0.00     0.050 A 
ATOM     18  C   UNL     1      -3.083   2.212  -6.738  1.00  0.00     0.067 C 
ATOM     19  C   UNL     1      -0.892   3.481  -6.509  1.00  0.00     0.033 A 
ATOM     20  C   UNL     1      -1.200   4.389  -7.657  1.00  0.00     0.052 C 
BRANCH  14  21
ATOM     21  N   UNL     1       0.060   0.837  -3.425  1.00  0.00    -0.203 N 
ATOM     22  C   UNL     1       1.179   0.157  -0.111  1.00  0.00     0.069 C 
ATOM     23  C   UNL     1       0.673   0.113  -1.505  1.00  0.00     0.060 A 
ATOM     24  C   UNL     1       0.099  -0.988  -2.167  1.00  0.00     0.049 A 
ATOM     25  N   UNL     1       0.755   1.185  -2.301  1.00  0.00    -0.170 NA
ATOM     26  C   UNL     1      -0.254  -0.520  -3.413  1.00  0.00     0.045 A 
ATOM     27  C   UNL     1      -0.802  -1.255  -4.581  1.00  0.00     0.067 C 
ENDBRANCH  14  21
ENDBRANCH  12  13
ENDBRANCH   7  12
ENDBRANCH   3   6
ENDBRANCH   1   2
BRANCH   1  28
ATOM     28  C   UNL     1       3.510   0.349  -7.143  1.00  0.00     0.042 C 
BRANCH  28  29
ATOM     29  C   UNL     1       4.243  -0.865  -7.701  1.00  0.00     0.118 C 
BRANCH  29  30
ATOM     30  N   UNL     1       3.587  -2.115  -7.323  1.00  0.00    -0.352 N 
ATOM     31  C   UNL     1       3.977  -3.411  -7.555  1.00  0.00     0.251 C 
ATOM     32  H   UNL     1       2.741  -2.013  -6.829  1.00  0.00     0.163 HD
ATOM     33  O   UNL     1       3.151  -4.322  -7.475  1.00  0.00    -0.269 OA
BRANCH  31  34
ATOM     34  C   UNL     1       5.372  -3.714  -7.919  1.00  0.00     0.039 A 
ATOM     35  C   UNL     1       5.644  -4.718  -8.851  1.00  0.00     0.014 A 
ATOM     36  C   UNL     1       6.415  -3.002  -7.326  1.00  0.00     0.014 A 
ATOM     37  C   UNL     1       6.960  -4.931  -9.248  1.00  0.00     0.010 A 
ATOM     38  C   UNL     1       7.702  -3.130  -7.804  1.00  0.00     0.010 A 
ATOM     39  C   UNL     1       7.986  -4.106  -8.751  1.00  0.00    -0.014 A 
BRANCH  39  40
ATOM     40  C   UNL     1       9.312  -4.160  -9.362  1.00  0.00     0.031 A 
ATOM     41  C   UNL     1       9.281  -4.048 -10.842  1.00  0.00     0.074 A 
ATOM     42  C   UNL     1      10.487  -4.149  -8.697  1.00  0.00     0.049 A 
ATOM     43  N   UNL     1       9.429  -5.012 -11.687  1.00  0.00    -0.248 NA
ATOM     44  C   UNL     1       8.870  -2.774 -11.454  1.00  0.00     0.031 C 
ATOM     45  C   UNL     1      10.707  -3.971  -7.258  1.00  0.00     0.029 A 
ATOM     46  N   UNL     1      11.759  -4.205  -9.191  1.00  0.00    -0.354 N 
ATOM     47  C   UNL     1       9.377  -4.424 -12.945  1.00  0.00     0.074 A 
ATOM     48  C   UNL     1       8.833  -3.105 -12.748  1.00  0.00     0.031 C 
ATOM     49  C   UNL     1      12.013  -3.705  -7.027  1.00  0.00     0.029 A 
ATOM     50  C   UNL     1      12.746  -3.875  -8.268  1.00  0.00     0.049 A 
ATOM     51  H   UNL     1      11.960  -4.457 -10.122  1.00  0.00     0.167 HD
ATOM     52  C   UNL     1      10.088  -4.957 -13.977  1.00  0.00     0.031 A 
ATOM     53  C   UNL     1      14.076  -3.763  -8.503  1.00  0.00     0.031 A 
ATOM     54  C   UNL     1      10.591  -6.265 -13.634  1.00  0.00     0.049 A 
ATOM     55  C   UNL     1      14.377  -4.587  -9.689  1.00  0.00     0.074 A 
ATOM     56  C   UNL     1      10.071  -7.518 -13.399  1.00  0.00     0.029 A 
ATOM     57  N   UNL     1      11.850  -6.236 -13.091  1.00  0.00    -0.354 N 
ATOM     58  N   UNL     1      14.304  -5.887  -9.690  1.00  0.00    -0.248 NA
ATOM     59  C   UNL     1      14.471  -3.962 -11.001  1.00  0.00     0.031 C 
ATOM     60  C   UNL     1      10.972  -8.148 -12.489  1.00  0.00     0.029 A 
ATOM     61  C   UNL     1      12.037  -7.283 -12.236  1.00  0.00     0.049 A 
ATOM     62  H   UNL     1      12.528  -5.551 -13.292  1.00  0.00     0.167 HD
ATOM     63  C   UNL     1      13.879  -6.197 -10.966  1.00  0.00     0.074 A 
ATOM     64  C   UNL     1      14.191  -5.019 -11.767  1.00  0.00     0.031 C 
ATOM     65  C   UNL     1      13.023  -7.237 -11.177  1.00  0.00     0.031 A 
BRANCH  52  66
ATOM     66  C   UNL     1      10.814  -4.124 -15.017  1.00  0.00    -0.014 A 
ATOM     67  C   UNL     1      11.598  -4.802 -15.973  1.00  0.00     0.009 A 
ATOM     68  C   UNL     1      11.033  -2.740 -14.894  1.00  0.00     0.009 A 
ATOM     69  C   UNL     1      12.606  -4.148 -16.692  1.00  0.00     0.001 A 
ATOM     70  C   UNL     1      12.015  -2.077 -15.637  1.00  0.00     0.001 A 
ATOM     71  C   UNL     1      12.822  -2.787 -16.514  1.00  0.00     0.000 A 
ENDBRANCH  52  66
BRANCH  53  72
ATOM     72  C   UNL     1      15.111  -2.913  -7.879  1.00  0.00    -0.014 A 
ATOM     73  C   UNL     1      16.474  -3.195  -8.083  1.00  0.00     0.009 A 
ATOM     74  C   UNL     1      14.774  -1.653  -7.357  1.00  0.00     0.009 A 
ATOM     75  C   UNL     1      17.456  -2.223  -7.852  1.00  0.00     0.001 A 
ATOM     76  C   UNL     1      15.757  -0.684  -7.120  1.00  0.00     0.001 A 
ATOM     77  C   UNL     1      17.094  -0.961  -7.391  1.00  0.00     0.000 A 
ENDBRANCH  53  72
BRANCH  65  78
ATOM     78  C   UNL     1      12.947  -8.309 -10.128  1.00  0.00    -0.014 A 
ATOM     79  C   UNL     1      12.458  -8.098  -8.829  1.00  0.00     0.009 A 
ATOM     80  C   UNL     1      13.271  -9.616 -10.521  1.00  0.00     0.009 A 
ATOM     81  C   UNL     1      12.305  -9.174  -7.947  1.00  0.00     0.001 A 
ATOM     82  C   UNL     1      13.097 -10.690  -9.650  1.00  0.00     0.001 A 
ATOM     83  C   UNL     1      12.614 -10.469  -8.362  1.00  0.00     0.000 A 
ENDBRANCH  65  78
ENDBRANCH  39  40
ENDBRANCH  31  34
ENDBRANCH  29  30
ENDBRANCH  28  29
ENDBRANCH   1  28
TORSDOF 13
