REMARK SMILES O=C(NCCCNC(=O)c1cccc(OCC(F)F)c1)c1ccc(-c2c3nc(c(-c4ccccc4)c4ccc([nH]4)c(-c4ccccc4)c4nc(c(-c5ccccc5)c5ccc2[nH]5)C=C4)C=C3)cc1
REMARK SMILES IDX 5 1 4 2 3 3 1 4 2 5 21 7 22 8 68 9 23 10 67 11 24 12 25 13
REMARK SMILES IDX 26 14 61 15 27 16 66 17 60 18 62 19 28 20 65 21 59 22 58 23
REMARK SMILES IDX 29 25 51 26 36 27 50 28 37 29 40 30 49 31 63 32 38 33 39 34
REMARK SMILES IDX 48 36 64 37 41 38 30 39 31 40 35 41 32 42 34 43 33 44 52 45
REMARK SMILES IDX 53 46 57 47 54 48 56 49 55 50 42 51 43 52 47 53 44 54 46 55
REMARK SMILES IDX 45 56 6 57 7 58 8 59 9 61 10 62 11 63 20 64 12 65 14 66
REMARK SMILES IDX 13 67 15 68 16 69 17 70 18 71 19 72
REMARK H PARENT 3 6 62 24 40 35 7 60
REMARK Flexibility Score: inf
ROOT
ATOM      1  C   UNL     1       5.169   2.201   1.023  1.00  0.00     0.042 C 
ENDROOT
BRANCH   1   2
ATOM      2  C   UNL     1       4.648   0.792   1.229  1.00  0.00     0.118 C 
BRANCH   2   3
ATOM      3  N   UNL     1       3.207   0.688   1.042  1.00  0.00    -0.352 N 
ATOM      4  O   UNL     1       1.270   0.212  -0.005  1.00  0.00    -0.269 OA
ATOM      5  C   UNL     1       2.485   0.044   0.068  1.00  0.00     0.251 C 
ATOM      6  H   UNL     1       2.666   1.153   1.721  1.00  0.00     0.163 HD
BRANCH   5   7
ATOM      7  C   UNL     1       3.162  -0.841  -0.905  1.00  0.00     0.039 A 
ATOM      8  C   UNL     1       4.175  -1.710  -0.499  1.00  0.00     0.014 A 
ATOM      9  C   UNL     1       2.746  -0.830  -2.240  1.00  0.00     0.014 A 
ATOM     10  C   UNL     1       4.874  -2.452  -1.442  1.00  0.00     0.010 A 
ATOM     11  C   UNL     1       3.376  -1.661  -3.172  1.00  0.00     0.010 A 
ATOM     12  C   UNL     1       4.456  -2.466  -2.781  1.00  0.00    -0.014 A 
BRANCH  12  13
ATOM     13  C   UNL     1       5.078  -3.433  -3.716  1.00  0.00     0.031 A 
ATOM     14  C   UNL     1       5.865  -2.979  -4.911  1.00  0.00     0.074 A 
ATOM     15  C   UNL     1       4.919  -4.748  -3.462  1.00  0.00     0.049 A 
ATOM     16  N   UNL     1       6.456  -3.708  -5.824  1.00  0.00    -0.248 NA
ATOM     17  C   UNL     1       6.004  -1.529  -5.117  1.00  0.00     0.031 C 
ATOM     18  C   UNL     1       4.159  -5.303  -2.336  1.00  0.00     0.029 A 
ATOM     19  N   UNL     1       5.389  -5.854  -4.119  1.00  0.00    -0.354 N 
ATOM     20  C   UNL     1       7.013  -2.811  -6.725  1.00  0.00     0.074 A 
ATOM     21  C   UNL     1       6.684  -1.482  -6.256  1.00  0.00     0.031 C 
ATOM     22  C   UNL     1       4.247  -6.640  -2.361  1.00  0.00     0.029 A 
ATOM     23  C   UNL     1       5.002  -7.038  -3.541  1.00  0.00     0.049 A 
ATOM     24  H   UNL     1       5.949  -5.805  -4.928  1.00  0.00     0.167 HD
ATOM     25  C   UNL     1       7.730  -3.079  -7.842  1.00  0.00     0.031 A 
ATOM     26  C   UNL     1       5.199  -8.310  -3.932  1.00  0.00     0.031 A 
ATOM     27  C   UNL     1       8.066  -4.405  -8.292  1.00  0.00     0.049 A 
ATOM     28  C   UNL     1       5.964  -8.568  -5.193  1.00  0.00     0.074 A 
ATOM     29  C   UNL     1       8.854  -4.774  -9.369  1.00  0.00     0.029 A 
ATOM     30  N   UNL     1       7.623  -5.577  -7.700  1.00  0.00    -0.354 N 
ATOM     31  N   UNL     1       6.541  -7.707  -5.996  1.00  0.00    -0.248 NA
ATOM     32  C   UNL     1       6.096  -9.970  -5.610  1.00  0.00     0.031 C 
ATOM     33  C   UNL     1       8.839  -6.169  -9.464  1.00  0.00     0.029 A 
ATOM     34  C   UNL     1       8.081  -6.669  -8.418  1.00  0.00     0.049 A 
ATOM     35  H   UNL     1       7.066  -5.626  -6.890  1.00  0.00     0.167 HD
ATOM     36  C   UNL     1       7.103  -8.462  -7.013  1.00  0.00     0.074 A 
ATOM     37  C   UNL     1       6.826  -9.851  -6.710  1.00  0.00     0.031 C 
ATOM     38  C   UNL     1       7.780  -8.041  -8.108  1.00  0.00     0.031 A 
BRANCH  25  39
ATOM     39  C   UNL     1       8.185  -1.923  -8.686  1.00  0.00    -0.014 A 
ATOM     40  C   UNL     1       9.267  -1.117  -8.301  1.00  0.00     0.009 A 
ATOM     41  C   UNL     1       7.580  -1.699  -9.933  1.00  0.00     0.009 A 
ATOM     42  C   UNL     1       9.725  -0.102  -9.145  1.00  0.00     0.001 A 
ATOM     43  C   UNL     1       8.052  -0.696 -10.782  1.00  0.00     0.001 A 
ATOM     44  C   UNL     1       9.122   0.103 -10.386  1.00  0.00     0.000 A 
ENDBRANCH  25  39
BRANCH  26  45
ATOM     45  C   UNL     1       4.606  -9.424  -3.150  1.00  0.00    -0.014 A 
ATOM     46  C   UNL     1       5.420 -10.310  -2.431  1.00  0.00     0.009 A 
ATOM     47  C   UNL     1       3.213  -9.601  -3.119  1.00  0.00     0.009 A 
ATOM     48  C   UNL     1       4.850 -11.365  -1.713  1.00  0.00     0.001 A 
ATOM     49  C   UNL     1       2.645 -10.636  -2.376  1.00  0.00     0.001 A 
ATOM     50  C   UNL     1       3.464 -11.523  -1.682  1.00  0.00     0.000 A 
ENDBRANCH  26  45
BRANCH  38  51
ATOM     51  C   UNL     1       8.262  -9.101  -9.053  1.00  0.00    -0.014 A 
ATOM     52  C   UNL     1       7.366  -9.758  -9.911  1.00  0.00     0.009 A 
ATOM     53  C   UNL     1       9.626  -9.425  -9.109  1.00  0.00     0.009 A 
ATOM     54  C   UNL     1       7.825 -10.741 -10.789  1.00  0.00     0.001 A 
ATOM     55  C   UNL     1      10.085 -10.389 -10.005  1.00  0.00     0.001 A 
ATOM     56  C   UNL     1       9.183 -11.052 -10.838  1.00  0.00     0.000 A 
ENDBRANCH  38  51
ENDBRANCH  12  13
ENDBRANCH   5   7
ENDBRANCH   2   3
ENDBRANCH   1   2
BRANCH   1  57
ATOM     57  C   UNL     1       4.729   3.179   2.096  1.00  0.00     0.118 C 
BRANCH  57  58
ATOM     58  N   UNL     1       5.273   2.871   3.411  1.00  0.00    -0.352 N 
ATOM     59  C   UNL     1       5.984   3.689   4.255  1.00  0.00     0.251 C 
ATOM     60  H   UNL     1       5.110   1.957   3.739  1.00  0.00     0.163 HD
ATOM     61  O   UNL     1       6.484   3.244   5.282  1.00  0.00    -0.269 OA
BRANCH  59  62
ATOM     62  C   UNL     1       6.166   5.111   3.894  1.00  0.00     0.043 A 
ATOM     63  C   UNL     1       7.458   5.636   3.869  1.00  0.00     0.014 A 
ATOM     64  C   UNL     1       5.061   5.896   3.535  1.00  0.00     0.060 A 
ATOM     65  C   UNL     1       7.650   6.938   3.418  1.00  0.00     0.005 A 
ATOM     66  C   UNL     1       5.255   7.178   3.034  1.00  0.00     0.120 A 
ATOM     67  C   UNL     1       6.555   7.696   2.989  1.00  0.00     0.046 A 
BRANCH  66  68
ATOM     68  O   UNL     1       4.286   8.009   2.546  1.00  0.00    -0.488 OA
BRANCH  68  69
ATOM     69  C   UNL     1       2.953   7.506   2.390  1.00  0.00     0.302 C 
BRANCH  69  70
ATOM     70  C   UNL     1       2.748   6.776   1.070  1.00  0.00     0.379 C 
ATOM     71  F   UNL     1       3.245   5.515   1.141  1.00  0.00    -0.207 F 
ATOM     72  F   UNL     1       1.418   6.637   0.832  1.00  0.00    -0.207 F 
ENDBRANCH  69  70
ENDBRANCH  68  69
ENDBRANCH  66  68
ENDBRANCH  59  62
ENDBRANCH  57  58
ENDBRANCH   1  57
TORSDOF 13
