REMARK SMILES COc1cc(C(=O)N[C@H]2CCCC[C@H]2C(=O)NCCCNC(=O)c2ccc(-c3c4nc(c(-c5ccccc5)c5ccc([nH]5)c(-c5ccccc5)c5nc(c(-c6ccccc6)c6ccc3[nH]6)C=C5)C=C4)cc2)cc(Cl)c1OC
REMARK SMILES IDX 18 1 17 2 15 3 16 4 14 6 9 7 10 8 11 9 13 10 12 11 8 12 6 13
REMARK SMILES IDX 7 14 5 16 3 17 4 18 75 19 73 20 72 21 74 22 2 23 1 24 76 25
REMARK SMILES IDX 77 26 19 27 20 28 21 29 22 30 23 32 24 33 25 34 71 35 26 36
REMARK SMILES IDX 70 37 27 38 28 39 29 40 64 41 30 42 69 43 63 44 65 45 31 46
REMARK SMILES IDX 68 47 62 48 61 49 32 51 54 52 39 53 53 54 40 55 43 56 52 57
REMARK SMILES IDX 66 58 41 59 42 60 51 62 67 63 44 64 33 65 34 66 38 67 35 68
REMARK SMILES IDX 37 69 36 70 55 71 56 72 60 73 57 74 59 75 58 76 45 77 46 78
REMARK SMILES IDX 50 79 47 80 49 81 48 82
REMARK H PARENT 17 5 8 15 21 31 65 50 43 61
REMARK Flexibility Score: inf
ROOT
ATOM      1  C   UNL     1       3.404  -7.734  -1.695  1.00  0.00     0.117 C 
ENDROOT
BRANCH   1   2
ATOM      2  N   UNL     1       4.547  -7.395  -0.848  1.00  0.00    -0.356 N 
ATOM      3  C   UNL     1       4.803  -7.453   0.485  1.00  0.00     0.225 C 
ATOM      4  O   UNL     1       5.992  -7.631   0.783  1.00  0.00    -0.275 OA
ATOM      5  H   UNL     1       5.307  -7.042  -1.364  1.00  0.00     0.163 HD
BRANCH   3   6
ATOM      6  C   UNL     1       3.792  -7.219   1.616  1.00  0.00     0.101 C 
ATOM      7  C   UNL     1       2.401  -6.700   1.305  1.00  0.00     0.094 C 
ATOM      8  C   UNL     1       1.902  -5.947   2.563  1.00  0.00     0.026 C 
ATOM      9  C   UNL     1       1.831  -6.862   3.783  1.00  0.00     0.002 C 
ATOM     10  C   UNL     1       3.795  -8.185   2.819  1.00  0.00     0.015 C 
ATOM     11  C   UNL     1       3.159  -7.565   4.068  1.00  0.00     0.001 C 
BRANCH   7  12
ATOM     12  N   UNL     1       1.304  -7.562   0.806  1.00  0.00    -0.349 N 
ATOM     13  C   UNL     1       0.870  -8.825   0.524  1.00  0.00     0.251 C 
ATOM     14  O   UNL     1      -0.303  -8.866   0.134  1.00  0.00    -0.269 OA
ATOM     15  H   UNL     1       0.561  -6.957   0.578  1.00  0.00     0.164 HD
BRANCH  13  16
ATOM     16  C   UNL     1       1.596 -10.124   0.590  1.00  0.00     0.045 A 
ATOM     17  C   UNL     1       1.443 -12.550   0.535  1.00  0.00     0.163 A 
ATOM     18  C   UNL     1       0.831 -11.293   0.493  1.00  0.00     0.064 A 
ATOM     19  C   UNL     1       2.802 -12.682   0.817  1.00  0.00     0.179 A 
ATOM     20  C   UNL     1       3.583 -11.539   0.767  1.00  0.00     0.087 A 
ATOM     21  C   UNL     1       2.975 -10.291   0.609  1.00  0.00     0.038 A 
ATOM     22  Cl  UNL     1       5.309 -11.585   0.832  1.00  0.00    -0.080 Cl
BRANCH  17  23
ATOM     23  O   UNL     1       0.689 -13.655   0.232  1.00  0.00    -0.493 OA
ATOM     24  C   UNL     1       0.713 -13.821  -1.195  1.00  0.00     0.278 C 
ENDBRANCH  17  23
BRANCH  19  25
ATOM     25  O   UNL     1       3.315 -13.927   1.058  1.00  0.00    -0.491 OA
ATOM     26  C   UNL     1       3.830 -14.020   2.393  1.00  0.00     0.278 C 
ENDBRANCH  19  25
ENDBRANCH  13  16
ENDBRANCH   7  12
ENDBRANCH   3   6
ENDBRANCH   1   2
BRANCH   1  27
ATOM     27  C   UNL     1       2.584  -6.556  -2.194  1.00  0.00     0.042 C 
BRANCH  27  28
ATOM     28  C   UNL     1       2.022  -6.768  -3.599  1.00  0.00     0.118 C 
BRANCH  28  29
ATOM     29  N   UNL     1       1.105  -7.889  -3.764  1.00  0.00    -0.352 N 
ATOM     30  C   UNL     1       0.040  -8.016  -4.636  1.00  0.00     0.251 C 
ATOM     31  H   UNL     1       1.267  -8.662  -3.175  1.00  0.00     0.163 HD
ATOM     32  O   UNL     1      -0.605  -9.062  -4.671  1.00  0.00    -0.269 OA
BRANCH  30  33
ATOM     33  C   UNL     1      -0.377  -6.869  -5.480  1.00  0.00     0.039 A 
ATOM     34  C   UNL     1      -1.734  -6.537  -5.543  1.00  0.00     0.014 A 
ATOM     35  C   UNL     1       0.559  -6.074  -6.141  1.00  0.00     0.014 A 
ATOM     36  C   UNL     1      -2.131  -5.338  -6.146  1.00  0.00     0.010 A 
ATOM     37  C   UNL     1       0.177  -4.837  -6.652  1.00  0.00     0.010 A 
ATOM     38  C   UNL     1      -1.169  -4.439  -6.633  1.00  0.00    -0.014 A 
BRANCH  38  39
ATOM     39  C   UNL     1      -1.524  -3.061  -7.069  1.00  0.00     0.031 A 
ATOM     40  C   UNL     1      -1.191  -2.592  -8.460  1.00  0.00     0.074 A 
ATOM     41  C   UNL     1      -2.035  -2.188  -6.176  1.00  0.00     0.049 A 
ATOM     42  N   UNL     1      -1.275  -1.388  -8.969  1.00  0.00    -0.248 NA
ATOM     43  C   UNL     1      -0.663  -3.602  -9.392  1.00  0.00     0.031 C 
ATOM     44  C   UNL     1      -2.362  -2.490  -4.779  1.00  0.00     0.029 A 
ATOM     45  N   UNL     1      -2.354  -0.858  -6.306  1.00  0.00    -0.354 N 
ATOM     46  C   UNL     1      -0.784  -1.491 -10.265  1.00  0.00     0.074 A 
ATOM     47  C   UNL     1      -0.363  -2.862 -10.450  1.00  0.00     0.031 C 
ATOM     48  C   UNL     1      -2.858  -1.389  -4.193  1.00  0.00     0.029 A 
ATOM     49  C   UNL     1      -2.835  -0.289  -5.150  1.00  0.00     0.049 A 
ATOM     50  H   UNL     1      -2.248  -0.358  -7.147  1.00  0.00     0.167 HD
ATOM     51  C   UNL     1      -0.707  -0.536 -11.223  1.00  0.00     0.031 A 
ATOM     52  C   UNL     1      -3.201   0.979  -4.880  1.00  0.00     0.031 A 
ATOM     53  C   UNL     1      -1.148   0.823 -11.053  1.00  0.00     0.049 A 
ATOM     54  C   UNL     1      -3.096   2.021  -5.958  1.00  0.00     0.074 A 
ATOM     55  C   UNL     1      -1.173   1.843 -11.988  1.00  0.00     0.029 A 
ATOM     56  N   UNL     1      -1.645   1.350  -9.872  1.00  0.00    -0.354 N 
ATOM     57  N   UNL     1      -2.684   1.891  -7.195  1.00  0.00    -0.248 NA
ATOM     58  C   UNL     1      -3.509   3.386  -5.600  1.00  0.00     0.031 C 
ATOM     59  C   UNL     1      -1.642   3.001 -11.360  1.00  0.00     0.029 A 
ATOM     60  C   UNL     1      -1.956   2.688 -10.047  1.00  0.00     0.049 A 
ATOM     61  H   UNL     1      -1.760   0.848  -9.033  1.00  0.00     0.167 HD
ATOM     62  C   UNL     1      -2.807   3.150  -7.768  1.00  0.00     0.074 A 
ATOM     63  C   UNL     1      -3.351   4.025  -6.751  1.00  0.00     0.031 C 
ATOM     64  C   UNL     1      -2.493   3.546  -9.025  1.00  0.00     0.031 A 
BRANCH  51  65
ATOM     65  C   UNL     1      -0.122  -0.932 -12.550  1.00  0.00    -0.014 A 
ATOM     66  C   UNL     1      -0.819  -1.777 -13.427  1.00  0.00     0.009 A 
ATOM     67  C   UNL     1       1.123  -0.419 -12.946  1.00  0.00     0.009 A 
ATOM     68  C   UNL     1      -0.265  -2.130 -14.659  1.00  0.00     0.001 A 
ATOM     69  C   UNL     1       1.662  -0.751 -14.191  1.00  0.00     0.001 A 
ATOM     70  C   UNL     1       0.972  -1.613 -15.042  1.00  0.00     0.000 A 
ENDBRANCH  51  65
BRANCH  52  71
ATOM     71  C   UNL     1      -3.704   1.344  -3.529  1.00  0.00    -0.014 A 
ATOM     72  C   UNL     1      -5.056   1.669  -3.339  1.00  0.00     0.009 A 
ATOM     73  C   UNL     1      -2.834   1.390  -2.428  1.00  0.00     0.009 A 
ATOM     74  C   UNL     1      -5.520   2.061  -2.081  1.00  0.00     0.001 A 
ATOM     75  C   UNL     1      -3.308   1.753  -1.165  1.00  0.00     0.001 A 
ATOM     76  C   UNL     1      -4.648   2.099  -0.995  1.00  0.00     0.000 A 
ENDBRANCH  52  71
BRANCH  64  77
ATOM     77  C   UNL     1      -2.752   4.984  -9.375  1.00  0.00    -0.014 A 
ATOM     78  C   UNL     1      -1.934   6.010  -8.877  1.00  0.00     0.009 A 
ATOM     79  C   UNL     1      -3.804   5.311 -10.244  1.00  0.00     0.009 A 
ATOM     80  C   UNL     1      -2.185   7.340  -9.220  1.00  0.00     0.001 A 
ATOM     81  C   UNL     1      -4.035   6.638 -10.607  1.00  0.00     0.001 A 
ATOM     82  C   UNL     1      -3.231   7.652 -10.088  1.00  0.00     0.000 A 
ENDBRANCH  64  77
ENDBRANCH  38  39
ENDBRANCH  30  33
ENDBRANCH  28  29
ENDBRANCH  27  28
ENDBRANCH   1  27
TORSDOF 14
