REMARK SMILES Cc1ccc(N2C(=O)C[C@H](Sc3ccccc3C(=O)NCCCNC(=O)c3ccc(-c4c5nc(c(-c6ccccc6)c6ccc([nH]6)c(-c6ccccc6)c6nc(c(-c7ccccc7)c7ccc4[nH]7)C=C6)C=C5)cc3)C2=O)cc1
REMARK SMILES IDX 21 1 20 2 18 3 19 4 17 6 12 7 13 8 14 9 16 10 15 11 11 12
REMARK SMILES IDX 10 13 6 14 7 15 75 16 8 17 9 18 76 19 5 20 1 21 2 22 3 23
REMARK SMILES IDX 78 24 4 25 77 26 22 27 23 28 24 29 25 30 26 32 27 33 28 34
REMARK SMILES IDX 74 35 29 36 73 37 30 38 31 39 32 40 67 41 33 42 72 43 66 44
REMARK SMILES IDX 68 45 34 46 71 47 65 48 64 49 35 51 57 52 42 53 56 54 43 55
REMARK SMILES IDX 46 56 55 57 69 58 44 59 45 60 54 62 70 63 47 64 36 65 37 66
REMARK SMILES IDX 41 67 38 68 40 69 39 70 58 71 59 72 63 73 60 74 62 75 61 76
REMARK SMILES IDX 48 77 49 78 53 79 50 80 52 81 51 82
REMARK H PARENT 20 5 24 31 68 50 46 61
REMARK Flexibility Score: inf
ROOT
ATOM      1  C   UNL     1      -6.289   5.493  -0.800  1.00  0.00     0.118 C 
ENDROOT
BRANCH   1   2
ATOM      2  N   UNL     1      -6.917   4.183  -0.693  1.00  0.00    -0.352 N 
ATOM      3  C   UNL     1      -6.968   3.179   0.244  1.00  0.00     0.252 C 
ATOM      4  O   UNL     1      -7.825   2.323   0.021  1.00  0.00    -0.269 OA
ATOM      5  H   UNL     1      -7.438   3.960  -1.498  1.00  0.00     0.163 HD
BRANCH   3   6
ATOM      6  C   UNL     1      -6.067   3.048   1.440  1.00  0.00     0.053 A 
ATOM      7  C   UNL     1      -5.831   1.790   2.066  1.00  0.00     0.021 A 
ATOM      8  C   UNL     1      -5.064   1.738   3.250  1.00  0.00     0.016 A 
ATOM      9  C   UNL     1      -4.518   2.888   3.812  1.00  0.00     0.001 A 
ATOM     10  C   UNL     1      -5.504   4.188   2.037  1.00  0.00     0.015 A 
ATOM     11  C   UNL     1      -4.734   4.112   3.202  1.00  0.00     0.001 A 
BRANCH   7  12
ATOM     12  S   UNL     1      -6.585   0.208   1.646  1.00  0.00    -0.111 SA
BRANCH  12  13
ATOM     13  C   UNL     1      -5.477  -0.526   0.392  1.00  0.00     0.151 C 
ATOM     14  N   UNL     1      -3.244   0.088   0.052  1.00  0.00    -0.250 N 
ATOM     15  C   UNL     1      -3.981   0.809  -0.862  1.00  0.00     0.235 C 
ATOM     16  C   UNL     1      -4.053  -0.689   0.858  1.00  0.00     0.247 C 
ATOM     17  O   UNL     1      -3.619   1.701  -1.619  1.00  0.00    -0.274 OA
ATOM     18  C   UNL     1      -5.361   0.231  -0.908  1.00  0.00     0.126 C 
ATOM     19  O   UNL     1      -3.724  -1.375   1.818  1.00  0.00    -0.273 OA
BRANCH  14  20
ATOM     20  C   UNL     1      -1.825   0.107   0.123  1.00  0.00     0.052 A 
ATOM     21  C   UNL     1       2.505   0.014   0.023  1.00  0.00     0.044 C 
ATOM     22  C   UNL     1       1.008   0.062   0.093  1.00  0.00    -0.051 A 
ATOM     23  C   UNL     1       0.283  -1.083   0.433  1.00  0.00     0.005 A 
ATOM     24  C   UNL     1       0.310   1.227  -0.232  1.00  0.00     0.005 A 
ATOM     25  C   UNL     1      -1.116  -1.053   0.469  1.00  0.00     0.027 A 
ATOM     26  C   UNL     1      -1.089   1.245  -0.228  1.00  0.00     0.027 A 
ENDBRANCH  14  20
ENDBRANCH  12  13
ENDBRANCH   7  12
ENDBRANCH   3   6
ENDBRANCH   1   2
BRANCH   1  27
ATOM     27  C   UNL     1      -4.791   5.454  -1.076  1.00  0.00     0.042 C 
BRANCH  27  28
ATOM     28  C   UNL     1      -4.444   5.954  -2.476  1.00  0.00     0.118 C 
BRANCH  28  29
ATOM     29  N   UNL     1      -4.468   7.412  -2.622  1.00  0.00    -0.352 N 
ATOM     30  C   UNL     1      -4.355   8.161  -3.787  1.00  0.00     0.251 C 
ATOM     31  H   UNL     1      -4.578   7.926  -1.790  1.00  0.00     0.163 HD
ATOM     32  O   UNL     1      -4.446   9.377  -3.771  1.00  0.00    -0.269 OA
BRANCH  30  33
ATOM     33  C   UNL     1      -4.233   7.432  -5.069  1.00  0.00     0.039 A 
ATOM     34  C   UNL     1      -5.241   7.612  -6.020  1.00  0.00     0.014 A 
ATOM     35  C   UNL     1      -3.319   6.386  -5.176  1.00  0.00     0.014 A 
ATOM     36  C   UNL     1      -5.501   6.585  -6.920  1.00  0.00     0.010 A 
ATOM     37  C   UNL     1      -3.632   5.330  -6.009  1.00  0.00     0.010 A 
ATOM     38  C   UNL     1      -4.776   5.397  -6.814  1.00  0.00    -0.014 A 
BRANCH  38  39
ATOM     39  C   UNL     1      -5.271   4.132  -7.348  1.00  0.00     0.031 A 
ATOM     40  C   UNL     1      -4.631   3.484  -8.504  1.00  0.00     0.074 A 
ATOM     41  C   UNL     1      -6.309   3.516  -6.740  1.00  0.00     0.049 A 
ATOM     42  N   UNL     1      -5.232   2.647  -9.281  1.00  0.00    -0.248 NA
ATOM     43  C   UNL     1      -3.264   3.777  -8.913  1.00  0.00     0.031 C 
ATOM     44  C   UNL     1      -6.773   2.145  -6.935  1.00  0.00     0.029 A 
ATOM     45  N   UNL     1      -7.308   4.113  -5.969  1.00  0.00    -0.354 N 
ATOM     46  C   UNL     1      -4.277   2.073 -10.083  1.00  0.00     0.074 A 
ATOM     47  C   UNL     1      -3.091   2.876  -9.884  1.00  0.00     0.031 C 
ATOM     48  C   UNL     1      -8.053   2.062  -6.539  1.00  0.00     0.029 A 
ATOM     49  C   UNL     1      -8.499   3.406  -6.218  1.00  0.00     0.049 A 
ATOM     50  H   UNL     1      -7.199   4.883  -5.365  1.00  0.00     0.167 HD
ATOM     51  C   UNL     1      -4.551   0.900 -10.721  1.00  0.00     0.031 A 
ATOM     52  C   UNL     1      -9.574   4.030  -6.783  1.00  0.00     0.031 A 
ATOM     53  C   UNL     1      -5.935   0.462 -10.525  1.00  0.00     0.049 A 
ATOM     54  C   UNL     1      -9.991   3.480  -8.134  1.00  0.00     0.074 A 
ATOM     55  C   UNL     1      -6.543  -0.537  -9.780  1.00  0.00     0.029 A 
ATOM     56  N   UNL     1      -6.963   1.282 -10.966  1.00  0.00    -0.354 N 
ATOM     57  N   UNL     1      -9.379   2.520  -8.771  1.00  0.00    -0.248 NA
ATOM     58  C   UNL     1     -11.076   4.062  -8.926  1.00  0.00     0.031 C 
ATOM     59  C   UNL     1      -7.950  -0.317  -9.799  1.00  0.00     0.029 A 
ATOM     60  C   UNL     1      -8.195   0.809 -10.560  1.00  0.00     0.049 A 
ATOM     61  H   UNL     1      -6.830   2.098 -11.500  1.00  0.00     0.167 HD
ATOM     62  C   UNL     1      -9.905   2.398 -10.032  1.00  0.00     0.074 A 
ATOM     63  C   UNL     1     -10.971   3.381 -10.079  1.00  0.00     0.031 C 
ATOM     64  C   UNL     1      -9.387   1.540 -10.960  1.00  0.00     0.031 A 
BRANCH  51  65
ATOM     65  C   UNL     1      -3.478   0.022 -11.321  1.00  0.00    -0.014 A 
ATOM     66  C   UNL     1      -3.679  -1.367 -11.406  1.00  0.00     0.009 A 
ATOM     67  C   UNL     1      -2.231   0.488 -11.773  1.00  0.00     0.009 A 
ATOM     68  C   UNL     1      -2.660  -2.244 -11.806  1.00  0.00     0.001 A 
ATOM     69  C   UNL     1      -1.193  -0.383 -12.131  1.00  0.00     0.001 A 
ATOM     70  C   UNL     1      -1.404  -1.753 -12.134  1.00  0.00     0.000 A 
ENDBRANCH  51  65
BRANCH  52  71
ATOM     71  C   UNL     1      -9.711   5.457  -6.376  1.00  0.00    -0.014 A 
ATOM     72  C   UNL     1     -10.005   5.747  -5.029  1.00  0.00     0.009 A 
ATOM     73  C   UNL     1      -9.236   6.490  -7.195  1.00  0.00     0.009 A 
ATOM     74  C   UNL     1      -9.731   7.007  -4.491  1.00  0.00     0.001 A 
ATOM     75  C   UNL     1      -8.975   7.755  -6.656  1.00  0.00     0.001 A 
ATOM     76  C   UNL     1      -9.190   8.003  -5.300  1.00  0.00     0.000 A 
ENDBRANCH  52  71
BRANCH  64  77
ATOM     77  C   UNL     1      -9.918   1.350 -12.361  1.00  0.00    -0.014 A 
ATOM     78  C   UNL     1     -11.270   1.472 -12.705  1.00  0.00     0.009 A 
ATOM     79  C   UNL     1      -9.044   0.920 -13.385  1.00  0.00     0.009 A 
ATOM     80  C   UNL     1     -11.710   1.260 -14.020  1.00  0.00     0.001 A 
ATOM     81  C   UNL     1      -9.480   0.684 -14.691  1.00  0.00     0.001 A 
ATOM     82  C   UNL     1     -10.815   0.871 -15.013  1.00  0.00     0.000 A 
ENDBRANCH  64  77
ENDBRANCH  38  39
ENDBRANCH  30  33
ENDBRANCH  28  29
ENDBRANCH  27  28
ENDBRANCH   1  27
TORSDOF 13
