REMARK SMILES CC(C)Cn1c([C@@H](O)[C@@H](O)C(=O)NCCCNC(=O)c2ccc(-c3c4nc(c(-c5ccccc5)c5ccc([nH]5)c(-c5ccccc5)c5nc(c(-c6ccccc6)c6ccc3[nH]6)C=C5)C=C4)cc2)nc2cc(Cl)ccc21
REMARK SMILES IDX 14 1 13 2 11 3 12 4 9 6 7 7 6 8 5 9 75 10 68 11 69 12 74 13
REMARK SMILES IDX 70 14 73 15 71 16 72 17 4 18 2 19 1 20 3 21 8 22 10 24 15 26
REMARK SMILES IDX 16 27 17 28 18 29 19 31 20 32 21 33 67 34 22 35 66 36 23 37
REMARK SMILES IDX 24 38 25 39 60 40 26 41 65 42 59 43 61 44 27 45 64 46 58 47
REMARK SMILES IDX 57 48 28 50 50 51 35 52 49 53 36 54 39 55 48 56 62 57 37 58
REMARK SMILES IDX 38 59 47 61 63 62 40 63 29 64 30 65 34 66 31 67 33 68 32 69
REMARK SMILES IDX 51 70 52 71 56 72 53 73 55 74 54 75 41 76 42 77 46 78 43 79
REMARK SMILES IDX 45 80 44 81
REMARK H PARENT 13 5 8 23 10 25 17 30 61 49 39 60
REMARK Flexibility Score: inf
ROOT
ATOM      1  C   UNL     1       2.398  -1.643   3.962  1.00  0.00     0.117 C 
ENDROOT
BRANCH   1   2
ATOM      2  N   UNL     1       2.381  -3.090   4.016  1.00  0.00    -0.354 N 
ATOM      3  C   UNL     1       1.815  -4.006   3.175  1.00  0.00     0.252 C 
ATOM      4  O   UNL     1       2.062  -5.195   3.407  1.00  0.00    -0.272 OA
ATOM      5  H   UNL     1       2.854  -3.478   4.787  1.00  0.00     0.163 HD
BRANCH   3   6
ATOM      6  C   UNL     1       0.951  -3.603   1.964  1.00  0.00     0.239 C 
BRANCH   6   7
ATOM      7  C   UNL     1      -0.350  -2.874   2.351  1.00  0.00     0.219 C 
BRANCH   7   8
ATOM      8  C   UNL     1      -1.165  -2.539   1.123  1.00  0.00     0.142 A 
ATOM      9  N   UNL     1      -1.474  -1.261   0.699  1.00  0.00    -0.325 N 
ATOM     10  C   UNL     1      -2.263  -1.362  -0.427  1.00  0.00     0.068 A 
ATOM     11  N   UNL     1      -1.688  -3.437   0.306  1.00  0.00    -0.230 NA
ATOM     12  C   UNL     1      -2.345  -2.729  -0.669  1.00  0.00     0.090 A 
ATOM     13  C   UNL     1      -2.884  -0.412  -1.248  1.00  0.00     0.030 A 
ATOM     14  C   UNL     1      -3.038  -3.196  -1.795  1.00  0.00     0.051 A 
ATOM     15  C   UNL     1      -3.586  -0.892  -2.359  1.00  0.00     0.023 A 
ATOM     16  C   UNL     1      -3.650  -2.258  -2.631  1.00  0.00     0.043 A 
ATOM     17  Cl  UNL     1      -4.502  -2.798  -4.028  1.00  0.00    -0.084 Cl
BRANCH   9  18
ATOM     18  C   UNL     1      -1.041  -0.011   1.304  1.00  0.00     0.127 C 
BRANCH  18  19
ATOM     19  C   UNL     1       0.454   0.283   1.107  1.00  0.00     0.003 C 
ATOM     20  C   UNL     1       0.865   0.427  -0.356  1.00  0.00     0.009 C 
ATOM     21  C   UNL     1       0.876   1.507   1.915  1.00  0.00     0.009 C 
ENDBRANCH  18  19
ENDBRANCH   9  18
ENDBRANCH   7   8
BRANCH   7  22
ATOM     22  O   UNL     1      -1.187  -3.674   3.193  1.00  0.00    -0.382 OA
ATOM     23  H   UNL     1      -1.458  -4.473   2.715  1.00  0.00     0.211 HD
ENDBRANCH   7  22
ENDBRANCH   6   7
BRANCH   6  24
ATOM     24  O   UNL     1       1.731  -2.826   1.043  1.00  0.00    -0.380 OA
ATOM     25  H   UNL     1       2.015  -2.005   1.473  1.00  0.00     0.211 HD
ENDBRANCH   6  24
ENDBRANCH   3   6
ENDBRANCH   1   2
BRANCH   1  26
ATOM     26  C   UNL     1       1.544  -1.001   5.056  1.00  0.00     0.042 C 
BRANCH  26  27
ATOM     27  C   UNL     1       2.135  -1.156   6.457  1.00  0.00     0.118 C 
BRANCH  27  28
ATOM     28  N   UNL     1       3.467  -0.596   6.581  1.00  0.00    -0.352 N 
ATOM     29  C   UNL     1       3.987   0.633   6.860  1.00  0.00     0.251 C 
ATOM     30  H   UNL     1       4.168  -1.269   6.425  1.00  0.00     0.163 HD
ATOM     31  O   UNL     1       5.221   0.686   6.934  1.00  0.00    -0.269 OA
BRANCH  29  32
ATOM     32  C   UNL     1       3.217   1.895   7.017  1.00  0.00     0.039 A 
ATOM     33  C   UNL     1       1.831   2.032   6.923  1.00  0.00     0.014 A 
ATOM     34  C   UNL     1       3.993   3.056   7.212  1.00  0.00     0.014 A 
ATOM     35  C   UNL     1       1.249   3.299   6.916  1.00  0.00     0.010 A 
ATOM     36  C   UNL     1       3.418   4.320   7.218  1.00  0.00     0.010 A 
ATOM     37  C   UNL     1       2.050   4.441   7.013  1.00  0.00    -0.014 A 
BRANCH  37  38
ATOM     38  C   UNL     1       1.406   5.749   6.947  1.00  0.00     0.031 A 
ATOM     39  C   UNL     1       0.476   6.068   8.065  1.00  0.00     0.074 A 
ATOM     40  C   UNL     1       1.702   6.667   6.005  1.00  0.00     0.049 A 
ATOM     41  N   UNL     1      -0.789   6.328   8.000  1.00  0.00    -0.248 NA
ATOM     42  C   UNL     1       1.007   6.008   9.434  1.00  0.00     0.031 C 
ATOM     43  C   UNL     1       2.790   6.638   5.022  1.00  0.00     0.029 A 
ATOM     44  N   UNL     1       1.142   7.894   5.805  1.00  0.00    -0.354 N 
ATOM     45  C   UNL     1      -1.197   6.610   9.304  1.00  0.00     0.074 A 
ATOM     46  C   UNL     1      -0.080   6.286  10.155  1.00  0.00     0.031 C 
ATOM     47  C   UNL     1       2.959   7.878   4.508  1.00  0.00     0.029 A 
ATOM     48  C   UNL     1       1.900   8.738   5.006  1.00  0.00     0.049 A 
ATOM     49  H   UNL     1       0.277   8.157   6.193  1.00  0.00     0.167 HD
ATOM     50  C   UNL     1      -2.366   7.255   9.574  1.00  0.00     0.031 A 
ATOM     51  C   UNL     1       1.709  10.068   4.826  1.00  0.00     0.031 A 
ATOM     52  C   UNL     1      -3.255   7.245   8.445  1.00  0.00     0.049 A 
ATOM     53  C   UNL     1       0.310  10.376   5.197  1.00  0.00     0.074 A 
ATOM     54  C   UNL     1      -3.917   6.266   7.735  1.00  0.00     0.029 A 
ATOM     55  N   UNL     1      -3.304   8.377   7.670  1.00  0.00    -0.354 N 
ATOM     56  N   UNL     1      -0.725   9.952   4.530  1.00  0.00    -0.248 NA
ATOM     57  C   UNL     1       0.042  10.817   6.556  1.00  0.00     0.031 C 
ATOM     58  C   UNL     1      -3.902   6.721   6.386  1.00  0.00     0.029 A 
ATOM     59  C   UNL     1      -3.285   7.974   6.362  1.00  0.00     0.049 A 
ATOM     60  H   UNL     1      -3.344   9.306   7.995  1.00  0.00     0.167 HD
ATOM     61  C   UNL     1      -1.673   9.662   5.500  1.00  0.00     0.074 A 
ATOM     62  C   UNL     1      -1.185  10.314   6.713  1.00  0.00     0.031 C 
ATOM     63  C   UNL     1      -2.612   8.691   5.300  1.00  0.00     0.031 A 
BRANCH  50  64
ATOM     64  C   UNL     1      -2.571   8.201  10.733  1.00  0.00    -0.014 A 
ATOM     65  C   UNL     1      -1.520   8.706  11.519  1.00  0.00     0.009 A 
ATOM     66  C   UNL     1      -3.824   8.831  10.878  1.00  0.00     0.009 A 
ATOM     67  C   UNL     1      -1.692   9.803  12.370  1.00  0.00     0.001 A 
ATOM     68  C   UNL     1      -3.989   9.955  11.697  1.00  0.00     0.001 A 
ATOM     69  C   UNL     1      -2.919  10.446  12.435  1.00  0.00     0.000 A 
ENDBRANCH  50  64
BRANCH  51  70
ATOM     70  C   UNL     1       2.746  11.121   4.741  1.00  0.00    -0.014 A 
ATOM     71  C   UNL     1       3.978  10.948   5.399  1.00  0.00     0.009 A 
ATOM     72  C   UNL     1       2.428  12.408   4.277  1.00  0.00     0.009 A 
ATOM     73  C   UNL     1       4.842  12.024   5.624  1.00  0.00     0.001 A 
ATOM     74  C   UNL     1       3.293  13.488   4.505  1.00  0.00     0.001 A 
ATOM     75  C   UNL     1       4.491  13.298   5.192  1.00  0.00     0.000 A 
ENDBRANCH  51  70
BRANCH  63  76
ATOM     76  C   UNL     1      -2.765   8.102   3.918  1.00  0.00    -0.014 A 
ATOM     77  C   UNL     1      -4.053   8.047   3.363  1.00  0.00     0.009 A 
ATOM     78  C   UNL     1      -1.727   7.418   3.260  1.00  0.00     0.009 A 
ATOM     79  C   UNL     1      -4.306   7.309   2.205  1.00  0.00     0.001 A 
ATOM     80  C   UNL     1      -1.975   6.702   2.084  1.00  0.00     0.001 A 
ATOM     81  C   UNL     1      -3.267   6.636   1.566  1.00  0.00     0.000 A 
ENDBRANCH  63  76
ENDBRANCH  37  38
ENDBRANCH  29  32
ENDBRANCH  27  28
ENDBRANCH  26  27
ENDBRANCH   1  26
TORSDOF 16
