REMARK SMILES C[C@@H](C(=O)NCCCNC(=O)c1ccc(-c2c3nc(c(-c4ccccc4)c4ccc([nH]4)c(-c4ccccc4)c4nc(c(-c5ccccc5)c5ccc2[nH]5)C=C4)C=C3)cc1)c1ccc(NC2CCCC2)cc1F
REMARK SMILES IDX 6 1 5 2 3 3 4 4 2 6 1 7 60 8 61 9 71 10 62 11 70 12 72 13
REMARK SMILES IDX 63 14 64 15 65 17 66 18 69 19 67 20 68 21 7 22 8 23 9 24
REMARK SMILES IDX 10 25 11 27 12 28 13 29 59 30 14 31 58 32 15 33 16 34 17 35
REMARK SMILES IDX 52 36 18 37 57 38 51 39 53 40 19 41 56 42 50 43 49 44 20 46
REMARK SMILES IDX 42 47 27 48 41 49 28 50 31 51 40 52 54 53 29 54 30 55 39 57
REMARK SMILES IDX 55 58 32 59 21 60 22 61 26 62 23 63 25 64 24 65 43 66 44 67
REMARK SMILES IDX 48 68 45 69 47 70 46 71 33 72 34 73 38 74 35 75 37 76 36 77
REMARK H PARENT 5 5 64 16 9 26 53 45 31 56
REMARK Flexibility Score: inf
ROOT
ATOM      1  C   UNL     1       3.635  -0.368   1.994  1.00  0.00     0.117 C 
ENDROOT
BRANCH   1   2
ATOM      2  N   UNL     1       2.602   0.352   2.705  1.00  0.00    -0.356 N 
ATOM      3  C   UNL     1       1.271   0.475   2.451  1.00  0.00     0.227 C 
ATOM      4  O   UNL     1       0.662   1.266   3.174  1.00  0.00    -0.274 OA
ATOM      5  H   UNL     1       2.913   0.834   3.505  1.00  0.00     0.163 HD
BRANCH   3   6
ATOM      6  C   UNL     1       0.603  -0.364   1.345  1.00  0.00     0.108 C 
ATOM      7  C   UNL     1       1.008   0.072  -0.066  1.00  0.00     0.023 C 
BRANCH   6   8
ATOM      8  C   UNL     1      -0.913  -0.326   1.440  1.00  0.00     0.000 A 
ATOM      9  C   UNL     1      -1.605   0.887   1.383  1.00  0.00     0.009 A 
ATOM     10  C   UNL     1      -1.663  -1.494   1.558  1.00  0.00     0.129 A 
ATOM     11  C   UNL     1      -2.996   0.919   1.468  1.00  0.00     0.026 A 
ATOM     12  C   UNL     1      -3.057  -1.458   1.636  1.00  0.00     0.065 A 
ATOM     13  F   UNL     1      -1.047  -2.685   1.585  1.00  0.00    -0.207 F 
ATOM     14  C   UNL     1      -3.756  -0.244   1.602  1.00  0.00     0.037 A 
BRANCH  14  15
ATOM     15  N   UNL     1      -5.134  -0.257   1.676  1.00  0.00    -0.382 N 
ATOM     16  H   UNL     1      -5.550  -1.145   1.774  1.00  0.00     0.160 HD
BRANCH  15  17
ATOM     17  C   UNL     1      -6.054   0.870   1.628  1.00  0.00     0.079 C 
ATOM     18  C   UNL     1      -5.897   1.853   2.784  1.00  0.00     0.025 C 
ATOM     19  C   UNL     1      -5.977   1.687   0.338  1.00  0.00     0.025 C 
ATOM     20  C   UNL     1      -6.471   3.151   2.241  1.00  0.00     0.002 C 
ATOM     21  C   UNL     1      -6.169   3.146   0.748  1.00  0.00     0.002 C 
ENDBRANCH  15  17
ENDBRANCH  14  15
ENDBRANCH   6   8
ENDBRANCH   3   6
ENDBRANCH   1   2
BRANCH   1  22
ATOM     22  C   UNL     1       4.466   0.575   1.128  1.00  0.00     0.042 C 
BRANCH  22  23
ATOM     23  C   UNL     1       5.168   1.677   1.916  1.00  0.00     0.118 C 
BRANCH  23  24
ATOM     24  N   UNL     1       6.167   1.157   2.839  1.00  0.00    -0.352 N 
ATOM     25  C   UNL     1       7.519   1.393   2.879  1.00  0.00     0.251 C 
ATOM     26  H   UNL     1       5.824   0.550   3.534  1.00  0.00     0.163 HD
ATOM     27  O   UNL     1       8.245   0.726   3.609  1.00  0.00    -0.269 OA
BRANCH  25  28
ATOM     28  C   UNL     1       8.099   2.443   2.019  1.00  0.00     0.039 A 
ATOM     29  C   UNL     1       9.236   2.154   1.260  1.00  0.00     0.014 A 
ATOM     30  C   UNL     1       7.505   3.705   1.954  1.00  0.00     0.014 A 
ATOM     31  C   UNL     1       9.736   3.112   0.375  1.00  0.00     0.010 A 
ATOM     32  C   UNL     1       7.955   4.626   1.018  1.00  0.00     0.010 A 
ATOM     33  C   UNL     1       9.075   4.341   0.220  1.00  0.00    -0.014 A 
BRANCH  33  34
ATOM     34  C   UNL     1       9.527   5.365  -0.753  1.00  0.00     0.031 A 
ATOM     35  C   UNL     1       9.966   6.713  -0.257  1.00  0.00     0.074 A 
ATOM     36  C   UNL     1       9.425   5.131  -2.074  1.00  0.00     0.049 A 
ATOM     37  N   UNL     1      10.213   7.804  -0.934  1.00  0.00    -0.248 NA
ATOM     38  C   UNL     1      10.107   6.859   1.201  1.00  0.00     0.031 C 
ATOM     39  C   UNL     1       8.987   3.874  -2.684  1.00  0.00     0.029 A 
ATOM     40  N   UNL     1       9.652   5.960  -3.145  1.00  0.00    -0.354 N 
ATOM     41  C   UNL     1      10.502   8.775   0.017  1.00  0.00     0.074 A 
ATOM     42  C   UNL     1      10.356   8.154   1.315  1.00  0.00     0.031 C 
ATOM     43  C   UNL     1       8.977   4.015  -4.019  1.00  0.00     0.029 A 
ATOM     44  C   UNL     1       9.357   5.384  -4.356  1.00  0.00     0.049 A 
ATOM     45  H   UNL     1       9.994   6.878  -3.053  1.00  0.00     0.167 HD
ATOM     46  C   UNL     1      10.867  10.065  -0.174  1.00  0.00     0.031 A 
ATOM     47  C   UNL     1       9.361   5.905  -5.598  1.00  0.00     0.031 A 
ATOM     48  C   UNL     1      11.015  10.676  -1.468  1.00  0.00     0.049 A 
ATOM     49  C   UNL     1       9.752   7.343  -5.791  1.00  0.00     0.074 A 
ATOM     50  C   UNL     1      11.435  11.958  -1.773  1.00  0.00     0.029 A 
ATOM     51  N   UNL     1      10.741  10.045  -2.672  1.00  0.00    -0.354 N 
ATOM     52  N   UNL     1      10.077   8.237  -4.889  1.00  0.00    -0.248 NA
ATOM     53  C   UNL     1       9.785   7.843  -7.173  1.00  0.00     0.031 C 
ATOM     54  C   UNL     1      11.362  12.121  -3.160  1.00  0.00     0.029 A 
ATOM     55  C   UNL     1      10.959  10.920  -3.722  1.00  0.00     0.049 A 
ATOM     56  H   UNL     1      10.437   9.114  -2.766  1.00  0.00     0.167 HD
ATOM     57  C   UNL     1      10.385   9.394  -5.593  1.00  0.00     0.074 A 
ATOM     58  C   UNL     1      10.209   9.088  -6.998  1.00  0.00     0.031 C 
ATOM     59  C   UNL     1      10.785  10.598  -5.117  1.00  0.00     0.031 A 
BRANCH  46  60
ATOM     60  C   UNL     1      11.098  10.901   1.055  1.00  0.00    -0.014 A 
ATOM     61  C   UNL     1      12.173  10.647   1.924  1.00  0.00     0.009 A 
ATOM     62  C   UNL     1      10.222  11.956   1.354  1.00  0.00     0.009 A 
ATOM     63  C   UNL     1      12.329  11.392   3.094  1.00  0.00     0.001 A 
ATOM     64  C   UNL     1      10.402  12.723   2.506  1.00  0.00     0.001 A 
ATOM     65  C   UNL     1      11.445  12.431   3.383  1.00  0.00     0.000 A 
ENDBRANCH  46  60
BRANCH  47  66
ATOM     66  C   UNL     1       8.981   5.049  -6.751  1.00  0.00    -0.014 A 
ATOM     67  C   UNL     1       9.956   4.593  -7.650  1.00  0.00     0.009 A 
ATOM     68  C   UNL     1       7.647   4.650  -6.935  1.00  0.00     0.009 A 
ATOM     69  C   UNL     1       9.601   3.764  -8.718  1.00  0.00     0.001 A 
ATOM     70  C   UNL     1       7.300   3.800  -7.987  1.00  0.00     0.001 A 
ATOM     71  C   UNL     1       8.276   3.362  -8.881  1.00  0.00     0.000 A 
ENDBRANCH  47  66
BRANCH  59  72
ATOM     72  C   UNL     1      11.113  11.670  -6.117  1.00  0.00    -0.014 A 
ATOM     73  C   UNL     1      10.108  12.351  -6.820  1.00  0.00     0.009 A 
ATOM     74  C   UNL     1      12.451  12.060  -6.293  1.00  0.00     0.009 A 
ATOM     75  C   UNL     1      10.440  13.391  -7.692  1.00  0.00     0.001 A 
ATOM     76  C   UNL     1      12.777  13.117  -7.144  1.00  0.00     0.001 A 
ATOM     77  C   UNL     1      11.771  13.778  -7.846  1.00  0.00     0.000 A 
ENDBRANCH  59  72
ENDBRANCH  33  34
ENDBRANCH  25  28
ENDBRANCH  23  24
ENDBRANCH  22  23
ENDBRANCH   1  22
TORSDOF 13
