REMARK SMILES O=C(NCCCNC(=O)[C@H]1CC[C@@H](CNc2ccccc2C(F)(F)F)O1)c1ccc(-c2c3nc(c(-c4ccccc4)c4ccc([nH]4)c(-c4ccccc4)c4nc(c(-c5ccccc5)c5ccc2[nH]5)C=C4)C=C3)cc1
REMARK SMILES IDX 6 1 5 2 4 3 3 4 1 5 2 6 27 8 28 9 74 10 29 11 73 12 30 13
REMARK SMILES IDX 31 14 32 15 67 16 33 17 72 18 66 19 68 20 34 21 71 22 65 23
REMARK SMILES IDX 64 24 35 26 57 27 42 28 56 29 43 30 46 31 55 32 69 33 44 34
REMARK SMILES IDX 45 35 54 37 70 38 47 39 36 40 37 41 41 42 38 43 40 44 39 45
REMARK SMILES IDX 58 46 59 47 63 48 60 49 62 50 61 51 48 52 49 53 53 54 50 55
REMARK SMILES IDX 52 56 51 57 7 58 8 59 9 61 10 62 11 63 26 64 12 65 13 66
REMARK SMILES IDX 14 67 15 68 16 70 17 71 21 72 18 73 20 74 19 75 22 76 23 77
REMARK SMILES IDX 24 78 25 79
REMARK H PARENT 3 7 68 25 46 36 7 60 15 69
REMARK Flexibility Score: inf
ROOT
ATOM      1  C   UNL     1       8.411   1.302   5.735  1.00  0.00     0.117 C 
ENDROOT
BRANCH   1   2
ATOM      2  C   UNL     1       9.793   1.885   5.449  1.00  0.00     0.042 C 
BRANCH   2   3
ATOM      3  C   UNL     1      10.747   1.839   6.637  1.00  0.00     0.118 C 
BRANCH   3   4
ATOM      4  N   UNL     1      11.050   0.482   7.071  1.00  0.00    -0.352 N 
ATOM      5  O   UNL     1      12.293  -1.363   7.413  1.00  0.00    -0.269 OA
ATOM      6  C   UNL     1      12.259  -0.156   7.181  1.00  0.00     0.251 C 
ATOM      7  H   UNL     1      10.268  -0.059   7.324  1.00  0.00     0.163 HD
BRANCH   6   8
ATOM      8  C   UNL     1      13.521   0.594   7.008  1.00  0.00     0.039 A 
ATOM      9  C   UNL     1      13.696   1.849   7.595  1.00  0.00     0.014 A 
ATOM     10  C   UNL     1      14.562   0.009   6.281  1.00  0.00     0.014 A 
ATOM     11  C   UNL     1      14.859   2.572   7.352  1.00  0.00     0.010 A 
ATOM     12  C   UNL     1      15.764   0.701   6.109  1.00  0.00     0.010 A 
ATOM     13  C   UNL     1      15.915   1.996   6.628  1.00  0.00    -0.014 A 
BRANCH  13  14
ATOM     14  C   UNL     1      17.201   2.725   6.505  1.00  0.00     0.031 A 
ATOM     15  C   UNL     1      17.716   3.183   5.171  1.00  0.00     0.074 A 
ATOM     16  C   UNL     1      17.910   2.969   7.625  1.00  0.00     0.049 A 
ATOM     17  N   UNL     1      18.829   3.814   4.893  1.00  0.00    -0.248 NA
ATOM     18  C   UNL     1      16.882   2.889   3.995  1.00  0.00     0.031 C 
ATOM     19  C   UNL     1      17.514   2.568   8.979  1.00  0.00     0.029 A 
ATOM     20  N   UNL     1      19.105   3.617   7.809  1.00  0.00    -0.354 N 
ATOM     21  C   UNL     1      18.841   3.976   3.513  1.00  0.00     0.074 A 
ATOM     22  C   UNL     1      17.634   3.357   3.007  1.00  0.00     0.031 C 
ATOM     23  C   UNL     1      18.430   3.007   9.854  1.00  0.00     0.029 A 
ATOM     24  C   UNL     1      19.509   3.657   9.121  1.00  0.00     0.049 A 
ATOM     25  H   UNL     1      19.622   4.014   7.071  1.00  0.00     0.167 HD
ATOM     26  C   UNL     1      19.774   4.586   2.743  1.00  0.00     0.031 A 
ATOM     27  C   UNL     1      20.637   4.136   9.676  1.00  0.00     0.031 A 
ATOM     28  C   UNL     1      20.974   5.198   3.255  1.00  0.00     0.049 A 
ATOM     29  C   UNL     1      21.675   4.760   8.790  1.00  0.00     0.074 A 
ATOM     30  C   UNL     1      21.955   5.883   2.558  1.00  0.00     0.029 A 
ATOM     31  N   UNL     1      21.363   5.188   4.586  1.00  0.00    -0.354 N 
ATOM     32  N   UNL     1      21.644   4.955   7.494  1.00  0.00    -0.248 NA
ATOM     33  C   UNL     1      22.904   5.229   9.443  1.00  0.00     0.031 C 
ATOM     34  C   UNL     1      22.969   6.229   3.457  1.00  0.00     0.029 A 
ATOM     35  C   UNL     1      22.589   5.818   4.724  1.00  0.00     0.049 A 
ATOM     36  H   UNL     1      20.845   4.791   5.323  1.00  0.00     0.167 HD
ATOM     37  C   UNL     1      22.840   5.585   7.179  1.00  0.00     0.074 A 
ATOM     38  C   UNL     1      23.562   5.760   8.422  1.00  0.00     0.031 C 
ATOM     39  C   UNL     1      23.299   5.979   5.967  1.00  0.00     0.031 A 
BRANCH  26  40
ATOM     40  C   UNL     1      19.559   4.595   1.254  1.00  0.00    -0.014 A 
ATOM     41  C   UNL     1      18.566   5.389   0.660  1.00  0.00     0.009 A 
ATOM     42  C   UNL     1      20.411   3.845   0.426  1.00  0.00     0.009 A 
ATOM     43  C   UNL     1      18.413   5.409  -0.729  1.00  0.00     0.001 A 
ATOM     44  C   UNL     1      20.274   3.888  -0.962  1.00  0.00     0.001 A 
ATOM     45  C   UNL     1      19.270   4.664  -1.538  1.00  0.00     0.000 A 
ENDBRANCH  26  40
BRANCH  27  46
ATOM     46  C   UNL     1      20.855   4.008  11.140  1.00  0.00    -0.014 A 
ATOM     47  C   UNL     1      20.879   5.141  11.965  1.00  0.00     0.009 A 
ATOM     48  C   UNL     1      21.041   2.742  11.720  1.00  0.00     0.009 A 
ATOM     49  C   UNL     1      21.110   5.012  13.336  1.00  0.00     0.001 A 
ATOM     50  C   UNL     1      21.238   2.613  13.096  1.00  0.00     0.001 A 
ATOM     51  C   UNL     1      21.284   3.749  13.901  1.00  0.00     0.000 A 
ENDBRANCH  27  46
BRANCH  39  52
ATOM     52  C   UNL     1      24.636   6.664   5.932  1.00  0.00    -0.014 A 
ATOM     53  C   UNL     1      25.825   5.950   6.145  1.00  0.00     0.009 A 
ATOM     54  C   UNL     1      24.707   8.036   5.643  1.00  0.00     0.009 A 
ATOM     55  C   UNL     1      27.058   6.605   6.099  1.00  0.00     0.001 A 
ATOM     56  C   UNL     1      25.942   8.681   5.567  1.00  0.00     0.001 A 
ATOM     57  C   UNL     1      27.115   7.966   5.803  1.00  0.00     0.000 A 
ENDBRANCH  39  52
ENDBRANCH  13  14
ENDBRANCH   6   8
ENDBRANCH   3   4
ENDBRANCH   2   3
ENDBRANCH   1   2
BRANCH   1  58
ATOM     58  N   UNL     1       7.730   2.040   6.783  1.00  0.00    -0.354 N 
ATOM     59  C   UNL     1       6.748   2.986   6.692  1.00  0.00     0.249 C 
ATOM     60  H   UNL     1       8.019   1.826   7.700  1.00  0.00     0.163 HD
ATOM     61  O   UNL     1       6.415   3.556   7.734  1.00  0.00    -0.272 OA
BRANCH  59  62
ATOM     62  C   UNL     1       6.032   3.231   5.346  1.00  0.00     0.207 C 
ATOM     63  C   UNL     1       5.172   4.493   5.357  1.00  0.00     0.045 C 
ATOM     64  O   UNL     1       6.935   3.373   4.245  1.00  0.00    -0.363 OA
ATOM     65  C   UNL     1       6.064   5.511   4.679  1.00  0.00     0.037 C 
ATOM     66  C   UNL     1       6.722   4.660   3.614  1.00  0.00     0.138 C 
BRANCH  66  67
ATOM     67  C   UNL     1       8.057   5.206   3.062  1.00  0.00     0.145 C 
BRANCH  67  68
ATOM     68  N   UNL     1       8.901   4.066   2.731  1.00  0.00    -0.382 N 
ATOM     69  H   UNL     1       8.890   3.332   3.387  1.00  0.00     0.160 HD
BRANCH  68  70
ATOM     70  C   UNL     1       9.710   3.862   1.640  1.00  0.00     0.046 A 
ATOM     71  C   UNL     1       9.780   2.528   1.180  1.00  0.00     0.026 A 
ATOM     72  C   UNL     1      10.435   4.834   0.936  1.00  0.00     0.079 A 
ATOM     73  C   UNL     1      10.495   2.163   0.041  1.00  0.00     0.002 A 
ATOM     74  C   UNL     1      11.139   4.454  -0.233  1.00  0.00     0.015 A 
ATOM     75  C   UNL     1      11.167   3.134  -0.679  1.00  0.00     0.001 A 
BRANCH  72  76
ATOM     76  C   UNL     1      10.537   6.280   1.351  1.00  0.00     0.418 C 
ATOM     77  F   UNL     1      11.703   6.864   0.934  1.00  0.00    -0.166 F 
ATOM     78  F   UNL     1       9.544   7.048   0.815  1.00  0.00    -0.166 F 
ATOM     79  F   UNL     1      10.503   6.506   2.694  1.00  0.00    -0.166 F 
ENDBRANCH  72  76
ENDBRANCH  68  70
ENDBRANCH  67  68
ENDBRANCH  66  67
ENDBRANCH  59  62
ENDBRANCH   1  58
TORSDOF 14
