REMARK SMILES CCOc1cc2nccc(Nc3ccc(C(=O)NCCCNC(=O)c4ccc(-c5c6nc(c(-c7ccccc7)c7ccc([nH]7)c(-c7ccccc7)c7nc(c(-c8ccccc8)c8ccc5[nH]8)C=C7)C=C6)cc4)cc3)c2cc1OCC
REMARK SMILES IDX 19 1 18 2 16 3 17 4 15 6 12 7 13 8 74 9 14 10 73 11 11 12
REMARK SMILES IDX 10 14 4 15 5 16 77 17 6 18 76 19 7 20 75 21 8 22 9 23 3 24
REMARK SMILES IDX 2 25 1 26 78 27 79 28 80 29 20 30 21 31 22 32 23 33 24 35
REMARK SMILES IDX 25 36 26 37 72 38 27 39 71 40 28 41 29 42 30 43 65 44 31 45
REMARK SMILES IDX 70 46 64 47 66 48 32 49 69 50 63 51 62 52 33 54 55 55 40 56
REMARK SMILES IDX 54 57 41 58 44 59 53 60 67 61 42 62 43 63 52 65 68 66 45 67
REMARK SMILES IDX 34 68 35 69 39 70 36 71 38 72 37 73 56 74 57 75 61 76 58 77
REMARK SMILES IDX 60 78 59 79 46 80 47 81 51 82 48 83 50 84 49 85
REMARK H PARENT 18 5 11 13 22 34 66 53 44 64
REMARK Flexibility Score: inf
ROOT
ATOM      1  C   UNL     1      13.328   2.171   3.990  1.00  0.00     0.118 C 
ENDROOT
BRANCH   1   2
ATOM      2  N   UNL     1      13.745   2.504   2.642  1.00  0.00    -0.352 N 
ATOM      3  C   UNL     1      13.046   2.593   1.467  1.00  0.00     0.251 C 
ATOM      4  O   UNL     1      13.669   2.894   0.449  1.00  0.00    -0.269 OA
ATOM      5  H   UNL     1      14.706   2.701   2.554  1.00  0.00     0.163 HD
BRANCH   3   6
ATOM      6  C   UNL     1      11.572   2.427   1.398  1.00  0.00     0.039 A 
ATOM      7  C   UNL     1       8.761   2.389   1.246  1.00  0.00     0.038 A 
ATOM      8  C   UNL     1       9.510   3.183   0.373  1.00  0.00     0.027 A 
ATOM      9  C   UNL     1       9.430   1.576   2.160  1.00  0.00     0.027 A 
ATOM     10  C   UNL     1      10.902   3.211   0.453  1.00  0.00     0.016 A 
ATOM     11  C   UNL     1      10.828   1.559   2.202  1.00  0.00     0.016 A 
BRANCH   7  12
ATOM     12  N   UNL     1       7.367   2.465   1.195  1.00  0.00    -0.355 N 
ATOM     13  H   UNL     1       6.995   2.382   0.288  1.00  0.00     0.167 HD
BRANCH  12  14
ATOM     14  C   UNL     1       6.391   2.640   2.203  1.00  0.00     0.050 A 
ATOM     15  C   UNL     1       2.348   1.798   1.321  1.00  0.00     0.163 A 
ATOM     16  C   UNL     1       2.712   2.379   2.546  1.00  0.00     0.079 A 
ATOM     17  C   UNL     1       3.343   1.406   0.429  1.00  0.00     0.161 A 
ATOM     18  C   UNL     1       4.050   2.619   2.879  1.00  0.00     0.076 A 
ATOM     19  C   UNL     1       4.671   1.671   0.732  1.00  0.00     0.063 A 
ATOM     20  N   UNL     1       4.364   3.170   4.066  1.00  0.00    -0.256 NA
ATOM     21  C   UNL     1       5.044   2.303   1.930  1.00  0.00     0.028 A 
ATOM     22  C   UNL     1       5.668   3.418   4.331  1.00  0.00     0.114 A 
ATOM     23  C   UNL     1       6.705   3.167   3.450  1.00  0.00     0.047 A 
BRANCH  15  24
ATOM     24  O   UNL     1       1.048   1.739   0.906  1.00  0.00    -0.490 OA
BRANCH  24  25
ATOM     25  C   UNL     1       0.156   1.022   1.761  1.00  0.00     0.226 C 
ATOM     26  C   UNL     1      -0.898   0.380   0.866  1.00  0.00     0.049 C 
ENDBRANCH  24  25
ENDBRANCH  15  24
BRANCH  17  27
ATOM     27  O   UNL     1       3.186   0.788  -0.779  1.00  0.00    -0.490 OA
BRANCH  27  28
ATOM     28  C   UNL     1       2.241  -0.278  -0.847  1.00  0.00     0.226 C 
ATOM     29  C   UNL     1       2.450  -1.372   0.194  1.00  0.00     0.049 C 
ENDBRANCH  27  28
ENDBRANCH  17  27
ENDBRANCH  12  14
ENDBRANCH   7  12
ENDBRANCH   3   6
ENDBRANCH   1   2
BRANCH   1  30
ATOM     30  C   UNL     1      13.659   0.714   4.303  1.00  0.00     0.042 C 
BRANCH  30  31
ATOM     31  C   UNL     1      15.148   0.490   4.547  1.00  0.00     0.118 C 
BRANCH  31  32
ATOM     32  N   UNL     1      15.587   1.106   5.792  1.00  0.00    -0.352 N 
ATOM     33  C   UNL     1      16.186   0.540   6.883  1.00  0.00     0.251 C 
ATOM     34  H   UNL     1      15.427   2.075   5.858  1.00  0.00     0.163 HD
ATOM     35  O   UNL     1      16.259   1.177   7.937  1.00  0.00    -0.269 OA
BRANCH  33  36
ATOM     36  C   UNL     1      16.739  -0.827   6.814  1.00  0.00     0.039 A 
ATOM     37  C   UNL     1      16.575  -1.678   7.910  1.00  0.00     0.014 A 
ATOM     38  C   UNL     1      17.452  -1.259   5.691  1.00  0.00     0.014 A 
ATOM     39  C   UNL     1      17.081  -2.977   7.861  1.00  0.00     0.010 A 
ATOM     40  C   UNL     1      17.890  -2.578   5.613  1.00  0.00     0.010 A 
ATOM     41  C   UNL     1      17.716  -3.447   6.700  1.00  0.00    -0.014 A 
BRANCH  41  42
ATOM     42  C   UNL     1      18.203  -4.845   6.604  1.00  0.00     0.031 A 
ATOM     43  C   UNL     1      19.672  -5.128   6.452  1.00  0.00     0.074 A 
ATOM     44  C   UNL     1      17.313  -5.856   6.594  1.00  0.00     0.049 A 
ATOM     45  N   UNL     1      20.278  -6.279   6.298  1.00  0.00    -0.248 NA
ATOM     46  C   UNL     1      20.576  -3.967   6.449  1.00  0.00     0.031 C 
ATOM     47  C   UNL     1      15.860  -5.708   6.699  1.00  0.00     0.029 A 
ATOM     48  N   UNL     1      17.502  -7.211   6.484  1.00  0.00    -0.354 N 
ATOM     49  C   UNL     1      21.628  -5.978   6.163  1.00  0.00     0.074 A 
ATOM     50  C   UNL     1      21.747  -4.537   6.203  1.00  0.00     0.031 C 
ATOM     51  C   UNL     1      15.292  -6.925   6.677  1.00  0.00     0.029 A 
ATOM     52  C   UNL     1      16.334  -7.933   6.511  1.00  0.00     0.049 A 
ATOM     53  H   UNL     1      18.390  -7.626   6.394  1.00  0.00     0.167 HD
ATOM     54  C   UNL     1      22.676  -6.826   6.035  1.00  0.00     0.031 A 
ATOM     55  C   UNL     1      16.123  -9.258   6.405  1.00  0.00     0.031 A 
ATOM     56  C   UNL     1      22.556  -8.259   5.999  1.00  0.00     0.049 A 
ATOM     57  C   UNL     1      17.302 -10.176   6.241  1.00  0.00     0.074 A 
ATOM     58  C   UNL     1      23.561  -9.207   5.925  1.00  0.00     0.029 A 
ATOM     59  N   UNL     1      21.355  -8.951   6.031  1.00  0.00    -0.354 N 
ATOM     60  N   UNL     1      18.578  -9.880   6.183  1.00  0.00    -0.248 NA
ATOM     61  C   UNL     1      17.010 -11.612   6.140  1.00  0.00     0.031 C 
ATOM     62  C   UNL     1      22.966 -10.471   5.854  1.00  0.00     0.029 A 
ATOM     63  C   UNL     1      21.592 -10.313   5.950  1.00  0.00     0.049 A 
ATOM     64  H   UNL     1      20.465  -8.535   6.100  1.00  0.00     0.167 HD
ATOM     65  C   UNL     1      19.242 -11.094   6.069  1.00  0.00     0.074 A 
ATOM     66  C   UNL     1      18.229 -12.129   6.083  1.00  0.00     0.031 C 
ATOM     67  C   UNL     1      20.573 -11.330   5.965  1.00  0.00     0.031 A 
BRANCH  54  68
ATOM     68  C   UNL     1      24.048  -6.220   5.913  1.00  0.00    -0.014 A 
ATOM     69  C   UNL     1      24.657  -5.568   6.998  1.00  0.00     0.009 A 
ATOM     70  C   UNL     1      24.757  -6.332   4.707  1.00  0.00     0.009 A 
ATOM     71  C   UNL     1      25.930  -5.009   6.865  1.00  0.00     0.001 A 
ATOM     72  C   UNL     1      26.042  -5.800   4.586  1.00  0.00     0.001 A 
ATOM     73  C   UNL     1      26.623  -5.130   5.661  1.00  0.00     0.000 A 
ENDBRANCH  54  68
BRANCH  55  74
ATOM     74  C   UNL     1      14.740  -9.799   6.465  1.00  0.00    -0.014 A 
ATOM     75  C   UNL     1      14.316 -10.552   7.571  1.00  0.00     0.009 A 
ATOM     76  C   UNL     1      13.836  -9.570   5.415  1.00  0.00     0.009 A 
ATOM     77  C   UNL     1      13.027 -11.087   7.611  1.00  0.00     0.001 A 
ATOM     78  C   UNL     1      12.538 -10.080   5.472  1.00  0.00     0.001 A 
ATOM     79  C   UNL     1      12.138 -10.847   6.565  1.00  0.00     0.000 A 
ENDBRANCH  55  74
BRANCH  67  80
ATOM     80  C   UNL     1      21.013 -12.766   5.898  1.00  0.00    -0.014 A 
ATOM     81  C   UNL     1      20.787 -13.549   4.756  1.00  0.00     0.009 A 
ATOM     82  C   UNL     1      21.700 -13.330   6.985  1.00  0.00     0.009 A 
ATOM     83  C   UNL     1      21.210 -14.879   4.717  1.00  0.00     0.001 A 
ATOM     84  C   UNL     1      22.150 -14.650   6.931  1.00  0.00     0.001 A 
ATOM     85  C   UNL     1      21.896 -15.426   5.802  1.00  0.00     0.000 A 
ENDBRANCH  67  80
ENDBRANCH  41  42
ENDBRANCH  33  36
ENDBRANCH  31  32
ENDBRANCH  30  31
ENDBRANCH   1  30
TORSDOF 16
