REMARK SMILES CC[C@](C)(NC(=O)CNC(=O)c1cccc(Cl)c1)C(=O)NCCCNC(=O)c1ccc(-c2c3nc(c(-c4ccccc4)c4ccc([nH]4)c(-c4ccccc4)c4nc(c(-c5ccccc5)c5ccc2[nH]5)C=C4)C=C3)cc1
REMARK SMILES IDX 22 1 21 2 19 3 20 4 3 6 4 7 2 8 1 9 5 10 6 11 7 13 8 14 9 15
REMARK SMILES IDX 10 16 11 18 12 19 13 20 18 21 14 22 16 23 15 24 17 25 23 26
REMARK SMILES IDX 24 27 25 28 26 29 27 31 28 32 29 33 75 34 30 35 74 36 31 37
REMARK SMILES IDX 32 38 33 39 68 40 34 41 73 42 67 43 69 44 35 45 72 46 66 47
REMARK SMILES IDX 65 48 36 50 58 51 43 52 57 53 44 54 47 55 56 56 70 57 45 58
REMARK SMILES IDX 46 59 55 61 71 62 48 63 37 64 38 65 42 66 39 67 41 68 40 69
REMARK SMILES IDX 59 70 60 71 64 72 61 73 63 74 62 75 49 76 50 77 54 78 51 79
REMARK SMILES IDX 53 80 52 81
REMARK H PARENT 21 5 5 12 9 17 25 30 69 49 47 60
REMARK Flexibility Score: inf
ROOT
ATOM      1  C   UNL     1       1.963  -0.949   5.280  1.00  0.00     0.117 C 
ENDROOT
BRANCH   1   2
ATOM      2  N   UNL     1       2.497  -0.551   3.983  1.00  0.00    -0.354 N 
ATOM      3  C   UNL     1       1.910  -0.477   2.740  1.00  0.00     0.245 C 
ATOM      4  O   UNL     1       2.334   0.368   1.950  1.00  0.00    -0.272 OA
ATOM      5  H   UNL     1       3.446  -0.288   3.998  1.00  0.00     0.163 HD
BRANCH   3   6
ATOM      6  C   UNL     1       0.634  -1.251   2.384  1.00  0.00     0.116 C 
ATOM      7  C   UNL     1       0.439  -1.416   0.865  1.00  0.00     0.045 C 
BRANCH   6   8
ATOM      8  C   UNL     1      -0.467  -0.291   2.949  1.00  0.00     0.035 C 
ATOM      9  C   UNL     1      -1.918  -0.526   2.581  1.00  0.00     0.007 C 
ENDBRANCH   6   8
BRANCH   6  10
ATOM     10  N   UNL     1       0.679  -2.590   2.982  1.00  0.00    -0.340 N 
ATOM     11  C   UNL     1       1.635  -3.566   2.805  1.00  0.00     0.240 C 
ATOM     12  H   UNL     1      -0.066  -2.820   3.583  1.00  0.00     0.164 HD
ATOM     13  O   UNL     1       1.276  -4.727   3.038  1.00  0.00    -0.273 OA
BRANCH  11  14
ATOM     14  C   UNL     1       3.152  -3.269   2.546  1.00  0.00     0.216 C 
BRANCH  14  15
ATOM     15  N   UNL     1       3.681  -2.801   1.273  1.00  0.00    -0.343 N 
ATOM     16  C   UNL     1       4.739  -1.956   0.987  1.00  0.00     0.251 C 
ATOM     17  H   UNL     1       3.207  -3.145   0.482  1.00  0.00     0.164 HD
ATOM     18  O   UNL     1       5.275  -2.026  -0.117  1.00  0.00    -0.269 OA
BRANCH  16  19
ATOM     19  C   UNL     1       5.175  -0.867   1.897  1.00  0.00     0.041 A 
ATOM     20  C   UNL     1       5.775  -1.071   3.142  1.00  0.00     0.014 A 
ATOM     21  C   UNL     1       4.962   0.444   1.446  1.00  0.00     0.034 A 
ATOM     22  C   UNL     1       6.019   0.026   3.986  1.00  0.00     0.002 A 
ATOM     23  C   UNL     1       5.157   1.524   2.306  1.00  0.00     0.041 A 
ATOM     24  C   UNL     1       5.667   1.318   3.586  1.00  0.00     0.020 A 
ATOM     25  Cl  UNL     1       4.673   3.104   1.826  1.00  0.00    -0.084 Cl
ENDBRANCH  16  19
ENDBRANCH  14  15
ENDBRANCH  11  14
ENDBRANCH   6  10
ENDBRANCH   3   6
ENDBRANCH   1   2
BRANCH   1  26
ATOM     26  C   UNL     1       2.495  -2.227   5.932  1.00  0.00     0.042 C 
BRANCH  26  27
ATOM     27  C   UNL     1       3.994  -2.369   6.152  1.00  0.00     0.118 C 
BRANCH  27  28
ATOM     28  N   UNL     1       4.594  -1.303   6.928  1.00  0.00    -0.352 N 
ATOM     29  C   UNL     1       5.471  -1.369   7.982  1.00  0.00     0.251 C 
ATOM     30  H   UNL     1       4.333  -0.393   6.659  1.00  0.00     0.163 HD
ATOM     31  O   UNL     1       5.840  -0.323   8.517  1.00  0.00    -0.269 OA
BRANCH  29  32
ATOM     32  C   UNL     1       5.942  -2.667   8.517  1.00  0.00     0.039 A 
ATOM     33  C   UNL     1       5.934  -2.842   9.903  1.00  0.00     0.014 A 
ATOM     34  C   UNL     1       6.407  -3.698   7.693  1.00  0.00     0.014 A 
ATOM     35  C   UNL     1       6.324  -4.063  10.458  1.00  0.00     0.010 A 
ATOM     36  C   UNL     1       6.735  -4.942   8.245  1.00  0.00     0.010 A 
ATOM     37  C   UNL     1       6.691  -5.141   9.633  1.00  0.00    -0.014 A 
BRANCH  37  38
ATOM     38  C   UNL     1       6.978  -6.472  10.235  1.00  0.00     0.031 A 
ATOM     39  C   UNL     1       8.352  -7.083  10.170  1.00  0.00     0.074 A 
ATOM     40  C   UNL     1       5.982  -7.144  10.848  1.00  0.00     0.049 A 
ATOM     41  N   UNL     1       8.785  -8.197  10.710  1.00  0.00    -0.248 NA
ATOM     42  C   UNL     1       9.367  -6.362   9.389  1.00  0.00     0.031 C 
ATOM     43  C   UNL     1       4.592  -6.692  10.944  1.00  0.00     0.029 A 
ATOM     44  N   UNL     1       5.987  -8.342  11.520  1.00  0.00    -0.354 N 
ATOM     45  C   UNL     1      10.118  -8.310  10.334  1.00  0.00     0.074 A 
ATOM     46  C   UNL     1      10.407  -7.179   9.477  1.00  0.00     0.031 C 
ATOM     47  C   UNL     1       3.892  -7.574  11.674  1.00  0.00     0.029 A 
ATOM     48  C   UNL     1       4.769  -8.672  12.065  1.00  0.00     0.049 A 
ATOM     49  H   UNL     1       6.787  -8.910  11.604  1.00  0.00     0.167 HD
ATOM     50  C   UNL     1      11.024  -9.255  10.683  1.00  0.00     0.031 A 
ATOM     51  C   UNL     1       4.396  -9.734  12.804  1.00  0.00     0.031 A 
ATOM     52  C   UNL     1      10.738 -10.389  11.525  1.00  0.00     0.049 A 
ATOM     53  C   UNL     1       5.418 -10.776  13.165  1.00  0.00     0.074 A 
ATOM     54  C   UNL     1      11.603 -11.375  11.969  1.00  0.00     0.029 A 
ATOM     55  N   UNL     1       9.488 -10.696  12.041  1.00  0.00    -0.354 N 
ATOM     56  N   UNL     1       6.693 -10.823  12.867  1.00  0.00    -0.248 NA
ATOM     57  C   UNL     1       4.948 -11.903  13.983  1.00  0.00     0.031 C 
ATOM     58  C   UNL     1      10.866 -12.310  12.704  1.00  0.00     0.029 A 
ATOM     59  C   UNL     1       9.555 -11.870  12.777  1.00  0.00     0.049 A 
ATOM     60  H   UNL     1       8.674 -10.160  11.905  1.00  0.00     0.167 HD
ATOM     61  C   UNL     1       7.184 -11.966  13.486  1.00  0.00     0.074 A 
ATOM     62  C   UNL     1       6.074 -12.568  14.195  1.00  0.00     0.031 C 
ATOM     63  C   UNL     1       8.443 -12.470  13.469  1.00  0.00     0.031 A 
BRANCH  50  64
ATOM     64  C   UNL     1      12.422  -9.110  10.140  1.00  0.00    -0.014 A 
ATOM     65  C   UNL     1      13.269  -8.076  10.572  1.00  0.00     0.009 A 
ATOM     66  C   UNL     1      12.915 -10.046   9.216  1.00  0.00     0.009 A 
ATOM     67  C   UNL     1      14.564  -7.960  10.062  1.00  0.00     0.001 A 
ATOM     68  C   UNL     1      14.222  -9.946   8.732  1.00  0.00     0.001 A 
ATOM     69  C   UNL     1      15.041  -8.898   9.147  1.00  0.00     0.000 A 
ENDBRANCH  50  64
BRANCH  51  70
ATOM     70  C   UNL     1       2.991  -9.858  13.276  1.00  0.00    -0.014 A 
ATOM     71  C   UNL     1       2.679  -9.739  14.639  1.00  0.00     0.009 A 
ATOM     72  C   UNL     1       1.954 -10.112  12.364  1.00  0.00     0.009 A 
ATOM     73  C   UNL     1       1.365  -9.903  15.083  1.00  0.00     0.001 A 
ATOM     74  C   UNL     1       0.636 -10.241  12.807  1.00  0.00     0.001 A 
ATOM     75  C   UNL     1       0.344 -10.149  14.166  1.00  0.00     0.000 A 
ENDBRANCH  51  70
BRANCH  63  76
ATOM     76  C   UNL     1       8.689 -13.718  14.275  1.00  0.00    -0.014 A 
ATOM     77  C   UNL     1       8.134 -14.954  13.906  1.00  0.00     0.009 A 
ATOM     78  C   UNL     1       9.493 -13.654  15.424  1.00  0.00     0.009 A 
ATOM     79  C   UNL     1       8.334 -16.085  14.701  1.00  0.00     0.001 A 
ATOM     80  C   UNL     1       9.721 -14.793  16.197  1.00  0.00     0.001 A 
ATOM     81  C   UNL     1       9.129 -16.005  15.843  1.00  0.00     0.000 A 
ENDBRANCH  63  76
ENDBRANCH  37  38
ENDBRANCH  29  32
ENDBRANCH  27  28
ENDBRANCH  26  27
ENDBRANCH   1  26
TORSDOF 15
