REMARK SMILES CCN(Cc1ccccn1)C(=O)[C@H]([NH3+])CCC(=O)NCCCNC(=O)c1ccc(-c2c3nc(c(-c4ccccc4)c4ccc([nH]4)c(-c4ccccc4)c4nc(c(-c5ccccc5)c5ccc2[nH]5)C=C4)C=C3)cc1
REMARK SMILES IDX 17 1 18 2 19 3 16 5 15 6 13 7 11 8 12 9 3 10 2 11 1 12 4 13
REMARK SMILES IDX 5 14 6 15 10 16 7 17 9 18 8 19 14 20 20 24 21 25 22 26 23 27
REMARK SMILES IDX 24 28 25 30 26 31 27 32 73 33 28 34 72 35 29 36 30 37 31 38
REMARK SMILES IDX 66 39 32 40 71 41 65 42 67 43 33 44 70 45 64 46 63 47 34 49
REMARK SMILES IDX 56 50 41 51 55 52 42 53 45 54 54 55 68 56 43 57 44 58 53 60
REMARK SMILES IDX 69 61 46 62 35 63 36 64 40 65 37 66 39 67 38 68 57 69 58 70
REMARK SMILES IDX 62 71 59 72 61 73 60 74 47 75 48 76 52 77 49 78 51 79 50 80
REMARK H PARENT 19 4 14 21 14 22 14 23 23 29 67 48 45 59
REMARK Flexibility Score: inf
ROOT
ATOM      1  C   UNL     1       4.450   4.703   1.864  1.00  0.00     0.220 C 
ATOM      2  O   UNL     1       4.814   5.835   2.191  1.00  0.00    -0.275 OA
ATOM      3  N   UNL     1       5.389   3.842   1.387  1.00  0.00    -0.356 N 
ATOM      4  H   UNL     1       6.320   4.157   1.447  1.00  0.00     0.163 HD
ENDROOT
BRANCH   1   5
ATOM      5  C   UNL     1       2.991   4.292   1.954  1.00  0.00     0.106 C 
BRANCH   5   6
ATOM      6  C   UNL     1       2.185   4.793   0.748  1.00  0.00     0.085 C 
BRANCH   6   7
ATOM      7  C   UNL     1       2.271   3.952  -0.520  1.00  0.00     0.271 C 
BRANCH   7   8
ATOM      8  C   UNL     1       1.585   4.377  -1.869  1.00  0.00     0.281 C 
ATOM      9  O   UNL     1       0.888   3.529  -2.451  1.00  0.00    -0.268 OA
BRANCH   8  10
ATOM     10  N   UNL     1       1.931   5.557  -2.519  1.00  0.00    -0.332 N 
BRANCH  10  11
ATOM     11  C   UNL     1       1.626   5.660  -3.947  1.00  0.00     0.116 C 
ATOM     12  C   UNL     1       2.725   5.012  -4.785  1.00  0.00     0.027 C 
ENDBRANCH  10  11
BRANCH  10  13
ATOM     13  C   UNL     1       2.499   6.750  -1.878  1.00  0.00     0.175 C 
BRANCH  13  14
ATOM     14  C   UNL     1       1.561   7.400  -0.866  1.00  0.00     0.060 A 
ATOM     15  C   UNL     1       2.104   8.204   0.140  1.00  0.00     0.026 A 
ATOM     16  N   UNL     1       0.268   6.983  -0.835  1.00  0.00    -0.259 NA
ATOM     17  C   UNL     1       1.331   8.475   1.267  1.00  0.00     0.004 A 
ATOM     18  C   UNL     1      -0.465   7.285   0.258  1.00  0.00     0.111 A 
ATOM     19  C   UNL     1       0.029   7.992   1.338  1.00  0.00     0.020 A 
ENDBRANCH  13  14
ENDBRANCH  10  13
ENDBRANCH   8  10
ENDBRANCH   7   8
BRANCH   7  20
ATOM     20  N   UNL     1       1.799   2.579  -0.185  1.00  0.00    -0.347 N 
ATOM     21  H   UNL     1       0.803   2.606   0.034  1.00  0.00     0.345 HD
ATOM     22  H   UNL     1       2.315   2.229   0.622  1.00  0.00     0.345 HD
ATOM     23  H   UNL     1       1.955   1.963  -0.983  1.00  0.00     0.345 HD
ENDBRANCH   7  20
ENDBRANCH   6   7
ENDBRANCH   5   6
ENDBRANCH   1   5
BRANCH   3  24
ATOM     24  C   UNL     1       5.213   2.525   0.803  1.00  0.00     0.117 C 
BRANCH  24  25
ATOM     25  C   UNL     1       5.486   2.557  -0.697  1.00  0.00     0.042 C 
BRANCH  25  26
ATOM     26  C   UNL     1       6.956   2.454  -1.048  1.00  0.00     0.118 C 
BRANCH  26  27
ATOM     27  N   UNL     1       7.466   1.108  -0.868  1.00  0.00    -0.352 N 
ATOM     28  C   UNL     1       7.842   0.177  -1.805  1.00  0.00     0.251 C 
ATOM     29  H   UNL     1       7.558   0.817   0.068  1.00  0.00     0.163 HD
ATOM     30  O   UNL     1       8.026  -0.987  -1.464  1.00  0.00    -0.269 OA
BRANCH  28  31
ATOM     31  C   UNL     1       8.011   0.564  -3.225  1.00  0.00     0.039 A 
ATOM     32  C   UNL     1       7.606  -0.328  -4.223  1.00  0.00     0.014 A 
ATOM     33  C   UNL     1       8.595   1.782  -3.579  1.00  0.00     0.014 A 
ATOM     34  C   UNL     1       7.738   0.027  -5.568  1.00  0.00     0.010 A 
ATOM     35  C   UNL     1       8.625   2.179  -4.910  1.00  0.00     0.010 A 
ATOM     36  C   UNL     1       8.218   1.298  -5.921  1.00  0.00    -0.014 A 
BRANCH  36  37
ATOM     37  C   UNL     1       8.351   1.718  -7.339  1.00  0.00     0.031 A 
ATOM     38  C   UNL     1       9.708   2.070  -7.888  1.00  0.00     0.074 A 
ATOM     39  C   UNL     1       7.253   1.856  -8.107  1.00  0.00     0.049 A 
ATOM     40  N   UNL     1      10.025   2.565  -9.057  1.00  0.00    -0.248 NA
ATOM     41  C   UNL     1      10.860   1.869  -6.991  1.00  0.00     0.031 C 
ATOM     42  C   UNL     1       5.879   1.575  -7.686  1.00  0.00     0.029 A 
ATOM     43  N   UNL     1       7.122   2.280  -9.406  1.00  0.00    -0.354 N 
ATOM     44  C   UNL     1      11.401   2.759  -9.024  1.00  0.00     0.074 A 
ATOM     45  C   UNL     1      11.852   2.381  -7.704  1.00  0.00     0.031 C 
ATOM     46  C   UNL     1       5.048   1.808  -8.714  1.00  0.00     0.029 A 
ATOM     47  C   UNL     1       5.821   2.303  -9.849  1.00  0.00     0.049 A 
ATOM     48  H   UNL     1       7.887   2.543  -9.967  1.00  0.00     0.167 HD
ATOM     49  C   UNL     1      12.220   3.194 -10.010  1.00  0.00     0.031 A 
ATOM     50  C   UNL     1       5.308   2.692 -11.031  1.00  0.00     0.031 A 
ATOM     51  C   UNL     1      11.772   3.549 -11.329  1.00  0.00     0.049 A 
ATOM     52  C   UNL     1       6.236   3.192 -12.104  1.00  0.00     0.074 A 
ATOM     53  C   UNL     1      12.529   3.945 -12.417  1.00  0.00     0.029 A 
ATOM     54  N   UNL     1      10.448   3.547 -11.737  1.00  0.00    -0.354 N 
ATOM     55  N   UNL     1       7.541   3.315 -12.076  1.00  0.00    -0.248 NA
ATOM     56  C   UNL     1       5.620   3.600 -13.375  1.00  0.00     0.031 C 
ATOM     57  C   UNL     1      11.656   4.238 -13.469  1.00  0.00     0.029 A 
ATOM     58  C   UNL     1      10.363   3.963 -13.055  1.00  0.00     0.049 A 
ATOM     59  H   UNL     1       9.682   3.290 -11.175  1.00  0.00     0.167 HD
ATOM     60  C   UNL     1       7.905   3.782 -13.332  1.00  0.00     0.074 A 
ATOM     61  C   UNL     1       6.685   3.911 -14.102  1.00  0.00     0.031 C 
ATOM     62  C   UNL     1       9.140   4.075 -13.807  1.00  0.00     0.031 A 
BRANCH  49  63
ATOM     63  C   UNL     1      13.685   3.317  -9.693  1.00  0.00    -0.014 A 
ATOM     64  C   UNL     1      14.484   2.183  -9.472  1.00  0.00     0.009 A 
ATOM     65  C   UNL     1      14.284   4.586  -9.646  1.00  0.00     0.009 A 
ATOM     66  C   UNL     1      15.841   2.319  -9.172  1.00  0.00     0.001 A 
ATOM     67  C   UNL     1      15.648   4.717  -9.379  1.00  0.00     0.001 A 
ATOM     68  C   UNL     1      16.423   3.585  -9.131  1.00  0.00     0.000 A 
ENDBRANCH  49  63
BRANCH  50  69
ATOM     69  C   UNL     1       3.842   2.619 -11.268  1.00  0.00    -0.014 A 
ATOM     70  C   UNL     1       3.312   1.684 -12.171  1.00  0.00     0.009 A 
ATOM     71  C   UNL     1       2.963   3.482 -10.595  1.00  0.00     0.009 A 
ATOM     72  C   UNL     1       1.937   1.635 -12.415  1.00  0.00     0.001 A 
ATOM     73  C   UNL     1       1.587   3.410 -10.817  1.00  0.00     0.001 A 
ATOM     74  C   UNL     1       1.076   2.494 -11.735  1.00  0.00     0.000 A 
ENDBRANCH  50  69
BRANCH  62  75
ATOM     75  C   UNL     1       9.246   4.520 -15.238  1.00  0.00    -0.014 A 
ATOM     76  C   UNL     1       8.828   5.798 -15.640  1.00  0.00     0.009 A 
ATOM     77  C   UNL     1       9.839   3.667 -16.183  1.00  0.00     0.009 A 
ATOM     78  C   UNL     1       8.982   6.203 -16.967  1.00  0.00     0.001 A 
ATOM     79  C   UNL     1      10.019   4.087 -17.501  1.00  0.00     0.001 A 
ATOM     80  C   UNL     1       9.584   5.352 -17.893  1.00  0.00     0.000 A 
ENDBRANCH  62  75
ENDBRANCH  36  37
ENDBRANCH  28  31
ENDBRANCH  26  27
ENDBRANCH  25  26
ENDBRANCH  24  25
ENDBRANCH   3  24
TORSDOF 18
