REMARK SMILES Cc1ccc(C[N@H+]2CCC[C@@H](C(=O)NCCCNC(=O)c3ccc(-c4c5nc(c(-c6ccccc6)c6ccc([nH]6)c(-c6ccccc6)c6nc(c(-c7ccccc7)c7ccc4[nH]7)C=C6)C=C5)cc3)C2)o1
REMARK SMILES IDX 16 1 15 2 14 3 12 4 13 5 11 7 7 8 8 9 69 10 9 12 10 13 6 14
REMARK SMILES IDX 5 15 1 16 2 17 3 18 70 19 4 20 17 21 18 22 19 23 20 25 21 26
REMARK SMILES IDX 22 27 68 28 23 29 67 30 24 31 25 32 26 33 61 34 27 35 66 36
REMARK SMILES IDX 60 37 62 38 28 39 65 40 59 41 58 42 29 44 51 45 36 46 50 47
REMARK SMILES IDX 37 48 40 49 49 50 63 51 38 52 39 53 48 55 64 56 41 57 30 58
REMARK SMILES IDX 31 59 35 60 32 61 34 62 33 63 52 64 53 65 57 66 54 67 56 68
REMARK SMILES IDX 55 69 42 70 43 71 47 72 44 73 46 74 45 75
REMARK H PARENT 14 6 7 11 18 24 62 43 40 54
REMARK Flexibility Score: inf
ROOT
ATOM      1  C   UNL     1      -0.737   8.013   3.385  1.00  0.00     0.042 C 
ENDROOT
BRANCH   1   2
ATOM      2  C   UNL     1      -0.695   7.206   2.091  1.00  0.00     0.117 C 
BRANCH   2   3
ATOM      3  N   UNL     1       0.377   6.228   2.120  1.00  0.00    -0.356 N 
ATOM      4  C   UNL     1       0.343   4.893   2.382  1.00  0.00     0.228 C 
ATOM      5  O   UNL     1       1.421   4.312   2.524  1.00  0.00    -0.275 OA
ATOM      6  H   UNL     1       1.271   6.587   1.918  1.00  0.00     0.163 HD
BRANCH   4   7
ATOM      7  C   UNL     1      -0.984   4.158   2.438  1.00  0.00     0.133 C 
ATOM      8  N   UNL     1      -2.258   2.396   1.237  1.00  0.00    -0.328 N 
ATOM      9  C   UNL     1      -2.411   1.621   2.475  1.00  0.00     0.262 C 
ATOM     10  C   UNL     1      -1.018   3.189   1.250  1.00  0.00     0.276 C 
ATOM     11  H   UNL     1      -3.042   3.047   1.198  1.00  0.00     0.348 HD
ATOM     12  C   UNL     1      -2.393   2.531   3.708  1.00  0.00     0.062 C 
ATOM     13  C   UNL     1      -1.132   3.390   3.752  1.00  0.00     0.025 C 
BRANCH   8  14
ATOM     14  C   UNL     1      -2.356   1.551   0.024  1.00  0.00     0.338 C 
BRANCH  14  15
ATOM     15  C   UNL     1      -1.370   0.431  -0.071  1.00  0.00     0.158 A 
ATOM     16  C   UNL     1       2.135  -0.199  -0.221  1.00  0.00     0.087 C 
ATOM     17  C   UNL     1       0.670  -0.370  -0.184  1.00  0.00     0.101 A 
ATOM     18  C   UNL     1      -0.166  -1.458  -0.068  1.00  0.00     0.046 A 
ATOM     19  O   UNL     1      -0.061   0.774  -0.242  1.00  0.00    -0.460 OA
ATOM     20  C   UNL     1      -1.484  -0.942  -0.001  1.00  0.00     0.052 A 
ENDBRANCH  14  15
ENDBRANCH   8  14
ENDBRANCH   4   7
ENDBRANCH   2   3
ENDBRANCH   1   2
BRANCH   1  21
ATOM     21  C   UNL     1       0.510   8.864   3.619  1.00  0.00     0.118 C 
BRANCH  21  22
ATOM     22  N   UNL     1       0.704   9.871   2.584  1.00  0.00    -0.352 N 
ATOM     23  C   UNL     1       0.793  11.235   2.681  1.00  0.00     0.251 C 
ATOM     24  H   UNL     1       0.783   9.515   1.669  1.00  0.00     0.163 HD
ATOM     25  O   UNL     1       0.768  11.921   1.659  1.00  0.00    -0.269 OA
BRANCH  23  26
ATOM     26  C   UNL     1       0.903  11.891   3.999  1.00  0.00     0.039 A 
ATOM     27  C   UNL     1       0.168  13.057   4.234  1.00  0.00     0.014 A 
ATOM     28  C   UNL     1       1.747  11.385   4.991  1.00  0.00     0.014 A 
ATOM     29  C   UNL     1       0.231  13.678   5.483  1.00  0.00     0.010 A 
ATOM     30  C   UNL     1       1.752  11.962   6.258  1.00  0.00     0.010 A 
ATOM     31  C   UNL     1       0.996  13.115   6.516  1.00  0.00    -0.014 A 
BRANCH  31  32
ATOM     32  C   UNL     1       1.015  13.715   7.873  1.00  0.00     0.031 A 
ATOM     33  C   UNL     1       2.290  14.280   8.436  1.00  0.00     0.074 A 
ATOM     34  C   UNL     1      -0.102  13.692   8.626  1.00  0.00     0.049 A 
ATOM     35  N   UNL     1       2.517  14.782   9.624  1.00  0.00    -0.248 NA
ATOM     36  C   UNL     1       3.471  14.256   7.558  1.00  0.00     0.031 C 
ATOM     37  C   UNL     1      -1.394  13.141   8.212  1.00  0.00     0.029 A 
ATOM     38  N   UNL     1      -0.326  14.139   9.904  1.00  0.00    -0.354 N 
ATOM     39  C   UNL     1       3.865  15.115   9.642  1.00  0.00     0.074 A 
ATOM     40  C   UNL     1       4.416  14.717   8.364  1.00  0.00     0.031 C 
ATOM     41  C   UNL     1      -2.281  13.306   9.206  1.00  0.00     0.029 A 
ATOM     42  C   UNL     1      -1.612  13.935  10.340  1.00  0.00     0.049 A 
ATOM     43  H   UNL     1       0.369  14.565  10.456  1.00  0.00     0.167 HD
ATOM     44  C   UNL     1       4.578  15.713  10.625  1.00  0.00     0.031 A 
ATOM     45  C   UNL     1      -2.189  14.217  11.524  1.00  0.00     0.031 A 
ATOM     46  C   UNL     1       4.030  16.121  11.891  1.00  0.00     0.049 A 
ATOM     47  C   UNL     1      -1.373  14.870  12.603  1.00  0.00     0.074 A 
ATOM     48  C   UNL     1       4.660  16.783  12.931  1.00  0.00     0.029 A 
ATOM     49  N   UNL     1       2.721  15.903  12.290  1.00  0.00    -0.354 N 
ATOM     50  N   UNL     1      -0.113  15.233  12.581  1.00  0.00    -0.248 NA
ATOM     51  C   UNL     1      -2.063  15.161  13.868  1.00  0.00     0.031 C 
ATOM     52  C   UNL     1       3.743  16.926  13.977  1.00  0.00     0.029 A 
ATOM     53  C   UNL     1       2.529  16.399  13.569  1.00  0.00     0.049 A 
ATOM     54  H   UNL     1       2.030  15.460  11.746  1.00  0.00     0.167 HD
ATOM     55  C   UNL     1       0.132  15.819  13.816  1.00  0.00     0.074 A 
ATOM     56  C   UNL     1      -1.112  15.776  14.556  1.00  0.00     0.031 C 
ATOM     57  C   UNL     1       1.286  16.348  14.292  1.00  0.00     0.031 A 
BRANCH  44  58
ATOM     58  C   UNL     1       6.039  15.959  10.368  1.00  0.00    -0.014 A 
ATOM     59  C   UNL     1       6.461  16.930   9.446  1.00  0.00     0.009 A 
ATOM     60  C   UNL     1       7.006  15.232  11.079  1.00  0.00     0.009 A 
ATOM     61  C   UNL     1       7.822  17.142   9.214  1.00  0.00     0.001 A 
ATOM     62  C   UNL     1       8.366  15.465  10.866  1.00  0.00     0.001 A 
ATOM     63  C   UNL     1       8.773  16.413   9.927  1.00  0.00     0.000 A 
ENDBRANCH  44  58
BRANCH  45  64
ATOM     64  C   UNL     1      -3.622  13.899  11.747  1.00  0.00    -0.014 A 
ATOM     65  C   UNL     1      -4.574  14.927  11.824  1.00  0.00     0.009 A 
ATOM     66  C   UNL     1      -4.046  12.568  11.891  1.00  0.00     0.009 A 
ATOM     67  C   UNL     1      -5.917  14.631  12.066  1.00  0.00     0.001 A 
ATOM     68  C   UNL     1      -5.394  12.274  12.105  1.00  0.00     0.001 A 
ATOM     69  C   UNL     1      -6.327  13.306  12.202  1.00  0.00     0.000 A 
ENDBRANCH  45  64
BRANCH  57  70
ATOM     70  C   UNL     1       1.245  16.954  15.666  1.00  0.00    -0.014 A 
ATOM     71  C   UNL     1       1.169  16.152  16.815  1.00  0.00     0.009 A 
ATOM     72  C   UNL     1       1.321  18.348  15.812  1.00  0.00     0.009 A 
ATOM     73  C   UNL     1       1.137  16.737  18.082  1.00  0.00     0.001 A 
ATOM     74  C   UNL     1       1.317  18.928  17.081  1.00  0.00     0.001 A 
ATOM     75  C   UNL     1       1.216  18.123  18.214  1.00  0.00     0.000 A 
ENDBRANCH  57  70
ENDBRANCH  31  32
ENDBRANCH  23  26
ENDBRANCH  21  22
ENDBRANCH   1  21
TORSDOF 12
