REMARK SMILES CN(C(=O)C[C@](C)(C(=O)NCCCNC(=O)c1ccc(-c2c3nc(c(-c4ccccc4)c4ccc([nH]4)c(-c4ccccc4)c4nc(c(-c5ccccc5)c5ccc2[nH]5)C=C4)C=C3)cc1)c1ccccc1)[C@@H]1CCSC1
REMARK SMILES IDX 11 1 10 2 8 3 9 4 6 6 7 7 5 8 3 9 4 10 2 11 1 12 71 13 72 14
REMARK SMILES IDX 75 15 73 16 74 17 65 18 66 19 70 20 67 21 69 22 68 23 12 24
REMARK SMILES IDX 13 25 14 26 15 27 16 29 17 30 18 31 64 32 19 33 63 34 20 35
REMARK SMILES IDX 21 36 22 37 57 38 23 39 62 40 56 41 58 42 24 43 61 44 55 45
REMARK SMILES IDX 54 46 25 48 47 49 32 50 46 51 33 52 36 53 45 54 59 55 34 56
REMARK SMILES IDX 35 57 44 59 60 60 37 61 26 62 27 63 31 64 28 65 30 66 29 67
REMARK SMILES IDX 48 68 49 69 53 70 50 71 52 72 51 73 38 74 39 75 43 76 40 77
REMARK SMILES IDX 42 78 41 79
REMARK H PARENT 10 5 14 28 58 47 36 58
REMARK Flexibility Score: inf
ROOT
ATOM      1  C   UNL     1      -0.757  -1.656  -2.924  1.00  0.00     0.117 C 
ENDROOT
BRANCH   1   2
ATOM      2  N   UNL     1      -0.276  -0.800  -3.993  1.00  0.00    -0.355 N 
ATOM      3  C   UNL     1       0.342   0.418  -3.984  1.00  0.00     0.230 C 
ATOM      4  O   UNL     1       0.682   0.838  -5.095  1.00  0.00    -0.274 OA
ATOM      5  H   UNL     1      -0.423  -1.167  -4.895  1.00  0.00     0.163 HD
BRANCH   3   6
ATOM      6  C   UNL     1       0.573   1.240  -2.670  1.00  0.00     0.080 C 
ATOM      7  C   UNL     1      -0.836   1.499  -2.078  1.00  0.00     0.027 C 
BRANCH   6   8
ATOM      8  C   UNL     1       1.537   0.452  -1.713  1.00  0.00     0.121 C 
BRANCH   8   9
ATOM      9  C   UNL     1       1.034   0.011  -0.347  1.00  0.00     0.224 C 
ATOM     10  O   UNL     1       0.939  -1.199  -0.138  1.00  0.00    -0.275 OA
BRANCH   9  11
ATOM     11  N   UNL     1       0.718   0.957   0.616  1.00  0.00    -0.342 N 
ATOM     12  C   UNL     1       1.120   2.361   0.519  1.00  0.00     0.147 C 
BRANCH  11  13
ATOM     13  C   UNL     1       0.085   0.580   1.906  1.00  0.00     0.095 C 
ATOM     14  C   UNL     1       1.111   0.353   3.022  1.00  0.00     0.037 C 
ATOM     15  C   UNL     1      -0.880  -0.625   1.924  1.00  0.00     0.094 C 
ATOM     16  C   UNL     1       1.532  -1.103   2.982  1.00  0.00     0.072 C 
ATOM     17  S   UNL     1      -0.027  -1.996   2.775  1.00  0.00    -0.160 SA
ENDBRANCH  11  13
ENDBRANCH   9  11
ENDBRANCH   8   9
ENDBRANCH   6   8
BRANCH   6  18
ATOM     18  C   UNL     1       1.278   2.592  -3.032  1.00  0.00    -0.032 A 
ATOM     19  C   UNL     1       2.653   2.608  -3.354  1.00  0.00     0.005 A 
ATOM     20  C   UNL     1       0.615   3.832  -3.010  1.00  0.00     0.005 A 
ATOM     21  C   UNL     1       3.357   3.805  -3.502  1.00  0.00     0.000 A 
ATOM     22  C   UNL     1       1.317   5.031  -3.176  1.00  0.00     0.000 A 
ATOM     23  C   UNL     1       2.691   5.019  -3.392  1.00  0.00     0.000 A 
ENDBRANCH   6  18
ENDBRANCH   3   6
ENDBRANCH   1   2
BRANCH   1  24
ATOM     24  C   UNL     1      -2.275  -1.734  -2.849  1.00  0.00     0.042 C 
BRANCH  24  25
ATOM     25  C   UNL     1      -2.915  -2.455  -4.024  1.00  0.00     0.118 C 
BRANCH  25  26
ATOM     26  N   UNL     1      -2.522  -3.855  -4.107  1.00  0.00    -0.352 N 
ATOM     27  C   UNL     1      -3.276  -4.996  -4.022  1.00  0.00     0.251 C 
ATOM     28  H   UNL     1      -1.559  -4.006  -4.246  1.00  0.00     0.163 HD
ATOM     29  O   UNL     1      -2.716  -6.091  -3.941  1.00  0.00    -0.269 OA
BRANCH  27  30
ATOM     30  C   UNL     1      -4.751  -4.929  -4.010  1.00  0.00     0.039 A 
ATOM     31  C   UNL     1      -5.459  -5.777  -3.152  1.00  0.00     0.014 A 
ATOM     32  C   UNL     1      -5.442  -4.057  -4.854  1.00  0.00     0.014 A 
ATOM     33  C   UNL     1      -6.852  -5.701  -3.095  1.00  0.00     0.010 A 
ATOM     34  C   UNL     1      -6.821  -3.918  -4.730  1.00  0.00     0.010 A 
ATOM     35  C   UNL     1      -7.542  -4.744  -3.856  1.00  0.00    -0.014 A 
BRANCH  35  36
ATOM     36  C   UNL     1      -9.016  -4.595  -3.760  1.00  0.00     0.031 A 
ATOM     37  C   UNL     1      -9.880  -4.841  -4.968  1.00  0.00     0.074 A 
ATOM     38  C   UNL     1      -9.571  -4.174  -2.606  1.00  0.00     0.049 A 
ATOM     39  N   UNL     1     -11.175  -4.692  -5.100  1.00  0.00    -0.248 NA
ATOM     40  C   UNL     1      -9.200  -5.286  -6.195  1.00  0.00     0.031 C 
ATOM     41  C   UNL     1      -8.840  -3.865  -1.375  1.00  0.00     0.029 A 
ATOM     42  N   UNL     1     -10.882  -3.926  -2.284  1.00  0.00    -0.354 N 
ATOM     43  C   UNL     1     -11.456  -5.002  -6.425  1.00  0.00     0.074 A 
ATOM     44  C   UNL     1     -10.196  -5.301  -7.068  1.00  0.00     0.031 C 
ATOM     45  C   UNL     1      -9.715  -3.500  -0.424  1.00  0.00     0.029 A 
ATOM     46  C   UNL     1     -11.060  -3.503  -0.989  1.00  0.00     0.049 A 
ATOM     47  H   UNL     1     -11.624  -4.040  -2.921  1.00  0.00     0.167 HD
ATOM     48  C   UNL     1     -12.658  -5.053  -7.046  1.00  0.00     0.031 A 
ATOM     49  C   UNL     1     -12.181  -3.150  -0.332  1.00  0.00     0.031 A 
ATOM     50  C   UNL     1     -13.914  -4.778  -6.402  1.00  0.00     0.049 A 
ATOM     51  C   UNL     1     -13.500  -3.203  -1.051  1.00  0.00     0.074 A 
ATOM     52  C   UNL     1     -15.190  -4.866  -6.930  1.00  0.00     0.029 A 
ATOM     53  N   UNL     1     -14.051  -4.361  -5.087  1.00  0.00    -0.354 N 
ATOM     54  N   UNL     1     -13.756  -3.567  -2.284  1.00  0.00    -0.248 NA
ATOM     55  C   UNL     1     -14.688  -2.805  -0.282  1.00  0.00     0.031 C 
ATOM     56  C   UNL     1     -16.097  -4.450  -5.950  1.00  0.00     0.029 A 
ATOM     57  C   UNL     1     -15.389  -4.161  -4.794  1.00  0.00     0.049 A 
ATOM     58  H   UNL     1     -13.307  -4.227  -4.456  1.00  0.00     0.167 HD
ATOM     59  C   UNL     1     -15.134  -3.474  -2.428  1.00  0.00     0.074 A 
ATOM     60  C   UNL     1     -15.661  -3.035  -1.152  1.00  0.00     0.031 C 
ATOM     61  C   UNL     1     -15.897  -3.730  -3.518  1.00  0.00     0.031 A 
BRANCH  48  62
ATOM     62  C   UNL     1     -12.675  -5.418  -8.505  1.00  0.00    -0.014 A 
ATOM     63  C   UNL     1     -12.381  -6.722  -8.934  1.00  0.00     0.009 A 
ATOM     64  C   UNL     1     -13.039  -4.456  -9.460  1.00  0.00     0.009 A 
ATOM     65  C   UNL     1     -12.423  -7.047 -10.291  1.00  0.00     0.001 A 
ATOM     66  C   UNL     1     -13.109  -4.791 -10.813  1.00  0.00     0.001 A 
ATOM     67  C   UNL     1     -12.793  -6.083 -11.229  1.00  0.00     0.000 A 
ENDBRANCH  48  62
BRANCH  49  68
ATOM     68  C   UNL     1     -12.115  -2.722   1.091  1.00  0.00    -0.014 A 
ATOM     69  C   UNL     1     -12.662  -3.527   2.102  1.00  0.00     0.009 A 
ATOM     70  C   UNL     1     -11.529  -1.496   1.444  1.00  0.00     0.009 A 
ATOM     71  C   UNL     1     -12.656  -3.098   3.431  1.00  0.00     0.001 A 
ATOM     72  C   UNL     1     -11.497  -1.084   2.777  1.00  0.00     0.001 A 
ATOM     73  C   UNL     1     -12.071  -1.879   3.768  1.00  0.00     0.000 A 
ENDBRANCH  49  68
BRANCH  61  74
ATOM     74  C   UNL     1     -17.384  -3.585  -3.367  1.00  0.00    -0.014 A 
ATOM     75  C   UNL     1     -17.988  -2.324  -3.253  1.00  0.00     0.009 A 
ATOM     76  C   UNL     1     -18.197  -4.730  -3.381  1.00  0.00     0.009 A 
ATOM     77  C   UNL     1     -19.374  -2.215  -3.120  1.00  0.00     0.001 A 
ATOM     78  C   UNL     1     -19.583  -4.617  -3.279  1.00  0.00     0.001 A 
ATOM     79  C   UNL     1     -20.170  -3.360  -3.139  1.00  0.00     0.000 A 
ENDBRANCH  61  74
ENDBRANCH  35  36
ENDBRANCH  27  30
ENDBRANCH  25  26
ENDBRANCH  24  25
ENDBRANCH   1  24
TORSDOF 15
