REMARK SMILES CC(C)N(CCC#N)C(=O)c1ccncc1/C=C/C(=O)NCCCNC(=O)c1ccc(-c2c3nc(c(-c4ccccc4)c4ccc([nH]4)c(-c4ccccc4)c4nc(c(-c5ccccc5)c5ccc2[nH]5)C=C4)C=C3)cc1
REMARK SMILES IDX 19 1 20 2 21 3 18 5 17 6 16 7 11 8 12 9 13 10 15 11 14 12
REMARK SMILES IDX 9 13 10 14 4 15 2 16 1 17 3 18 5 19 6 20 7 21 8 22 22 23
REMARK SMILES IDX 23 24 24 25 25 26 26 27 27 29 28 30 29 31 75 32 30 33 74 34
REMARK SMILES IDX 31 35 32 36 33 37 68 38 34 39 73 40 67 41 69 42 35 43 72 44
REMARK SMILES IDX 66 45 65 46 36 48 58 49 43 50 57 51 44 52 47 53 56 54 70 55
REMARK SMILES IDX 45 56 46 57 55 59 71 60 48 61 37 62 38 63 42 64 39 65 41 66
REMARK SMILES IDX 40 67 59 68 60 69 64 70 61 71 63 72 62 73 49 74 50 75 54 76
REMARK SMILES IDX 51 77 53 78 52 79
REMARK H PARENT 21 4 25 28 69 47 47 58
REMARK Flexibility Score: inf
ROOT
ATOM      1  C   UNL     1      -3.290   4.638   0.989  1.00  0.00     0.244 C 
ATOM      2  O   UNL     1      -3.983   5.627   0.761  1.00  0.00    -0.270 OA
ATOM      3  N   UNL     1      -1.961   4.788   1.219  1.00  0.00    -0.352 N 
ATOM      4  H   UNL     1      -1.630   5.714   1.165  1.00  0.00     0.163 HD
ENDROOT
BRANCH   1   5
ATOM      5  C   UNL     1      -3.938   3.314   1.136  1.00  0.00     0.072 C 
ATOM      6  C   UNL     1      -3.502   2.138   0.652  1.00  0.00     0.016 C 
BRANCH   6   7
ATOM      7  C   UNL     1      -4.178   0.871   0.979  1.00  0.00     0.006 A 
ATOM      8  C   UNL     1      -3.510  -0.293   1.396  1.00  0.00     0.050 A 
ATOM      9  C   UNL     1      -4.250  -1.358   1.910  1.00  0.00     0.034 A 
ATOM     10  C   UNL     1      -5.626  -1.326   1.809  1.00  0.00     0.112 A 
ATOM     11  C   UNL     1      -5.571   0.791   0.920  1.00  0.00     0.119 A 
ATOM     12  N   UNL     1      -6.301  -0.286   1.291  1.00  0.00    -0.264 NA
BRANCH   8  13
ATOM     13  C   UNL     1      -2.027  -0.425   1.409  1.00  0.00     0.254 C 
ATOM     14  O   UNL     1      -1.399   0.412   2.053  1.00  0.00    -0.269 OA
BRANCH  13  15
ATOM     15  N   UNL     1      -1.403  -1.477   0.701  1.00  0.00    -0.335 N 
BRANCH  15  16
ATOM     16  C   UNL     1       0.082  -1.564   0.695  1.00  0.00     0.079 C 
ATOM     17  C   UNL     1       0.749  -0.332   0.084  1.00  0.00     0.031 C 
ATOM     18  C   UNL     1       0.677  -1.884   2.066  1.00  0.00     0.031 C 
ENDBRANCH  15  16
BRANCH  15  19
ATOM     19  C   UNL     1      -2.100  -2.409  -0.217  1.00  0.00     0.135 C 
BRANCH  19  20
ATOM     20  C   UNL     1      -2.026  -3.892   0.188  1.00  0.00     0.141 C 
BRANCH  20  21
ATOM     21  C   UNL     1      -3.175  -4.328   0.989  1.00  0.00     0.064 C 
ATOM     22  N   UNL     1      -4.085  -4.678   1.614  1.00  0.00    -0.198 NA
ENDBRANCH  20  21
ENDBRANCH  19  20
ENDBRANCH  15  19
ENDBRANCH  13  15
ENDBRANCH   8  13
ENDBRANCH   6   7
ENDBRANCH   1   5
BRANCH   3  23
ATOM     23  C   UNL     1      -0.954   3.794   1.533  1.00  0.00     0.118 C 
BRANCH  23  24
ATOM     24  C   UNL     1      -0.138   3.464   0.290  1.00  0.00     0.042 C 
BRANCH  24  25
ATOM     25  C   UNL     1       0.866   4.550  -0.066  1.00  0.00     0.118 C 
BRANCH  25  26
ATOM     26  N   UNL     1       1.893   4.692   0.959  1.00  0.00    -0.352 N 
ATOM     27  C   UNL     1       3.247   4.502   0.888  1.00  0.00     0.251 C 
ATOM     28  H   UNL     1       1.559   4.969   1.843  1.00  0.00     0.163 HD
ATOM     29  O   UNL     1       3.906   4.412   1.920  1.00  0.00    -0.269 OA
BRANCH  27  30
ATOM     30  C   UNL     1       3.917   4.401  -0.423  1.00  0.00     0.039 A 
ATOM     31  C   UNL     1       4.984   3.511  -0.570  1.00  0.00     0.014 A 
ATOM     32  C   UNL     1       3.518   5.202  -1.496  1.00  0.00     0.014 A 
ATOM     33  C   UNL     1       5.614   3.389  -1.808  1.00  0.00     0.010 A 
ATOM     34  C   UNL     1       4.078   5.007  -2.751  1.00  0.00     0.010 A 
ATOM     35  C   UNL     1       5.140   4.108  -2.918  1.00  0.00    -0.014 A 
BRANCH  35  36
ATOM     36  C   UNL     1       5.746   3.940  -4.260  1.00  0.00     0.031 A 
ATOM     37  C   UNL     1       6.399   5.109  -4.946  1.00  0.00     0.074 A 
ATOM     38  C   UNL     1       5.653   2.750  -4.883  1.00  0.00     0.049 A 
ATOM     39  N   UNL     1       6.932   5.171  -6.139  1.00  0.00    -0.248 NA
ATOM     40  C   UNL     1       6.436   6.381  -4.205  1.00  0.00     0.031 C 
ATOM     41  C   UNL     1       5.015   1.552  -4.332  1.00  0.00     0.029 A 
ATOM     42  N   UNL     1       6.097   2.351  -6.118  1.00  0.00    -0.354 N 
ATOM     43  C   UNL     1       7.354   6.485  -6.295  1.00  0.00     0.074 A 
ATOM     44  C   UNL     1       6.960   7.202  -5.103  1.00  0.00     0.031 C 
ATOM     45  C   UNL     1       5.144   0.543  -5.209  1.00  0.00     0.029 A 
ATOM     46  C   UNL     1       5.822   1.036  -6.403  1.00  0.00     0.049 A 
ATOM     47  H   UNL     1       6.568   2.951  -6.741  1.00  0.00     0.167 HD
ATOM     48  C   UNL     1       8.030   7.041  -7.328  1.00  0.00     0.031 A 
ATOM     49  C   UNL     1       6.078   0.311  -7.507  1.00  0.00     0.031 A 
ATOM     50  C   UNL     1       8.415   6.325  -8.514  1.00  0.00     0.049 A 
ATOM     51  C   UNL     1       6.786   0.966  -8.660  1.00  0.00     0.074 A 
ATOM     52  C   UNL     1       9.137   6.784  -9.601  1.00  0.00     0.029 A 
ATOM     53  N   UNL     1       8.101   4.999  -8.772  1.00  0.00    -0.354 N 
ATOM     54  N   UNL     1       7.236   2.192  -8.765  1.00  0.00    -0.248 NA
ATOM     55  C   UNL     1       7.030   0.130  -9.844  1.00  0.00     0.031 C 
ATOM     56  C   UNL     1       9.200   5.757 -10.547  1.00  0.00     0.029 A 
ATOM     57  C   UNL     1       8.588   4.633 -10.015  1.00  0.00     0.049 A 
ATOM     58  H   UNL     1       7.607   4.406  -8.161  1.00  0.00     0.167 HD
ATOM     59  C   UNL     1       7.846   2.266 -10.011  1.00  0.00     0.074 A 
ATOM     60  C   UNL     1       7.724   0.955 -10.614  1.00  0.00     0.031 C 
ATOM     61  C   UNL     1       8.456   3.323 -10.602  1.00  0.00     0.031 A 
BRANCH  48  62
ATOM     62  C   UNL     1       8.382   8.501  -7.222  1.00  0.00    -0.014 A 
ATOM     63  C   UNL     1       9.313   8.962  -6.277  1.00  0.00     0.009 A 
ATOM     64  C   UNL     1       7.801   9.426  -8.104  1.00  0.00     0.009 A 
ATOM     65  C   UNL     1       9.623  10.321  -6.189  1.00  0.00     0.001 A 
ATOM     66  C   UNL     1       8.139  10.779  -8.039  1.00  0.00     0.001 A 
ATOM     67  C   UNL     1       9.041  11.227  -7.075  1.00  0.00     0.000 A 
ENDBRANCH  48  62
BRANCH  49  68
ATOM     68  C   UNL     1       5.671  -1.118  -7.574  1.00  0.00    -0.014 A 
ATOM     69  C   UNL     1       6.638  -2.135  -7.612  1.00  0.00     0.009 A 
ATOM     70  C   UNL     1       4.314  -1.475  -7.614  1.00  0.00     0.009 A 
ATOM     71  C   UNL     1       6.256  -3.474  -7.723  1.00  0.00     0.001 A 
ATOM     72  C   UNL     1       3.934  -2.817  -7.689  1.00  0.00     0.001 A 
ATOM     73  C   UNL     1       4.905  -3.814  -7.757  1.00  0.00     0.000 A 
ENDBRANCH  49  68
BRANCH  61  74
ATOM     74  C   UNL     1       9.077   3.094 -11.953  1.00  0.00    -0.014 A 
ATOM     75  C   UNL     1       8.293   2.873 -13.095  1.00  0.00     0.009 A 
ATOM     76  C   UNL     1      10.474   3.144 -12.087  1.00  0.00     0.009 A 
ATOM     77  C   UNL     1       8.898   2.668 -14.337  1.00  0.00     0.001 A 
ATOM     78  C   UNL     1      11.074   2.977 -13.335  1.00  0.00     0.001 A 
ATOM     79  C   UNL     1      10.286   2.727 -14.457  1.00  0.00     0.000 A 
ENDBRANCH  61  74
ENDBRANCH  35  36
ENDBRANCH  27  30
ENDBRANCH  25  26
ENDBRANCH  24  25
ENDBRANCH  23  24
ENDBRANCH   3  23
TORSDOF 17
