REMARK SMILES COc1ccc2[nH]cc([C@H](C(=O)NCCCNC(=O)c3ccc(-c4c5nc(c(-c6ccccc6)c6ccc([nH]6)c(-c6ccccc6)c6nc(c(-c7ccccc7)c7ccc4[nH]7)C=C6)C=C5)cc3)[NH+]3CC[NH+](Cc4cccc5ccccc45)CC3)c2c1
REMARK SMILES IDX 14 1 13 2 11 3 12 4 10 6 9 7 3 8 4 9 86 10 5 11 85 12 6 13
REMARK SMILES IDX 7 14 8 15 2 17 1 18 68 19 69 20 84 21 70 23 83 24 71 25
REMARK SMILES IDX 72 27 73 28 74 29 82 30 75 31 77 32 81 33 76 34 78 35 80 36
REMARK SMILES IDX 79 37 15 38 16 39 17 40 18 41 19 43 20 44 21 45 67 46 22 47
REMARK SMILES IDX 66 48 23 49 24 50 25 51 60 52 26 53 65 54 59 55 61 56 27 57
REMARK SMILES IDX 64 58 58 59 57 60 28 62 50 63 35 64 49 65 36 66 39 67 48 68
REMARK SMILES IDX 62 69 37 70 38 71 47 73 63 74 40 75 29 76 30 77 34 78 31 79
REMARK SMILES IDX 33 80 32 81 51 82 52 83 56 84 53 85 55 86 54 87 41 88 42 89
REMARK SMILES IDX 46 90 43 91 45 92 44 93
REMARK H PARENT 13 5 7 16 68 22 71 26 17 42 61 61 39 72
REMARK Flexibility Score: inf
ROOT
ATOM      1  C   UNL     1      -0.056   3.363   2.279  1.00  0.00     0.118 C 
ENDROOT
BRANCH   1   2
ATOM      2  N   UNL     1       0.388   2.768   3.534  1.00  0.00    -0.351 N 
ATOM      3  C   UNL     1      -0.218   2.360   4.702  1.00  0.00     0.283 C 
ATOM      4  O   UNL     1       0.549   1.727   5.432  1.00  0.00    -0.268 OA
ATOM      5  H   UNL     1       1.361   2.622   3.551  1.00  0.00     0.163 HD
BRANCH   3   6
ATOM      6  C   UNL     1      -1.694   2.699   5.066  1.00  0.00     0.308 C 
BRANCH   6   7
ATOM      7  C   UNL     1      -2.499   1.719   5.930  1.00  0.00     0.045 A 
ATOM      8  C   UNL     1      -0.914  -0.354   8.776  1.00  0.00     0.119 A 
ATOM      9  C   UNL     1      -2.100  -0.830   9.313  1.00  0.00     0.048 A 
ATOM     10  C   UNL     1      -0.913   0.522   7.687  1.00  0.00     0.057 A 
ATOM     11  C   UNL     1      -3.319  -0.483   8.730  1.00  0.00     0.030 A 
ATOM     12  C   UNL     1      -2.121   0.864   7.039  1.00  0.00     0.013 A 
ATOM     13  C   UNL     1      -3.297   0.342   7.594  1.00  0.00     0.046 A 
ATOM     14  N   UNL     1      -4.346   0.822   6.853  1.00  0.00    -0.361 N 
ATOM     15  C   UNL     1      -3.887   1.629   5.853  1.00  0.00     0.094 A 
ATOM     16  H   UNL     1      -5.294   0.614   7.018  1.00  0.00     0.166 HD
BRANCH   8  17
ATOM     17  O   UNL     1       0.299  -0.676   9.327  1.00  0.00    -0.497 OA
ATOM     18  C   UNL     1       0.582  -2.063   9.139  1.00  0.00     0.278 C 
ENDBRANCH   8  17
ENDBRANCH   6   7
BRANCH   6  19
ATOM     19  N   UNL     1      -1.876   4.048   5.633  1.00  0.00    -0.312 N 
ATOM     20  C   UNL     1      -1.753   4.334   7.063  1.00  0.00     0.325 C 
ATOM     21  C   UNL     1      -1.437   5.150   4.815  1.00  0.00     0.325 C 
ATOM     22  H   UNL     1      -2.891   3.960   5.585  1.00  0.00     0.349 HD
ATOM     23  C   UNL     1      -0.603   5.275   7.541  1.00  0.00     0.324 C 
ATOM     24  C   UNL     1      -0.060   5.705   5.237  1.00  0.00     0.324 C 
ATOM     25  N   UNL     1      -0.028   6.243   6.595  1.00  0.00    -0.322 N 
ATOM     26  H   UNL     1       0.949   6.340   6.872  1.00  0.00     0.348 HD
BRANCH  25  27
ATOM     27  C   UNL     1      -0.430   7.655   6.731  1.00  0.00     0.300 C 
BRANCH  27  28
ATOM     28  C   UNL     1      -1.685   8.084   5.982  1.00  0.00     0.014 A 
ATOM     29  C   UNL     1      -1.537   8.491   4.636  1.00  0.00     0.010 A 
ATOM     30  C   UNL     1      -2.988   7.902   6.517  1.00  0.00    -0.010 A 
ATOM     31  C   UNL     1      -2.636   8.571   3.788  1.00  0.00     0.001 A 
ATOM     32  C   UNL     1      -4.095   7.946   5.631  1.00  0.00    -0.018 A 
ATOM     33  C   UNL     1      -3.246   7.637   7.880  1.00  0.00     0.009 A 
ATOM     34  C   UNL     1      -3.902   8.265   4.277  1.00  0.00     0.009 A 
ATOM     35  C   UNL     1      -5.379   7.635   6.105  1.00  0.00     0.009 A 
ATOM     36  C   UNL     1      -4.534   7.366   8.342  1.00  0.00     0.001 A 
ATOM     37  C   UNL     1      -5.596   7.341   7.450  1.00  0.00     0.001 A 
ENDBRANCH  27  28
ENDBRANCH  25  27
ENDBRANCH   6  19
ENDBRANCH   3   6
ENDBRANCH   1   2
BRANCH   1  38
ATOM     38  C   UNL     1       0.481   4.780   1.959  1.00  0.00     0.042 C 
BRANCH  38  39
ATOM     39  C   UNL     1       1.899   5.142   2.427  1.00  0.00     0.118 C 
BRANCH  39  40
ATOM     40  N   UNL     1       2.853   5.121   1.336  1.00  0.00    -0.352 N 
ATOM     41  C   UNL     1       3.639   6.118   0.811  1.00  0.00     0.251 C 
ATOM     42  H   UNL     1       2.955   4.246   0.897  1.00  0.00     0.163 HD
ATOM     43  O   UNL     1       4.189   5.916  -0.270  1.00  0.00    -0.269 OA
BRANCH  41  44
ATOM     44  C   UNL     1       3.859   7.427   1.488  1.00  0.00     0.039 A 
ATOM     45  C   UNL     1       3.976   8.565   0.677  1.00  0.00     0.014 A 
ATOM     46  C   UNL     1       4.110   7.547   2.859  1.00  0.00     0.014 A 
ATOM     47  C   UNL     1       4.339   9.803   1.225  1.00  0.00     0.010 A 
ATOM     48  C   UNL     1       4.444   8.797   3.414  1.00  0.00     0.010 A 
ATOM     49  C   UNL     1       4.583   9.934   2.600  1.00  0.00    -0.014 A 
BRANCH  49  50
ATOM     50  C   UNL     1       5.003  11.253   3.159  1.00  0.00     0.031 A 
ATOM     51  C   UNL     1       6.415  11.488   3.633  1.00  0.00     0.074 A 
ATOM     52  C   UNL     1       4.119  12.268   3.228  1.00  0.00     0.049 A 
ATOM     53  N   UNL     1       6.965  12.593   4.077  1.00  0.00    -0.248 NA
ATOM     54  C   UNL     1       7.323  10.332   3.615  1.00  0.00     0.031 C 
ATOM     55  C   UNL     1       2.715  12.194   2.826  1.00  0.00     0.029 A 
ATOM     56  N   UNL     1       4.277  13.566   3.654  1.00  0.00    -0.354 N 
ATOM     57  C   UNL     1       8.278  12.267   4.395  1.00  0.00     0.074 A 
ATOM     58  C   UNL     1       8.431  10.851   4.127  1.00  0.00     0.031 C 
ATOM     59  C   UNL     1       2.144  13.396   3.006  1.00  0.00     0.029 A 
ATOM     60  C   UNL     1       3.135  14.322   3.552  1.00  0.00     0.049 A 
ATOM     61  H   UNL     1       5.128  13.919   4.000  1.00  0.00     0.167 HD
ATOM     62  C   UNL     1       9.272  13.066   4.857  1.00  0.00     0.031 A 
ATOM     63  C   UNL     1       2.903  15.613   3.856  1.00  0.00     0.031 A 
ATOM     64  C   UNL     1       9.141  14.475   5.127  1.00  0.00     0.049 A 
ATOM     65  C   UNL     1       4.015  16.478   4.380  1.00  0.00     0.074 A 
ATOM     66  C   UNL     1      10.117  15.370   5.536  1.00  0.00     0.029 A 
ATOM     67  N   UNL     1       7.961  15.194   5.030  1.00  0.00    -0.354 N 
ATOM     68  N   UNL     1       5.268  16.168   4.599  1.00  0.00    -0.248 NA
ATOM     69  C   UNL     1       3.678  17.877   4.685  1.00  0.00     0.031 C 
ATOM     70  C   UNL     1       9.517  16.619   5.732  1.00  0.00     0.029 A 
ATOM     71  C   UNL     1       8.177  16.512   5.400  1.00  0.00     0.049 A 
ATOM     72  H   UNL     1       7.096  14.823   4.740  1.00  0.00     0.167 HD
ATOM     73  C   UNL     1       5.873  17.334   5.050  1.00  0.00     0.074 A 
ATOM     74  C   UNL     1       4.855  18.363   5.057  1.00  0.00     0.031 C 
ATOM     75  C   UNL     1       7.161  17.531   5.422  1.00  0.00     0.031 A 
BRANCH  62  76
ATOM     76  C   UNL     1      10.608  12.426   5.117  1.00  0.00    -0.014 A 
ATOM     77  C   UNL     1      11.446  12.039   4.060  1.00  0.00     0.009 A 
ATOM     78  C   UNL     1      11.052  12.250   6.437  1.00  0.00     0.009 A 
ATOM     79  C   UNL     1      12.688  11.454   4.321  1.00  0.00     0.001 A 
ATOM     80  C   UNL     1      12.304  11.687   6.694  1.00  0.00     0.001 A 
ATOM     81  C   UNL     1      13.116  11.282   5.636  1.00  0.00     0.000 A 
ENDBRANCH  62  76
BRANCH  63  82
ATOM     82  C   UNL     1       1.545  16.181   3.654  1.00  0.00    -0.014 A 
ATOM     83  C   UNL     1       1.292  17.060   2.591  1.00  0.00     0.009 A 
ATOM     84  C   UNL     1       0.497  15.842   4.524  1.00  0.00     0.009 A 
ATOM     85  C   UNL     1       0.017  17.600   2.411  1.00  0.00     0.001 A 
ATOM     86  C   UNL     1      -0.781  16.366   4.328  1.00  0.00     0.001 A 
ATOM     87  C   UNL     1      -1.019  17.249   3.276  1.00  0.00     0.000 A 
ENDBRANCH  63  82
BRANCH  75  88
ATOM     88  C   UNL     1       7.547  18.917   5.858  1.00  0.00    -0.014 A 
ATOM     89  C   UNL     1       7.148  19.423   7.105  1.00  0.00     0.009 A 
ATOM     90  C   UNL     1       8.342  19.718   5.023  1.00  0.00     0.009 A 
ATOM     91  C   UNL     1       7.510  20.715   7.493  1.00  0.00     0.001 A 
ATOM     92  C   UNL     1       8.723  21.000   5.424  1.00  0.00     0.001 A 
ATOM     93  C   UNL     1       8.299  21.501   6.654  1.00  0.00     0.000 A 
ENDBRANCH  75  88
ENDBRANCH  49  50
ENDBRANCH  41  44
ENDBRANCH  39  40
ENDBRANCH  38  39
ENDBRANCH   1  38
TORSDOF 15
