REMARK SMILES O=C(NCCCNC(=O)c1cccc(NC(=O)c2cc3ccccc3[nH]2)c1)c1ccc(-c2c3nc(c(-c4ccccc4)c4ccc([nH]4)c(-c4ccccc4)c4nc(c(-c5ccccc5)c5ccc2[nH]5)C=C4)C=C3)cc1
REMARK SMILES IDX 5 1 4 2 3 3 1 4 2 5 28 7 29 8 75 9 30 10 74 11 31 12 32 13
REMARK SMILES IDX 33 14 68 15 34 16 73 17 67 18 69 19 35 20 72 21 66 22 65 23
REMARK SMILES IDX 36 25 58 26 43 27 57 28 44 29 47 30 56 31 70 32 45 33 46 34
REMARK SMILES IDX 55 36 71 37 48 38 37 39 38 40 42 41 39 42 41 43 40 44 59 45
REMARK SMILES IDX 60 46 64 47 61 48 63 49 62 50 49 51 50 52 54 53 51 54 53 55
REMARK SMILES IDX 52 56 6 57 7 58 8 59 9 61 10 62 11 63 27 64 12 65 14 66
REMARK SMILES IDX 13 67 15 68 16 69 17 71 18 72 19 73 26 74 20 75 25 76 21 78
REMARK SMILES IDX 24 79 22 80 23 81
REMARK H PARENT 3 6 69 24 47 35 7 60 15 70 26 77
REMARK Flexibility Score: inf
ROOT
ATOM      1  C   UNL     1       5.017  -1.512   1.863  1.00  0.00     0.042 C 
ENDROOT
BRANCH   1   2
ATOM      2  C   UNL     1       4.634  -1.224   0.419  1.00  0.00     0.118 C 
BRANCH   2   3
ATOM      3  N   UNL     1       3.197  -1.077   0.231  1.00  0.00    -0.352 N 
ATOM      4  O   UNL     1       1.223  -0.039  -0.050  1.00  0.00    -0.269 OA
ATOM      5  C   UNL     1       2.448   0.021  -0.113  1.00  0.00     0.251 C 
ATOM      6  H   UNL     1       2.678  -1.900   0.374  1.00  0.00     0.163 HD
BRANCH   5   7
ATOM      7  C   UNL     1       3.099   1.280  -0.536  1.00  0.00     0.039 A 
ATOM      8  C   UNL     1       4.204   1.274  -1.389  1.00  0.00     0.014 A 
ATOM      9  C   UNL     1       2.566   2.497  -0.098  1.00  0.00     0.014 A 
ATOM     10  C   UNL     1       4.871   2.461  -1.671  1.00  0.00     0.010 A 
ATOM     11  C   UNL     1       3.181   3.698  -0.461  1.00  0.00     0.010 A 
ATOM     12  C   UNL     1       4.360   3.688  -1.221  1.00  0.00    -0.014 A 
BRANCH  12  13
ATOM     13  C   UNL     1       5.044   4.951  -1.595  1.00  0.00     0.031 A 
ATOM     14  C   UNL     1       5.659   5.837  -0.548  1.00  0.00     0.074 A 
ATOM     15  C   UNL     1       5.114   5.295  -2.895  1.00  0.00     0.049 A 
ATOM     16  N   UNL     1       6.276   6.982  -0.698  1.00  0.00    -0.248 NA
ATOM     17  C   UNL     1       5.566   5.384   0.848  1.00  0.00     0.031 C 
ATOM     18  C   UNL     1       4.559   4.518  -4.006  1.00  0.00     0.029 A 
ATOM     19  N   UNL     1       5.691   6.380  -3.504  1.00  0.00    -0.354 N 
ATOM     20  C   UNL     1       6.622   7.399   0.581  1.00  0.00     0.074 A 
ATOM     21  C   UNL     1       6.126   6.395   1.498  1.00  0.00     0.031 C 
ATOM     22  C   UNL     1       4.853   5.132  -5.161  1.00  0.00     0.029 A 
ATOM     23  C   UNL     1       5.558   6.374  -4.870  1.00  0.00     0.049 A 
ATOM     24  H   UNL     1       6.154   7.094  -3.009  1.00  0.00     0.167 HD
ATOM     25  C   UNL     1       7.293   8.514   0.957  1.00  0.00     0.031 A 
ATOM     26  C   UNL     1       5.939   7.278  -5.791  1.00  0.00     0.031 A 
ATOM     27  C   UNL     1       7.784   9.513   0.043  1.00  0.00     0.049 A 
ATOM     28  C   UNL     1       6.644   8.524  -5.346  1.00  0.00     0.074 A 
ATOM     29  C   UNL     1       8.501  10.663   0.326  1.00  0.00     0.029 A 
ATOM     30  N   UNL     1       7.601   9.484  -1.331  1.00  0.00    -0.354 N 
ATOM     31  N   UNL     1       6.988   8.888  -4.134  1.00  0.00    -0.248 NA
ATOM     32  C   UNL     1       7.015   9.483  -6.395  1.00  0.00     0.031 C 
ATOM     33  C   UNL     1       8.707  11.356  -0.872  1.00  0.00     0.029 A 
ATOM     34  C   UNL     1       8.169  10.609  -1.907  1.00  0.00     0.049 A 
ATOM     35  H   UNL     1       7.136   8.770  -1.825  1.00  0.00     0.167 HD
ATOM     36  C   UNL     1       7.634  10.108  -4.276  1.00  0.00     0.074 A 
ATOM     37  C   UNL     1       7.647  10.414  -5.693  1.00  0.00     0.031 C 
ATOM     38  C   UNL     1       8.170  10.902  -3.318  1.00  0.00     0.031 A 
BRANCH  25  39
ATOM     39  C   UNL     1       7.506   8.731   2.430  1.00  0.00    -0.014 A 
ATOM     40  C   UNL     1       8.408   7.944   3.164  1.00  0.00     0.009 A 
ATOM     41  C   UNL     1       6.814   9.761   3.088  1.00  0.00     0.009 A 
ATOM     42  C   UNL     1       8.583   8.160   4.534  1.00  0.00     0.001 A 
ATOM     43  C   UNL     1       7.012   9.992   4.450  1.00  0.00     0.001 A 
ATOM     44  C   UNL     1       7.888   9.185   5.174  1.00  0.00     0.000 A 
ENDBRANCH  25  39
BRANCH  26  45
ATOM     45  C   UNL     1       5.644   7.032  -7.225  1.00  0.00    -0.014 A 
ATOM     46  C   UNL     1       6.674   6.716  -8.123  1.00  0.00     0.009 A 
ATOM     47  C   UNL     1       4.322   7.082  -7.696  1.00  0.00     0.009 A 
ATOM     48  C   UNL     1       6.386   6.470  -9.467  1.00  0.00     0.001 A 
ATOM     49  C   UNL     1       4.035   6.807  -9.034  1.00  0.00     0.001 A 
ATOM     50  C   UNL     1       5.068   6.509  -9.920  1.00  0.00     0.000 A 
ENDBRANCH  26  45
BRANCH  38  51
ATOM     51  C   UNL     1       8.848  12.162  -3.774  1.00  0.00    -0.014 A 
ATOM     52  C   UNL     1       8.109  13.264  -4.231  1.00  0.00     0.009 A 
ATOM     53  C   UNL     1      10.247  12.258  -3.711  1.00  0.00     0.009 A 
ATOM     54  C   UNL     1       8.762  14.427  -4.645  1.00  0.00     0.001 A 
ATOM     55  C   UNL     1      10.895  13.431  -4.100  1.00  0.00     0.001 A 
ATOM     56  C   UNL     1      10.152  14.511  -4.575  1.00  0.00     0.000 A 
ENDBRANCH  38  51
ENDBRANCH  12  13
ENDBRANCH   5   7
ENDBRANCH   2   3
ENDBRANCH   1   2
BRANCH   1  57
ATOM     57  C   UNL     1       4.486  -2.834   2.396  1.00  0.00     0.118 C 
BRANCH  57  58
ATOM     58  N   UNL     1       4.997  -3.987   1.660  1.00  0.00    -0.352 N 
ATOM     59  C   UNL     1       5.878  -4.974   2.037  1.00  0.00     0.251 C 
ATOM     60  H   UNL     1       4.654  -4.072   0.741  1.00  0.00     0.163 HD
ATOM     61  O   UNL     1       6.334  -5.743   1.194  1.00  0.00    -0.269 OA
BRANCH  59  62
ATOM     62  C   UNL     1       6.282  -5.113   3.450  1.00  0.00     0.041 A 
ATOM     63  C   UNL     1       7.620  -5.302   3.787  1.00  0.00     0.014 A 
ATOM     64  C   UNL     1       5.321  -5.028   4.454  1.00  0.00     0.040 A 
ATOM     65  C   UNL     1       7.992  -5.319   5.136  1.00  0.00     0.003 A 
ATOM     66  C   UNL     1       5.698  -4.936   5.795  1.00  0.00     0.042 A 
ATOM     67  C   UNL     1       7.036  -5.109   6.142  1.00  0.00     0.026 A 
BRANCH  66  68
ATOM     68  N   UNL     1       4.687  -4.473   6.642  1.00  0.00    -0.321 N 
ATOM     69  C   UNL     1       4.701  -4.046   7.933  1.00  0.00     0.272 C 
ATOM     70  H   UNL     1       3.795  -4.452   6.224  1.00  0.00     0.170 HD
ATOM     71  O   UNL     1       3.946  -3.114   8.213  1.00  0.00    -0.267 OA
BRANCH  69  72
ATOM     72  C   UNL     1       5.378  -4.786   8.961  1.00  0.00     0.105 A 
ATOM     73  C   UNL     1       6.233  -4.288   9.932  1.00  0.00     0.042 A 
ATOM     74  N   UNL     1       4.838  -5.941   9.498  1.00  0.00    -0.351 N 
ATOM     75  C   UNL     1       5.690  -4.751  11.169  1.00  0.00     0.000 A 
ATOM     76  C   UNL     1       4.756  -5.740  10.864  1.00  0.00     0.046 A 
ATOM     77  H   UNL     1       4.566  -6.748   9.005  1.00  0.00     0.167 HD
ATOM     78  C   UNL     1       5.786  -4.293  12.495  1.00  0.00     0.010 A 
ATOM     79  C   UNL     1       3.876  -6.277  11.807  1.00  0.00     0.026 A 
ATOM     80  C   UNL     1       4.868  -4.769  13.439  1.00  0.00     0.001 A 
ATOM     81  C   UNL     1       3.923  -5.736  13.095  1.00  0.00     0.002 A 
ENDBRANCH  69  72
ENDBRANCH  66  68
ENDBRANCH  59  62
ENDBRANCH  57  58
ENDBRANCH   1  57
TORSDOF 12
