REMARK SMILES C[C@@H](C(=O)NCCCNC(=O)c1ccc(-c2c3nc(c(-c4ccccc4)c4ccc([nH]4)c(-c4ccccc4)c4nc(c(-c5ccccc5)c5ccc2[nH]5)C=C4)C=C3)cc1)[N@@H+](C)Cc1ccc(-c2ccccc2)cc1
REMARK SMILES IDX 6 1 5 2 3 3 4 4 2 6 1 7 60 8 61 9 62 11 63 12 64 13 74 14
REMARK SMILES IDX 65 15 73 16 66 17 67 18 68 19 72 20 69 21 71 22 70 23 7 24
REMARK SMILES IDX 8 25 9 26 10 27 11 29 12 30 13 31 59 32 14 33 58 34 15 35
REMARK SMILES IDX 16 36 17 37 52 38 18 39 57 40 51 41 53 42 19 43 56 44 50 45
REMARK SMILES IDX 49 46 20 48 42 49 27 50 41 51 28 52 31 53 40 54 54 55 29 56
REMARK SMILES IDX 30 57 39 59 55 60 32 61 21 62 22 63 26 64 23 65 25 66 24 67
REMARK SMILES IDX 43 68 44 69 48 70 45 71 47 72 46 73 33 74 34 75 38 76 35 77
REMARK SMILES IDX 37 78 36 79
REMARK H PARENT 5 5 60 10 9 28 53 47 31 58
REMARK Flexibility Score: inf
ROOT
ATOM      1  C   UNL     1       3.508  -1.764  -0.195  1.00  0.00     0.118 C 
ENDROOT
BRANCH   1   2
ATOM      2  N   UNL     1       2.514  -2.537   0.514  1.00  0.00    -0.351 N 
ATOM      3  C   UNL     1       1.153  -2.507   0.467  1.00  0.00     0.278 C 
ATOM      4  O   UNL     1       0.617  -3.523   0.915  1.00  0.00    -0.268 OA
ATOM      5  H   UNL     1       2.885  -3.200   1.141  1.00  0.00     0.163 HD
BRANCH   3   6
ATOM      6  C   UNL     1       0.392  -1.332  -0.216  1.00  0.00     0.271 C 
ATOM      7  C   UNL     1       0.819   0.057   0.266  1.00  0.00     0.086 C 
BRANCH   6   8
ATOM      8  N   UNL     1      -1.089  -1.443  -0.157  1.00  0.00    -0.324 N 
ATOM      9  C   UNL     1      -1.628  -2.586  -0.879  1.00  0.00     0.333 C 
ATOM     10  H   UNL     1      -1.353  -0.617  -0.695  1.00  0.00     0.348 HD
BRANCH   8  11
ATOM     11  C   UNL     1      -1.778  -1.121   1.102  1.00  0.00     0.299 C 
BRANCH  11  12
ATOM     12  C   UNL     1      -1.511  -1.980   2.317  1.00  0.00     0.006 A 
ATOM     13  C   UNL     1      -1.976  -3.298   2.373  1.00  0.00     0.010 A 
ATOM     14  C   UNL     1      -0.803  -1.478   3.421  1.00  0.00     0.010 A 
ATOM     15  C   UNL     1      -1.665  -4.120   3.457  1.00  0.00     0.009 A 
ATOM     16  C   UNL     1      -0.514  -2.296   4.523  1.00  0.00     0.009 A 
ATOM     17  C   UNL     1      -0.917  -3.637   4.539  1.00  0.00    -0.018 A 
BRANCH  17  18
ATOM     18  C   UNL     1      -0.573  -4.547   5.636  1.00  0.00    -0.018 A 
ATOM     19  C   UNL     1       0.337  -5.597   5.423  1.00  0.00     0.009 A 
ATOM     20  C   UNL     1      -1.199  -4.449   6.885  1.00  0.00     0.009 A 
ATOM     21  C   UNL     1       0.589  -6.541   6.420  1.00  0.00     0.001 A 
ATOM     22  C   UNL     1      -0.950  -5.395   7.883  1.00  0.00     0.001 A 
ATOM     23  C   UNL     1      -0.062  -6.444   7.647  1.00  0.00     0.000 A 
ENDBRANCH  17  18
ENDBRANCH  11  12
ENDBRANCH   8  11
ENDBRANCH   6   8
ENDBRANCH   3   6
ENDBRANCH   1   2
BRANCH   1  24
ATOM     24  C   UNL     1       4.308  -0.855   0.730  1.00  0.00     0.042 C 
BRANCH  24  25
ATOM     25  C   UNL     1       4.989  -1.574   1.891  1.00  0.00     0.118 C 
BRANCH  25  26
ATOM     26  N   UNL     1       5.925  -2.598   1.457  1.00  0.00    -0.352 N 
ATOM     27  C   UNL     1       7.265  -2.744   1.712  1.00  0.00     0.251 C 
ATOM     28  H   UNL     1       5.535  -3.300   0.887  1.00  0.00     0.163 HD
ATOM     29  O   UNL     1       7.906  -3.594   1.101  1.00  0.00    -0.269 OA
BRANCH  27  30
ATOM     30  C   UNL     1       7.948  -1.884   2.704  1.00  0.00     0.039 A 
ATOM     31  C   UNL     1       9.246  -1.445   2.425  1.00  0.00     0.014 A 
ATOM     32  C   UNL     1       7.350  -1.558   3.923  1.00  0.00     0.014 A 
ATOM     33  C   UNL     1       9.928  -0.656   3.353  1.00  0.00     0.010 A 
ATOM     34  C   UNL     1       7.996  -0.700   4.809  1.00  0.00     0.010 A 
ATOM     35  C   UNL     1       9.302  -0.263   4.547  1.00  0.00    -0.014 A 
BRANCH  35  36
ATOM     36  C   UNL     1      10.025   0.555   5.553  1.00  0.00     0.031 A 
ATOM     37  C   UNL     1      10.331  -0.017   6.911  1.00  0.00     0.074 A 
ATOM     38  C   UNL     1      10.379   1.821   5.261  1.00  0.00     0.049 A 
ATOM     39  N   UNL     1      10.941   0.542   7.926  1.00  0.00    -0.248 NA
ATOM     40  C   UNL     1       9.868  -1.390   7.173  1.00  0.00     0.031 C 
ATOM     41  C   UNL     1      10.101   2.510   3.999  1.00  0.00     0.029 A 
ATOM     42  N   UNL     1      11.051   2.754   6.010  1.00  0.00    -0.354 N 
ATOM     43  C   UNL     1      10.919  -0.403   8.945  1.00  0.00     0.074 A 
ATOM     44  C   UNL     1      10.182  -1.543   8.450  1.00  0.00     0.031 C 
ATOM     45  C   UNL     1      10.624   3.746   4.051  1.00  0.00     0.029 A 
ATOM     46  C   UNL     1      11.246   3.946   5.356  1.00  0.00     0.049 A 
ATOM     47  H   UNL     1      11.364   2.585   6.928  1.00  0.00     0.167 HD
ATOM     48  C   UNL     1      11.486  -0.342  10.174  1.00  0.00     0.031 A 
ATOM     49  C   UNL     1      11.861   5.073   5.762  1.00  0.00     0.031 A 
ATOM     50  C   UNL     1      12.226   0.788  10.667  1.00  0.00     0.049 A 
ATOM     51  C   UNL     1      12.492   5.115   7.125  1.00  0.00     0.074 A 
ATOM     52  C   UNL     1      12.871   0.935  11.882  1.00  0.00     0.029 A 
ATOM     53  N   UNL     1      12.421   1.967   9.964  1.00  0.00    -0.354 N 
ATOM     54  N   UNL     1      12.517   4.191   8.054  1.00  0.00    -0.248 NA
ATOM     55  C   UNL     1      13.203   6.350   7.484  1.00  0.00     0.031 C 
ATOM     56  C   UNL     1      13.422   2.221  11.931  1.00  0.00     0.029 A 
ATOM     57  C   UNL     1      13.169   2.851  10.723  1.00  0.00     0.049 A 
ATOM     58  H   UNL     1      12.079   2.148   9.059  1.00  0.00     0.167 HD
ATOM     59  C   UNL     1      13.270   4.719   9.095  1.00  0.00     0.074 A 
ATOM     60  C   UNL     1      13.697   6.038   8.674  1.00  0.00     0.031 C 
ATOM     61  C   UNL     1      13.584   4.160  10.290  1.00  0.00     0.031 A 
BRANCH  48  62
ATOM     62  C   UNL     1      11.317  -1.543  11.066  1.00  0.00    -0.014 A 
ATOM     63  C   UNL     1      11.947  -2.763  10.769  1.00  0.00     0.009 A 
ATOM     64  C   UNL     1      10.524  -1.454  12.220  1.00  0.00     0.009 A 
ATOM     65  C   UNL     1      11.747  -3.881  11.581  1.00  0.00     0.001 A 
ATOM     66  C   UNL     1      10.353  -2.565  13.049  1.00  0.00     0.001 A 
ATOM     67  C   UNL     1      10.953  -3.780  12.722  1.00  0.00     0.000 A 
ENDBRANCH  48  62
BRANCH  49  68
ATOM     68  C   UNL     1      11.938   6.243   4.849  1.00  0.00    -0.014 A 
ATOM     69  C   UNL     1      13.156   6.607   4.255  1.00  0.00     0.009 A 
ATOM     70  C   UNL     1      10.790   6.998   4.561  1.00  0.00     0.009 A 
ATOM     71  C   UNL     1      13.229   7.719   3.413  1.00  0.00     0.001 A 
ATOM     72  C   UNL     1      10.861   8.092   3.696  1.00  0.00     0.001 A 
ATOM     73  C   UNL     1      12.081   8.458   3.130  1.00  0.00     0.000 A 
ENDBRANCH  49  68
BRANCH  61  74
ATOM     74  C   UNL     1      14.466   4.959  11.209  1.00  0.00    -0.014 A 
ATOM     75  C   UNL     1      13.994   6.105  11.866  1.00  0.00     0.009 A 
ATOM     76  C   UNL     1      15.785   4.536  11.439  1.00  0.00     0.009 A 
ATOM     77  C   UNL     1      14.839   6.835  12.705  1.00  0.00     0.001 A 
ATOM     78  C   UNL     1      16.617   5.250  12.302  1.00  0.00     0.001 A 
ATOM     79  C   UNL     1      16.148   6.405  12.925  1.00  0.00     0.000 A 
ENDBRANCH  61  74
ENDBRANCH  35  36
ENDBRANCH  27  30
ENDBRANCH  25  26
ENDBRANCH  24  25
ENDBRANCH   1  24
TORSDOF 14
