REMARK SMILES CC(=O)[C@]1(C)CC[C@@H](C(=O)NCCCNC(=O)c2ccc(-c3c4nc(c(-c5ccccc5)c5ccc([nH]5)c(-c5ccccc5)c5nc(c(-c6ccccc6)c6ccc3[nH]6)C=C5)C=C4)cc2)C1(C)C
REMARK SMILES IDX 13 1 12 2 11 3 9 4 10 5 8 7 4 8 6 9 66 10 5 11 7 12 67 13
REMARK SMILES IDX 68 14 2 15 1 16 3 17 14 18 15 19 16 20 17 22 18 23 19 24
REMARK SMILES IDX 65 25 20 26 64 27 21 28 22 29 23 30 58 31 24 32 63 33 57 34
REMARK SMILES IDX 59 35 25 36 62 37 56 38 55 39 26 41 48 42 33 43 47 44 34 45
REMARK SMILES IDX 37 46 46 47 60 48 35 49 36 50 45 52 61 53 38 54 27 55 28 56
REMARK SMILES IDX 32 57 29 58 31 59 30 60 49 61 50 62 54 63 51 64 53 65 52 66
REMARK SMILES IDX 39 67 40 68 44 69 41 70 43 71 42 72
REMARK H PARENT 11 6 15 21 59 40 37 51
REMARK Flexibility Score: inf
ROOT
ATOM      1  C   UNL     1       1.814  -3.804   2.636  1.00  0.00     0.042 C 
ENDROOT
BRANCH   1   2
ATOM      2  C   UNL     1       2.411  -4.384   1.361  1.00  0.00     0.117 C 
BRANCH   2   3
ATOM      3  N   UNL     1       1.681  -5.529   0.863  1.00  0.00    -0.356 N 
ATOM      4  C   UNL     1       1.022  -5.772  -0.294  1.00  0.00     0.223 C 
ATOM      5  O   UNL     1       0.483  -6.884  -0.374  1.00  0.00    -0.275 OA
ATOM      6  H   UNL     1       1.659  -6.285   1.493  1.00  0.00     0.163 HD
BRANCH   4   7
ATOM      7  C   UNL     1       0.882  -4.785  -1.461  1.00  0.00     0.085 C 
ATOM      8  C   UNL     1       0.680  -2.276  -1.523  1.00  0.00     0.032 C 
ATOM      9  C   UNL     1       2.159  -2.703  -1.726  1.00  0.00     0.016 C 
ATOM     10  C   UNL     1      -0.159  -3.625  -1.367  1.00  0.00    -0.012 C 
ATOM     11  C   UNL     1       0.618  -1.369  -0.275  1.00  0.00     0.020 C 
ATOM     12  C   UNL     1       2.178  -4.196  -2.003  1.00  0.00     0.015 C 
ATOM     13  C   UNL     1      -1.019  -3.708  -0.087  1.00  0.00     0.013 C 
ATOM     14  C   UNL     1      -1.195  -3.820  -2.510  1.00  0.00     0.013 C 
BRANCH   8  15
ATOM     15  C   UNL     1       0.327  -1.459  -2.799  1.00  0.00     0.136 C 
ATOM     16  C   UNL     1      -0.255  -0.074  -2.664  1.00  0.00     0.088 C 
ATOM     17  O   UNL     1       0.547  -1.909  -3.928  1.00  0.00    -0.299 OA
ENDBRANCH   8  15
ENDBRANCH   4   7
ENDBRANCH   2   3
ENDBRANCH   1   2
BRANCH   1  18
ATOM     18  C   UNL     1       1.926  -4.729   3.835  1.00  0.00     0.118 C 
BRANCH  18  19
ATOM     19  N   UNL     1       3.261  -4.712   4.408  1.00  0.00    -0.352 N 
ATOM     20  C   UNL     1       3.735  -4.084   5.535  1.00  0.00     0.251 C 
ATOM     21  H   UNL     1       3.933  -5.233   3.911  1.00  0.00     0.163 HD
ATOM     22  O   UNL     1       4.947  -3.986   5.704  1.00  0.00    -0.269 OA
BRANCH  20  23
ATOM     23  C   UNL     1       2.806  -3.508   6.537  1.00  0.00     0.039 A 
ATOM     24  C   UNL     1       3.164  -2.322   7.186  1.00  0.00     0.014 A 
ATOM     25  C   UNL     1       1.616  -4.150   6.885  1.00  0.00     0.014 A 
ATOM     26  C   UNL     1       2.310  -1.763   8.141  1.00  0.00     0.010 A 
ATOM     27  C   UNL     1       0.716  -3.536   7.752  1.00  0.00     0.010 A 
ATOM     28  C   UNL     1       1.064  -2.351   8.413  1.00  0.00    -0.014 A 
BRANCH  28  29
ATOM     29  C   UNL     1       0.136  -1.768   9.417  1.00  0.00     0.031 A 
ATOM     30  C   UNL     1      -0.253  -2.560  10.639  1.00  0.00     0.074 A 
ATOM     31  C   UNL     1      -0.398  -0.549   9.210  1.00  0.00     0.049 A 
ATOM     32  N   UNL     1      -1.069  -2.233  11.610  1.00  0.00    -0.248 NA
ATOM     33  C   UNL     1       0.324  -3.908  10.774  1.00  0.00     0.031 C 
ATOM     34  C   UNL     1      -0.147   0.304   8.046  1.00  0.00     0.029 A 
ATOM     35  N   UNL     1      -1.264   0.187   9.979  1.00  0.00    -0.354 N 
ATOM     36  C   UNL     1      -1.127  -3.344  12.445  1.00  0.00     0.074 A 
ATOM     37  C   UNL     1      -0.306  -4.369  11.843  1.00  0.00     0.031 C 
ATOM     38  C   UNL     1      -0.804   1.464   8.202  1.00  0.00     0.029 A 
ATOM     39  C   UNL     1      -1.551   1.424   9.454  1.00  0.00     0.049 A 
ATOM     40  H   UNL     1      -1.643  -0.140  10.827  1.00  0.00     0.167 HD
ATOM     41  C   UNL     1      -1.783  -3.493  13.620  1.00  0.00     0.031 A 
ATOM     42  C   UNL     1      -2.323   2.417   9.932  1.00  0.00     0.031 A 
ATOM     43  C   UNL     1      -2.569  -2.462  14.243  1.00  0.00     0.049 A 
ATOM     44  C   UNL     1      -3.023   2.238  11.250  1.00  0.00     0.074 A 
ATOM     45  C   UNL     1      -3.202  -2.485  15.473  1.00  0.00     0.029 A 
ATOM     46  N   UNL     1      -2.826  -1.222  13.682  1.00  0.00    -0.354 N 
ATOM     47  N   UNL     1      -3.002   1.211  12.064  1.00  0.00    -0.248 NA
ATOM     48  C   UNL     1      -3.843   3.364  11.718  1.00  0.00     0.031 C 
ATOM     49  C   UNL     1      -3.881  -1.273  15.637  1.00  0.00     0.029 A 
ATOM     50  C   UNL     1      -3.629  -0.478  14.530  1.00  0.00     0.049 A 
ATOM     51  H   UNL     1      -2.488  -0.915  12.810  1.00  0.00     0.167 HD
ATOM     52  C   UNL     1      -3.784   1.576  13.152  1.00  0.00     0.074 A 
ATOM     53  C   UNL     1      -4.250   2.924  12.901  1.00  0.00     0.031 C 
ATOM     54  C   UNL     1      -4.088   0.859  14.261  1.00  0.00     0.031 A 
BRANCH  41  55
ATOM     55  C   UNL     1      -1.679  -4.827  14.305  1.00  0.00    -0.014 A 
ATOM     56  C   UNL     1      -0.477  -5.256  14.892  1.00  0.00     0.009 A 
ATOM     57  C   UNL     1      -2.805  -5.661  14.381  1.00  0.00     0.009 A 
ATOM     58  C   UNL     1      -0.394  -6.510  15.501  1.00  0.00     0.001 A 
ATOM     59  C   UNL     1      -2.728  -6.902  15.017  1.00  0.00     0.001 A 
ATOM     60  C   UNL     1      -1.520  -7.330  15.566  1.00  0.00     0.000 A 
ENDBRANCH  41  55
BRANCH  42  61
ATOM     61  C   UNL     1      -2.441   3.694   9.182  1.00  0.00    -0.014 A 
ATOM     62  C   UNL     1      -1.814   4.855   9.661  1.00  0.00     0.009 A 
ATOM     63  C   UNL     1      -3.180   3.763   7.992  1.00  0.00     0.009 A 
ATOM     64  C   UNL     1      -1.945   6.064   8.976  1.00  0.00     0.001 A 
ATOM     65  C   UNL     1      -3.288   4.969   7.295  1.00  0.00     0.001 A 
ATOM     66  C   UNL     1      -2.678   6.120   7.792  1.00  0.00     0.000 A 
ENDBRANCH  42  61
BRANCH  54  67
ATOM     67  C   UNL     1      -4.941   1.534  15.296  1.00  0.00    -0.014 A 
ATOM     68  C   UNL     1      -6.311   1.752  15.081  1.00  0.00     0.009 A 
ATOM     69  C   UNL     1      -4.370   1.937  16.513  1.00  0.00     0.009 A 
ATOM     70  C   UNL     1      -7.083   2.394  16.050  1.00  0.00     0.001 A 
ATOM     71  C   UNL     1      -5.151   2.553  17.492  1.00  0.00     0.001 A 
ATOM     72  C   UNL     1      -6.504   2.791  17.255  1.00  0.00     0.000 A 
ENDBRANCH  54  67
ENDBRANCH  28  29
ENDBRANCH  20  23
ENDBRANCH  18  19
ENDBRANCH   1  18
TORSDOF 11
