REMARK SMILES CCCc1nn2c(=O)cc(CSc3ccccc3C(=O)NCCCNC(=O)c3ccc(-c4c5nc(c(-c6ccccc6)c6ccc([nH]6)c(-c6ccccc6)c6nc(c(-c7ccccc7)c7ccc4[nH]7)C=C6)C=C5)cc3)nc2s1
REMARK SMILES IDX 19 1 20 2 21 3 18 5 13 6 14 7 15 8 17 9 16 10 12 11 11 12
REMARK SMILES IDX 10 13 4 14 5 15 78 16 6 17 77 18 7 19 76 20 8 21 9 22 3 23
REMARK SMILES IDX 2 24 1 25 22 26 23 27 24 28 25 29 26 30 27 32 28 33 29 34
REMARK SMILES IDX 75 35 30 36 74 37 31 38 32 39 33 40 68 41 34 42 73 43 67 44
REMARK SMILES IDX 69 45 35 46 72 47 66 48 65 49 36 51 58 52 43 53 57 54 44 55
REMARK SMILES IDX 47 56 56 57 70 58 45 59 46 60 55 62 71 63 48 64 37 65 38 66
REMARK SMILES IDX 42 67 39 68 41 69 40 70 59 71 60 72 64 73 61 74 63 75 62 76
REMARK SMILES IDX 49 77 50 78 54 79 51 80 53 81 52 82
REMARK H PARENT 21 4 25 31 69 50 47 61
REMARK Flexibility Score: inf
ROOT
ATOM      1  C   UNL     1       0.868   9.559  -2.662  1.00  0.00     0.252 C 
ATOM      2  O   UNL     1       1.468  10.489  -2.109  1.00  0.00    -0.269 OA
ATOM      3  N   UNL     1      -0.345   9.898  -3.199  1.00  0.00    -0.352 N 
ATOM      4  H   UNL     1      -0.477  10.873  -3.250  1.00  0.00     0.163 HD
ENDROOT
BRANCH   1   5
ATOM      5  C   UNL     1       1.577   8.245  -2.753  1.00  0.00     0.053 A 
ATOM      6  C   UNL     1       1.099   6.935  -2.571  1.00  0.00     0.020 A 
ATOM      7  C   UNL     1       2.006   5.852  -2.673  1.00  0.00     0.016 A 
ATOM      8  C   UNL     1       3.371   6.046  -2.880  1.00  0.00     0.001 A 
ATOM      9  C   UNL     1       2.973   8.410  -2.955  1.00  0.00     0.015 A 
ATOM     10  C   UNL     1       3.860   7.333  -3.007  1.00  0.00     0.001 A 
BRANCH   6  11
ATOM     11  S   UNL     1      -0.554   6.396  -2.178  1.00  0.00    -0.119 SA
BRANCH  11  12
ATOM     12  C   UNL     1      -0.768   7.067  -0.488  1.00  0.00     0.131 C 
BRANCH  12  13
ATOM     13  C   UNL     1      -0.256   6.088   0.527  1.00  0.00     0.060 A 
ATOM     14  C   UNL     1       0.615   1.949   2.122  1.00  0.00     0.117 A 
ATOM     15  N   UNL     1       1.361   2.951   2.473  1.00  0.00    -0.156 NA
ATOM     16  S   UNL     1      -0.899   2.329   1.336  1.00  0.00    -0.079 S 
ATOM     17  N   UNL     1       0.801   4.105   1.984  1.00  0.00    -0.167 N 
ATOM     18  C   UNL     1      -0.342   3.960   1.251  1.00  0.00     0.215 A 
ATOM     19  C   UNL     1       1.381   5.344   2.168  1.00  0.00     0.275 A 
ATOM     20  N   UNL     1      -0.921   4.881   0.566  1.00  0.00    -0.223 NA
ATOM     21  O   UNL     1       2.304   5.624   2.919  1.00  0.00    -0.267 OA
ATOM     22  C   UNL     1       0.793   6.394   1.306  1.00  0.00     0.098 A 
BRANCH  14  23
ATOM     23  C   UNL     1       1.004   0.524   2.396  1.00  0.00     0.069 C 
BRANCH  23  24
ATOM     24  C   UNL     1       0.602  -0.501   1.336  1.00  0.00     0.004 C 
ATOM     25  C   UNL     1       1.222  -0.250  -0.033  1.00  0.00     0.004 C 
ENDBRANCH  23  24
ENDBRANCH  14  23
ENDBRANCH  12  13
ENDBRANCH  11  12
ENDBRANCH   6  11
ENDBRANCH   1   5
BRANCH   3  26
ATOM     26  C   UNL     1      -1.481   9.153  -3.712  1.00  0.00     0.118 C 
BRANCH  26  27
ATOM     27  C   UNL     1      -2.497   8.959  -2.584  1.00  0.00     0.042 C 
BRANCH  27  28
ATOM     28  C   UNL     1      -3.501  10.084  -2.403  1.00  0.00     0.118 C 
BRANCH  28  29
ATOM     29  N   UNL     1      -4.662   9.904  -3.253  1.00  0.00    -0.352 N 
ATOM     30  C   UNL     1      -5.932   9.468  -2.960  1.00  0.00     0.251 C 
ATOM     31  H   UNL     1      -4.517  10.134  -4.199  1.00  0.00     0.163 HD
ATOM     32  O   UNL     1      -6.663   9.134  -3.892  1.00  0.00    -0.269 OA
BRANCH  30  33
ATOM     33  C   UNL     1      -6.450   9.383  -1.568  1.00  0.00     0.039 A 
ATOM     34  C   UNL     1      -7.423   8.416  -1.281  1.00  0.00     0.014 A 
ATOM     35  C   UNL     1      -6.083  10.285  -0.567  1.00  0.00     0.014 A 
ATOM     36  C   UNL     1      -7.997   8.342  -0.006  1.00  0.00     0.010 A 
ATOM     37  C   UNL     1      -6.577  10.144   0.732  1.00  0.00     0.010 A 
ATOM     38  C   UNL     1      -7.564   9.192   1.022  1.00  0.00    -0.014 A 
BRANCH  38  39
ATOM     39  C   UNL     1      -8.165   9.130   2.383  1.00  0.00     0.031 A 
ATOM     40  C   UNL     1      -8.890  10.324   2.952  1.00  0.00     0.074 A 
ATOM     41  C   UNL     1      -8.033   8.014   3.128  1.00  0.00     0.049 A 
ATOM     42  N   UNL     1      -9.444  10.473   4.131  1.00  0.00    -0.248 NA
ATOM     43  C   UNL     1      -8.987  11.517   2.094  1.00  0.00     0.031 C 
ATOM     44  C   UNL     1      -7.333   6.796   2.714  1.00  0.00     0.029 A 
ATOM     45  N   UNL     1      -8.485   7.723   4.392  1.00  0.00    -0.354 N 
ATOM     46  C   UNL     1      -9.931  11.776   4.160  1.00  0.00     0.074 A 
ATOM     47  C   UNL     1      -9.560  12.392   2.906  1.00  0.00     0.031 C 
ATOM     48  C   UNL     1      -7.432   5.879   3.690  1.00  0.00     0.029 A 
ATOM     49  C   UNL     1      -8.159   6.457   4.816  1.00  0.00     0.049 A 
ATOM     50  H   UNL     1      -8.994   8.361   4.943  1.00  0.00     0.167 HD
ATOM     51  C   UNL     1     -10.642  12.399   5.130  1.00  0.00     0.031 A 
ATOM     52  C   UNL     1      -8.408   5.831   5.982  1.00  0.00     0.031 A 
ATOM     53  C   UNL     1     -11.024  11.785   6.374  1.00  0.00     0.049 A 
ATOM     54  C   UNL     1      -9.176   6.552   7.055  1.00  0.00     0.074 A 
ATOM     55  C   UNL     1     -11.789  12.316   7.398  1.00  0.00     0.029 A 
ATOM     56  N   UNL     1     -10.666  10.504   6.764  1.00  0.00    -0.354 N 
ATOM     57  N   UNL     1      -9.684   7.761   7.038  1.00  0.00    -0.248 NA
ATOM     58  C   UNL     1      -9.416   5.816   8.305  1.00  0.00     0.031 C 
ATOM     59  C   UNL     1     -11.842  11.378   8.434  1.00  0.00     0.029 A 
ATOM     60  C   UNL     1     -11.169  10.238   8.026  1.00  0.00     0.049 A 
ATOM     61  H   UNL     1     -10.133   9.877   6.224  1.00  0.00     0.167 HD
ATOM     62  C   UNL     1     -10.327   7.919   8.259  1.00  0.00     0.074 A 
ATOM     63  C   UNL     1     -10.161   6.676   8.984  1.00  0.00     0.031 C 
ATOM     64  C   UNL     1     -10.996   8.997   8.737  1.00  0.00     0.031 A 
BRANCH  51  65
ATOM     65  C   UNL     1     -11.046  13.830   4.888  1.00  0.00    -0.014 A 
ATOM     66  C   UNL     1     -11.996  14.166   3.910  1.00  0.00     0.009 A 
ATOM     67  C   UNL     1     -10.495  14.854   5.675  1.00  0.00     0.009 A 
ATOM     68  C   UNL     1     -12.354  15.500   3.697  1.00  0.00     0.001 A 
ATOM     69  C   UNL     1     -10.879  16.183   5.483  1.00  0.00     0.001 A 
ATOM     70  C   UNL     1     -11.799  16.506   4.487  1.00  0.00     0.000 A 
ENDBRANCH  51  65
BRANCH  52  71
ATOM     71  C   UNL     1      -7.932   4.438   6.198  1.00  0.00    -0.014 A 
ATOM     72  C   UNL     1      -8.846   3.376   6.290  1.00  0.00     0.009 A 
ATOM     73  C   UNL     1      -6.561   4.162   6.323  1.00  0.00     0.009 A 
ATOM     74  C   UNL     1      -8.400   2.075   6.532  1.00  0.00     0.001 A 
ATOM     75  C   UNL     1      -6.115   2.855   6.532  1.00  0.00     0.001 A 
ATOM     76  C   UNL     1      -7.035   1.815   6.647  1.00  0.00     0.000 A 
ENDBRANCH  52  71
BRANCH  64  77
ATOM     77  C   UNL     1     -11.634   8.867  10.093  1.00  0.00    -0.014 A 
ATOM     78  C   UNL     1     -10.864   8.815  11.264  1.00  0.00     0.009 A 
ATOM     79  C   UNL     1     -13.034   8.838  10.199  1.00  0.00     0.009 A 
ATOM     80  C   UNL     1     -11.482   8.699  12.511  1.00  0.00     0.001 A 
ATOM     81  C   UNL     1     -13.650   8.757  11.448  1.00  0.00     0.001 A 
ATOM     82  C   UNL     1     -12.873   8.676  12.602  1.00  0.00     0.000 A 
ENDBRANCH  64  77
ENDBRANCH  38  39
ENDBRANCH  30  33
ENDBRANCH  28  29
ENDBRANCH  27  28
ENDBRANCH  26  27
ENDBRANCH   3  26
TORSDOF 15
