REMARK SMILES CC1(C)[C@H](C(=O)NCCCNC(=O)c2ccc(-c3c4nc(c(-c5ccccc5)c5ccc([nH]5)c(-c5ccccc5)c5nc(c(-c6ccccc6)c6ccc3[nH]6)C=C5)C=C4)cc2)[C@@H]1c1nc2ccc(F)cc2s1
REMARK SMILES IDX 9 1 8 2 7 3 5 4 6 5 4 7 1 8 2 9 3 10 62 11 63 12 64 13 72 14
REMARK SMILES IDX 65 15 71 16 66 17 70 18 67 19 68 20 69 21 10 22 11 23 12 24
REMARK SMILES IDX 13 26 14 27 15 28 61 29 16 30 60 31 17 32 18 33 19 34 54 35
REMARK SMILES IDX 20 36 59 37 53 38 55 39 21 40 58 41 52 42 51 43 22 45 44 46
REMARK SMILES IDX 29 47 43 48 30 49 33 50 42 51 56 52 31 53 32 54 41 56 57 57
REMARK SMILES IDX 34 58 23 59 24 60 28 61 25 62 27 63 26 64 45 65 46 66 50 67
REMARK SMILES IDX 47 68 49 69 48 70 35 71 36 72 40 73 37 74 39 75 38 76
REMARK H PARENT 7 6 11 25 55 44 33 55
REMARK Flexibility Score: inf
ROOT
ATOM      1  C   UNL     1      -0.273   4.051  -0.930  1.00  0.00     0.042 C 
ENDROOT
BRANCH   1   2
ATOM      2  C   UNL     1      -1.364   3.089  -0.503  1.00  0.00     0.117 C 
BRANCH   2   3
ATOM      3  N   UNL     1      -1.697   2.118  -1.503  1.00  0.00    -0.356 N 
ATOM      4  C   UNL     1      -1.619   0.756  -1.523  1.00  0.00     0.224 C 
ATOM      5  O   UNL     1      -1.981   0.233  -2.580  1.00  0.00    -0.275 OA
ATOM      6  H   UNL     1      -2.050   2.509  -2.334  1.00  0.00     0.163 HD
BRANCH   4   7
ATOM      7  C   UNL     1      -1.153  -0.167  -0.452  1.00  0.00     0.095 C 
ATOM      8  C   UNL     1       0.973  -1.452   0.172  1.00  0.00     0.013 C 
ATOM      9  C   UNL     1       0.215  -0.140   0.251  1.00  0.00    -0.013 C 
ATOM     10  C   UNL     1       1.142   1.037   0.095  1.00  0.00     0.013 C 
ATOM     11  C   UNL     1      -1.085  -0.116   1.043  1.00  0.00     0.068 C 
BRANCH  11  12
ATOM     12  C   UNL     1      -1.762   0.956   1.882  1.00  0.00     0.098 A 
ATOM     13  N   UNL     1      -3.073   0.952   1.966  1.00  0.00    -0.241 NA
ATOM     14  S   UNL     1      -0.980   2.137   2.852  1.00  0.00    -0.118 S 
ATOM     15  C   UNL     1      -3.505   2.119   2.568  1.00  0.00     0.082 A 
ATOM     16  C   UNL     1      -2.488   2.967   3.017  1.00  0.00     0.057 A 
ATOM     17  C   UNL     1      -4.848   2.526   2.709  1.00  0.00     0.033 A 
ATOM     18  C   UNL     1      -2.761   4.253   3.507  1.00  0.00     0.060 A 
ATOM     19  C   UNL     1      -5.133   3.799   3.213  1.00  0.00     0.041 A 
ATOM     20  C   UNL     1      -4.097   4.647   3.578  1.00  0.00     0.124 A 
ATOM     21  F   UNL     1      -4.391   5.878   4.016  1.00  0.00    -0.207 F 
ENDBRANCH  11  12
ENDBRANCH   4   7
ENDBRANCH   2   3
ENDBRANCH   1   2
BRANCH   1  22
ATOM     22  C   UNL     1      -0.795   5.182  -1.791  1.00  0.00     0.118 C 
BRANCH  22  23
ATOM     23  N   UNL     1      -1.653   6.092  -1.040  1.00  0.00    -0.352 N 
ATOM     24  C   UNL     1      -1.440   7.391  -0.645  1.00  0.00     0.251 C 
ATOM     25  H   UNL     1      -2.522   5.715  -0.774  1.00  0.00     0.163 HD
ATOM     26  O   UNL     1      -2.187   7.909   0.176  1.00  0.00    -0.269 OA
BRANCH  24  27
ATOM     27  C   UNL     1      -0.299   8.155  -1.194  1.00  0.00     0.039 A 
ATOM     28  C   UNL     1       0.410   9.020  -0.357  1.00  0.00     0.014 A 
ATOM     29  C   UNL     1       0.069   8.023  -2.533  1.00  0.00     0.014 A 
ATOM     30  C   UNL     1       1.534   9.688  -0.848  1.00  0.00     0.010 A 
ATOM     31  C   UNL     1       1.253   8.588  -2.984  1.00  0.00     0.010 A 
ATOM     32  C   UNL     1       1.990   9.443  -2.153  1.00  0.00    -0.014 A 
BRANCH  32  33
ATOM     33  C   UNL     1       3.211  10.089  -2.693  1.00  0.00     0.031 A 
ATOM     34  C   UNL     1       3.110  10.973  -3.909  1.00  0.00     0.074 A 
ATOM     35  C   UNL     1       4.412   9.828  -2.140  1.00  0.00     0.049 A 
ATOM     36  N   UNL     1       4.065  11.544  -4.597  1.00  0.00    -0.248 NA
ATOM     37  C   UNL     1       1.758  11.221  -4.442  1.00  0.00     0.031 C 
ATOM     38  C   UNL     1       4.647   8.964  -0.981  1.00  0.00     0.029 A 
ATOM     39  N   UNL     1       5.666  10.262  -2.489  1.00  0.00    -0.354 N 
ATOM     40  C   UNL     1       3.432  12.200  -5.645  1.00  0.00     0.074 A 
ATOM     41  C   UNL     1       2.021  11.904  -5.545  1.00  0.00     0.031 C 
ATOM     42  C   UNL     1       5.960   8.960  -0.694  1.00  0.00     0.029 A 
ATOM     43  C   UNL     1       6.664   9.775  -1.678  1.00  0.00     0.049 A 
ATOM     44  H   UNL     1       5.836  10.866  -3.248  1.00  0.00     0.167 HD
ATOM     45  C   UNL     1       3.971  13.003  -6.592  1.00  0.00     0.031 A 
ATOM     46  C   UNL     1       7.997   9.956  -1.731  1.00  0.00     0.031 A 
ATOM     47  C   UNL     1       5.372  13.311  -6.682  1.00  0.00     0.049 A 
ATOM     48  C   UNL     1       8.573  10.823  -2.818  1.00  0.00     0.074 A 
ATOM     49  C   UNL     1       6.014  14.144  -7.580  1.00  0.00     0.029 A 
ATOM     50  N   UNL     1       6.345  12.799  -5.839  1.00  0.00    -0.354 N 
ATOM     51  N   UNL     1       7.953  11.481  -3.768  1.00  0.00    -0.248 NA
ATOM     52  C   UNL     1      10.034  10.980  -2.832  1.00  0.00     0.031 C 
ATOM     53  C   UNL     1       7.385  14.096  -7.313  1.00  0.00     0.029 A 
ATOM     54  C   UNL     1       7.587  13.285  -6.208  1.00  0.00     0.049 A 
ATOM     55  H   UNL     1       6.178  12.182  -5.090  1.00  0.00     0.167 HD
ATOM     56  C   UNL     1       8.944  12.161  -4.465  1.00  0.00     0.074 A 
ATOM     57  C   UNL     1      10.202  11.847  -3.821  1.00  0.00     0.031 C 
ATOM     58  C   UNL     1       8.825  12.974  -5.543  1.00  0.00     0.031 A 
BRANCH  45  59
ATOM     59  C   UNL     1       3.038  13.613  -7.601  1.00  0.00    -0.014 A 
ATOM     60  C   UNL     1       2.113  14.602  -7.230  1.00  0.00     0.009 A 
ATOM     61  C   UNL     1       3.115  13.228  -8.949  1.00  0.00     0.009 A 
ATOM     62  C   UNL     1       1.264  15.171  -8.181  1.00  0.00     0.001 A 
ATOM     63  C   UNL     1       2.287  13.822  -9.903  1.00  0.00     0.001 A 
ATOM     64  C   UNL     1       1.356  14.786  -9.517  1.00  0.00     0.000 A 
ENDBRANCH  45  59
BRANCH  46  65
ATOM     65  C   UNL     1       8.888   9.315  -0.727  1.00  0.00    -0.014 A 
ATOM     66  C   UNL     1       9.599  10.098   0.197  1.00  0.00     0.009 A 
ATOM     67  C   UNL     1       9.066   7.923  -0.710  1.00  0.00     0.009 A 
ATOM     68  C   UNL     1      10.500   9.505   1.085  1.00  0.00     0.001 A 
ATOM     69  C   UNL     1       9.941   7.329   0.202  1.00  0.00     0.001 A 
ATOM     70  C   UNL     1      10.669   8.121   1.088  1.00  0.00     0.000 A 
ENDBRANCH  46  65
BRANCH  58  71
ATOM     71  C   UNL     1      10.076  13.630  -6.056  1.00  0.00    -0.014 A 
ATOM     72  C   UNL     1      11.067  12.898  -6.726  1.00  0.00     0.009 A 
ATOM     73  C   UNL     1      10.235  15.018  -5.909  1.00  0.00     0.009 A 
ATOM     74  C   UNL     1      12.210  13.539  -7.209  1.00  0.00     0.001 A 
ATOM     75  C   UNL     1      11.361  15.660  -6.423  1.00  0.00     0.001 A 
ATOM     76  C   UNL     1      12.352  14.918  -7.063  1.00  0.00     0.000 A 
ENDBRANCH  58  71
ENDBRANCH  32  33
ENDBRANCH  24  27
ENDBRANCH  22  23
ENDBRANCH   1  22
TORSDOF 11
