REMARK SMILES Cc1cc(C)c2c(=O)n(CCCC(=O)NCCCNC(=O)c3ccc(-c4c5nc(c(-c6ccccc6)c6ccc([nH]6)c(-c6ccccc6)c6nc(c(-c7ccccc7)c7ccc4[nH]7)C=C6)C=C5)cc3)sc2n1
REMARK SMILES IDX 16 1 15 2 13 3 14 4 12 6 11 7 10 8 9 9 1 10 2 11 3 12 72 13
REMARK SMILES IDX 4 14 71 15 5 16 6 17 70 18 7 19 8 20 17 21 18 22 19 23 20 24
REMARK SMILES IDX 21 26 22 27 23 28 69 29 24 30 68 31 25 32 26 33 27 34 62 35
REMARK SMILES IDX 28 36 67 37 61 38 63 39 29 40 66 41 60 42 59 43 30 45 52 46
REMARK SMILES IDX 37 47 51 48 38 49 41 50 50 51 64 52 39 53 40 54 49 56 65 57
REMARK SMILES IDX 42 58 31 59 32 60 36 61 33 62 35 63 34 64 53 65 54 66 58 67
REMARK SMILES IDX 55 68 57 69 56 70 43 71 44 72 48 73 45 74 47 75 46 76
REMARK H PARENT 15 5 19 25 63 44 41 55
REMARK Flexibility Score: inf
ROOT
ATOM      1  C   UNL     1       1.021   6.323  -1.753  1.00  0.00     0.117 C 
ENDROOT
BRANCH   1   2
ATOM      2  N   UNL     1       1.941   7.423  -1.997  1.00  0.00    -0.356 N 
ATOM      3  C   UNL     1       2.924   7.944  -1.212  1.00  0.00     0.220 C 
ATOM      4  O   UNL     1       3.508   8.953  -1.611  1.00  0.00    -0.275 OA
ATOM      5  H   UNL     1       1.837   7.861  -2.872  1.00  0.00     0.163 HD
BRANCH   3   6
ATOM      6  C   UNL     1       3.343   7.260   0.073  1.00  0.00     0.102 C 
BRANCH   6   7
ATOM      7  C   UNL     1       2.593   7.623   1.359  1.00  0.00     0.033 C 
BRANCH   7   8
ATOM      8  C   UNL     1       1.246   6.969   1.695  1.00  0.00     0.139 C 
BRANCH   8   9
ATOM      9  N   UNL     1       1.091   5.525   1.737  1.00  0.00    -0.262 N 
ATOM     10  C   UNL     1       0.811  -0.353   0.102  1.00  0.00     0.067 C 
ATOM     11  C   UNL     1       0.496   0.979   0.716  1.00  0.00     0.039 A 
ATOM     12  C   UNL     1      -0.788   1.242   1.216  1.00  0.00     0.027 A 
ATOM     13  N   UNL     1       1.495   1.892   0.745  1.00  0.00    -0.241 NA
ATOM     14  C   UNL     1      -1.096   2.514   1.726  1.00  0.00    -0.033 A 
ATOM     15  C   UNL     1       1.167   3.099   1.233  1.00  0.00     0.146 A 
ATOM     16  C   UNL     1      -2.434   2.791   2.337  1.00  0.00     0.045 C 
ATOM     17  C   UNL     1      -0.094   3.474   1.657  1.00  0.00     0.081 A 
ATOM     18  S   UNL     1       2.346   4.406   1.444  1.00  0.00    -0.035 S 
ATOM     19  C   UNL     1      -0.162   4.931   1.913  1.00  0.00     0.270 A 
ATOM     20  O   UNL     1      -1.209   5.516   2.145  1.00  0.00    -0.268 OA
ENDBRANCH   8   9
ENDBRANCH   7   8
ENDBRANCH   6   7
ENDBRANCH   3   6
ENDBRANCH   1   2
BRANCH   1  21
ATOM     21  C   UNL     1      -0.369   6.831  -1.355  1.00  0.00     0.042 C 
BRANCH  21  22
ATOM     22  C   UNL     1      -1.221   7.224  -2.541  1.00  0.00     0.118 C 
BRANCH  22  23
ATOM     23  N   UNL     1      -1.818   6.091  -3.251  1.00  0.00    -0.352 N 
ATOM     24  C   UNL     1      -2.630   6.151  -4.382  1.00  0.00     0.251 C 
ATOM     25  H   UNL     1      -1.626   5.195  -2.893  1.00  0.00     0.163 HD
ATOM     26  O   UNL     1      -3.355   5.237  -4.704  1.00  0.00    -0.269 OA
BRANCH  24  27
ATOM     27  C   UNL     1      -2.569   7.397  -5.175  1.00  0.00     0.039 A 
ATOM     28  C   UNL     1      -3.712   8.091  -5.574  1.00  0.00     0.014 A 
ATOM     29  C   UNL     1      -1.306   7.935  -5.359  1.00  0.00     0.014 A 
ATOM     30  C   UNL     1      -3.562   9.392  -6.062  1.00  0.00     0.010 A 
ATOM     31  C   UNL     1      -1.198   9.280  -5.578  1.00  0.00     0.010 A 
ATOM     32  C   UNL     1      -2.296   9.999  -6.029  1.00  0.00    -0.014 A 
BRANCH  32  33
ATOM     33  C   UNL     1      -2.084  11.387  -6.433  1.00  0.00     0.031 A 
ATOM     34  C   UNL     1      -3.045  12.397  -5.910  1.00  0.00     0.074 A 
ATOM     35  C   UNL     1      -0.986  11.793  -7.112  1.00  0.00     0.049 A 
ATOM     36  N   UNL     1      -3.907  13.077  -6.590  1.00  0.00    -0.248 NA
ATOM     37  C   UNL     1      -3.108  12.634  -4.460  1.00  0.00     0.031 C 
ATOM     38  C   UNL     1       0.217  11.034  -7.490  1.00  0.00     0.029 A 
ATOM     39  N   UNL     1      -0.676  13.048  -7.527  1.00  0.00    -0.354 N 
ATOM     40  C   UNL     1      -4.529  13.940  -5.694  1.00  0.00     0.074 A 
ATOM     41  C   UNL     1      -4.082  13.546  -4.379  1.00  0.00     0.031 C 
ATOM     42  C   UNL     1       1.209  11.884  -7.832  1.00  0.00     0.029 A 
ATOM     43  C   UNL     1       0.643  13.212  -7.923  1.00  0.00     0.049 A 
ATOM     44  H   UNL     1      -1.333  13.781  -7.546  1.00  0.00     0.167 HD
ATOM     45  C   UNL     1      -5.230  15.031  -6.113  1.00  0.00     0.031 A 
ATOM     46  C   UNL     1       1.231  14.362  -8.322  1.00  0.00     0.031 A 
ATOM     47  C   UNL     1      -5.491  14.994  -7.527  1.00  0.00     0.049 A 
ATOM     48  C   UNL     1       0.150  15.266  -8.767  1.00  0.00     0.074 A 
ATOM     49  C   UNL     1      -6.202  14.158  -8.365  1.00  0.00     0.029 A 
ATOM     50  N   UNL     1      -4.645  15.706  -8.343  1.00  0.00    -0.354 N 
ATOM     51  N   UNL     1      -0.587  15.036  -9.815  1.00  0.00    -0.248 NA
ATOM     52  C   UNL     1      -0.402  16.205  -7.807  1.00  0.00     0.031 C 
ATOM     53  C   UNL     1      -5.402  14.054  -9.542  1.00  0.00     0.029 A 
ATOM     54  C   UNL     1      -4.287  14.880  -9.378  1.00  0.00     0.049 A 
ATOM     55  H   UNL     1      -4.350  16.636  -8.209  1.00  0.00     0.167 HD
ATOM     56  C   UNL     1      -1.860  15.443  -9.447  1.00  0.00     0.074 A 
ATOM     57  C   UNL     1      -1.661  16.259  -8.250  1.00  0.00     0.031 C 
ATOM     58  C   UNL     1      -2.972  14.856  -9.982  1.00  0.00     0.031 A 
BRANCH  45  59
ATOM     59  C   UNL     1      -5.395  16.294  -5.311  1.00  0.00    -0.014 A 
ATOM     60  C   UNL     1      -6.287  17.284  -5.762  1.00  0.00     0.009 A 
ATOM     61  C   UNL     1      -4.517  16.655  -4.273  1.00  0.00     0.009 A 
ATOM     62  C   UNL     1      -6.270  18.579  -5.227  1.00  0.00     0.001 A 
ATOM     63  C   UNL     1      -4.523  17.935  -3.711  1.00  0.00     0.001 A 
ATOM     64  C   UNL     1      -5.385  18.904  -4.204  1.00  0.00     0.000 A 
ENDBRANCH  45  59
BRANCH  46  65
ATOM     65  C   UNL     1       2.610  14.823  -8.090  1.00  0.00    -0.014 A 
ATOM     66  C   UNL     1       3.138  15.880  -8.845  1.00  0.00     0.009 A 
ATOM     67  C   UNL     1       3.295  14.435  -6.924  1.00  0.00     0.009 A 
ATOM     68  C   UNL     1       4.274  16.571  -8.411  1.00  0.00     0.001 A 
ATOM     69  C   UNL     1       4.431  15.125  -6.492  1.00  0.00     0.001 A 
ATOM     70  C   UNL     1       4.907  16.208  -7.224  1.00  0.00     0.000 A 
ENDBRANCH  46  65
BRANCH  58  71
ATOM     71  C   UNL     1      -2.773  13.894 -11.134  1.00  0.00    -0.014 A 
ATOM     72  C   UNL     1      -2.026  12.706 -11.021  1.00  0.00     0.009 A 
ATOM     73  C   UNL     1      -3.476  14.118 -12.326  1.00  0.00     0.009 A 
ATOM     74  C   UNL     1      -1.961  11.790 -12.077  1.00  0.00     0.001 A 
ATOM     75  C   UNL     1      -3.428  13.194 -13.374  1.00  0.00     0.001 A 
ATOM     76  C   UNL     1      -2.666  12.034 -13.252  1.00  0.00     0.000 A 
ENDBRANCH  58  71
ENDBRANCH  32  33
ENDBRANCH  24  27
ENDBRANCH  22  23
ENDBRANCH  21  22
ENDBRANCH   1  21
TORSDOF 13
