REMARK SMILES Cc1coc2cc3c(cc12)[C@@H](C)[C@H](CCC(=O)N[C@@H](Cc1c[nH]c2ccccc12)C(=O)NCCCNC(=O)c1ccc(-c2c4nc(c(-c5ccccc5)c5ccc([nH]5)c(-c5ccccc5)c5nc(c(-c6ccccc6)c6ccc2[nH]6)C=C5)C=C4)cc1)C(=O)O3
REMARK SMILES IDX 33 1 32 2 30 3 31 4 19 6 18 7 16 8 17 9 15 11 14 12 13 13
REMARK SMILES IDX 1 14 2 15 3 16 10 17 4 18 5 19 9 20 6 21 8 22 7 23 11 24
REMARK SMILES IDX 89 25 12 26 87 27 88 28 20 29 21 30 22 31 29 32 23 33 24 34
REMARK SMILES IDX 28 35 25 37 27 38 26 39 34 40 35 41 36 42 37 43 38 45 39 46
REMARK SMILES IDX 40 47 86 48 41 49 85 50 42 51 43 52 44 53 79 54 45 55 84 56
REMARK SMILES IDX 78 57 80 58 46 59 83 60 77 61 76 62 47 64 69 65 54 66 68 67
REMARK SMILES IDX 55 68 58 69 67 70 81 71 56 72 57 73 66 75 82 76 59 77 48 78
REMARK SMILES IDX 49 79 53 80 50 81 52 82 51 83 70 84 71 85 75 86 72 87 74 88
REMARK SMILES IDX 73 89 60 90 61 91 65 92 62 93 64 94 63 95
REMARK H PARENT 32 5 18 10 23 36 36 44 80 63 58 74
REMARK Flexibility Score: inf
ROOT
ATOM      1  C   UNL     1      -0.447   2.573  10.168  1.00  0.00     0.117 C 
ENDROOT
BRANCH   1   2
ATOM      2  N   UNL     1      -1.053   1.391  10.757  1.00  0.00    -0.354 N 
ATOM      3  C   UNL     1      -1.436   0.225  10.157  1.00  0.00     0.242 C 
ATOM      4  O   UNL     1      -1.503  -0.788  10.859  1.00  0.00    -0.273 OA
ATOM      5  H   UNL     1      -1.211   1.437  11.727  1.00  0.00     0.163 HD
BRANCH   3   6
ATOM      6  C   UNL     1      -1.698   0.144   8.651  1.00  0.00     0.175 C 
BRANCH   6   7
ATOM      7  N   UNL     1      -2.649   1.220   8.281  1.00  0.00    -0.344 N 
ATOM      8  C   UNL     1      -3.875   1.267   7.686  1.00  0.00     0.220 C 
ATOM      9  O   UNL     1      -4.465   2.350   7.668  1.00  0.00    -0.275 OA
ATOM     10  H   UNL     1      -2.316   2.114   8.524  1.00  0.00     0.164 HD
BRANCH   8  11
ATOM     11  C   UNL     1      -4.484   0.070   6.974  1.00  0.00     0.101 C 
BRANCH  11  12
ATOM     12  C   UNL     1      -4.076  -0.110   5.488  1.00  0.00     0.026 C 
BRANCH  12  13
ATOM     13  C   UNL     1      -2.567   0.031   5.289  1.00  0.00     0.107 C 
ATOM     14  C   UNL     1       1.570  -0.217  -0.597  1.00  0.00     0.048 C 
ATOM     15  C   UNL     1       1.162   0.933   0.238  1.00  0.00    -0.005 A 
ATOM     16  C   UNL     1       1.467   2.262   0.016  1.00  0.00     0.199 A 
ATOM     17  C   UNL     1       0.308   0.914   1.378  1.00  0.00     0.024 A 
ATOM     18  O   UNL     1       0.815   3.063   0.893  1.00  0.00    -0.464 OA
ATOM     19  C   UNL     1       0.068   2.249   1.679  1.00  0.00     0.137 A 
ATOM     20  C   UNL     1      -0.326  -0.087   2.148  1.00  0.00     0.020 A 
ATOM     21  C   UNL     1      -0.852   2.681   2.613  1.00  0.00     0.095 A 
ATOM     22  C   UNL     1      -1.250   0.295   3.131  1.00  0.00    -0.001 A 
ATOM     23  C   UNL     1      -1.542   1.664   3.268  1.00  0.00     0.138 A 
ATOM     24  C   UNL     1      -1.911  -0.698   4.080  1.00  0.00     0.034 C 
ATOM     25  O   UNL     1      -2.573   2.079   4.082  1.00  0.00    -0.426 OA
ATOM     26  C   UNL     1      -0.869  -1.718   4.610  1.00  0.00     0.014 C 
ATOM     27  C   UNL     1      -2.187   1.515   5.256  1.00  0.00     0.314 C 
ATOM     28  O   UNL     1      -1.630   2.155   6.119  1.00  0.00    -0.251 OA
ENDBRANCH  12  13
ENDBRANCH  11  12
ENDBRANCH   8  11
ENDBRANCH   6   7
BRANCH   6  29
ATOM     29  C   UNL     1      -0.368  -0.083   7.853  1.00  0.00     0.072 C 
BRANCH  29  30
ATOM     30  C   UNL     1       0.834   0.805   7.973  1.00  0.00    -0.020 A 
ATOM     31  C   UNL     1       1.199   1.851   7.143  1.00  0.00     0.087 A 
ATOM     32  C   UNL     1       1.891   0.667   8.925  1.00  0.00     0.003 A 
ATOM     33  N   UNL     1       2.337   2.429   7.637  1.00  0.00    -0.361 N 
ATOM     34  C   UNL     1       2.752   1.752   8.757  1.00  0.00     0.046 A 
ATOM     35  C   UNL     1       2.127  -0.234   9.979  1.00  0.00     0.010 A 
ATOM     36  H   UNL     1       2.790   3.212   7.248  1.00  0.00     0.166 HD
ATOM     37  C   UNL     1       3.788   2.035   9.650  1.00  0.00     0.026 A 
ATOM     38  C   UNL     1       3.159   0.031  10.879  1.00  0.00     0.001 A 
ATOM     39  C   UNL     1       3.959   1.161  10.727  1.00  0.00     0.002 A 
ENDBRANCH  29  30
ENDBRANCH   6  29
ENDBRANCH   3   6
ENDBRANCH   1   2
BRANCH   1  40
ATOM     40  C   UNL     1      -0.726   3.861  10.914  1.00  0.00     0.042 C 
BRANCH  40  41
ATOM     41  C   UNL     1      -0.245   3.822  12.365  1.00  0.00     0.118 C 
BRANCH  41  42
ATOM     42  N   UNL     1       1.110   3.327  12.541  1.00  0.00    -0.352 N 
ATOM     43  C   UNL     1       2.331   3.914  12.704  1.00  0.00     0.251 C 
ATOM     44  H   UNL     1       1.157   2.343  12.542  1.00  0.00     0.163 HD
ATOM     45  O   UNL     1       3.241   3.198  13.128  1.00  0.00    -0.269 OA
BRANCH  43  46
ATOM     46  C   UNL     1       2.651   5.313  12.332  1.00  0.00     0.039 A 
ATOM     47  C   UNL     1       1.763   6.208  11.739  1.00  0.00     0.014 A 
ATOM     48  C   UNL     1       3.995   5.699  12.495  1.00  0.00     0.014 A 
ATOM     49  C   UNL     1       2.222   7.407  11.218  1.00  0.00     0.010 A 
ATOM     50  C   UNL     1       4.457   6.910  12.001  1.00  0.00     0.010 A 
ATOM     51  C   UNL     1       3.576   7.733  11.312  1.00  0.00    -0.014 A 
BRANCH  51  52
ATOM     52  C   UNL     1       3.998   8.996  10.727  1.00  0.00     0.031 A 
ATOM     53  C   UNL     1       3.323  10.204  11.281  1.00  0.00     0.074 A 
ATOM     54  C   UNL     1       4.980   9.094   9.812  1.00  0.00     0.049 A 
ATOM     55  N   UNL     1       2.596  11.067  10.651  1.00  0.00    -0.248 NA
ATOM     56  C   UNL     1       3.378  10.412  12.736  1.00  0.00     0.031 C 
ATOM     57  C   UNL     1       5.929   8.073   9.363  1.00  0.00     0.029 A 
ATOM     58  N   UNL     1       5.409  10.212   9.171  1.00  0.00    -0.354 N 
ATOM     59  C   UNL     1       2.197  12.007  11.598  1.00  0.00     0.074 A 
ATOM     60  C   UNL     1       2.617  11.497  12.880  1.00  0.00     0.031 C 
ATOM     61  C   UNL     1       6.972   8.682   8.752  1.00  0.00     0.029 A 
ATOM     62  C   UNL     1       6.684  10.102   8.638  1.00  0.00     0.049 A 
ATOM     63  H   UNL     1       4.863  11.027   9.091  1.00  0.00     0.167 HD
ATOM     64  C   UNL     1       1.685  13.221  11.254  1.00  0.00     0.031 A 
ATOM     65  C   UNL     1       7.470  11.136   8.249  1.00  0.00     0.031 A 
ATOM     66  C   UNL     1       1.236  13.255   9.889  1.00  0.00     0.049 A 
ATOM     67  C   UNL     1       6.578  12.295   7.987  1.00  0.00     0.074 A 
ATOM     68  C   UNL     1       0.272  12.567   9.179  1.00  0.00     0.029 A 
ATOM     69  N   UNL     1       2.067  13.812   8.946  1.00  0.00    -0.354 N 
ATOM     70  N   UNL     1       5.705  12.323   7.020  1.00  0.00    -0.248 NA
ATOM     71  C   UNL     1       6.331  13.224   9.081  1.00  0.00     0.031 C 
ATOM     72  C   UNL     1       0.875  12.305   7.916  1.00  0.00     0.029 A 
ATOM     73  C   UNL     1       2.131  12.915   7.910  1.00  0.00     0.049 A 
ATOM     74  H   UNL     1       2.525  14.682   9.003  1.00  0.00     0.167 HD
ATOM     75  C   UNL     1       4.588  12.937   7.570  1.00  0.00     0.074 A 
ATOM     76  C   UNL     1       5.062  13.545   8.814  1.00  0.00     0.031 C 
ATOM     77  C   UNL     1       3.324  12.658   7.132  1.00  0.00     0.031 A 
BRANCH  64  78
ATOM     78  C   UNL     1       1.878  14.470  12.069  1.00  0.00    -0.014 A 
ATOM     79  C   UNL     1       2.883  14.590  13.047  1.00  0.00     0.009 A 
ATOM     80  C   UNL     1       1.225  15.654  11.682  1.00  0.00     0.009 A 
ATOM     81  C   UNL     1       3.229  15.822  13.607  1.00  0.00     0.001 A 
ATOM     82  C   UNL     1       1.597  16.896  12.211  1.00  0.00     0.001 A 
ATOM     83  C   UNL     1       2.602  16.980  13.170  1.00  0.00     0.000 A 
ENDBRANCH  64  78
BRANCH  65  84
ATOM     84  C   UNL     1       8.907  11.303   8.579  1.00  0.00    -0.014 A 
ATOM     85  C   UNL     1       9.467  10.637   9.688  1.00  0.00     0.009 A 
ATOM     86  C   UNL     1       9.660  12.332   7.992  1.00  0.00     0.009 A 
ATOM     87  C   UNL     1      10.706  11.012  10.217  1.00  0.00     0.001 A 
ATOM     88  C   UNL     1      10.901  12.711   8.526  1.00  0.00     0.001 A 
ATOM     89  C   UNL     1      11.414  12.062   9.647  1.00  0.00     0.000 A 
ENDBRANCH  65  84
BRANCH  77  90
ATOM     90  C   UNL     1       3.144  11.766   5.924  1.00  0.00    -0.014 A 
ATOM     91  C   UNL     1       2.249  12.173   4.922  1.00  0.00     0.009 A 
ATOM     92  C   UNL     1       3.649  10.454   5.862  1.00  0.00     0.009 A 
ATOM     93  C   UNL     1       1.853  11.297   3.908  1.00  0.00     0.001 A 
ATOM     94  C   UNL     1       3.273   9.584   4.832  1.00  0.00     0.001 A 
ATOM     95  C   UNL     1       2.365  10.002   3.863  1.00  0.00     0.000 A 
ENDBRANCH  77  90
ENDBRANCH  51  52
ENDBRANCH  43  46
ENDBRANCH  41  42
ENDBRANCH  40  41
ENDBRANCH   1  40
TORSDOF 16
