REMARK SMILES O=C(NCCCNC(=O)c1ccccc1NC(=O)c1ccc(C[NH+]2CCOCC2)cc1)c1ccc(-c2c3nc(c(-c4ccccc4)c4ccc([nH]4)c(-c4ccccc4)c4nc(c(-c5ccccc5)c5ccc2[nH]5)C=C4)C=C3)cc1
REMARK SMILES IDX 6 1 5 2 4 3 3 4 1 5 2 6 32 8 33 9 79 10 34 11 78 12 35 13
REMARK SMILES IDX 36 14 37 15 72 16 38 17 77 18 71 19 73 20 39 21 76 22 70 23
REMARK SMILES IDX 69 24 40 26 62 27 47 28 61 29 48 30 51 31 60 32 74 33 49 34
REMARK SMILES IDX 50 35 59 37 75 38 52 39 41 40 42 41 46 42 43 43 45 44 44 45
REMARK SMILES IDX 63 46 64 47 68 48 65 49 67 50 66 51 53 52 54 53 58 54 55 55
REMARK SMILES IDX 57 56 56 57 7 58 8 59 9 61 10 62 11 63 15 64 12 65 14 66
REMARK SMILES IDX 13 67 16 68 17 69 18 71 19 72 20 73 31 74 21 75 30 76 22 77
REMARK SMILES IDX 23 78 24 79 25 80 29 81 26 83 28 84 27 85
REMARK H PARENT 3 7 73 25 51 36 7 60 16 70 24 82
REMARK Flexibility Score: inf
ROOT
ATOM      1  C   UNL     1       4.722   0.339   3.622  1.00  0.00     0.118 C 
ENDROOT
BRANCH   1   2
ATOM      2  C   UNL     1       5.191   0.605   2.201  1.00  0.00     0.042 C 
BRANCH   2   3
ATOM      3  C   UNL     1       4.707  -0.415   1.180  1.00  0.00     0.118 C 
BRANCH   3   4
ATOM      4  N   UNL     1       3.258  -0.449   1.032  1.00  0.00    -0.352 N 
ATOM      5  O   UNL     1       1.250  -0.114   0.058  1.00  0.00    -0.269 OA
ATOM      6  C   UNL     1       2.473  -0.138  -0.052  1.00  0.00     0.251 C 
ATOM      7  H   UNL     1       2.764  -0.739   1.832  1.00  0.00     0.163 HD
BRANCH   6   8
ATOM      8  C   UNL     1       3.097   0.202  -1.347  1.00  0.00     0.039 A 
ATOM      9  C   UNL     1       4.162  -0.549  -1.846  1.00  0.00     0.014 A 
ATOM     10  C   UNL     1       2.606   1.291  -2.073  1.00  0.00     0.014 A 
ATOM     11  C   UNL     1       4.847  -0.110  -2.971  1.00  0.00     0.010 A 
ATOM     12  C   UNL     1       3.229   1.666  -3.265  1.00  0.00     0.010 A 
ATOM     13  C   UNL     1       4.377   0.991  -3.704  1.00  0.00    -0.014 A 
BRANCH  13  14
ATOM     14  C   UNL     1       5.062   1.367  -4.964  1.00  0.00     0.031 A 
ATOM     15  C   UNL     1       5.731   2.702  -5.122  1.00  0.00     0.074 A 
ATOM     16  C   UNL     1       5.081   0.476  -5.974  1.00  0.00     0.049 A 
ATOM     17  N   UNL     1       6.367   3.184  -6.160  1.00  0.00    -0.248 NA
ATOM     18  C   UNL     1       5.672   3.621  -3.974  1.00  0.00     0.031 C 
ATOM     19  C   UNL     1       4.454  -0.848  -5.941  1.00  0.00     0.029 A 
ATOM     20  N   UNL     1       5.656   0.541  -7.216  1.00  0.00    -0.354 N 
ATOM     21  C   UNL     1       6.760   4.468  -5.804  1.00  0.00     0.074 A 
ATOM     22  C   UNL     1       6.274   4.699  -4.460  1.00  0.00     0.031 C 
ATOM     23  C   UNL     1       4.711  -1.485  -7.092  1.00  0.00     0.029 A 
ATOM     24  C   UNL     1       5.458  -0.591  -7.967  1.00  0.00     0.049 A 
ATOM     25  H   UNL     1       6.162   1.322  -7.537  1.00  0.00     0.167 HD
ATOM     26  C   UNL     1       7.460   5.370  -6.532  1.00  0.00     0.031 A 
ATOM     27  C   UNL     1       5.811  -0.875  -9.233  1.00  0.00     0.031 A 
ATOM     28  C   UNL     1       7.941   5.135  -7.869  1.00  0.00     0.049 A 
ATOM     29  C   UNL     1       6.565   0.149 -10.025  1.00  0.00     0.074 A 
ATOM     30  C   UNL     1       8.700   5.968  -8.672  1.00  0.00     0.029 A 
ATOM     31  N   UNL     1       7.699   3.983  -8.604  1.00  0.00    -0.354 N 
ATOM     32  N   UNL     1       6.967   1.341  -9.656  1.00  0.00    -0.248 NA
ATOM     33  C   UNL     1       6.913  -0.210 -11.405  1.00  0.00     0.031 C 
ATOM     34  C   UNL     1       8.871   5.343  -9.913  1.00  0.00     0.029 A 
ATOM     35  C   UNL     1       8.266   4.098  -9.863  1.00  0.00     0.049 A 
ATOM     36  H   UNL     1       7.198   3.200  -8.279  1.00  0.00     0.167 HD
ATOM     37  C   UNL     1       7.624   1.873 -10.756  1.00  0.00     0.074 A 
ATOM     38  C   UNL     1       7.585   0.865 -11.796  1.00  0.00     0.031 C 
ATOM     39  C   UNL     1       8.205   3.090 -10.891  1.00  0.00     0.031 A 
BRANCH  26  40
ATOM     40  C   UNL     1       7.715   6.716  -5.910  1.00  0.00    -0.014 A 
ATOM     41  C   UNL     1       8.624   6.875  -4.852  1.00  0.00     0.009 A 
ATOM     42  C   UNL     1       7.056   7.849  -6.413  1.00  0.00     0.009 A 
ATOM     43  C   UNL     1       8.838   8.136  -4.287  1.00  0.00     0.001 A 
ATOM     44  C   UNL     1       7.291   9.111  -5.864  1.00  0.00     0.001 A 
ATOM     45  C   UNL     1       8.174   9.252  -4.795  1.00  0.00     0.000 A 
ENDBRANCH  26  40
BRANCH  27  46
ATOM     46  C   UNL     1       5.418  -2.180  -9.821  1.00  0.00    -0.014 A 
ATOM     47  C   UNL     1       6.373  -3.179 -10.054  1.00  0.00     0.009 A 
ATOM     48  C   UNL     1       4.068  -2.449 -10.100  1.00  0.00     0.009 A 
ATOM     49  C   UNL     1       5.984  -4.419 -10.564  1.00  0.00     0.001 A 
ATOM     50  C   UNL     1       3.679  -3.699 -10.583  1.00  0.00     0.001 A 
ATOM     51  C   UNL     1       4.638  -4.681 -10.820  1.00  0.00     0.000 A 
ENDBRANCH  27  46
BRANCH  39  52
ATOM     52  C   UNL     1       8.859   3.388 -12.209  1.00  0.00    -0.014 A 
ATOM     53  C   UNL     1       8.093   3.665 -13.352  1.00  0.00     0.009 A 
ATOM     54  C   UNL     1      10.259   3.426 -12.298  1.00  0.00     0.009 A 
ATOM     55  C   UNL     1       8.720   3.947 -14.567  1.00  0.00     0.001 A 
ATOM     56  C   UNL     1      10.881   3.734 -13.508  1.00  0.00     0.001 A 
ATOM     57  C   UNL     1      10.112   3.986 -14.643  1.00  0.00     0.000 A 
ENDBRANCH  39  52
ENDBRANCH  13  14
ENDBRANCH   6   8
ENDBRANCH   3   4
ENDBRANCH   2   3
ENDBRANCH   1   2
BRANCH   1  58
ATOM     58  N   UNL     1       5.106  -0.985   4.091  1.00  0.00    -0.352 N 
ATOM     59  C   UNL     1       5.857  -1.363   5.171  1.00  0.00     0.253 C 
ATOM     60  H   UNL     1       4.770  -1.730   3.542  1.00  0.00     0.163 HD
ATOM     61  O   UNL     1       6.254  -2.523   5.243  1.00  0.00    -0.269 OA
BRANCH  59  62
ATOM     62  C   UNL     1       6.180  -0.421   6.265  1.00  0.00     0.063 A 
ATOM     63  C   UNL     1       7.524  -0.395   6.675  1.00  0.00     0.016 A 
ATOM     64  C   UNL     1       5.206   0.341   6.944  1.00  0.00     0.054 A 
ATOM     65  C   UNL     1       7.912   0.385   7.760  1.00  0.00     0.001 A 
ATOM     66  C   UNL     1       5.609   1.051   8.080  1.00  0.00     0.027 A 
ATOM     67  C   UNL     1       6.951   1.094   8.472  1.00  0.00     0.002 A 
BRANCH  64  68
ATOM     68  N   UNL     1       3.875   0.341   6.473  1.00  0.00    -0.321 N 
ATOM     69  C   UNL     1       2.826   1.222   6.592  1.00  0.00     0.255 C 
ATOM     70  H   UNL     1       3.650  -0.461   5.949  1.00  0.00     0.170 HD
ATOM     71  O   UNL     1       1.756   0.961   6.042  1.00  0.00    -0.269 OA
BRANCH  69  72
ATOM     72  C   UNL     1       2.938   2.493   7.327  1.00  0.00     0.040 A 
ATOM     73  C   UNL     1       1.995   2.731   8.329  1.00  0.00     0.014 A 
ATOM     74  C   UNL     1       3.953   3.420   7.073  1.00  0.00     0.014 A 
ATOM     75  C   UNL     1       2.127   3.848   9.149  1.00  0.00     0.010 A 
ATOM     76  C   UNL     1       4.096   4.524   7.916  1.00  0.00     0.010 A 
ATOM     77  C   UNL     1       3.190   4.744   8.966  1.00  0.00     0.006 A 
BRANCH  77  78
ATOM     78  C   UNL     1       3.367   5.911   9.910  1.00  0.00     0.299 C 
BRANCH  78  79
ATOM     79  N   UNL     1       2.751   7.180   9.539  1.00  0.00    -0.327 N 
ATOM     80  C   UNL     1       1.282   7.209   9.536  1.00  0.00     0.291 C 
ATOM     81  C   UNL     1       3.308   7.848   8.356  1.00  0.00     0.291 C 
ATOM     82  H   UNL     1       3.036   7.750  10.335  1.00  0.00     0.348 HD
ATOM     83  C   UNL     1       0.623   6.940   8.173  1.00  0.00     0.221 C 
ATOM     84  C   UNL     1       2.579   7.553   7.034  1.00  0.00     0.221 C 
ATOM     85  O   UNL     1       1.171   7.785   7.154  1.00  0.00    -0.370 OA
ENDBRANCH  78  79
ENDBRANCH  77  78
ENDBRANCH  69  72
ENDBRANCH  64  68
ENDBRANCH  59  62
ENDBRANCH   1  58
TORSDOF 14
