REMARK SMILES CN(C)c1ccc(C(=O)NCCCC(=O)NCCCNC(=O)c2ccc(-c3c4nc(c(-c5ccccc5)c5ccc([nH]5)c(-c5ccccc5)c5nc(c(-c6ccccc6)c6ccc3[nH]6)C=C5)C=C4)cc2)cn1
REMARK SMILES IDX 14 1 15 2 16 3 13 5 12 6 11 7 10 8 8 9 9 10 7 12 4 13 5 14
REMARK SMILES IDX 72 15 6 16 71 17 2 18 1 19 3 20 17 21 18 22 19 23 20 24
REMARK SMILES IDX 21 25 22 27 23 28 24 29 70 30 25 31 69 32 26 33 27 34 28 35
REMARK SMILES IDX 63 36 29 37 68 38 62 39 64 40 30 41 67 42 61 43 60 44 31 46
REMARK SMILES IDX 53 47 38 48 52 49 39 50 42 51 51 52 65 53 40 54 41 55 50 57
REMARK SMILES IDX 66 58 43 59 32 60 33 61 37 62 34 63 36 64 35 65 54 66 55 67
REMARK SMILES IDX 59 68 56 69 58 70 57 71 44 72 45 73 49 74 46 75 48 76 47 77
REMARK H PARENT 16 4 10 11 20 26 64 45 42 56
REMARK Flexibility Score: inf
ROOT
ATOM      1  C   UNL     1       6.745   3.846  -6.489  1.00  0.00     0.220 C 
ATOM      2  O   UNL     1       7.941   3.716  -6.225  1.00  0.00    -0.275 OA
ATOM      3  N   UNL     1       6.067   4.873  -5.910  1.00  0.00    -0.356 N 
ATOM      4  H   UNL     1       6.628   5.501  -5.399  1.00  0.00     0.163 HD
ENDROOT
BRANCH   1   5
ATOM      5  C   UNL     1       6.051   2.891  -7.435  1.00  0.00     0.102 C 
BRANCH   5   6
ATOM      6  C   UNL     1       5.747   1.528  -6.809  1.00  0.00     0.031 C 
BRANCH   6   7
ATOM      7  C   UNL     1       4.613   1.515  -5.785  1.00  0.00     0.116 C 
BRANCH   7   8
ATOM      8  N   UNL     1       3.358   2.013  -6.322  1.00  0.00    -0.352 N 
ATOM      9  C   UNL     1       2.083   1.973  -5.822  1.00  0.00     0.252 C 
ATOM     10  O   UNL     1       1.178   2.456  -6.502  1.00  0.00    -0.269 OA
ATOM     11  H   UNL     1       3.438   2.455  -7.198  1.00  0.00     0.163 HD
BRANCH   9  12
ATOM     12  C   UNL     1       1.752   1.335  -4.534  1.00  0.00     0.058 A 
ATOM     13  C   UNL     1       0.902   0.009  -2.230  1.00  0.00     0.127 A 
ATOM     14  C   UNL     1       2.102   0.722  -2.234  1.00  0.00     0.048 A 
ATOM     15  N   UNL     1       0.131  -0.015  -3.339  1.00  0.00    -0.239 NA
ATOM     16  C   UNL     1       2.532   1.387  -3.388  1.00  0.00     0.019 A 
ATOM     17  C   UNL     1       0.547   0.657  -4.443  1.00  0.00     0.127 A 
BRANCH  13  18
ATOM     18  N   UNL     1       0.483  -0.702  -1.121  1.00  0.00    -0.363 N 
ATOM     19  C   UNL     1       0.828  -0.278   0.221  1.00  0.00     0.144 C 
ATOM     20  C   UNL     1      -0.580  -1.672  -1.316  1.00  0.00     0.144 C 
ENDBRANCH  13  18
ENDBRANCH   9  12
ENDBRANCH   7   8
ENDBRANCH   6   7
ENDBRANCH   5   6
ENDBRANCH   1   5
BRANCH   3  21
ATOM     21  C   UNL     1       4.649   5.198  -5.923  1.00  0.00     0.117 C 
BRANCH  21  22
ATOM     22  C   UNL     1       4.025   4.987  -4.546  1.00  0.00     0.042 C 
BRANCH  22  23
ATOM     23  C   UNL     1       4.367   6.079  -3.540  1.00  0.00     0.118 C 
BRANCH  23  24
ATOM     24  N   UNL     1       3.639   7.309  -3.797  1.00  0.00    -0.352 N 
ATOM     25  C   UNL     1       2.792   8.018  -2.986  1.00  0.00     0.251 C 
ATOM     26  H   UNL     1       3.774   7.693  -4.694  1.00  0.00     0.163 HD
ATOM     27  O   UNL     1       2.125   8.936  -3.471  1.00  0.00    -0.269 OA
BRANCH  25  28
ATOM     28  C   UNL     1       2.654   7.704  -1.546  1.00  0.00     0.039 A 
ATOM     29  C   UNL     1       1.391   7.819  -0.955  1.00  0.00     0.014 A 
ATOM     30  C   UNL     1       3.756   7.362  -0.756  1.00  0.00     0.014 A 
ATOM     31  C   UNL     1       1.229   7.565   0.409  1.00  0.00     0.010 A 
ATOM     32  C   UNL     1       3.580   7.032   0.588  1.00  0.00     0.010 A 
ATOM     33  C   UNL     1       2.319   7.150   1.190  1.00  0.00    -0.014 A 
BRANCH  33  34
ATOM     34  C   UNL     1       2.157   6.873   2.641  1.00  0.00     0.031 A 
ATOM     35  C   UNL     1       2.862   7.728   3.661  1.00  0.00     0.074 A 
ATOM     36  C   UNL     1       1.405   5.831   3.045  1.00  0.00     0.049 A 
ATOM     37  N   UNL     1       2.859   7.629   4.967  1.00  0.00    -0.248 NA
ATOM     38  C   UNL     1       3.702   8.822   3.147  1.00  0.00     0.031 C 
ATOM     39  C   UNL     1       0.698   4.902   2.161  1.00  0.00     0.029 A 
ATOM     40  N   UNL     1       1.109   5.380   4.307  1.00  0.00    -0.354 N 
ATOM     41  C   UNL     1       3.707   8.630   5.426  1.00  0.00     0.074 A 
ATOM     42  C   UNL     1       4.246   9.293   4.259  1.00  0.00     0.031 C 
ATOM     43  C   UNL     1       0.025   4.012   2.909  1.00  0.00     0.029 A 
ATOM     44  C   UNL     1       0.279   4.286   4.319  1.00  0.00     0.049 A 
ATOM     45  H   UNL     1       1.458   5.802   5.125  1.00  0.00     0.167 HD
ATOM     46  C   UNL     1       3.998   8.981   6.701  1.00  0.00     0.031 A 
ATOM     47  C   UNL     1      -0.224   3.582   5.351  1.00  0.00     0.031 A 
ATOM     48  C   UNL     1       3.448   8.338   7.864  1.00  0.00     0.049 A 
ATOM     49  C   UNL     1       0.103   3.998   6.758  1.00  0.00     0.074 A 
ATOM     50  C   UNL     1       3.634   8.661   9.198  1.00  0.00     0.029 A 
ATOM     51  N   UNL     1       2.602   7.241   7.832  1.00  0.00    -0.354 N 
ATOM     52  N   UNL     1       0.855   4.989   7.173  1.00  0.00    -0.248 NA
ATOM     53  C   UNL     1      -0.502   3.206   7.838  1.00  0.00     0.031 C 
ATOM     54  C   UNL     1       2.936   7.729   9.974  1.00  0.00     0.029 A 
ATOM     55  C   UNL     1       2.274   6.860   9.123  1.00  0.00     0.049 A 
ATOM     56  H   UNL     1       2.281   6.798   7.014  1.00  0.00     0.167 HD
ATOM     57  C   UNL     1       0.793   4.955   8.560  1.00  0.00     0.074 A 
ATOM     58  C   UNL     1      -0.083   3.858   8.915  1.00  0.00     0.031 C 
ATOM     59  C   UNL     1       1.406   5.762   9.460  1.00  0.00     0.031 A 
BRANCH  46  60
ATOM     60  C   UNL     1       4.966  10.115   6.903  1.00  0.00    -0.014 A 
ATOM     61  C   UNL     1       4.612  11.439   6.598  1.00  0.00     0.009 A 
ATOM     62  C   UNL     1       6.240   9.859   7.435  1.00  0.00     0.009 A 
ATOM     63  C   UNL     1       5.528  12.477   6.782  1.00  0.00     0.001 A 
ATOM     64  C   UNL     1       7.143  10.902   7.646  1.00  0.00     0.001 A 
ATOM     65  C   UNL     1       6.790  12.209   7.310  1.00  0.00     0.000 A 
ENDBRANCH  46  60
BRANCH  47  66
ATOM     66  C   UNL     1      -1.114   2.421   5.091  1.00  0.00    -0.014 A 
ATOM     67  C   UNL     1      -2.487   2.501   5.369  1.00  0.00     0.009 A 
ATOM     68  C   UNL     1      -0.596   1.228   4.565  1.00  0.00     0.009 A 
ATOM     69  C   UNL     1      -3.319   1.401   5.148  1.00  0.00     0.001 A 
ATOM     70  C   UNL     1      -1.435   0.139   4.319  1.00  0.00     0.001 A 
ATOM     71  C   UNL     1      -2.793   0.223   4.619  1.00  0.00     0.000 A 
ENDBRANCH  47  66
BRANCH  59  72
ATOM     72  C   UNL     1       1.128   5.504  10.913  1.00  0.00    -0.014 A 
ATOM     73  C   UNL     1       1.666   4.387  11.571  1.00  0.00     0.009 A 
ATOM     74  C   UNL     1       0.341   6.410  11.642  1.00  0.00     0.009 A 
ATOM     75  C   UNL     1       1.392   4.165  12.922  1.00  0.00     0.001 A 
ATOM     76  C   UNL     1       0.092   6.200  12.999  1.00  0.00     0.001 A 
ATOM     77  C   UNL     1       0.609   5.073  13.635  1.00  0.00     0.000 A 
ENDBRANCH  59  72
ENDBRANCH  33  34
ENDBRANCH  25  28
ENDBRANCH  23  24
ENDBRANCH  22  23
ENDBRANCH  21  22
ENDBRANCH   3  21
TORSDOF 15
