REMARK SMILES CC1(C)Cc2c(-c3ccccc3)c(-c3ccc(Cl)cc3)c(CC(=O)NCCCNC(=O)c3ccc(-c4c5nc(c(-c6ccccc6)c6ccc([nH]6)c(-c6ccccc6)c6nc(c(-c7ccccc7)c7ccc4[nH]7)C=C6)C=C5)cc3)n2C1
REMARK SMILES IDX 27 1 26 2 25 3 23 4 24 5 22 7 21 8 1 9 2 10 3 11 4 12 81 13
REMARK SMILES IDX 5 14 80 15 6 16 13 17 7 18 8 19 12 20 9 21 11 22 10 23 14 24
REMARK SMILES IDX 15 25 20 26 16 27 19 28 17 29 18 30 28 31 29 32 30 33 31 35
REMARK SMILES IDX 32 36 33 37 79 38 34 39 78 40 35 41 36 42 37 43 72 44 38 45
REMARK SMILES IDX 77 46 71 47 73 48 39 49 76 50 70 51 69 52 40 54 62 55 47 56
REMARK SMILES IDX 61 57 48 58 51 59 60 60 74 61 49 62 50 63 59 65 75 66 52 67
REMARK SMILES IDX 41 68 42 69 46 70 43 71 45 72 44 73 63 74 64 75 68 76 65 77
REMARK SMILES IDX 67 78 66 79 53 80 54 81 58 82 55 83 57 84 56 85
REMARK H PARENT 25 6 29 34 73 53 51 64
REMARK Flexibility Score: inf
ROOT
ATOM      1  C   UNL     1      -1.942   2.058   3.868  1.00  0.00     0.042 C 
ENDROOT
BRANCH   1   2
ATOM      2  C   UNL     1      -1.613   3.523   3.591  1.00  0.00     0.117 C 
BRANCH   2   3
ATOM      3  N   UNL     1      -1.045   4.229   4.720  1.00  0.00    -0.356 N 
ATOM      4  C   UNL     1       0.269   4.511   4.974  1.00  0.00     0.225 C 
ATOM      5  O   UNL     1       0.513   5.305   5.886  1.00  0.00    -0.275 OA
ATOM      6  H   UNL     1      -1.688   4.548   5.393  1.00  0.00     0.163 HD
BRANCH   4   7
ATOM      7  C   UNL     1       1.378   3.902   4.124  1.00  0.00     0.154 C 
BRANCH   7   8
ATOM      8  C   UNL     1       1.488   2.409   4.265  1.00  0.00     0.036 A 
ATOM      9  C   UNL     1       1.324  -0.052  -0.072  1.00  0.00     0.013 C 
ATOM     10  C   UNL     1       0.787   0.229   1.331  1.00  0.00    -0.012 C 
ATOM     11  C   UNL     1      -0.727  -0.050   1.329  1.00  0.00     0.013 C 
ATOM     12  C   UNL     1       1.469  -0.664   2.412  1.00  0.00     0.063 C 
ATOM     13  C   UNL     1       1.123   1.688   1.772  1.00  0.00     0.129 C 
ATOM     14  C   UNL     1       1.584   0.262   3.565  1.00  0.00     0.027 A 
ATOM     15  N   UNL     1       1.392   1.560   3.198  1.00  0.00    -0.346 N 
ATOM     16  C   UNL     1       1.800   0.222   4.916  1.00  0.00     0.011 A 
ATOM     17  C   UNL     1       1.754   1.589   5.372  1.00  0.00     0.011 A 
BRANCH  16  18
ATOM     18  C   UNL     1       1.986  -1.010   5.657  1.00  0.00    -0.016 A 
ATOM     19  C   UNL     1       2.948  -1.944   5.257  1.00  0.00     0.009 A 
ATOM     20  C   UNL     1       1.193  -1.277   6.779  1.00  0.00     0.009 A 
ATOM     21  C   UNL     1       3.105  -3.137   5.963  1.00  0.00     0.001 A 
ATOM     22  C   UNL     1       1.353  -2.469   7.486  1.00  0.00     0.001 A 
ATOM     23  C   UNL     1       2.305  -3.400   7.074  1.00  0.00     0.000 A 
ENDBRANCH  16  18
BRANCH  17  24
ATOM     24  C   UNL     1       1.977   2.043   6.742  1.00  0.00    -0.016 A 
ATOM     25  C   UNL     1       3.203   1.771   7.367  1.00  0.00     0.010 A 
ATOM     26  C   UNL     1       0.942   2.605   7.497  1.00  0.00     0.010 A 
ATOM     27  C   UNL     1       3.389   2.058   8.724  1.00  0.00     0.021 A 
ATOM     28  C   UNL     1       1.134   2.916   8.847  1.00  0.00     0.021 A 
ATOM     29  C   UNL     1       2.353   2.631   9.457  1.00  0.00     0.041 A 
ATOM     30  Cl  UNL     1       2.565   2.959  11.133  1.00  0.00    -0.084 Cl
ENDBRANCH  17  24
ENDBRANCH   7   8
ENDBRANCH   4   7
ENDBRANCH   2   3
ENDBRANCH   1   2
BRANCH   1  31
ATOM     31  C   UNL     1      -3.194   1.873   4.689  1.00  0.00     0.118 C 
BRANCH  31  32
ATOM     32  N   UNL     1      -4.416   2.220   3.945  1.00  0.00    -0.352 N 
ATOM     33  C   UNL     1      -5.737   2.103   4.336  1.00  0.00     0.251 C 
ATOM     34  H   UNL     1      -4.273   2.588   3.042  1.00  0.00     0.163 HD
ATOM     35  O   UNL     1      -6.645   2.117   3.499  1.00  0.00    -0.269 OA
BRANCH  33  36
ATOM     36  C   UNL     1      -6.045   1.962   5.767  1.00  0.00     0.039 A 
ATOM     37  C   UNL     1      -7.115   1.218   6.269  1.00  0.00     0.014 A 
ATOM     38  C   UNL     1      -5.154   2.564   6.636  1.00  0.00     0.014 A 
ATOM     39  C   UNL     1      -7.234   1.092   7.654  1.00  0.00     0.010 A 
ATOM     40  C   UNL     1      -5.043   2.083   7.897  1.00  0.00     0.010 A 
ATOM     41  C   UNL     1      -6.179   1.547   8.458  1.00  0.00    -0.014 A 
BRANCH  41  42
ATOM     42  C   UNL     1      -6.129   1.421   9.901  1.00  0.00     0.031 A 
ATOM     43  C   UNL     1      -6.131   0.015  10.344  1.00  0.00     0.074 A 
ATOM     44  C   UNL     1      -5.803   2.457  10.712  1.00  0.00     0.049 A 
ATOM     45  N   UNL     1      -7.129  -0.639  10.830  1.00  0.00    -0.248 NA
ATOM     46  C   UNL     1      -4.968  -0.824  10.002  1.00  0.00     0.031 C 
ATOM     47  C   UNL     1      -5.415   3.829  10.347  1.00  0.00     0.029 A 
ATOM     48  N   UNL     1      -5.634   2.465  12.060  1.00  0.00    -0.354 N 
ATOM     49  C   UNL     1      -6.629  -1.902  11.115  1.00  0.00     0.074 A 
ATOM     50  C   UNL     1      -5.420  -2.032  10.345  1.00  0.00     0.031 C 
ATOM     51  C   UNL     1      -4.845   4.445  11.410  1.00  0.00     0.029 A 
ATOM     52  C   UNL     1      -4.973   3.580  12.568  1.00  0.00     0.049 A 
ATOM     53  H   UNL     1      -5.956   1.734  12.637  1.00  0.00     0.167 HD
ATOM     54  C   UNL     1      -7.050  -2.572  12.224  1.00  0.00     0.031 A 
ATOM     55  C   UNL     1      -4.546   3.759  13.846  1.00  0.00     0.031 A 
ATOM     56  C   UNL     1      -8.215  -1.935  12.801  1.00  0.00     0.049 A 
ATOM     57  C   UNL     1      -5.290   2.794  14.689  1.00  0.00     0.074 A 
ATOM     58  C   UNL     1      -9.479  -1.607  12.352  1.00  0.00     0.029 A 
ATOM     59  N   UNL     1      -7.988  -1.147  13.907  1.00  0.00    -0.354 N 
ATOM     60  N   UNL     1      -6.573   2.869  14.896  1.00  0.00    -0.248 NA
ATOM     61  C   UNL     1      -4.698   1.482  14.899  1.00  0.00     0.031 C 
ATOM     62  C   UNL     1      -9.754  -0.329  12.926  1.00  0.00     0.029 A 
ATOM     63  C   UNL     1      -8.692   0.017  13.764  1.00  0.00     0.049 A 
ATOM     64  H   UNL     1      -7.416  -1.383  14.672  1.00  0.00     0.167 HD
ATOM     65  C   UNL     1      -7.019   1.559  14.794  1.00  0.00     0.074 A 
ATOM     66  C   UNL     1      -5.810   0.740  14.903  1.00  0.00     0.031 C 
ATOM     67  C   UNL     1      -8.273   1.282  14.327  1.00  0.00     0.031 A 
BRANCH  54  68
ATOM     68  C   UNL     1      -6.145  -3.447  13.064  1.00  0.00    -0.014 A 
ATOM     69  C   UNL     1      -6.688  -4.020  14.229  1.00  0.00     0.009 A 
ATOM     70  C   UNL     1      -4.744  -3.489  12.940  1.00  0.00     0.009 A 
ATOM     71  C   UNL     1      -5.869  -4.486  15.263  1.00  0.00     0.001 A 
ATOM     72  C   UNL     1      -3.923  -3.993  13.952  1.00  0.00     0.001 A 
ATOM     73  C   UNL     1      -4.486  -4.457  15.130  1.00  0.00     0.000 A 
ENDBRANCH  54  68
BRANCH  55  74
ATOM     74  C   UNL     1      -3.366   4.490  14.366  1.00  0.00    -0.014 A 
ATOM     75  C   UNL     1      -3.264   4.819  15.730  1.00  0.00     0.009 A 
ATOM     76  C   UNL     1      -2.203   4.599  13.584  1.00  0.00     0.009 A 
ATOM     77  C   UNL     1      -2.036   5.194  16.296  1.00  0.00     0.001 A 
ATOM     78  C   UNL     1      -0.976   4.973  14.149  1.00  0.00     0.001 A 
ATOM     79  C   UNL     1      -0.890   5.254  15.509  1.00  0.00     0.000 A 
ENDBRANCH  55  74
BRANCH  67  80
ATOM     80  C   UNL     1      -9.239   2.433  14.178  1.00  0.00    -0.014 A 
ATOM     81  C   UNL     1      -9.036   3.515  13.300  1.00  0.00     0.009 A 
ATOM     82  C   UNL     1     -10.470   2.341  14.843  1.00  0.00     0.009 A 
ATOM     83  C   UNL     1     -10.028   4.486  13.120  1.00  0.00     0.001 A 
ATOM     84  C   UNL     1     -11.467   3.299  14.647  1.00  0.00     0.001 A 
ATOM     85  C   UNL     1     -11.244   4.374  13.791  1.00  0.00     0.000 A 
ENDBRANCH  67  80
ENDBRANCH  41  42
ENDBRANCH  33  36
ENDBRANCH  31  32
ENDBRANCH   1  31
TORSDOF 13
