REMARK SMILES Cc1ccc(-c2cc(C(=O)NCCCNC(=O)c3ccc(-c4c5nc(c(-c6ccccc6)c6ccc([nH]6)c(-c6ccccc6)c6nc(c(-c7ccccc7)c7ccc4[nH]7)C=C6)C=C5)cc3)c3c(-c4cccc([N+](=O)[O-])c4)[nH]nc3n2)cc1
REMARK SMILES IDX 13 1 12 2 11 3 9 4 10 5 8 7 6 8 7 9 80 10 79 11 66 12 78 13
REMARK SMILES IDX 67 14 77 15 5 17 1 18 2 19 3 20 82 21 4 22 81 23 68 24 69 25
REMARK SMILES IDX 76 26 70 27 72 28 71 29 73 30 74 31 75 32 14 33 15 34 16 35
REMARK SMILES IDX 17 37 18 38 19 39 65 40 20 41 64 42 21 43 22 44 23 45 58 46
REMARK SMILES IDX 24 47 63 48 57 49 59 50 25 51 62 52 56 53 55 54 26 56 48 57
REMARK SMILES IDX 33 58 47 59 34 60 37 61 46 62 60 63 35 64 36 65 45 67 61 68
REMARK SMILES IDX 38 69 27 70 28 71 32 72 29 73 31 74 30 75 49 76 50 77 54 78
REMARK SMILES IDX 51 79 53 80 52 81 39 82 40 83 44 84 41 85 43 86 42 87
REMARK H PARENT 11 6 77 16 15 36 59 55 37 66
REMARK Flexibility Score: inf
ROOT
ATOM      1  C   UNL     1      -2.634   1.447  -3.840  1.00  0.00     0.042 C 
ENDROOT
BRANCH   1   2
ATOM      2  C   UNL     1      -3.482   2.591  -3.278  1.00  0.00     0.118 C 
BRANCH   2   3
ATOM      3  N   UNL     1      -4.901   2.258  -3.205  1.00  0.00    -0.352 N 
ATOM      4  C   UNL     1      -5.707   1.582  -2.314  1.00  0.00     0.252 C 
ATOM      5  O   UNL     1      -6.906   1.688  -2.555  1.00  0.00    -0.269 OA
ATOM      6  H   UNL     1      -5.404   2.599  -3.980  1.00  0.00     0.163 HD
BRANCH   4   7
ATOM      7  C   UNL     1      -5.226   0.788  -1.151  1.00  0.00     0.055 A 
ATOM      8  C   UNL     1      -3.351  -0.108   0.246  1.00  0.00     0.074 A 
ATOM      9  C   UNL     1      -3.870   0.600  -0.866  1.00  0.00     0.043 A 
ATOM     10  N   UNL     1      -4.091  -0.738   1.183  1.00  0.00    -0.226 NA
ATOM     11  C   UNL     1      -5.424  -0.611   0.965  1.00  0.00     0.182 A 
ATOM     12  C   UNL     1      -5.983   0.113  -0.164  1.00  0.00     0.059 A 
ATOM     13  N   UNL     1      -6.369  -1.123   1.750  1.00  0.00    -0.154 NA
ATOM     14  C   UNL     1      -7.354  -0.048  -0.015  1.00  0.00     0.076 A 
ATOM     15  N   UNL     1      -7.508  -0.763   1.150  1.00  0.00    -0.275 N 
ATOM     16  H   UNL     1      -8.393  -0.992   1.516  1.00  0.00     0.190 HD
BRANCH   8  17
ATOM     17  C   UNL     1      -1.885  -0.150   0.385  1.00  0.00     0.000 A 
ATOM     18  C   UNL     1       2.432  -0.164   0.083  1.00  0.00     0.044 C 
ATOM     19  C   UNL     1       0.939  -0.154   0.230  1.00  0.00    -0.051 A 
ATOM     20  C   UNL     1       0.223  -1.358   0.275  1.00  0.00     0.004 A 
ATOM     21  C   UNL     1       0.242   1.052   0.311  1.00  0.00     0.004 A 
ATOM     22  C   UNL     1      -1.176  -1.357   0.356  1.00  0.00     0.010 A 
ATOM     23  C   UNL     1      -1.150   1.052   0.395  1.00  0.00     0.010 A 
ENDBRANCH   8  17
BRANCH  14  24
ATOM     24  C   UNL     1      -8.526   0.317  -0.796  1.00  0.00     0.007 A 
ATOM     25  C   UNL     1      -9.376   1.345  -0.364  1.00  0.00     0.011 A 
ATOM     26  C   UNL     1      -8.783  -0.331  -2.010  1.00  0.00     0.096 A 
ATOM     27  C   UNL     1     -10.445   1.762  -1.162  1.00  0.00     0.008 A 
ATOM     28  C   UNL     1      -9.830   0.119  -2.823  1.00  0.00     0.270 A 
ATOM     29  C   UNL     1     -10.668   1.161  -2.402  1.00  0.00     0.085 A 
BRANCH  28  30
ATOM     30  N   UNL     1     -10.018  -0.475  -4.151  1.00  0.00     0.062 N 
ATOM     31  O   UNL     1     -10.942  -0.039  -4.853  1.00  0.00    -0.258 OA
ATOM     32  O   UNL     1      -9.252  -1.391  -4.489  1.00  0.00    -0.258 OA
ENDBRANCH  28  30
ENDBRANCH  14  24
ENDBRANCH   4   7
ENDBRANCH   2   3
ENDBRANCH   1   2
BRANCH   1  33
ATOM     33  C   UNL     1      -2.383   1.556  -5.333  1.00  0.00     0.118 C 
BRANCH  33  34
ATOM     34  N   UNL     1      -1.113   2.191  -5.679  1.00  0.00    -0.352 N 
ATOM     35  C   UNL     1      -0.667   2.575  -6.935  1.00  0.00     0.251 C 
ATOM     36  H   UNL     1      -0.499   2.366  -4.930  1.00  0.00     0.163 HD
ATOM     37  O   UNL     1       0.417   3.110  -7.085  1.00  0.00    -0.269 OA
BRANCH  35  38
ATOM     38  C   UNL     1      -1.605   2.430  -8.071  1.00  0.00     0.039 A 
ATOM     39  C   UNL     1      -1.977   3.591  -8.752  1.00  0.00     0.014 A 
ATOM     40  C   UNL     1      -2.310   1.240  -8.240  1.00  0.00     0.014 A 
ATOM     41  C   UNL     1      -3.210   3.625  -9.394  1.00  0.00     0.010 A 
ATOM     42  C   UNL     1      -3.572   1.300  -8.799  1.00  0.00     0.010 A 
ATOM     43  C   UNL     1      -4.049   2.513  -9.307  1.00  0.00    -0.014 A 
BRANCH  43  44
ATOM     44  C   UNL     1      -5.473   2.579  -9.611  1.00  0.00     0.031 A 
ATOM     45  C   UNL     1      -5.996   2.030 -10.873  1.00  0.00     0.074 A 
ATOM     46  C   UNL     1      -6.339   3.163  -8.755  1.00  0.00     0.049 A 
ATOM     47  N   UNL     1      -7.048   2.479 -11.472  1.00  0.00    -0.248 NA
ATOM     48  C   UNL     1      -5.331   0.952 -11.591  1.00  0.00     0.031 C 
ATOM     49  C   UNL     1      -7.799   3.132  -8.804  1.00  0.00     0.029 A 
ATOM     50  N   UNL     1      -6.061   4.108  -7.785  1.00  0.00    -0.354 N 
ATOM     51  C   UNL     1      -7.381   1.563 -12.438  1.00  0.00     0.074 A 
ATOM     52  C   UNL     1      -6.230   0.694 -12.545  1.00  0.00     0.031 C 
ATOM     53  C   UNL     1      -8.278   4.171  -8.101  1.00  0.00     0.029 A 
ATOM     54  C   UNL     1      -7.150   4.980  -7.678  1.00  0.00     0.049 A 
ATOM     55  H   UNL     1      -5.232   4.158  -7.255  1.00  0.00     0.167 HD
ATOM     56  C   UNL     1      -8.649   1.537 -12.937  1.00  0.00     0.031 A 
ATOM     57  C   UNL     1      -6.993   6.314  -7.930  1.00  0.00     0.031 A 
ATOM     58  C   UNL     1      -9.493   2.610 -12.405  1.00  0.00     0.049 A 
ATOM     59  C   UNL     1      -7.746   6.812  -9.153  1.00  0.00     0.074 A 
ATOM     60  C   UNL     1     -10.542   2.666 -11.499  1.00  0.00     0.029 A 
ATOM     61  N   UNL     1      -9.114   3.926 -12.620  1.00  0.00    -0.354 N 
ATOM     62  N   UNL     1      -8.538   6.083  -9.889  1.00  0.00    -0.248 NA
ATOM     63  C   UNL     1      -7.567   8.157  -9.705  1.00  0.00     0.031 C 
ATOM     64  C   UNL     1     -10.795   4.034 -11.187  1.00  0.00     0.029 A 
ATOM     65  C   UNL     1      -9.905   4.806 -11.906  1.00  0.00     0.049 A 
ATOM     66  H   UNL     1      -8.374   4.199 -13.209  1.00  0.00     0.167 HD
ATOM     67  C   UNL     1      -8.901   6.785 -11.010  1.00  0.00     0.074 A 
ATOM     68  C   UNL     1      -8.280   8.086 -10.842  1.00  0.00     0.031 C 
ATOM     69  C   UNL     1      -9.633   6.231 -12.021  1.00  0.00     0.031 A 
BRANCH  56  70
ATOM     70  C   UNL     1      -9.180   0.353 -13.709  1.00  0.00    -0.014 A 
ATOM     71  C   UNL     1     -10.539   0.007 -13.617  1.00  0.00     0.009 A 
ATOM     72  C   UNL     1      -8.382  -0.493 -14.498  1.00  0.00     0.009 A 
ATOM     73  C   UNL     1     -11.043  -1.175 -14.175  1.00  0.00     0.001 A 
ATOM     74  C   UNL     1      -8.865  -1.702 -15.017  1.00  0.00     0.001 A 
ATOM     75  C   UNL     1     -10.196  -2.050 -14.842  1.00  0.00     0.000 A 
ENDBRANCH  56  70
BRANCH  57  76
ATOM     76  C   UNL     1      -5.670   6.826  -7.470  1.00  0.00    -0.014 A 
ATOM     77  C   UNL     1      -5.412   6.818  -6.083  1.00  0.00     0.009 A 
ATOM     78  C   UNL     1      -4.588   6.924  -8.354  1.00  0.00     0.009 A 
ATOM     79  C   UNL     1      -4.101   6.761  -5.601  1.00  0.00     0.001 A 
ATOM     80  C   UNL     1      -3.277   6.889  -7.864  1.00  0.00     0.001 A 
ATOM     81  C   UNL     1      -3.035   6.762  -6.496  1.00  0.00     0.000 A 
ENDBRANCH  57  76
BRANCH  69  82
ATOM     82  C   UNL     1     -10.111   6.969 -13.248  1.00  0.00    -0.014 A 
ATOM     83  C   UNL     1     -10.448   8.330 -13.248  1.00  0.00     0.009 A 
ATOM     84  C   UNL     1     -10.357   6.260 -14.444  1.00  0.00     0.009 A 
ATOM     85  C   UNL     1     -10.923   8.965 -14.405  1.00  0.00     0.001 A 
ATOM     86  C   UNL     1     -10.853   6.882 -15.593  1.00  0.00     0.001 A 
ATOM     87  C   UNL     1     -11.121   8.242 -15.578  1.00  0.00     0.000 A 
ENDBRANCH  69  82
ENDBRANCH  43  44
ENDBRANCH  35  38
ENDBRANCH  33  34
ENDBRANCH   1  33
TORSDOF 13
