REMARK SMILES CCCNC(=O)[C@H](C)[NH2+][C@H](C)[C@@H](C)C(=O)NCCCNC(=O)c1ccc(-c2c3nc(c(-c4ccccc4)c4ccc([nH]4)c(-c4ccccc4)c4nc(c(-c5ccccc5)c5ccc2[nH]5)C=C4)C=C3)cc1
REMARK SMILES IDX 14 1 15 2 16 3 12 5 13 6 10 7 11 8 9 9 7 12 8 13 5 14 4 15
REMARK SMILES IDX 6 17 3 18 2 19 1 20 17 21 18 22 19 23 20 24 21 25 22 27
REMARK SMILES IDX 23 28 24 29 70 30 25 31 69 32 26 33 27 34 28 35 63 36 29 37
REMARK SMILES IDX 68 38 62 39 64 40 30 41 67 42 61 43 60 44 31 46 53 47 38 48
REMARK SMILES IDX 52 49 39 50 42 51 51 52 65 53 40 54 41 55 50 57 66 58 43 59
REMARK SMILES IDX 32 60 33 61 37 62 34 63 36 64 35 65 54 66 55 67 59 68 56 69
REMARK SMILES IDX 58 70 57 71 44 72 45 73 49 74 46 75 48 76 47 77
REMARK H PARENT 16 4 9 10 9 11 4 16 20 26 64 45 42 56
REMARK Flexibility Score: inf
ROOT
ATOM      1  C   UNL     1       1.543   8.678   1.711  1.00  0.00     0.228 C 
ATOM      2  O   UNL     1       2.295   9.070   2.610  1.00  0.00    -0.275 OA
ATOM      3  N   UNL     1       0.671   9.600   1.229  1.00  0.00    -0.356 N 
ATOM      4  H   UNL     1       0.604  10.412   1.783  1.00  0.00     0.163 HD
ENDROOT
BRANCH   1   5
ATOM      5  C   UNL     1       1.680   7.264   1.149  1.00  0.00     0.133 C 
ATOM      6  C   UNL     1       2.491   7.384  -0.150  1.00  0.00     0.024 C 
BRANCH   5   7
ATOM      7  C   UNL     1       0.360   6.446   1.053  1.00  0.00     0.192 C 
ATOM      8  C   UNL     1       0.488   5.265   0.076  1.00  0.00     0.076 C 
BRANCH   7   9
ATOM      9  N   UNL     1      -0.128   5.840   2.309  1.00  0.00    -0.333 N 
ATOM     10  H   UNL     1      -0.889   5.204   2.071  1.00  0.00     0.347 HD
ATOM     11  H   UNL     1       0.687   5.387   2.724  1.00  0.00     0.347 HD
BRANCH   9  12
ATOM     12  C   UNL     1      -0.626   6.773   3.341  1.00  0.00     0.269 C 
ATOM     13  C   UNL     1      -1.682   6.049   4.177  1.00  0.00     0.086 C 
BRANCH  12  14
ATOM     14  C   UNL     1       0.520   7.168   4.287  1.00  0.00     0.277 C 
ATOM     15  N   UNL     1       0.492   8.377   4.917  1.00  0.00    -0.351 N 
ATOM     16  H   UNL     1       1.212   8.532   5.569  1.00  0.00     0.163 HD
ATOM     17  O   UNL     1       1.465   6.404   4.501  1.00  0.00    -0.268 OA
BRANCH  15  18
ATOM     18  C   UNL     1      -0.450   9.466   4.759  1.00  0.00     0.116 C 
BRANCH  18  19
ATOM     19  C   UNL     1      -0.538  10.339   6.006  1.00  0.00     0.018 C 
ATOM     20  C   UNL     1       0.724  11.157   6.243  1.00  0.00     0.006 C 
ENDBRANCH  18  19
ENDBRANCH  15  18
ENDBRANCH  12  14
ENDBRANCH   9  12
ENDBRANCH   7   9
ENDBRANCH   5   7
ENDBRANCH   1   5
BRANCH   3  21
ATOM     21  C   UNL     1      -0.182   9.619   0.057  1.00  0.00     0.117 C 
BRANCH  21  22
ATOM     22  C   UNL     1      -1.673   9.571   0.379  1.00  0.00     0.042 C 
BRANCH  22  23
ATOM     23  C   UNL     1      -2.170  10.641   1.342  1.00  0.00     0.118 C 
BRANCH  23  24
ATOM     24  N   UNL     1      -1.910  11.996   0.886  1.00  0.00    -0.352 N 
ATOM     25  C   UNL     1      -2.773  12.989   0.495  1.00  0.00     0.251 C 
ATOM     26  H   UNL     1      -0.957  12.242   0.851  1.00  0.00     0.163 HD
ATOM     27  O   UNL     1      -2.325  14.011  -0.014  1.00  0.00    -0.269 OA
BRANCH  25  28
ATOM     28  C   UNL     1      -4.235  12.831   0.654  1.00  0.00     0.039 A 
ATOM     29  C   UNL     1      -5.068  13.248  -0.388  1.00  0.00     0.014 A 
ATOM     30  C   UNL     1      -4.793  12.311   1.824  1.00  0.00     0.014 A 
ATOM     31  C   UNL     1      -6.450  13.080  -0.284  1.00  0.00     0.010 A 
ATOM     32  C   UNL     1      -6.163  12.066   1.893  1.00  0.00     0.010 A 
ATOM     33  C   UNL     1      -7.007  12.451   0.841  1.00  0.00    -0.014 A 
BRANCH  33  34
ATOM     34  C   UNL     1      -8.466  12.184   0.926  1.00  0.00     0.031 A 
ATOM     35  C   UNL     1      -9.300  12.829   1.999  1.00  0.00     0.074 A 
ATOM     36  C   UNL     1      -9.034  11.313   0.068  1.00  0.00     0.049 A 
ATOM     37  N   UNL     1     -10.578  12.686   2.250  1.00  0.00    -0.248 NA
ATOM     38  C   UNL     1      -8.605  13.736   2.927  1.00  0.00     0.031 C 
ATOM     39  C   UNL     1      -8.334  10.596  -0.999  1.00  0.00     0.029 A 
ATOM     40  N   UNL     1     -10.333  10.883  -0.041  1.00  0.00    -0.354 N 
ATOM     41  C   UNL     1     -10.833  13.465   3.372  1.00  0.00     0.074 A 
ATOM     42  C   UNL     1      -9.570  14.040   3.782  1.00  0.00     0.031 C 
ATOM     43  C   UNL     1      -9.217   9.846  -1.678  1.00  0.00     0.029 A 
ATOM     44  C   UNL     1     -10.533   9.991  -1.066  1.00  0.00     0.049 A 
ATOM     45  H   UNL     1     -11.053  11.185   0.559  1.00  0.00     0.167 HD
ATOM     46  C   UNL     1     -12.012  13.694   3.997  1.00  0.00     0.031 A 
ATOM     47  C   UNL     1     -11.650   9.355  -1.468  1.00  0.00     0.031 A 
ATOM     48  C   UNL     1     -13.270  13.127   3.586  1.00  0.00     0.049 A 
ATOM     49  C   UNL     1     -12.941   9.602  -0.737  1.00  0.00     0.074 A 
ATOM     50  C   UNL     1     -14.530  13.352   4.114  1.00  0.00     0.029 A 
ATOM     51  N   UNL     1     -13.426  12.216   2.553  1.00  0.00    -0.354 N 
ATOM     52  N   UNL     1     -13.179  10.402   0.274  1.00  0.00    -0.248 NA
ATOM     53  C   UNL     1     -14.119   8.863  -1.212  1.00  0.00     0.031 C 
ATOM     54  C   UNL     1     -15.438  12.525   3.445  1.00  0.00     0.029 A 
ATOM     55  C   UNL     1     -14.756  11.839   2.453  1.00  0.00     0.049 A 
ATOM     56  H   UNL     1     -12.700  11.885   1.977  1.00  0.00     0.167 HD
ATOM     57  C   UNL     1     -14.538  10.287   0.534  1.00  0.00     0.074 A 
ATOM     58  C   UNL     1     -15.074   9.353  -0.434  1.00  0.00     0.031 C 
ATOM     59  C   UNL     1     -15.277  10.905   1.488  1.00  0.00     0.031 A 
BRANCH  46  60
ATOM     60  C   UNL     1     -11.993  14.581   5.213  1.00  0.00    -0.014 A 
ATOM     61  C   UNL     1     -11.726  15.957   5.115  1.00  0.00     0.009 A 
ATOM     62  C   UNL     1     -12.280  14.037   6.475  1.00  0.00     0.009 A 
ATOM     63  C   UNL     1     -11.703  16.758   6.259  1.00  0.00     0.001 A 
ATOM     64  C   UNL     1     -12.289  14.846   7.613  1.00  0.00     0.001 A 
ATOM     65  C   UNL     1     -11.989  16.203   7.506  1.00  0.00     0.000 A 
ENDBRANCH  46  60
BRANCH  47  66
ATOM     66  C   UNL     1     -11.606   8.434  -2.635  1.00  0.00    -0.014 A 
ATOM     67  C   UNL     1     -12.246   8.780  -3.835  1.00  0.00     0.009 A 
ATOM     68  C   UNL     1     -10.932   7.205  -2.556  1.00  0.00     0.009 A 
ATOM     69  C   UNL     1     -12.236   7.902  -4.922  1.00  0.00     0.001 A 
ATOM     70  C   UNL     1     -10.897   6.344  -3.654  1.00  0.00     0.001 A 
ATOM     71  C   UNL     1     -11.557   6.688  -4.832  1.00  0.00     0.000 A 
ENDBRANCH  47  66
BRANCH  59  72
ATOM     72  C   UNL     1     -16.754  10.621   1.508  1.00  0.00    -0.014 A 
ATOM     73  C   UNL     1     -17.256   9.375   1.912  1.00  0.00     0.009 A 
ATOM     74  C   UNL     1     -17.659  11.635   1.152  1.00  0.00     0.009 A 
ATOM     75  C   UNL     1     -18.633   9.138   1.924  1.00  0.00     0.001 A 
ATOM     76  C   UNL     1     -19.034  11.407   1.197  1.00  0.00     0.001 A 
ATOM     77  C   UNL     1     -19.520  10.155   1.572  1.00  0.00     0.000 A 
ENDBRANCH  59  72
ENDBRANCH  33  34
ENDBRANCH  25  28
ENDBRANCH  23  24
ENDBRANCH  22  23
ENDBRANCH  21  22
ENDBRANCH   3  21
TORSDOF 16
