REMARK SMILES Cc1c(Cl)cc2c(c1C)O[C@H](C(F)(F)F)C(C(=O)NCCCNC(=O)c1ccc(-c3c4nc(c(-c5ccccc5)c5ccc([nH]5)c(-c5ccccc5)c5nc(c(-c6ccccc6)c6ccc3[nH]6)C=C5)C=C4)cc1)=C2
REMARK SMILES IDX 21 1 20 2 19 3 17 4 18 5 16 7 1 8 2 9 3 10 8 11 4 12 5 13
REMARK SMILES IDX 7 14 9 15 6 16 10 17 74 18 11 19 12 20 13 21 14 22 15 23
REMARK SMILES IDX 22 24 23 25 24 26 25 28 26 29 27 30 73 31 28 32 72 33 29 34
REMARK SMILES IDX 30 35 31 36 66 37 32 38 71 39 65 40 67 41 33 42 70 43 64 44
REMARK SMILES IDX 63 45 34 47 56 48 41 49 55 50 42 51 45 52 54 53 68 54 43 55
REMARK SMILES IDX 44 56 53 58 69 59 46 60 35 61 36 62 40 63 37 64 39 65 38 66
REMARK SMILES IDX 57 67 58 68 62 69 59 70 61 71 60 72 47 73 48 74 52 75 49 76
REMARK SMILES IDX 51 77 50 78
REMARK H PARENT 19 6 23 27 67 46 45 57
REMARK Flexibility Score: inf
ROOT
ATOM      1  C   UNL     1      -5.717   6.510   2.207  1.00  0.00     0.042 C 
ENDROOT
BRANCH   1   2
ATOM      2  C   UNL     1      -5.140   6.485   0.800  1.00  0.00     0.118 C 
BRANCH   2   3
ATOM      3  N   UNL     1      -3.851   7.156   0.732  1.00  0.00    -0.352 N 
ATOM      4  C   UNL     1      -2.554   6.800   0.583  1.00  0.00     0.251 C 
ATOM      5  O   UNL     1      -1.748   7.736   0.580  1.00  0.00    -0.270 OA
ATOM      6  H   UNL     1      -3.949   8.132   0.816  1.00  0.00     0.163 HD
BRANCH   4   7
ATOM      7  C   UNL     1      -2.065   5.400   0.434  1.00  0.00     0.067 C 
ATOM      8  C   UNL     1       1.300  -0.176  -0.098  1.00  0.00     0.046 C 
ATOM      9  C   UNL     1       0.788   1.237   0.009  1.00  0.00    -0.026 A 
ATOM     10  C   UNL     1       1.635   2.353  -0.161  1.00  0.00     0.045 A 
ATOM     11  C   UNL     1      -0.584   1.466   0.267  1.00  0.00    -0.004 A 
ATOM     12  Cl  UNL     1       3.321   2.188  -0.512  1.00  0.00    -0.084 Cl
ATOM     13  C   UNL     1       1.146   3.661  -0.052  1.00  0.00     0.032 A 
ATOM     14  C   UNL     1      -1.050   2.789   0.376  1.00  0.00     0.131 A 
ATOM     15  C   UNL     1      -1.591   0.352   0.424  1.00  0.00     0.049 C 
ATOM     16  C   UNL     1      -0.200   3.885   0.222  1.00  0.00     0.019 A 
ATOM     17  O   UNL     1      -2.371   2.948   0.694  1.00  0.00    -0.475 OA
ATOM     18  C   UNL     1      -0.731   5.235   0.380  1.00  0.00     0.025 C 
ATOM     19  C   UNL     1      -2.971   4.212   0.322  1.00  0.00     0.314 C 
BRANCH  19  20
ATOM     20  C   UNL     1      -3.620   4.082  -1.070  1.00  0.00     0.429 C 
ATOM     21  F   UNL     1      -4.700   3.262  -1.010  1.00  0.00    -0.167 F 
ATOM     22  F   UNL     1      -4.067   5.267  -1.550  1.00  0.00    -0.167 F 
ATOM     23  F   UNL     1      -2.778   3.578  -1.998  1.00  0.00    -0.167 F 
ENDBRANCH  19  20
ENDBRANCH   4   7
ENDBRANCH   2   3
ENDBRANCH   1   2
BRANCH   1  24
ATOM     24  C   UNL     1      -6.345   7.856   2.537  1.00  0.00     0.118 C 
BRANCH  24  25
ATOM     25  N   UNL     1      -7.491   8.143   1.675  1.00  0.00    -0.352 N 
ATOM     26  C   UNL     1      -8.833   8.114   1.950  1.00  0.00     0.251 C 
ATOM     27  H   UNL     1      -7.262   8.396   0.752  1.00  0.00     0.163 HD
ATOM     28  O   UNL     1      -9.648   8.099   1.029  1.00  0.00    -0.269 OA
BRANCH  26  29
ATOM     29  C   UNL     1      -9.297   8.101   3.348  1.00  0.00     0.039 A 
ATOM     30  C   UNL     1     -10.393   7.312   3.702  1.00  0.00     0.014 A 
ATOM     31  C   UNL     1      -8.657   8.891   4.305  1.00  0.00     0.014 A 
ATOM     32  C   UNL     1     -10.806   7.270   5.034  1.00  0.00     0.010 A 
ATOM     33  C   UNL     1      -8.998   8.766   5.643  1.00  0.00     0.010 A 
ATOM     34  C   UNL     1     -10.088   7.971   6.017  1.00  0.00    -0.014 A 
BRANCH  34  35
ATOM     35  C   UNL     1     -10.480   7.921   7.444  1.00  0.00     0.031 A 
ATOM     36  C   UNL     1     -10.919   9.180   8.140  1.00  0.00     0.074 A 
ATOM     37  C   UNL     1     -10.388   6.760   8.120  1.00  0.00     0.049 A 
ATOM     38  N   UNL     1     -11.246   9.356   9.394  1.00  0.00    -0.248 NA
ATOM     39  C   UNL     1     -10.971  10.409   7.328  1.00  0.00     0.031 C 
ATOM     40  C   UNL     1      -9.945   5.483   7.557  1.00  0.00     0.029 A 
ATOM     41  N   UNL     1     -10.667   6.467   9.430  1.00  0.00    -0.354 N 
ATOM     42  C   UNL     1     -11.530  10.710   9.519  1.00  0.00     0.074 A 
ATOM     43  C   UNL     1     -11.274  11.322   8.237  1.00  0.00     0.031 C 
ATOM     44  C   UNL     1     -10.025   4.535   8.504  1.00  0.00     0.029 A 
ATOM     45  C   UNL     1     -10.480   5.145   9.749  1.00  0.00     0.049 A 
ATOM     46  H   UNL     1     -10.973   7.141  10.080  1.00  0.00     0.167 HD
ATOM     47  C   UNL     1     -11.996  11.378  10.599  1.00  0.00     0.031 A 
ATOM     48  C   UNL     1     -10.657   4.497  10.916  1.00  0.00     0.031 A 
ATOM     49  C   UNL     1     -12.265  10.760  11.868  1.00  0.00     0.049 A 
ATOM     50  C   UNL     1     -11.142   5.269  12.111  1.00  0.00     0.074 A 
ATOM     51  C   UNL     1     -12.779  11.339  13.014  1.00  0.00     0.029 A 
ATOM     52  N   UNL     1     -12.044   9.422  12.155  1.00  0.00    -0.354 N 
ATOM     53  N   UNL     1     -11.459   6.538  12.200  1.00  0.00    -0.248 NA
ATOM     54  C   UNL     1     -11.301   4.518  13.364  1.00  0.00     0.031 C 
ATOM     55  C   UNL     1     -12.817  10.363  14.012  1.00  0.00     0.029 A 
ATOM     56  C   UNL     1     -12.387   9.162  13.470  1.00  0.00     0.049 A 
ATOM     57  H   UNL     1     -11.696   8.757  11.519  1.00  0.00     0.167 HD
ATOM     58  C   UNL     1     -11.875   6.734  13.510  1.00  0.00     0.074 A 
ATOM     59  C   UNL     1     -11.789   5.449  14.174  1.00  0.00     0.031 C 
ATOM     60  C   UNL     1     -12.290   7.876  14.111  1.00  0.00     0.031 A 
BRANCH  47  61
ATOM     61  C   UNL     1     -12.256  12.850  10.449  1.00  0.00    -0.014 A 
ATOM     62  C   UNL     1     -13.316  13.322   9.657  1.00  0.00     0.009 A 
ATOM     63  C   UNL     1     -11.466  13.777  11.147  1.00  0.00     0.009 A 
ATOM     64  C   UNL     1     -13.562  14.691   9.545  1.00  0.00     0.001 A 
ATOM     65  C   UNL     1     -11.734  15.144  11.058  1.00  0.00     0.001 A 
ATOM     66  C   UNL     1     -12.776  15.600  10.252  1.00  0.00     0.000 A 
ENDBRANCH  47  61
BRANCH  48  67
ATOM     67  C   UNL     1     -10.406   3.034  10.996  1.00  0.00    -0.014 A 
ATOM     68  C   UNL     1     -11.477   2.139  11.145  1.00  0.00     0.009 A 
ATOM     69  C   UNL     1      -9.103   2.521  10.901  1.00  0.00     0.009 A 
ATOM     70  C   UNL     1     -11.246   0.763  11.214  1.00  0.00     0.001 A 
ATOM     71  C   UNL     1      -8.878   1.143  10.940  1.00  0.00     0.001 A 
ATOM     72  C   UNL     1      -9.948   0.266  11.104  1.00  0.00     0.000 A 
ENDBRANCH  48  67
BRANCH  60  73
ATOM     73  C   UNL     1     -12.699   7.792  15.554  1.00  0.00    -0.014 A 
ATOM     74  C   UNL     1     -11.745   7.633  16.569  1.00  0.00     0.009 A 
ATOM     75  C   UNL     1     -14.048   7.962  15.905  1.00  0.00     0.009 A 
ATOM     76  C   UNL     1     -12.137   7.625  17.909  1.00  0.00     0.001 A 
ATOM     77  C   UNL     1     -14.432   7.985  17.246  1.00  0.00     0.001 A 
ATOM     78  C   UNL     1     -13.477   7.810  18.246  1.00  0.00     0.000 A 
ENDBRANCH  60  73
ENDBRANCH  34  35
ENDBRANCH  26  29
ENDBRANCH  24  25
ENDBRANCH   1  24
TORSDOF 11
