REMARK SMILES O=C(NCCCNC(=O)c1ccc(-c2c3nc(c(-c4ccccc4)c4ccc([nH]4)c(-c4ccccc4)c4nc(c(-c5ccccc5)c5ccc2[nH]5)C=C4)C=C3)cc1)C1=Cc2cc(Cl)cc(-c3ccc(Cl)cc3)c2O[C@@H]1C(F)(F)F
REMARK SMILES IDX 5 1 4 2 3 3 1 4 2 5 58 7 59 8 75 9 60 10 74 11 61 12 73 13
REMARK SMILES IDX 62 14 65 15 63 16 64 17 76 18 77 19 78 20 79 21 66 22 67 23
REMARK SMILES IDX 72 24 68 25 71 26 69 27 70 28 6 29 7 30 8 31 9 33 10 34
REMARK SMILES IDX 11 35 57 36 12 37 56 38 13 39 14 40 15 41 50 42 16 43 55 44
REMARK SMILES IDX 49 45 51 46 17 47 54 48 48 49 47 50 18 52 40 53 25 54 39 55
REMARK SMILES IDX 26 56 29 57 38 58 52 59 27 60 28 61 37 63 53 64 30 65 19 66
REMARK SMILES IDX 20 67 24 68 21 69 23 70 22 71 41 72 42 73 46 74 43 75 45 76
REMARK SMILES IDX 44 77 31 78 32 79 36 80 33 81 35 82 34 83
REMARK H PARENT 3 6 7 32 51 51 29 62
REMARK Flexibility Score: inf
ROOT
ATOM      1  C   UNL     1       4.029   2.472   1.380  1.00  0.00     0.042 C 
ENDROOT
BRANCH   1   2
ATOM      2  C   UNL     1       2.994   1.347   1.334  1.00  0.00     0.118 C 
BRANCH   2   3
ATOM      3  N   UNL     1       2.171   1.386   0.121  1.00  0.00    -0.352 N 
ATOM      4  O   UNL     1       1.302   0.609  -1.827  1.00  0.00    -0.270 OA
ATOM      5  C   UNL     1       2.187   0.572  -0.984  1.00  0.00     0.251 C 
ATOM      6  H   UNL     1       1.504   2.109   0.095  1.00  0.00     0.163 HD
BRANCH   5   7
ATOM      7  C   UNL     1       3.290  -0.393  -1.073  1.00  0.00     0.067 C 
ATOM      8  C   UNL     1       4.528   0.098  -1.202  1.00  0.00     0.025 C 
ATOM      9  C   UNL     1       3.017  -1.803  -0.664  1.00  0.00     0.314 C 
ATOM     10  C   UNL     1       5.545  -0.623  -0.433  1.00  0.00     0.019 A 
ATOM     11  O   UNL     1       3.888  -2.208   0.422  1.00  0.00    -0.475 OA
ATOM     12  C   UNL     1       6.808  -0.037  -0.321  1.00  0.00     0.032 A 
ATOM     13  C   UNL     1       5.131  -1.616   0.484  1.00  0.00     0.135 A 
ATOM     14  C   UNL     1       7.613  -0.359   0.765  1.00  0.00     0.042 A 
ATOM     15  C   UNL     1       5.921  -1.903   1.611  1.00  0.00     0.026 A 
ATOM     16  Cl  UNL     1       9.094   0.485   0.996  1.00  0.00    -0.084 Cl
ATOM     17  C   UNL     1       7.168  -1.260   1.733  1.00  0.00     0.033 A 
BRANCH   9  18
ATOM     18  C   UNL     1       3.083  -2.770  -1.860  1.00  0.00     0.429 C 
ATOM     19  F   UNL     1       2.733  -4.027  -1.493  1.00  0.00    -0.167 F 
ATOM     20  F   UNL     1       2.233  -2.403  -2.849  1.00  0.00    -0.167 F 
ATOM     21  F   UNL     1       4.321  -2.842  -2.403  1.00  0.00    -0.167 F 
ENDBRANCH   9  18
BRANCH  15  22
ATOM     22  C   UNL     1       5.421  -2.690   2.751  1.00  0.00    -0.015 A 
ATOM     23  C   UNL     1       4.920  -2.030   3.888  1.00  0.00     0.010 A 
ATOM     24  C   UNL     1       5.486  -4.087   2.777  1.00  0.00     0.010 A 
ATOM     25  C   UNL     1       4.561  -2.726   5.042  1.00  0.00     0.021 A 
ATOM     26  C   UNL     1       5.114  -4.793   3.929  1.00  0.00     0.021 A 
ATOM     27  C   UNL     1       4.673  -4.109   5.061  1.00  0.00     0.041 A 
ATOM     28  Cl  UNL     1       4.278  -4.971   6.496  1.00  0.00    -0.084 Cl
ENDBRANCH  15  22
ENDBRANCH   5   7
ENDBRANCH   2   3
ENDBRANCH   1   2
BRANCH   1  29
ATOM     29  C   UNL     1       4.546   2.740   2.791  1.00  0.00     0.118 C 
BRANCH  29  30
ATOM     30  N   UNL     1       5.298   1.651   3.392  1.00  0.00    -0.352 N 
ATOM     31  C   UNL     1       6.024   1.631   4.568  1.00  0.00     0.251 C 
ATOM     32  H   UNL     1       5.289   0.806   2.888  1.00  0.00     0.163 HD
ATOM     33  O   UNL     1       6.591   0.596   4.912  1.00  0.00    -0.269 OA
BRANCH  31  34
ATOM     34  C   UNL     1       6.232   2.870   5.356  1.00  0.00     0.039 A 
ATOM     35  C   UNL     1       7.510   3.106   5.877  1.00  0.00     0.014 A 
ATOM     36  C   UNL     1       5.246   3.842   5.490  1.00  0.00     0.014 A 
ATOM     37  C   UNL     1       7.837   4.369   6.375  1.00  0.00     0.010 A 
ATOM     38  C   UNL     1       5.598   5.129   5.877  1.00  0.00     0.010 A 
ATOM     39  C   UNL     1       6.907   5.414   6.287  1.00  0.00    -0.014 A 
BRANCH  39  40
ATOM     40  C   UNL     1       7.292   6.823   6.545  1.00  0.00     0.031 A 
ATOM     41  C   UNL     1       6.576   7.621   7.596  1.00  0.00     0.074 A 
ATOM     42  C   UNL     1       8.198   7.413   5.738  1.00  0.00     0.049 A 
ATOM     43  N   UNL     1       6.667   8.897   7.869  1.00  0.00    -0.248 NA
ATOM     44  C   UNL     1       5.590   6.899   8.416  1.00  0.00     0.031 C 
ATOM     45  C   UNL     1       8.902   6.763   4.628  1.00  0.00     0.029 A 
ATOM     46  N   UNL     1       8.676   8.698   5.721  1.00  0.00    -0.354 N 
ATOM     47  C   UNL     1       5.721   9.137   8.857  1.00  0.00     0.074 A 
ATOM     48  C   UNL     1       5.036   7.887   9.101  1.00  0.00     0.031 C 
ATOM     49  C   UNL     1       9.753   7.639   4.070  1.00  0.00     0.029 A 
ATOM     50  C   UNL     1       9.624   8.921   4.750  1.00  0.00     0.049 A 
ATOM     51  H   UNL     1       8.370   9.396   6.344  1.00  0.00     0.167 HD
ATOM     52  C   UNL     1       5.461  10.290   9.517  1.00  0.00     0.031 A 
ATOM     53  C   UNL     1      10.315  10.034   4.445  1.00  0.00     0.031 A 
ATOM     54  C   UNL     1       6.178  11.516   9.300  1.00  0.00     0.049 A 
ATOM     55  C   UNL     1      10.066  11.280   5.246  1.00  0.00     0.074 A 
ATOM     56  C   UNL     1       6.044  12.727   9.956  1.00  0.00     0.029 A 
ATOM     57  N   UNL     1       7.183  11.679   8.357  1.00  0.00    -0.354 N 
ATOM     58  N   UNL     1       9.206  11.477   6.216  1.00  0.00    -0.248 NA
ATOM     59  C   UNL     1      10.891  12.450   4.921  1.00  0.00     0.031 C 
ATOM     60  C   UNL     1       6.956  13.628   9.396  1.00  0.00     0.029 A 
ATOM     61  C   UNL     1       7.682  12.968   8.417  1.00  0.00     0.049 A 
ATOM     62  H   UNL     1       7.496  10.980   7.738  1.00  0.00     0.167 HD
ATOM     63  C   UNL     1       9.403  12.784   6.635  1.00  0.00     0.074 A 
ATOM     64  C   UNL     1      10.474  13.328   5.824  1.00  0.00     0.031 C 
ATOM     65  C   UNL     1       8.755  13.476   7.603  1.00  0.00     0.031 A 
BRANCH  52  66
ATOM     66  C   UNL     1       4.356  10.261  10.536  1.00  0.00    -0.014 A 
ATOM     67  C   UNL     1       4.496   9.550  11.740  1.00  0.00     0.009 A 
ATOM     68  C   UNL     1       3.154  10.941  10.286  1.00  0.00     0.009 A 
ATOM     69  C   UNL     1       3.438   9.478  12.647  1.00  0.00     0.001 A 
ATOM     70  C   UNL     1       2.108  10.891  11.210  1.00  0.00     0.001 A 
ATOM     71  C   UNL     1       2.245  10.149  12.382  1.00  0.00     0.000 A 
ENDBRANCH  52  66
BRANCH  53  72
ATOM     72  C   UNL     1      11.340  10.008   3.370  1.00  0.00    -0.014 A 
ATOM     73  C   UNL     1      12.705  10.028   3.697  1.00  0.00     0.009 A 
ATOM     74  C   UNL     1      10.967   9.954   2.018  1.00  0.00     0.009 A 
ATOM     75  C   UNL     1      13.675  10.020   2.692  1.00  0.00     0.001 A 
ATOM     76  C   UNL     1      11.941   9.921   1.016  1.00  0.00     0.001 A 
ATOM     77  C   UNL     1      13.293   9.963   1.353  1.00  0.00     0.000 A 
ENDBRANCH  53  72
BRANCH  65  78
ATOM     78  C   UNL     1       9.218  14.879   7.859  1.00  0.00    -0.014 A 
ATOM     79  C   UNL     1       8.893  15.922   6.979  1.00  0.00     0.009 A 
ATOM     80  C   UNL     1       9.957  15.163   9.018  1.00  0.00     0.009 A 
ATOM     81  C   UNL     1       9.325  17.223   7.243  1.00  0.00     0.001 A 
ATOM     82  C   UNL     1      10.367  16.468   9.290  1.00  0.00     0.001 A 
ATOM     83  C   UNL     1      10.057  17.495   8.399  1.00  0.00     0.000 A 
ENDBRANCH  65  78
ENDBRANCH  39  40
ENDBRANCH  31  34
ENDBRANCH  29  30
ENDBRANCH   1  29
TORSDOF 12
