REMARK SMILES O=C(NCCCNC(=O)[C@H](c1cnn(Cc2ccccc2)c1)[NH+]1CCOCC1)c1ccc(-c2c3nc(c(-c4ccccc4)c4ccc([nH]4)c(-c4ccccc4)c4nc(c(-c5ccccc5)c5ccc2[nH]5)C=C4)C=C3)cc1
REMARK SMILES IDX 5 1 4 2 3 3 1 4 2 5 29 7 30 8 76 9 31 10 75 11 32 12 33 13
REMARK SMILES IDX 34 14 69 15 35 16 74 17 68 18 70 19 36 20 73 21 67 22 66 23
REMARK SMILES IDX 37 25 59 26 44 27 58 28 45 29 48 30 57 31 71 32 46 33 47 34
REMARK SMILES IDX 56 36 72 37 49 38 38 39 39 40 43 41 40 42 42 43 41 44 60 45
REMARK SMILES IDX 61 46 65 47 62 48 64 49 63 50 50 51 51 52 55 53 52 54 54 55
REMARK SMILES IDX 53 56 6 57 7 58 8 59 9 61 10 62 23 63 24 64 28 65 25 67
REMARK SMILES IDX 27 68 26 69 11 70 12 71 22 72 13 73 14 74 15 75 16 76 17 77
REMARK SMILES IDX 21 78 18 79 20 80 19 81
REMARK H PARENT 3 6 70 24 48 35 7 60 23 66
REMARK Flexibility Score: inf
ROOT
ATOM      1  C   UNL     1       9.066   3.552  -3.261  1.00  0.00     0.042 C 
ENDROOT
BRANCH   1   2
ATOM      2  C   UNL     1      10.191   2.786  -2.571  1.00  0.00     0.118 C 
BRANCH   2   3
ATOM      3  N   UNL     1      11.476   2.957  -3.213  1.00  0.00    -0.352 N 
ATOM      4  O   UNL     1      13.412   3.719  -3.932  1.00  0.00    -0.269 OA
ATOM      5  C   UNL     1      12.418   3.946  -3.247  1.00  0.00     0.251 C 
ATOM      6  H   UNL     1      11.733   2.176  -3.754  1.00  0.00     0.163 HD
BRANCH   5   7
ATOM      7  C   UNL     1      12.295   5.272  -2.580  1.00  0.00     0.039 A 
ATOM      8  C   UNL     1      11.310   5.655  -1.666  1.00  0.00     0.014 A 
ATOM      9  C   UNL     1      13.282   6.210  -2.936  1.00  0.00     0.014 A 
ATOM     10  C   UNL     1      11.259   6.963  -1.189  1.00  0.00     0.010 A 
ATOM     11  C   UNL     1      13.249   7.509  -2.449  1.00  0.00     0.010 A 
ATOM     12  C   UNL     1      12.213   7.894  -1.604  1.00  0.00    -0.014 A 
BRANCH  12  13
ATOM     13  C   UNL     1      12.214   9.224  -1.000  1.00  0.00     0.031 A 
ATOM     14  C   UNL     1      12.530   9.242   0.461  1.00  0.00     0.074 A 
ATOM     15  C   UNL     1      12.140  10.355  -1.733  1.00  0.00     0.049 A 
ATOM     16  N   UNL     1      11.844   9.764   1.425  1.00  0.00    -0.248 NA
ATOM     17  C   UNL     1      13.722   8.500   0.911  1.00  0.00     0.031 C 
ATOM     18  C   UNL     1      12.132  10.474  -3.195  1.00  0.00     0.029 A 
ATOM     19  N   UNL     1      12.194  11.654  -1.324  1.00  0.00    -0.354 N 
ATOM     20  C   UNL     1      12.597   9.569   2.585  1.00  0.00     0.074 A 
ATOM     21  C   UNL     1      13.668   8.675   2.231  1.00  0.00     0.031 C 
ATOM     22  C   UNL     1      12.431  11.747  -3.541  1.00  0.00     0.029 A 
ATOM     23  C   UNL     1      12.519  12.553  -2.335  1.00  0.00     0.049 A 
ATOM     24  H   UNL     1      12.019  11.932  -0.396  1.00  0.00     0.167 HD
ATOM     25  C   UNL     1      12.420  10.334   3.698  1.00  0.00     0.031 A 
ATOM     26  C   UNL     1      12.906  13.846  -2.189  1.00  0.00     0.031 A 
ATOM     27  C   UNL     1      11.140  10.989   3.699  1.00  0.00     0.049 A 
ATOM     28  C   UNL     1      12.512  14.285  -0.832  1.00  0.00     0.074 A 
ATOM     29  C   UNL     1       9.826  10.569   3.692  1.00  0.00     0.029 A 
ATOM     30  N   UNL     1      11.110  12.316   3.346  1.00  0.00    -0.354 N 
ATOM     31  N   UNL     1      11.276  14.436  -0.457  1.00  0.00    -0.248 NA
ATOM     32  C   UNL     1      13.479  14.126   0.242  1.00  0.00     0.031 C 
ATOM     33  C   UNL     1       9.148  11.507   2.860  1.00  0.00     0.029 A 
ATOM     34  C   UNL     1      10.073  12.475   2.467  1.00  0.00     0.049 A 
ATOM     35  H   UNL     1      11.719  13.020   3.665  1.00  0.00     0.167 HD
ATOM     36  C   UNL     1      11.243  13.946   0.840  1.00  0.00     0.074 A 
ATOM     37  C   UNL     1      12.644  13.861   1.250  1.00  0.00     0.031 C 
ATOM     38  C   UNL     1      10.105  13.391   1.352  1.00  0.00     0.031 A 
BRANCH  25  39
ATOM     39  C   UNL     1      13.571  10.838   4.543  1.00  0.00    -0.014 A 
ATOM     40  C   UNL     1      13.286  11.697   5.622  1.00  0.00     0.009 A 
ATOM     41  C   UNL     1      14.917  10.765   4.138  1.00  0.00     0.009 A 
ATOM     42  C   UNL     1      14.271  12.523   6.178  1.00  0.00     0.001 A 
ATOM     43  C   UNL     1      15.911  11.557   4.719  1.00  0.00     0.001 A 
ATOM     44  C   UNL     1      15.580  12.464   5.714  1.00  0.00     0.000 A 
ENDBRANCH  25  39
BRANCH  26  45
ATOM     45  C   UNL     1      13.854  14.630  -3.014  1.00  0.00    -0.014 A 
ATOM     46  C   UNL     1      13.893  16.032  -2.941  1.00  0.00     0.009 A 
ATOM     47  C   UNL     1      14.915  13.982  -3.672  1.00  0.00     0.009 A 
ATOM     48  C   UNL     1      14.970  16.753  -3.478  1.00  0.00     0.001 A 
ATOM     49  C   UNL     1      15.988  14.700  -4.210  1.00  0.00     0.001 A 
ATOM     50  C   UNL     1      16.023  16.086  -4.100  1.00  0.00     0.000 A 
ENDBRANCH  26  45
BRANCH  38  51
ATOM     51  C   UNL     1       8.832  13.521   0.555  1.00  0.00    -0.014 A 
ATOM     52  C   UNL     1       8.675  12.984  -0.736  1.00  0.00     0.009 A 
ATOM     53  C   UNL     1       7.707  14.064   1.191  1.00  0.00     0.009 A 
ATOM     54  C   UNL     1       7.433  13.019  -1.380  1.00  0.00     0.001 A 
ATOM     55  C   UNL     1       6.463  14.079   0.557  1.00  0.00     0.001 A 
ATOM     56  C   UNL     1       6.327  13.562  -0.729  1.00  0.00     0.000 A 
ENDBRANCH  38  51
ENDBRANCH  12  13
ENDBRANCH   5   7
ENDBRANCH   2   3
ENDBRANCH   1   2
BRANCH   1  57
ATOM     57  C   UNL     1       8.892   3.162  -4.732  1.00  0.00     0.118 C 
BRANCH  57  58
ATOM     58  N   UNL     1       8.362   1.816  -4.860  1.00  0.00    -0.351 N 
ATOM     59  C   UNL     1       7.052   1.421  -4.984  1.00  0.00     0.283 C 
ATOM     60  H   UNL     1       9.028   1.092  -4.858  1.00  0.00     0.163 HD
ATOM     61  O   UNL     1       6.810   0.253  -4.676  1.00  0.00    -0.268 OA
BRANCH  59  62
ATOM     62  C   UNL     1       5.996   2.467  -5.459  1.00  0.00     0.308 C 
BRANCH  62  63
ATOM     63  N   UNL     1       4.815   1.990  -6.227  1.00  0.00    -0.317 N 
ATOM     64  C   UNL     1       4.619   0.531  -6.358  1.00  0.00     0.292 C 
ATOM     65  C   UNL     1       4.801   2.559  -7.597  1.00  0.00     0.292 C 
ATOM     66  H   UNL     1       4.048   2.324  -5.643  1.00  0.00     0.349 HD
ATOM     67  C   UNL     1       5.561  -0.161  -7.369  1.00  0.00     0.221 C 
ATOM     68  C   UNL     1       5.807   1.874  -8.537  1.00  0.00     0.221 C 
ATOM     69  O   UNL     1       5.518   0.477  -8.655  1.00  0.00    -0.370 OA
ENDBRANCH  62  63
BRANCH  62  70
ATOM     70  C   UNL     1       5.544   3.240  -4.255  1.00  0.00     0.057 A 
ATOM     71  C   UNL     1       4.985   2.734  -3.059  1.00  0.00     0.145 A 
ATOM     72  C   UNL     1       5.752   4.582  -3.985  1.00  0.00     0.119 A 
ATOM     73  N   UNL     1       5.000   3.632  -2.071  1.00  0.00    -0.181 NA
ATOM     74  N   UNL     1       5.496   4.746  -2.650  1.00  0.00    -0.268 N 
BRANCH  74  75
ATOM     75  C   UNL     1       5.949   5.861  -1.825  1.00  0.00     0.179 C 
BRANCH  75  76
ATOM     76  C   UNL     1       4.822   6.780  -1.447  1.00  0.00    -0.027 A 
ATOM     77  C   UNL     1       4.767   8.091  -1.939  1.00  0.00     0.005 A 
ATOM     78  C   UNL     1       3.808   6.329  -0.589  1.00  0.00     0.005 A 
ATOM     79  C   UNL     1       3.701   8.924  -1.596  1.00  0.00     0.000 A 
ATOM     80  C   UNL     1       2.743   7.160  -0.254  1.00  0.00     0.000 A 
ATOM     81  C   UNL     1       2.688   8.456  -0.761  1.00  0.00     0.000 A 
ENDBRANCH  75  76
ENDBRANCH  74  75
ENDBRANCH  62  70
ENDBRANCH  59  62
ENDBRANCH  57  58
ENDBRANCH   1  57
TORSDOF 14
