REMARK SMILES CC(=O)N1CCc2cc(S(=O)(=O)N[C@@H](C(=O)NCCCNC(=O)c3ccc(-c4c5nc(c(-c6ccccc6)c6ccc([nH]6)c(-c6ccccc6)c6nc(c(-c7ccccc7)c7ccc4[nH]7)C=C6)C=C5)cc3)C(C)C)ccc21
REMARK SMILES IDX 18 1 17 2 15 3 16 4 14 6 13 7 10 9 11 10 12 11 9 12 4 13
REMARK SMILES IDX 5 14 77 15 6 16 7 17 76 18 8 19 75 20 2 21 1 22 3 23 72 24
REMARK SMILES IDX 73 25 74 26 19 27 20 28 21 29 22 30 23 32 24 33 25 34 71 35
REMARK SMILES IDX 26 36 70 37 27 38 28 39 29 40 64 41 30 42 69 43 63 44 65 45
REMARK SMILES IDX 31 46 68 47 62 48 61 49 32 51 54 52 39 53 53 54 40 55 43 56
REMARK SMILES IDX 52 57 66 58 41 59 42 60 51 62 67 63 44 64 33 65 34 66 38 67
REMARK SMILES IDX 35 68 37 69 36 70 55 71 56 72 60 73 57 74 59 75 58 76 45 77
REMARK SMILES IDX 46 78 50 79 47 80 49 81 48 82
REMARK H PARENT 17 5 13 8 21 31 65 50 43 61
REMARK Flexibility Score: inf
ROOT
ATOM      1  C   UNL     1       5.632   5.997   1.018  1.00  0.00     0.117 C 
ENDROOT
BRANCH   1   2
ATOM      2  N   UNL     1       7.077   5.872   1.110  1.00  0.00    -0.355 N 
ATOM      3  C   UNL     1       7.838   4.851   1.600  1.00  0.00     0.238 C 
ATOM      4  O   UNL     1       8.987   5.130   1.955  1.00  0.00    -0.273 OA
ATOM      5  H   UNL     1       7.585   6.643   0.767  1.00  0.00     0.163 HD
BRANCH   3   6
ATOM      6  C   UNL     1       7.316   3.402   1.639  1.00  0.00     0.161 C 
BRANCH   6   7
ATOM      7  N   UNL     1       7.057   2.921   3.015  1.00  0.00    -0.198 NA
ATOM      8  H   UNL     1       7.109   1.903   2.964  1.00  0.00     0.142 HD
BRANCH   7   9
ATOM      9  S   UNL     1       5.675   3.256   3.890  1.00  0.00     0.241 S 
ATOM     10  O   UNL     1       5.697   4.676   4.162  1.00  0.00    -0.207 OA
ATOM     11  O   UNL     1       5.632   2.302   4.970  1.00  0.00    -0.207 OA
BRANCH   9  12
ATOM     12  C   UNL     1       4.289   2.915   2.837  1.00  0.00     0.082 A 
ATOM     13  N   UNL     1       0.864   2.308   0.528  1.00  0.00    -0.312 N 
ATOM     14  C   UNL     1       0.084   3.515   0.841  1.00  0.00     0.130 C 
ATOM     15  C   UNL     1       2.093   2.369   1.208  1.00  0.00     0.047 A 
ATOM     16  C   UNL     1       0.898   4.354   1.826  1.00  0.00     0.059 C 
ATOM     17  C   UNL     1       2.128   3.520   2.003  1.00  0.00    -0.021 A 
ATOM     18  C   UNL     1       3.183   1.511   1.188  1.00  0.00     0.028 A 
ATOM     19  C   UNL     1       3.205   3.799   2.835  1.00  0.00     0.027 A 
ATOM     20  C   UNL     1       4.284   1.780   2.016  1.00  0.00     0.024 A 
BRANCH  13  21
ATOM     21  C   UNL     1       0.294   1.340  -0.272  1.00  0.00     0.223 C 
ATOM     22  C   UNL     1       0.938  -0.014  -0.366  1.00  0.00     0.115 C 
ATOM     23  O   UNL     1      -0.758   1.550  -0.883  1.00  0.00    -0.275 OA
ENDBRANCH  13  21
ENDBRANCH   9  12
ENDBRANCH   7   9
ENDBRANCH   6   7
BRANCH   6  24
ATOM     24  C   UNL     1       8.446   2.465   1.075  1.00  0.00     0.010 C 
ATOM     25  C   UNL     1       8.194   0.974   1.346  1.00  0.00     0.009 C 
ATOM     26  C   UNL     1       8.653   2.664  -0.430  1.00  0.00     0.009 C 
ENDBRANCH   6  24
ENDBRANCH   3   6
ENDBRANCH   1   2
BRANCH   1  27
ATOM     27  C   UNL     1       5.107   6.876   2.154  1.00  0.00     0.042 C 
BRANCH  27  28
ATOM     28  C   UNL     1       5.300   8.368   1.928  1.00  0.00     0.118 C 
BRANCH  28  29
ATOM     29  N   UNL     1       4.165   8.965   1.248  1.00  0.00    -0.352 N 
ATOM     30  C   UNL     1       3.130   9.730   1.730  1.00  0.00     0.251 C 
ATOM     31  H   UNL     1       4.130   8.792   0.279  1.00  0.00     0.163 HD
ATOM     32  O   UNL     1       2.149   9.908   1.009  1.00  0.00    -0.269 OA
BRANCH  30  33
ATOM     33  C   UNL     1       3.151  10.334   3.088  1.00  0.00     0.039 A 
ATOM     34  C   UNL     1       1.933  10.492   3.764  1.00  0.00     0.014 A 
ATOM     35  C   UNL     1       4.317  10.828   3.676  1.00  0.00     0.014 A 
ATOM     36  C   UNL     1       1.894  11.101   5.025  1.00  0.00     0.010 A 
ATOM     37  C   UNL     1       4.292  11.348   4.973  1.00  0.00     0.010 A 
ATOM     38  C   UNL     1       3.078  11.515   5.654  1.00  0.00    -0.014 A 
BRANCH  38  39
ATOM     39  C   UNL     1       3.059  12.162   6.995  1.00  0.00     0.031 A 
ATOM     40  C   UNL     1       3.557  13.577   7.166  1.00  0.00     0.074 A 
ATOM     41  C   UNL     1       2.647  11.469   8.076  1.00  0.00     0.049 A 
ATOM     42  N   UNL     1       3.676  14.285   8.262  1.00  0.00    -0.248 NA
ATOM     43  C   UNL     1       4.006  14.278   5.952  1.00  0.00     0.031 C 
ATOM     44  C   UNL     1       2.187  10.079   8.069  1.00  0.00     0.029 A 
ATOM     45  N   UNL     1       2.560  11.839   9.396  1.00  0.00    -0.354 N 
ATOM     46  C   UNL     1       4.248  15.492   7.874  1.00  0.00     0.074 A 
ATOM     47  C   UNL     1       4.483  15.409   6.450  1.00  0.00     0.031 C 
ATOM     48  C   UNL     1       1.847   9.722   9.318  1.00  0.00     0.029 A 
ATOM     49  C   UNL     1       2.098  10.841  10.220  1.00  0.00     0.049 A 
ATOM     50  H   UNL     1       2.806  12.736   9.721  1.00  0.00     0.167 HD
ATOM     51  C   UNL     1       4.537  16.579   8.629  1.00  0.00     0.031 A 
ATOM     52  C   UNL     1       1.905  10.823  11.553  1.00  0.00     0.031 A 
ATOM     53  C   UNL     1       4.262  16.688  10.036  1.00  0.00     0.049 A 
ATOM     54  C   UNL     1       2.199  12.057  12.361  1.00  0.00     0.074 A 
ATOM     55  C   UNL     1       4.434  17.785  10.864  1.00  0.00     0.029 A 
ATOM     56  N   UNL     1       3.754  15.667  10.822  1.00  0.00    -0.354 N 
ATOM     57  N   UNL     1       2.658  13.217  11.961  1.00  0.00    -0.248 NA
ATOM     58  C   UNL     1       1.934  11.980  13.806  1.00  0.00     0.031 C 
ATOM     59  C   UNL     1       4.069  17.413  12.162  1.00  0.00     0.029 A 
ATOM     60  C   UNL     1       3.627  16.101  12.130  1.00  0.00     0.049 A 
ATOM     61  H   UNL     1       3.518  14.768  10.498  1.00  0.00     0.167 HD
ATOM     62  C   UNL     1       2.712  14.015  13.097  1.00  0.00     0.074 A 
ATOM     63  C   UNL     1       2.223  13.213  14.198  1.00  0.00     0.031 C 
ATOM     64  C   UNL     1       3.131  15.297  13.215  1.00  0.00     0.031 A 
BRANCH  51  65
ATOM     65  C   UNL     1       5.191  17.749   7.949  1.00  0.00    -0.014 A 
ATOM     66  C   UNL     1       4.476  18.575   7.068  1.00  0.00     0.009 A 
ATOM     67  C   UNL     1       6.528  18.063   8.240  1.00  0.00     0.009 A 
ATOM     68  C   UNL     1       5.096  19.674   6.469  1.00  0.00     0.001 A 
ATOM     69  C   UNL     1       7.138  19.178   7.661  1.00  0.00     0.001 A 
ATOM     70  C   UNL     1       6.423  19.977   6.770  1.00  0.00     0.000 A 
ENDBRANCH  51  65
BRANCH  52  71
ATOM     71  C   UNL     1       1.397   9.594  12.217  1.00  0.00    -0.014 A 
ATOM     72  C   UNL     1       0.094   9.549  12.736  1.00  0.00     0.009 A 
ATOM     73  C   UNL     1       2.221   8.466  12.353  1.00  0.00     0.009 A 
ATOM     74  C   UNL     1      -0.363   8.412  13.405  1.00  0.00     0.001 A 
ATOM     75  C   UNL     1       1.752   7.319  12.998  1.00  0.00     0.001 A 
ATOM     76  C   UNL     1       0.465   7.297  13.533  1.00  0.00     0.000 A 
ENDBRANCH  52  71
BRANCH  64  77
ATOM     77  C   UNL     1       3.045  15.928  14.575  1.00  0.00    -0.014 A 
ATOM     78  C   UNL     1       3.943  15.582  15.596  1.00  0.00     0.009 A 
ATOM     79  C   UNL     1       2.078  16.915  14.823  1.00  0.00     0.009 A 
ATOM     80  C   UNL     1       3.855  16.191  16.849  1.00  0.00     0.001 A 
ATOM     81  C   UNL     1       2.009  17.541  16.068  1.00  0.00     0.001 A 
ATOM     82  C   UNL     1       2.891  17.173  17.082  1.00  0.00     0.000 A 
ENDBRANCH  64  77
ENDBRANCH  38  39
ENDBRANCH  30  33
ENDBRANCH  28  29
ENDBRANCH  27  28
ENDBRANCH   1  27
TORSDOF 15
