REMARK SMILES C[C@@H]1[C@@H](C(=O)NCCCNC(=O)c2ccc(-c3c4nc(c(-c5ccccc5)c5ccc([nH]5)c(-c5ccccc5)c5nc(c(-c6ccccc6)c6ccc3[nH]6)C=C5)C=C4)cc2)CCN1C(=O)N1CCC[C@H]2CCC[C@@H]21
REMARK SMILES IDX 8 1 7 2 6 3 4 4 5 5 3 7 1 8 2 9 63 10 61 11 62 12 64 13
REMARK SMILES IDX 65 14 66 15 67 16 74 17 68 18 70 19 73 20 69 21 71 22 72 23
REMARK SMILES IDX 9 24 10 25 11 26 12 28 13 29 14 30 60 31 15 32 59 33 16 34
REMARK SMILES IDX 17 35 18 36 53 37 19 38 58 39 52 40 54 41 20 42 57 43 51 44
REMARK SMILES IDX 50 45 21 47 43 48 28 49 42 50 29 51 32 52 41 53 55 54 30 55
REMARK SMILES IDX 31 56 40 58 56 59 33 60 22 61 23 62 27 63 24 64 26 65 25 66
REMARK SMILES IDX 44 67 45 68 49 69 46 70 48 71 47 72 34 73 35 74 39 75 36 76
REMARK SMILES IDX 38 77 37 78
REMARK H PARENT 6 6 10 27 54 46 32 57
REMARK Flexibility Score: inf
ROOT
ATOM      1  C   UNL     1      -2.940   4.095  -1.176  1.00  0.00     0.042 C 
ENDROOT
BRANCH   1   2
ATOM      2  C   UNL     1      -2.620   2.658  -0.814  1.00  0.00     0.117 C 
BRANCH   2   3
ATOM      3  N   UNL     1      -1.835   1.964  -1.818  1.00  0.00    -0.356 N 
ATOM      4  C   UNL     1      -0.797   1.093  -1.654  1.00  0.00     0.225 C 
ATOM      5  O   UNL     1      -0.303   0.608  -2.671  1.00  0.00    -0.275 OA
ATOM      6  H   UNL     1      -2.087   2.149  -2.751  1.00  0.00     0.163 HD
BRANCH   4   7
ATOM      7  C   UNL     1      -0.233   0.860  -0.259  1.00  0.00     0.102 C 
ATOM      8  C   UNL     1       1.921   0.201   0.803  1.00  0.00     0.032 C 
ATOM      9  C   UNL     1       0.887  -0.209  -0.255  1.00  0.00     0.096 C 
ATOM     10  N   UNL     1       0.180  -1.468   0.069  1.00  0.00    -0.321 N 
ATOM     11  C   UNL     1      -1.225   0.292   0.762  1.00  0.00     0.037 C 
ATOM     12  C   UNL     1      -1.165  -1.200   0.528  1.00  0.00     0.122 C 
BRANCH  10  13
ATOM     13  C   UNL     1       0.406  -2.737  -0.444  1.00  0.00     0.320 C 
ATOM     14  O   UNL     1      -0.458  -3.613  -0.405  1.00  0.00    -0.248 OA
BRANCH  13  15
ATOM     15  N   UNL     1       1.586  -2.925  -1.111  1.00  0.00    -0.321 N 
ATOM     16  C   UNL     1       2.870  -2.874  -0.429  1.00  0.00     0.121 C 
ATOM     17  C   UNL     1       1.645  -3.628  -2.378  1.00  0.00     0.090 C 
ATOM     18  C   UNL     1       3.908  -2.145  -1.286  1.00  0.00     0.022 C 
ATOM     19  C   UNL     1       2.544  -2.797  -3.297  1.00  0.00     0.012 C 
ATOM     20  C   UNL     1       0.391  -3.789  -3.229  1.00  0.00     0.025 C 
ATOM     21  C   UNL     1       3.957  -2.697  -2.724  1.00  0.00     0.007 C 
ATOM     22  C   UNL     1       2.386  -3.482  -4.643  1.00  0.00     0.006 C 
ATOM     23  C   UNL     1       0.926  -3.956  -4.658  1.00  0.00     0.002 C 
ENDBRANCH  13  15
ENDBRANCH  10  13
ENDBRANCH   4   7
ENDBRANCH   2   3
ENDBRANCH   1   2
BRANCH   1  24
ATOM     24  C   UNL     1      -3.702   4.269  -2.479  1.00  0.00     0.118 C 
BRANCH  24  25
ATOM     25  N   UNL     1      -5.034   3.679  -2.458  1.00  0.00    -0.352 N 
ATOM     26  C   UNL     1      -6.277   4.270  -2.488  1.00  0.00     0.251 C 
ATOM     27  H   UNL     1      -5.047   2.696  -2.415  1.00  0.00     0.163 HD
ATOM     28  O   UNL     1      -7.279   3.587  -2.320  1.00  0.00    -0.269 OA
BRANCH  26  29
ATOM     29  C   UNL     1      -6.408   5.732  -2.679  1.00  0.00     0.039 A 
ATOM     30  C   UNL     1      -7.341   6.433  -1.910  1.00  0.00     0.014 A 
ATOM     31  C   UNL     1      -5.615   6.417  -3.600  1.00  0.00     0.014 A 
ATOM     32  C   UNL     1      -7.408   7.826  -2.000  1.00  0.00     0.010 A 
ATOM     33  C   UNL     1      -5.599   7.807  -3.602  1.00  0.00     0.010 A 
ATOM     34  C   UNL     1      -6.499   8.530  -2.806  1.00  0.00    -0.014 A 
BRANCH  34  35
ATOM     35  C   UNL     1      -6.473  10.015  -2.840  1.00  0.00     0.031 A 
ATOM     36  C   UNL     1      -6.710  10.747  -4.134  1.00  0.00     0.074 A 
ATOM     37  C   UNL     1      -6.167  10.706  -1.724  1.00  0.00     0.049 A 
ATOM     38  N   UNL     1      -6.655  12.032  -4.379  1.00  0.00    -0.248 NA
ATOM     39  C   UNL     1      -7.020   9.925  -5.317  1.00  0.00     0.031 C 
ATOM     40  C   UNL     1      -5.873  10.120  -0.413  1.00  0.00     0.029 A 
ATOM     41  N   UNL     1      -6.047  12.058  -1.514  1.00  0.00    -0.354 N 
ATOM     42  C   UNL     1      -6.903  12.168  -5.739  1.00  0.00     0.074 A 
ATOM     43  C   UNL     1      -7.046  10.834  -6.279  1.00  0.00     0.031 C 
ATOM     44  C   UNL     1      -5.646  11.107   0.469  1.00  0.00     0.029 A 
ATOM     45  C   UNL     1      -5.727  12.390  -0.220  1.00  0.00     0.049 A 
ATOM     46  H   UNL     1      -6.178  12.726  -2.225  1.00  0.00     0.167 HD
ATOM     47  C   UNL     1      -7.026  13.299  -6.473  1.00  0.00     0.031 A 
ATOM     48  C   UNL     1      -5.516  13.592   0.349  1.00  0.00     0.031 A 
ATOM     49  C   UNL     1      -6.896  14.627  -5.936  1.00  0.00     0.049 A 
ATOM     50  C   UNL     1      -5.634  14.833  -0.491  1.00  0.00     0.074 A 
ATOM     51  C   UNL     1      -7.056  15.838  -6.586  1.00  0.00     0.029 A 
ATOM     52  N   UNL     1      -6.572  14.918  -4.620  1.00  0.00    -0.354 N 
ATOM     53  N   UNL     1      -5.934  14.945  -1.762  1.00  0.00    -0.248 NA
ATOM     54  C   UNL     1      -5.393  16.115   0.186  1.00  0.00     0.031 C 
ATOM     55  C   UNL     1      -6.773  16.862  -5.677  1.00  0.00     0.029 A 
ATOM     56  C   UNL     1      -6.502  16.289  -4.444  1.00  0.00     0.049 A 
ATOM     57  H   UNL     1      -6.416  14.248  -3.915  1.00  0.00     0.167 HD
ATOM     58  C   UNL     1      -5.951  16.308  -2.028  1.00  0.00     0.074 A 
ATOM     59  C   UNL     1      -5.646  16.982  -0.783  1.00  0.00     0.031 C 
ATOM     60  C   UNL     1      -6.199  16.946  -3.199  1.00  0.00     0.031 A 
BRANCH  47  61
ATOM     61  C   UNL     1      -7.312  13.145  -7.942  1.00  0.00    -0.014 A 
ATOM     62  C   UNL     1      -8.547  12.654  -8.396  1.00  0.00     0.009 A 
ATOM     63  C   UNL     1      -6.346  13.525  -8.886  1.00  0.00     0.009 A 
ATOM     64  C   UNL     1      -8.792  12.509  -9.764  1.00  0.00     0.001 A 
ATOM     65  C   UNL     1      -6.606  13.411 -10.253  1.00  0.00     0.001 A 
ATOM     66  C   UNL     1      -7.824  12.893 -10.690  1.00  0.00     0.000 A 
ENDBRANCH  47  61
BRANCH  48  67
ATOM     67  C   UNL     1      -5.185  13.687   1.797  1.00  0.00    -0.014 A 
ATOM     68  C   UNL     1      -6.105  14.240   2.702  1.00  0.00     0.009 A 
ATOM     69  C   UNL     1      -3.946  13.239   2.280  1.00  0.00     0.009 A 
ATOM     70  C   UNL     1      -5.778  14.371   4.053  1.00  0.00     0.001 A 
ATOM     71  C   UNL     1      -3.635  13.341   3.638  1.00  0.00     0.001 A 
ATOM     72  C   UNL     1      -4.546  13.917   4.521  1.00  0.00     0.000 A 
ENDBRANCH  48  67
BRANCH  60  73
ATOM     73  C   UNL     1      -6.193  18.449  -3.180  1.00  0.00    -0.014 A 
ATOM     74  C   UNL     1      -5.001  19.176  -3.033  1.00  0.00     0.009 A 
ATOM     75  C   UNL     1      -7.398  19.147  -3.356  1.00  0.00     0.009 A 
ATOM     76  C   UNL     1      -5.023  20.572  -3.027  1.00  0.00     0.001 A 
ATOM     77  C   UNL     1      -7.412  20.542  -3.383  1.00  0.00     0.001 A 
ATOM     78  C   UNL     1      -6.226  21.253  -3.207  1.00  0.00     0.000 A 
ENDBRANCH  60  73
ENDBRANCH  34  35
ENDBRANCH  26  29
ENDBRANCH  24  25
ENDBRANCH   1  24
TORSDOF 12
