REMARK SMILES CC[C@](C)([NH3+])C(=O)N1CC[NH+]([C@H](C)C(=O)NCCCNC(=O)c2ccc(-c3c4nc(c(-c5ccccc5)c5ccc([nH]5)c(-c5ccccc5)c5nc(c(-c6ccccc6)c6ccc3[nH]6)C=C5)C=C4)cc2)CC1
REMARK SMILES IDX 17 1 16 2 14 3 15 4 12 6 13 7 11 8 6 9 7 10 8 11 9 12 72 13
REMARK SMILES IDX 10 14 71 15 3 17 4 18 2 19 1 20 5 21 18 25 19 26 20 27 21 28
REMARK SMILES IDX 22 30 23 31 24 32 70 33 25 34 69 35 26 36 27 37 28 38 63 39
REMARK SMILES IDX 29 40 68 41 62 42 64 43 30 44 67 45 61 46 60 47 31 49 53 50
REMARK SMILES IDX 38 51 52 52 39 53 42 54 51 55 65 56 40 57 41 58 50 60 66 61
REMARK SMILES IDX 43 62 32 63 33 64 37 65 34 66 36 67 35 68 54 69 55 70 59 71
REMARK SMILES IDX 56 72 58 73 57 74 44 75 45 76 49 77 46 78 48 79 47 80
REMARK H PARENT 16 5 11 16 5 22 5 23 5 24 20 29 64 48 42 59
REMARK Flexibility Score: inf
ROOT
ATOM      1  C   UNL     1       5.937  -3.112  -3.545  1.00  0.00     0.118 C 
ENDROOT
BRANCH   1   2
ATOM      2  N   UNL     1       6.505  -3.264  -4.869  1.00  0.00    -0.351 N 
ATOM      3  C   UNL     1       6.229  -2.596  -6.028  1.00  0.00     0.278 C 
ATOM      4  O   UNL     1       7.010  -2.780  -6.968  1.00  0.00    -0.268 OA
ATOM      5  H   UNL     1       7.199  -3.958  -4.946  1.00  0.00     0.163 HD
BRANCH   3   6
ATOM      6  C   UNL     1       4.993  -1.681  -6.185  1.00  0.00     0.271 C 
ATOM      7  C   UNL     1       3.686  -2.384  -5.791  1.00  0.00     0.086 C 
BRANCH   6   8
ATOM      8  N   UNL     1       5.209  -0.281  -5.712  1.00  0.00    -0.322 N 
ATOM      9  C   UNL     1       3.994   2.153  -2.723  1.00  0.00     0.283 C 
ATOM     10  O   UNL     1       4.654   2.062  -1.673  1.00  0.00    -0.268 OA
ATOM     11  N   UNL     1       4.638   1.938  -3.931  1.00  0.00    -0.326 N 
ATOM     12  C   UNL     1       5.964   1.325  -3.901  1.00  0.00     0.181 C 
ATOM     13  C   UNL     1       4.125   1.977  -5.299  1.00  0.00     0.181 C 
ATOM     14  C   UNL     1       5.818  -0.133  -4.376  1.00  0.00     0.284 C 
ATOM     15  C   UNL     1       3.987   0.545  -5.855  1.00  0.00     0.284 C 
ATOM     16  H   UNL     1       5.924   0.079  -6.344  1.00  0.00     0.348 HD
BRANCH   9  17
ATOM     17  C   UNL     1       2.436   2.312  -2.581  1.00  0.00     0.171 C 
ATOM     18  C   UNL     1       2.172   3.081  -1.267  1.00  0.00     0.090 C 
BRANCH  17  19
ATOM     19  C   UNL     1       1.831   0.884  -2.514  1.00  0.00     0.075 C 
ATOM     20  C   UNL     1       0.370   0.807  -2.082  1.00  0.00     0.011 C 
ENDBRANCH  17  19
BRANCH  17  21
ATOM     21  N   UNL     1       1.810   3.098  -3.665  1.00  0.00    -0.345 N 
ATOM     22  H   UNL     1       2.222   4.030  -3.690  1.00  0.00     0.345 HD
ATOM     23  H   UNL     1       0.807   3.173  -3.494  1.00  0.00     0.345 HD
ATOM     24  H   UNL     1       1.969   2.631  -4.558  1.00  0.00     0.345 HD
ENDBRANCH  17  21
ENDBRANCH   9  17
ENDBRANCH   6   8
ENDBRANCH   3   6
ENDBRANCH   1   2
BRANCH   1  25
ATOM     25  C   UNL     1       5.767  -4.414  -2.797  1.00  0.00     0.042 C 
BRANCH  25  26
ATOM     26  C   UNL     1       7.080  -5.111  -2.499  1.00  0.00     0.118 C 
BRANCH  26  27
ATOM     27  N   UNL     1       7.966  -4.334  -1.637  1.00  0.00    -0.352 N 
ATOM     28  C   UNL     1       8.348  -4.521  -0.329  1.00  0.00     0.251 C 
ATOM     29  H   UNL     1       8.358  -3.539  -2.067  1.00  0.00     0.163 HD
ATOM     30  O   UNL     1       8.986  -3.653   0.251  1.00  0.00    -0.269 OA
BRANCH  28  31
ATOM     31  C   UNL     1       7.966  -5.757   0.388  1.00  0.00     0.039 A 
ATOM     32  C   UNL     1       7.602  -5.688   1.735  1.00  0.00     0.014 A 
ATOM     33  C   UNL     1       7.971  -6.987  -0.266  1.00  0.00     0.014 A 
ATOM     34  C   UNL     1       7.172  -6.842   2.396  1.00  0.00     0.010 A 
ATOM     35  C   UNL     1       7.403  -8.095   0.342  1.00  0.00     0.010 A 
ATOM     36  C   UNL     1       7.032  -8.048   1.691  1.00  0.00    -0.014 A 
BRANCH  36  37
ATOM     37  C   UNL     1       6.579  -9.300   2.345  1.00  0.00     0.031 A 
ATOM     38  C   UNL     1       7.475 -10.513   2.323  1.00  0.00     0.074 A 
ATOM     39  C   UNL     1       5.345  -9.379   2.881  1.00  0.00     0.049 A 
ATOM     40  N   UNL     1       7.228 -11.734   2.723  1.00  0.00    -0.248 NA
ATOM     41  C   UNL     1       8.811 -10.341   1.724  1.00  0.00     0.031 C 
ATOM     42  C   UNL     1       4.358  -8.297   2.918  1.00  0.00     0.029 A 
ATOM     43  N   UNL     1       4.710 -10.427   3.496  1.00  0.00    -0.354 N 
ATOM     44  C   UNL     1       8.354 -12.475   2.382  1.00  0.00     0.074 A 
ATOM     45  C   UNL     1       9.253 -11.587   1.682  1.00  0.00     0.031 C 
ATOM     46  C   UNL     1       3.260  -8.725   3.563  1.00  0.00     0.029 A 
ATOM     47  C   UNL     1       3.450 -10.120   3.946  1.00  0.00     0.049 A 
ATOM     48  H   UNL     1       5.119 -11.316   3.604  1.00  0.00     0.167 HD
ATOM     49  C   UNL     1       8.636 -13.770   2.656  1.00  0.00     0.031 A 
ATOM     50  C   UNL     1       2.552 -10.879   4.602  1.00  0.00     0.031 A 
ATOM     51  C   UNL     1       7.767 -14.637   3.401  1.00  0.00     0.049 A 
ATOM     52  C   UNL     1       2.906 -12.301   4.938  1.00  0.00     0.074 A 
ATOM     53  C   UNL     1       7.982 -15.945   3.795  1.00  0.00     0.029 A 
ATOM     54  N   UNL     1       6.521 -14.270   3.882  1.00  0.00    -0.354 N 
ATOM     55  N   UNL     1       3.997 -12.971   4.656  1.00  0.00    -0.248 NA
ATOM     56  C   UNL     1       1.910 -13.063   5.703  1.00  0.00     0.031 C 
ATOM     57  C   UNL     1       6.848 -16.381   4.490  1.00  0.00     0.029 A 
ATOM     58  C   UNL     1       5.951 -15.327   4.569  1.00  0.00     0.049 A 
ATOM     59  H   UNL     1       6.102 -13.387   3.755  1.00  0.00     0.167 HD
ATOM     60  C   UNL     1       3.833 -14.222   5.237  1.00  0.00     0.074 A 
ATOM     61  C   UNL     1       2.545 -14.209   5.900  1.00  0.00     0.031 C 
ATOM     62  C   UNL     1       4.672 -15.287   5.226  1.00  0.00     0.031 A 
BRANCH  49  63
ATOM     63  C   UNL     1       9.947 -14.310   2.155  1.00  0.00    -0.014 A 
ATOM     64  C   UNL     1      11.169 -13.868   2.690  1.00  0.00     0.009 A 
ATOM     65  C   UNL     1       9.964 -15.273   1.135  1.00  0.00     0.009 A 
ATOM     66  C   UNL     1      12.380 -14.344   2.181  1.00  0.00     0.001 A 
ATOM     67  C   UNL     1      11.175 -15.772   0.651  1.00  0.00     0.001 A 
ATOM     68  C   UNL     1      12.381 -15.298   1.165  1.00  0.00     0.000 A 
ENDBRANCH  49  63
BRANCH  50  69
ATOM     69  C   UNL     1       1.251 -10.300   5.028  1.00  0.00    -0.014 A 
ATOM     70  C   UNL     1       1.004 -10.041   6.385  1.00  0.00     0.009 A 
ATOM     71  C   UNL     1       0.248 -10.016   4.089  1.00  0.00     0.009 A 
ATOM     72  C   UNL     1      -0.233  -9.541   6.798  1.00  0.00     0.001 A 
ATOM     73  C   UNL     1      -0.978  -9.489   4.502  1.00  0.00     0.001 A 
ATOM     74  C   UNL     1      -1.222  -9.263   5.856  1.00  0.00     0.000 A 
ENDBRANCH  50  69
BRANCH  62  75
ATOM     75  C   UNL     1       4.240 -16.502   5.995  1.00  0.00    -0.014 A 
ATOM     76  C   UNL     1       3.203 -17.327   5.536  1.00  0.00     0.009 A 
ATOM     77  C   UNL     1       4.904 -16.837   7.186  1.00  0.00     0.009 A 
ATOM     78  C   UNL     1       2.811 -18.443   6.278  1.00  0.00     0.001 A 
ATOM     79  C   UNL     1       4.530 -17.969   7.909  1.00  0.00     0.001 A 
ATOM     80  C   UNL     1       3.476 -18.764   7.461  1.00  0.00     0.000 A 
ENDBRANCH  62  75
ENDBRANCH  36  37
ENDBRANCH  28  31
ENDBRANCH  26  27
ENDBRANCH  25  26
ENDBRANCH   1  25
TORSDOF 14
