REMARK SMILES O=C(NCCCNC(=O)[C@@H]1[C@H](C(=O)NCc2ccncc2)[C@H]2C=C[C@@H]1O2)c1ccc(-c2c3nc(c(-c4ccccc4)c4ccc([nH]4)c(-c4ccccc4)c4nc(c(-c5ccccc5)c5ccc2[nH]5)C=C4)C=C3)cc1
REMARK SMILES IDX 5 1 4 2 3 3 1 4 2 5 27 7 28 8 74 9 29 10 73 11 30 12 31 13
REMARK SMILES IDX 32 14 67 15 33 16 72 17 66 18 68 19 34 20 71 21 65 22 64 23
REMARK SMILES IDX 35 25 57 26 42 27 56 28 43 29 46 30 55 31 69 32 44 33 45 34
REMARK SMILES IDX 54 36 70 37 47 38 36 39 37 40 41 41 38 42 40 43 39 44 58 45
REMARK SMILES IDX 59 46 63 47 60 48 62 49 61 50 48 51 49 52 53 53 50 54 52 55
REMARK SMILES IDX 51 56 6 57 7 58 8 59 9 61 10 62 11 63 25 64 22 65 24 66
REMARK SMILES IDX 26 67 23 68 12 69 13 70 14 71 15 73 16 74 17 75 21 76 18 77
REMARK SMILES IDX 20 78 19 79
REMARK H PARENT 3 6 68 24 46 35 7 60 14 72
REMARK Flexibility Score: inf
ROOT
ATOM      1  C   UNL     1       5.398   1.533   1.973  1.00  0.00     0.042 C 
ENDROOT
BRANCH   1   2
ATOM      2  C   UNL     1       4.791   0.609   0.934  1.00  0.00     0.118 C 
BRANCH   2   3
ATOM      3  N   UNL     1       3.334   0.598   0.940  1.00  0.00    -0.352 N 
ATOM      4  O   UNL     1       1.252   0.431   0.088  1.00  0.00    -0.269 OA
ATOM      5  C   UNL     1       2.459   0.468  -0.112  1.00  0.00     0.251 C 
ATOM      6  H   UNL     1       2.915   0.698   1.826  1.00  0.00     0.163 HD
BRANCH   5   7
ATOM      7  C   UNL     1       2.999   0.469  -1.483  1.00  0.00     0.039 A 
ATOM      8  C   UNL     1       4.068  -0.360  -1.828  1.00  0.00     0.014 A 
ATOM      9  C   UNL     1       2.506   1.415  -2.384  1.00  0.00     0.014 A 
ATOM     10  C   UNL     1       4.768  -0.108  -3.000  1.00  0.00     0.010 A 
ATOM     11  C   UNL     1       3.159   1.608  -3.598  1.00  0.00     0.010 A 
ATOM     12  C   UNL     1       4.329   0.889  -3.886  1.00  0.00    -0.014 A 
BRANCH  12  13
ATOM     13  C   UNL     1       5.097   1.166  -5.119  1.00  0.00     0.031 A 
ATOM     14  C   UNL     1       5.787   2.486  -5.316  1.00  0.00     0.074 A 
ATOM     15  C   UNL     1       5.170   0.208  -6.060  1.00  0.00     0.049 A 
ATOM     16  N   UNL     1       6.452   2.918  -6.357  1.00  0.00    -0.248 NA
ATOM     17  C   UNL     1       5.712   3.453  -4.208  1.00  0.00     0.031 C 
ATOM     18  C   UNL     1       4.540  -1.111  -5.970  1.00  0.00     0.029 A 
ATOM     19  N   UNL     1       5.806   0.196  -7.271  1.00  0.00    -0.354 N 
ATOM     20  C   UNL     1       6.843   4.215  -6.047  1.00  0.00     0.074 A 
ATOM     21  C   UNL     1       6.337   4.504  -4.723  1.00  0.00     0.031 C 
ATOM     22  C   UNL     1       4.843  -1.815  -7.069  1.00  0.00     0.029 A 
ATOM     23  C   UNL     1       5.635  -0.977  -7.961  1.00  0.00     0.049 A 
ATOM     24  H   UNL     1       6.335   0.953  -7.613  1.00  0.00     0.167 HD
ATOM     25  C   UNL     1       7.555   5.084  -6.803  1.00  0.00     0.031 A 
ATOM     26  C   UNL     1       6.044  -1.332  -9.190  1.00  0.00     0.031 A 
ATOM     27  C   UNL     1       8.071   4.782  -8.112  1.00  0.00     0.049 A 
ATOM     28  C   UNL     1       6.829  -0.354 -10.006  1.00  0.00     0.074 A 
ATOM     29  C   UNL     1       8.840   5.578  -8.943  1.00  0.00     0.029 A 
ATOM     30  N   UNL     1       7.867   3.584  -8.780  1.00  0.00    -0.354 N 
ATOM     31  N   UNL     1       7.200   0.864  -9.694  1.00  0.00    -0.248 NA
ATOM     32  C   UNL     1       7.247  -0.795 -11.342  1.00  0.00     0.031 C 
ATOM     33  C   UNL     1       9.072   4.873 -10.130  1.00  0.00     0.029 A 
ATOM     34  C   UNL     1       8.477   3.626 -10.022  1.00  0.00     0.049 A 
ATOM     35  H   UNL     1       7.363   2.817  -8.424  1.00  0.00     0.167 HD
ATOM     36  C   UNL     1       7.896   1.339 -10.795  1.00  0.00     0.074 A 
ATOM     37  C   UNL     1       7.914   0.268 -11.773  1.00  0.00     0.031 C 
ATOM     38  C   UNL     1       8.464   2.554 -10.983  1.00  0.00     0.031 A 
BRANCH  25  39
ATOM     39  C   UNL     1       7.790   6.460  -6.245  1.00  0.00    -0.014 A 
ATOM     40  C   UNL     1       8.728   6.687  -5.227  1.00  0.00     0.009 A 
ATOM     41  C   UNL     1       7.084   7.551  -6.775  1.00  0.00     0.009 A 
ATOM     42  C   UNL     1       8.935   7.977  -4.732  1.00  0.00     0.001 A 
ATOM     43  C   UNL     1       7.307   8.842  -6.292  1.00  0.00     0.001 A 
ATOM     44  C   UNL     1       8.227   9.053  -5.267  1.00  0.00     0.000 A 
ENDBRANCH  25  39
BRANCH  26  45
ATOM     45  C   UNL     1       5.681  -2.672  -9.710  1.00  0.00    -0.014 A 
ATOM     46  C   UNL     1       6.633  -3.699  -9.758  1.00  0.00     0.009 A 
ATOM     47  C   UNL     1       4.356  -2.946 -10.085  1.00  0.00     0.009 A 
ATOM     48  C   UNL     1       6.263  -4.980 -10.175  1.00  0.00     0.001 A 
ATOM     49  C   UNL     1       3.985  -4.232 -10.479  1.00  0.00     0.001 A 
ATOM     50  C   UNL     1       4.939  -5.247 -10.527  1.00  0.00     0.000 A 
ENDBRANCH  26  45
BRANCH  38  51
ATOM     51  C   UNL     1       9.150   2.778 -12.296  1.00  0.00    -0.014 A 
ATOM     52  C   UNL     1       8.408   3.042 -13.457  1.00  0.00     0.009 A 
ATOM     53  C   UNL     1      10.550   2.742 -12.369  1.00  0.00     0.009 A 
ATOM     54  C   UNL     1       9.057   3.239 -14.676  1.00  0.00     0.001 A 
ATOM     55  C   UNL     1      11.197   2.958 -13.586  1.00  0.00     0.001 A 
ATOM     56  C   UNL     1      10.450   3.199 -14.739  1.00  0.00     0.000 A 
ENDBRANCH  38  51
ENDBRANCH  12  13
ENDBRANCH   5   7
ENDBRANCH   2   3
ENDBRANCH   1   2
BRANCH   1  57
ATOM     57  C   UNL     1       5.041   1.184   3.408  1.00  0.00     0.117 C 
BRANCH  57  58
ATOM     58  N   UNL     1       5.727   0.000   3.912  1.00  0.00    -0.356 N 
ATOM     59  C   UNL     1       6.194  -0.368   5.134  1.00  0.00     0.227 C 
ATOM     60  H   UNL     1       5.886  -0.679   3.217  1.00  0.00     0.163 HD
ATOM     61  O   UNL     1       6.534  -1.554   5.242  1.00  0.00    -0.275 OA
BRANCH  59  62
ATOM     62  C   UNL     1       6.351   0.530   6.347  1.00  0.00     0.127 C 
ATOM     63  C   UNL     1       5.379   0.254   7.524  1.00  0.00     0.127 C 
ATOM     64  C   UNL     1       6.172   2.034   6.175  1.00  0.00     0.155 C 
ATOM     65  C   UNL     1       4.616   1.587   7.630  1.00  0.00     0.155 C 
ATOM     66  C   UNL     1       6.512   2.819   7.412  1.00  0.00     0.004 C 
ATOM     67  O   UNL     1       4.720   2.096   6.270  1.00  0.00    -0.365 OA
ATOM     68  C   UNL     1       5.527   2.585   8.290  1.00  0.00     0.004 C 
BRANCH  63  69
ATOM     69  C   UNL     1       4.507  -0.977   7.688  1.00  0.00     0.227 C 
ATOM     70  O   UNL     1       4.721  -1.717   8.659  1.00  0.00    -0.275 OA
ATOM     71  N   UNL     1       3.443  -1.325   6.941  1.00  0.00    -0.352 N 
ATOM     72  H   UNL     1       2.898  -2.035   7.352  1.00  0.00     0.163 HD
BRANCH  71  73
ATOM     73  C   UNL     1       2.931  -0.881   5.670  1.00  0.00     0.151 C 
BRANCH  73  74
ATOM     74  C   UNL     1       3.034  -1.944   4.595  1.00  0.00    -0.026 A 
ATOM     75  C   UNL     1       3.741  -3.141   4.768  1.00  0.00     0.025 A 
ATOM     76  C   UNL     1       2.418  -1.736   3.356  1.00  0.00     0.025 A 
ATOM     77  C   UNL     1       3.815  -4.045   3.718  1.00  0.00     0.111 A 
ATOM     78  C   UNL     1       2.561  -2.691   2.357  1.00  0.00     0.111 A 
ATOM     79  N   UNL     1       3.252  -3.838   2.510  1.00  0.00    -0.265 NA
ENDBRANCH  73  74
ENDBRANCH  71  73
ENDBRANCH  63  69
ENDBRANCH  59  62
ENDBRANCH  57  58
ENDBRANCH   1  57
TORSDOF 13
