REMARK SMILES [NH3+][C@H](CS[C@@H]1CC(=O)N(c2ccc3ccccc3c2)C1=O)C(=O)NCCCNC(=O)c1ccc(-c2c3nc(c(-c4ccccc4)c4ccc([nH]4)c(-c4ccccc4)c4nc(c(-c5ccccc5)c5ccc2[nH]5)C=C4)C=C3)cc1
REMARK SMILES IDX 25 1 24 2 22 3 23 4 2 6 1 7 3 11 4 12 5 13 6 14 20 15 7 16
REMARK SMILES IDX 9 17 21 18 8 19 10 20 11 21 19 22 12 23 18 24 13 25 17 26
REMARK SMILES IDX 14 27 16 28 15 29 26 30 27 31 28 32 29 33 30 35 31 36 32 37
REMARK SMILES IDX 78 38 33 39 77 40 34 41 35 42 36 43 71 44 37 45 76 46 70 47
REMARK SMILES IDX 72 48 38 49 75 50 69 51 68 52 39 54 61 55 46 56 60 57 47 58
REMARK SMILES IDX 50 59 59 60 73 61 48 62 49 63 58 65 74 66 51 67 40 68 41 69
REMARK SMILES IDX 45 70 42 71 44 72 43 73 62 74 63 75 67 76 64 77 66 78 65 79
REMARK SMILES IDX 52 80 53 81 57 82 54 83 56 84 55 85
REMARK H PARENT 24 5 1 8 1 9 1 10 28 34 72 53 50 64
REMARK Flexibility Score: inf
ROOT
ATOM      1  C   UNL     1      -1.193  -0.164   2.179  1.00  0.00     0.118 C 
ENDROOT
BRANCH   1   2
ATOM      2  N   UNL     1      -1.771  -0.515   0.897  1.00  0.00    -0.351 N 
ATOM      3  C   UNL     1      -1.223  -0.850  -0.301  1.00  0.00     0.279 C 
ATOM      4  O   UNL     1      -1.939  -0.666  -1.293  1.00  0.00    -0.268 OA
ATOM      5  H   UNL     1      -2.756  -0.509   0.893  1.00  0.00     0.163 HD
BRANCH   3   6
ATOM      6  C   UNL     1       0.148  -1.546  -0.446  1.00  0.00     0.280 C 
BRANCH   6   7
ATOM      7  N   UNL     1       0.014  -2.924   0.075  1.00  0.00    -0.347 N 
ATOM      8  H   UNL     1      -0.831  -3.351  -0.305  1.00  0.00     0.345 HD
ATOM      9  H   UNL     1      -0.048  -2.899   1.093  1.00  0.00     0.345 HD
ATOM     10  H   UNL     1       0.827  -3.474  -0.202  1.00  0.00     0.345 HD
ENDBRANCH   6   7
BRANCH   6  11
ATOM     11  C   UNL     1       1.383  -0.759   0.039  1.00  0.00     0.145 C 
BRANCH  11  12
ATOM     12  S   UNL     1       2.916  -1.793   0.177  1.00  0.00    -0.141 SA
BRANCH  12  13
ATOM     13  C   UNL     1       3.063  -1.988   1.997  1.00  0.00     0.146 C 
ATOM     14  C   UNL     1       4.366  -2.673   2.390  1.00  0.00     0.125 C 
ATOM     15  C   UNL     1       2.001  -2.900   2.555  1.00  0.00     0.247 C 
ATOM     16  C   UNL     1       3.945  -3.920   3.115  1.00  0.00     0.235 C 
ATOM     17  N   UNL     1       2.583  -4.034   3.051  1.00  0.00    -0.250 N 
ATOM     18  O   UNL     1       0.816  -2.595   2.629  1.00  0.00    -0.273 OA
ATOM     19  O   UNL     1       4.742  -4.675   3.657  1.00  0.00    -0.274 OA
BRANCH  17  20
ATOM     20  C   UNL     1       1.827  -5.080   3.624  1.00  0.00     0.052 A 
ATOM     21  C   UNL     1       2.081  -5.508   4.927  1.00  0.00     0.027 A 
ATOM     22  C   UNL     1       0.785  -5.676   2.896  1.00  0.00     0.035 A 
ATOM     23  C   UNL     1       1.264  -6.475   5.520  1.00  0.00     0.011 A 
ATOM     24  C   UNL     1       0.004  -6.705   3.456  1.00  0.00    -0.016 A 
ATOM     25  C   UNL     1       0.227  -7.084   4.798  1.00  0.00    -0.018 A 
ATOM     26  C   UNL     1      -0.989  -7.369   2.714  1.00  0.00     0.009 A 
ATOM     27  C   UNL     1      -0.587  -8.069   5.380  1.00  0.00     0.009 A 
ATOM     28  C   UNL     1      -1.769  -8.370   3.299  1.00  0.00     0.001 A 
ATOM     29  C   UNL     1      -1.579  -8.707   4.635  1.00  0.00     0.001 A 
ENDBRANCH  17  20
ENDBRANCH  12  13
ENDBRANCH  11  12
ENDBRANCH   6  11
ENDBRANCH   3   6
ENDBRANCH   1   2
BRANCH   1  30
ATOM     30  C   UNL     1      -1.246   1.351   2.379  1.00  0.00     0.042 C 
BRANCH  30  31
ATOM     31  C   UNL     1      -2.667   1.894   2.525  1.00  0.00     0.118 C 
BRANCH  31  32
ATOM     32  N   UNL     1      -3.310   1.451   3.754  1.00  0.00    -0.352 N 
ATOM     33  C   UNL     1      -3.999   2.184   4.688  1.00  0.00     0.251 C 
ATOM     34  H   UNL     1      -3.241   0.487   3.942  1.00  0.00     0.163 HD
ATOM     35  O   UNL     1      -4.330   1.672   5.752  1.00  0.00    -0.269 OA
BRANCH  33  36
ATOM     36  C   UNL     1      -4.312   3.603   4.423  1.00  0.00     0.039 A 
ATOM     37  C   UNL     1      -4.072   4.543   5.429  1.00  0.00     0.014 A 
ATOM     38  C   UNL     1      -4.834   4.006   3.191  1.00  0.00     0.014 A 
ATOM     39  C   UNL     1      -4.285   5.899   5.172  1.00  0.00     0.010 A 
ATOM     40  C   UNL     1      -4.982   5.363   2.914  1.00  0.00     0.010 A 
ATOM     41  C   UNL     1      -4.700   6.322   3.899  1.00  0.00    -0.014 A 
BRANCH  41  42
ATOM     42  C   UNL     1      -4.813   7.764   3.569  1.00  0.00     0.031 A 
ATOM     43  C   UNL     1      -6.145   8.364   3.220  1.00  0.00     0.074 A 
ATOM     44  C   UNL     1      -3.697   8.518   3.514  1.00  0.00     0.049 A 
ATOM     45  N   UNL     1      -6.425   9.585   2.838  1.00  0.00    -0.248 NA
ATOM     46  C   UNL     1      -7.313   7.471   3.284  1.00  0.00     0.031 C 
ATOM     47  C   UNL     1      -2.339   8.045   3.793  1.00  0.00     0.029 A 
ATOM     48  N   UNL     1      -3.528   9.841   3.194  1.00  0.00    -0.354 N 
ATOM     49  C   UNL     1      -7.794   9.603   2.603  1.00  0.00     0.074 A 
ATOM     50  C   UNL     1      -8.281   8.261   2.840  1.00  0.00     0.031 C 
ATOM     51  C   UNL     1      -1.481   9.068   3.656  1.00  0.00     0.029 A 
ATOM     52  C   UNL     1      -2.218  10.255   3.237  1.00  0.00     0.049 A 
ATOM     53  H   UNL     1      -4.274  10.438   2.955  1.00  0.00     0.167 HD
ATOM     54  C   UNL     1      -8.578  10.645   2.238  1.00  0.00     0.031 A 
ATOM     55  C   UNL     1      -1.669  11.452   2.960  1.00  0.00     0.031 A 
ATOM     56  C   UNL     1      -8.094  11.980   2.006  1.00  0.00     0.049 A 
ATOM     57  C   UNL     1      -2.558  12.585   2.531  1.00  0.00     0.074 A 
ATOM     58  C   UNL     1      -8.818  13.117   1.690  1.00  0.00     0.029 A 
ATOM     59  N   UNL     1      -6.761  12.356   2.058  1.00  0.00    -0.354 N 
ATOM     60  N   UNL     1      -3.860  12.602   2.382  1.00  0.00    -0.248 NA
ATOM     61  C   UNL     1      -1.899  13.866   2.240  1.00  0.00     0.031 C 
ATOM     62  C   UNL     1      -7.917  14.169   1.497  1.00  0.00     0.029 A 
ATOM     63  C   UNL     1      -6.637  13.701   1.749  1.00  0.00     0.049 A 
ATOM     64  H   UNL     1      -6.012  11.757   2.281  1.00  0.00     0.167 HD
ATOM     65  C   UNL     1      -4.179  13.898   2.000  1.00  0.00     0.074 A 
ATOM     66  C   UNL     1      -2.937  14.642   1.961  1.00  0.00     0.031 C 
ATOM     67  C   UNL     1      -5.393  14.425   1.705  1.00  0.00     0.031 A 
BRANCH  54  68
ATOM     68  C   UNL     1     -10.046  10.376   2.056  1.00  0.00    -0.014 A 
ATOM     69  C   UNL     1     -10.878  10.104   3.154  1.00  0.00     0.009 A 
ATOM     70  C   UNL     1     -10.613  10.432   0.773  1.00  0.00     0.009 A 
ATOM     71  C   UNL     1     -12.239   9.855   2.967  1.00  0.00     0.001 A 
ATOM     72  C   UNL     1     -11.980  10.212   0.592  1.00  0.00     0.001 A 
ATOM     73  C   UNL     1     -12.790   9.914   1.687  1.00  0.00     0.000 A 
ENDBRANCH  54  68
BRANCH  55  74
ATOM     74  C   UNL     1      -0.201  11.644   3.082  1.00  0.00    -0.014 A 
ATOM     75  C   UNL     1       0.330  12.437   4.111  1.00  0.00     0.009 A 
ATOM     76  C   UNL     1       0.678  11.040   2.169  1.00  0.00     0.009 A 
ATOM     77  C   UNL     1       1.708  12.642   4.208  1.00  0.00     0.001 A 
ATOM     78  C   UNL     1       2.058  11.223   2.286  1.00  0.00     0.001 A 
ATOM     79  C   UNL     1       2.571  12.032   3.298  1.00  0.00     0.000 A 
ENDBRANCH  55  74
BRANCH  67  80
ATOM     80  C   UNL     1      -5.436  15.880   1.337  1.00  0.00    -0.014 A 
ATOM     81  C   UNL     1      -4.951  16.332   0.099  1.00  0.00     0.009 A 
ATOM     82  C   UNL     1      -6.002  16.808   2.226  1.00  0.00     0.009 A 
ATOM     83  C   UNL     1      -5.002  17.689  -0.225  1.00  0.00     0.001 A 
ATOM     84  C   UNL     1      -6.078  18.159   1.886  1.00  0.00     0.001 A 
ATOM     85  C   UNL     1      -5.570  18.600   0.665  1.00  0.00     0.000 A 
ENDBRANCH  67  80
ENDBRANCH  41  42
ENDBRANCH  33  36
ENDBRANCH  31  32
ENDBRANCH  30  31
ENDBRANCH   1  30
TORSDOF 15
