REMARK SMILES O=C(NCCCNC(=O)[C@H]1CC2=c3ccccc3=N[C@H]2[C@H](c2ccccc2F)[NH2+]1)c1ccc(-c2c3nc(c(-c4ccccc4)c4ccc([nH]4)c(-c4ccccc4)c4nc(c(-c5ccccc5)c5ccc2[nH]5)C=C4)C=C3)cc1
REMARK SMILES IDX 4 1 3 2 1 3 2 4 30 6 31 7 77 8 32 9 76 10 33 11 34 12 35 13
REMARK SMILES IDX 70 14 36 15 75 16 69 17 71 18 37 19 74 20 68 21 67 22 38 24
REMARK SMILES IDX 60 25 45 26 59 27 46 28 49 29 58 30 72 31 47 32 48 33 57 35
REMARK SMILES IDX 73 36 50 37 39 38 40 39 44 40 41 41 43 42 42 43 61 44 62 45
REMARK SMILES IDX 66 46 63 47 65 48 64 49 51 50 52 51 56 52 53 53 55 54 54 55
REMARK SMILES IDX 5 56 6 57 7 58 8 59 9 61 10 62 11 63 29 64 12 65 21 66 13 69
REMARK SMILES IDX 20 70 14 71 18 72 19 73 15 74 17 75 16 76 22 77 23 78 27 79
REMARK SMILES IDX 24 80 26 81 28 82 25 83
REMARK H PARENT 3 5 71 23 49 34 7 60 29 67 29 68
REMARK Flexibility Score: inf
ROOT
ATOM      1  C   UNL     1       4.229  -0.717  -1.296  1.00  0.00     0.118 C 
ENDROOT
BRANCH   1   2
ATOM      2  N   UNL     1       2.850  -0.275  -1.208  1.00  0.00    -0.352 N 
ATOM      3  O   UNL     1       0.945   0.346  -0.205  1.00  0.00    -0.269 OA
ATOM      4  C   UNL     1       2.180   0.331  -0.180  1.00  0.00     0.251 C 
ATOM      5  H   UNL     1       2.311  -0.436  -2.015  1.00  0.00     0.163 HD
BRANCH   4   6
ATOM      6  C   UNL     1       2.889   0.973   0.952  1.00  0.00     0.039 A 
ATOM      7  C   UNL     1       2.256   1.006   2.200  1.00  0.00     0.014 A 
ATOM      8  C   UNL     1       4.097   1.655   0.781  1.00  0.00     0.014 A 
ATOM      9  C   UNL     1       2.818   1.734   3.253  1.00  0.00     0.010 A 
ATOM     10  C   UNL     1       4.713   2.285   1.860  1.00  0.00     0.010 A 
ATOM     11  C   UNL     1       4.047   2.391   3.087  1.00  0.00    -0.014 A 
BRANCH  11  12
ATOM     12  C   UNL     1       4.568   3.314   4.127  1.00  0.00     0.031 A 
ATOM     13  C   UNL     1       4.678   4.789   3.821  1.00  0.00     0.074 A 
ATOM     14  C   UNL     1       4.933   2.847   5.337  1.00  0.00     0.049 A 
ATOM     15  N   UNL     1       5.116   5.760   4.582  1.00  0.00    -0.248 NA
ATOM     16  C   UNL     1       4.266   5.229   2.477  1.00  0.00     0.031 C 
ATOM     17  C   UNL     1       4.887   1.445   5.753  1.00  0.00     0.029 A 
ATOM     18  N   UNL     1       5.394   3.511   6.446  1.00  0.00    -0.354 N 
ATOM     19  C   UNL     1       5.061   6.907   3.798  1.00  0.00     0.074 A 
ATOM     20  C   UNL     1       4.599   6.510   2.490  1.00  0.00     0.031 C 
ATOM     21  C   UNL     1       5.251   1.361   7.043  1.00  0.00     0.029 A 
ATOM     22  C   UNL     1       5.587   2.695   7.534  1.00  0.00     0.049 A 
ATOM     23  H   UNL     1       5.571   4.479   6.460  1.00  0.00     0.167 HD
ATOM     24  C   UNL     1       5.337   8.186   4.143  1.00  0.00     0.031 A 
ATOM     25  C   UNL     1       5.968   2.992   8.792  1.00  0.00     0.031 A 
ATOM     26  C   UNL     1       5.737   8.594   5.460  1.00  0.00     0.049 A 
ATOM     27  C   UNL     1       6.237   4.425   9.162  1.00  0.00     0.074 A 
ATOM     28  C   UNL     1       5.999   9.872   5.922  1.00  0.00     0.029 A 
ATOM     29  N   UNL     1       5.907   7.733   6.532  1.00  0.00    -0.354 N 
ATOM     30  N   UNL     1       6.154   5.499   8.415  1.00  0.00    -0.248 NA
ATOM     31  C   UNL     1       6.633   4.689  10.553  1.00  0.00     0.031 C 
ATOM     32  C   UNL     1       6.360   9.781   7.268  1.00  0.00     0.029 A 
ATOM     33  C   UNL     1       6.271   8.453   7.655  1.00  0.00     0.049 A 
ATOM     34  H   UNL     1       5.788   6.756   6.499  1.00  0.00     0.167 HD
ATOM     35  C   UNL     1       6.448   6.567   9.253  1.00  0.00     0.074 A 
ATOM     36  C   UNL     1       6.707   6.014  10.565  1.00  0.00     0.031 C 
ATOM     37  C   UNL     1       6.496   7.889   8.959  1.00  0.00     0.031 A 
BRANCH  24  38
ATOM     38  C   UNL     1       5.196   9.248   3.088  1.00  0.00    -0.014 A 
ATOM     39  C   UNL     1       6.337   9.904   2.601  1.00  0.00     0.009 A 
ATOM     40  C   UNL     1       3.932   9.652   2.630  1.00  0.00     0.009 A 
ATOM     41  C   UNL     1       6.215  10.949   1.683  1.00  0.00     0.001 A 
ATOM     42  C   UNL     1       3.815  10.677   1.690  1.00  0.00     0.001 A 
ATOM     43  C   UNL     1       4.955  11.331   1.224  1.00  0.00     0.000 A 
ENDBRANCH  24  38
BRANCH  25  44
ATOM     44  C   UNL     1       6.044   1.914   9.812  1.00  0.00    -0.014 A 
ATOM     45  C   UNL     1       7.055   0.943   9.764  1.00  0.00     0.009 A 
ATOM     46  C   UNL     1       5.079   1.839  10.829  1.00  0.00     0.009 A 
ATOM     47  C   UNL     1       7.093  -0.088  10.707  1.00  0.00     0.001 A 
ATOM     48  C   UNL     1       5.135   0.823  11.786  1.00  0.00     0.001 A 
ATOM     49  C   UNL     1       6.137  -0.143  11.720  1.00  0.00     0.000 A 
ENDBRANCH  25  44
BRANCH  37  50
ATOM     50  C   UNL     1       6.788   8.850  10.075  1.00  0.00    -0.014 A 
ATOM     51  C   UNL     1       5.772   9.706  10.530  1.00  0.00     0.009 A 
ATOM     52  C   UNL     1       8.082   8.990  10.595  1.00  0.00     0.009 A 
ATOM     53  C   UNL     1       6.048  10.693  11.476  1.00  0.00     0.001 A 
ATOM     54  C   UNL     1       8.350   9.962  11.562  1.00  0.00     0.001 A 
ATOM     55  C   UNL     1       7.336  10.817  11.994  1.00  0.00     0.000 A 
ENDBRANCH  37  50
ENDBRANCH  11  12
ENDBRANCH   4   6
ENDBRANCH   1   2
BRANCH   1  56
ATOM     56  C   UNL     1       4.366  -2.197  -0.972  1.00  0.00     0.042 C 
BRANCH  56  57
ATOM     57  C   UNL     1       3.897  -3.112  -2.099  1.00  0.00     0.118 C 
BRANCH  57  58
ATOM     58  N   UNL     1       4.678  -2.902  -3.303  1.00  0.00    -0.351 N 
ATOM     59  C   UNL     1       5.759  -3.562  -3.805  1.00  0.00     0.278 C 
ATOM     60  H   UNL     1       4.373  -2.147  -3.856  1.00  0.00     0.163 HD
ATOM     61  O   UNL     1       6.385  -2.993  -4.705  1.00  0.00    -0.268 OA
BRANCH  59  62
ATOM     62  C   UNL     1       6.188  -4.948  -3.289  1.00  0.00     0.277 C 
ATOM     63  C   UNL     1       6.719  -4.933  -1.840  1.00  0.00     0.109 C 
ATOM     64  N   UNL     1       5.104  -5.935  -3.562  1.00  0.00    -0.327 N 
ATOM     65  C   UNL     1       6.160  -6.082  -1.075  1.00  0.00    -0.024 C 
ATOM     66  C   UNL     1       5.516  -7.323  -3.225  1.00  0.00     0.246 C 
ATOM     67  H   UNL     1       4.864  -5.894  -4.552  1.00  0.00     0.347 HD
ATOM     68  H   UNL     1       4.304  -5.693  -2.978  1.00  0.00     0.347 HD
ATOM     69  C   UNL     1       5.549  -6.151   0.102  1.00  0.00     0.002 A 
ATOM     70  C   UNL     1       6.154  -7.410  -1.782  1.00  0.00     0.196 C 
ATOM     71  C   UNL     1       5.233  -5.230   1.144  1.00  0.00     0.010 A 
ATOM     72  C   UNL     1       5.100  -7.555   0.139  1.00  0.00     0.066 A 
ATOM     73  N   UNL     1       5.371  -8.310  -0.884  1.00  0.00    -0.270 NA
ATOM     74  C   UNL     1       4.531  -5.671   2.200  1.00  0.00     0.001 A 
ATOM     75  C   UNL     1       4.348  -7.968   1.344  1.00  0.00     0.028 A 
ATOM     76  C   UNL     1       4.097  -7.056   2.299  1.00  0.00     0.002 A 
BRANCH  66  77
ATOM     77  C   UNL     1       6.397  -7.987  -4.289  1.00  0.00     0.048 A 
ATOM     78  C   UNL     1       6.986  -9.238  -4.010  1.00  0.00     0.013 A 
ATOM     79  C   UNL     1       6.635  -7.447  -5.563  1.00  0.00     0.132 A 
ATOM     80  C   UNL     1       7.848  -9.858  -4.920  1.00  0.00     0.001 A 
ATOM     81  C   UNL     1       7.498  -8.059  -6.472  1.00  0.00     0.040 A 
ATOM     82  F   UNL     1       6.054  -6.307  -5.965  1.00  0.00    -0.206 F 
ATOM     83  C   UNL     1       8.119  -9.259  -6.146  1.00  0.00     0.003 A 
ENDBRANCH  66  77
ENDBRANCH  59  62
ENDBRANCH  57  58
ENDBRANCH  56  57
ENDBRANCH   1  56
TORSDOF 11
