REMARK SMILES O=C(NCCCNC(=O)[C@H]1CC[C@@H](CNc2cccc(F)c2[N+](=O)[O-])O1)c1ccc(-c2c3nc(c(-c4ccccc4)c4ccc([nH]4)c(-c4ccccc4)c4nc(c(-c5ccccc5)c5ccc2[nH]5)C=C4)C=C3)cc1
REMARK SMILES IDX 6 1 5 2 4 3 3 4 1 5 2 6 27 8 28 9 74 10 29 11 73 12 30 13
REMARK SMILES IDX 31 14 32 15 67 16 33 17 72 18 66 19 68 20 34 21 71 22 65 23
REMARK SMILES IDX 64 24 35 26 57 27 42 28 56 29 43 30 46 31 55 32 69 33 44 34
REMARK SMILES IDX 45 35 54 37 70 38 47 39 36 40 37 41 41 42 38 43 40 44 39 45
REMARK SMILES IDX 58 46 59 47 63 48 60 49 62 50 61 51 48 52 49 53 53 54 50 55
REMARK SMILES IDX 52 56 51 57 7 58 8 59 9 61 10 62 11 63 26 64 12 65 13 66
REMARK SMILES IDX 14 67 15 68 16 70 17 71 22 72 18 73 20 74 19 75 21 76 23 77
REMARK SMILES IDX 24 78 25 79
REMARK H PARENT 3 7 68 25 46 36 7 60 15 69
REMARK Flexibility Score: inf
ROOT
ATOM      1  C   UNL     1       5.591  -0.536   8.505  1.00  0.00     0.117 C 
ENDROOT
BRANCH   1   2
ATOM      2  C   UNL     1       4.306   0.256   8.703  1.00  0.00     0.042 C 
BRANCH   2   3
ATOM      3  C   UNL     1       3.575  -0.114   9.985  1.00  0.00     0.118 C 
BRANCH   3   4
ATOM      4  N   UNL     1       4.329   0.244  11.180  1.00  0.00    -0.352 N 
ATOM      5  O   UNL     1       4.869   1.399  13.037  1.00  0.00    -0.269 OA
ATOM      6  C   UNL     1       4.037   1.148  12.171  1.00  0.00     0.251 C 
ATOM      7  H   UNL     1       5.180  -0.237  11.294  1.00  0.00     0.163 HD
BRANCH   6   8
ATOM      8  C   UNL     1       2.716   1.803  12.210  1.00  0.00     0.039 A 
ATOM      9  C   UNL     1       1.552   1.046  12.056  1.00  0.00     0.014 A 
ATOM     10  C   UNL     1       2.638   3.173  12.472  1.00  0.00     0.014 A 
ATOM     11  C   UNL     1       0.314   1.672  12.060  1.00  0.00     0.010 A 
ATOM     12  C   UNL     1       1.387   3.787  12.565  1.00  0.00     0.010 A 
ATOM     13  C   UNL     1       0.218   3.041  12.352  1.00  0.00    -0.014 A 
BRANCH  13  14
ATOM     14  C   UNL     1      -1.120   3.646  12.545  1.00  0.00     0.031 A 
ATOM     15  C   UNL     1      -1.634   4.711  11.625  1.00  0.00     0.074 A 
ATOM     16  C   UNL     1      -1.865   3.225  13.586  1.00  0.00     0.049 A 
ATOM     17  N   UNL     1      -2.772   5.356  11.672  1.00  0.00    -0.248 NA
ATOM     18  C   UNL     1      -0.756   5.111  10.516  1.00  0.00     0.031 C 
ATOM     19  C   UNL     1      -1.456   2.201  14.553  1.00  0.00     0.029 A 
ATOM     20  N   UNL     1      -3.114   3.599  14.007  1.00  0.00    -0.354 N 
ATOM     21  C   UNL     1      -2.740   6.254  10.614  1.00  0.00     0.074 A 
ATOM     22  C   UNL     1      -1.460   6.086   9.957  1.00  0.00     0.031 C 
ATOM     23  C   UNL     1      -2.445   2.012  15.436  1.00  0.00     0.029 A 
ATOM     24  C   UNL     1      -3.524   2.946  15.143  1.00  0.00     0.049 A 
ATOM     25  H   UNL     1      -3.664   4.270  13.540  1.00  0.00     0.167 HD
ATOM     26  C   UNL     1      -3.692   7.139  10.231  1.00  0.00     0.031 A 
ATOM     27  C   UNL     1      -4.630   3.101  15.892  1.00  0.00     0.031 A 
ATOM     28  C   UNL     1      -4.952   7.310  10.908  1.00  0.00     0.049 A 
ATOM     29  C   UNL     1      -5.651   4.115  15.473  1.00  0.00     0.074 A 
ATOM     30  C   UNL     1      -6.002   8.149  10.578  1.00  0.00     0.029 A 
ATOM     31  N   UNL     1      -5.324   6.640  12.065  1.00  0.00    -0.354 N 
ATOM     32  N   UNL     1      -5.633   4.919  14.438  1.00  0.00    -0.248 NA
ATOM     33  C   UNL     1      -6.844   4.243  16.319  1.00  0.00     0.031 C 
ATOM     34  C   UNL     1      -6.979   8.036  11.572  1.00  0.00     0.029 A 
ATOM     35  C   UNL     1      -6.571   7.074  12.483  1.00  0.00     0.049 A 
ATOM     36  H   UNL     1      -4.781   5.957  12.522  1.00  0.00     0.167 HD
ATOM     37  C   UNL     1      -6.818   5.636  14.494  1.00  0.00     0.074 A 
ATOM     38  C   UNL     1      -7.538   5.163  15.661  1.00  0.00     0.031 C 
ATOM     39  C   UNL     1      -7.270   6.596  13.651  1.00  0.00     0.031 A 
BRANCH  26  40
ATOM     40  C   UNL     1      -3.378   8.025   9.055  1.00  0.00    -0.014 A 
ATOM     41  C   UNL     1      -3.274   7.513   7.752  1.00  0.00     0.009 A 
ATOM     42  C   UNL     1      -3.194   9.403   9.256  1.00  0.00     0.009 A 
ATOM     43  C   UNL     1      -2.941   8.352   6.685  1.00  0.00     0.001 A 
ATOM     44  C   UNL     1      -2.893  10.244   8.184  1.00  0.00     0.001 A 
ATOM     45  C   UNL     1      -2.752   9.716   6.902  1.00  0.00     0.000 A 
ENDBRANCH  26  40
BRANCH  27  46
ATOM     46  C   UNL     1      -4.791   2.286  17.122  1.00  0.00    -0.014 A 
ATOM     47  C   UNL     1      -5.726   1.243  17.177  1.00  0.00     0.009 A 
ATOM     48  C   UNL     1      -3.953   2.507  18.228  1.00  0.00     0.009 A 
ATOM     49  C   UNL     1      -5.822   0.443  18.319  1.00  0.00     0.001 A 
ATOM     50  C   UNL     1      -4.031   1.687  19.354  1.00  0.00     0.001 A 
ATOM     51  C   UNL     1      -4.969   0.658  19.401  1.00  0.00     0.000 A 
ENDBRANCH  27  46
BRANCH  39  52
ATOM     52  C   UNL     1      -8.623   7.182  13.937  1.00  0.00    -0.014 A 
ATOM     53  C   UNL     1      -8.821   8.082  14.995  1.00  0.00     0.009 A 
ATOM     54  C   UNL     1      -9.700   6.878  13.089  1.00  0.00     0.009 A 
ATOM     55  C   UNL     1     -10.077   8.654  15.206  1.00  0.00     0.001 A 
ATOM     56  C   UNL     1     -10.946   7.473  13.286  1.00  0.00     0.001 A 
ATOM     57  C   UNL     1     -11.135   8.356  14.347  1.00  0.00     0.000 A 
ENDBRANCH  39  52
ENDBRANCH  13  14
ENDBRANCH   6   8
ENDBRANCH   3   4
ENDBRANCH   2   3
ENDBRANCH   1   2
BRANCH   1  58
ATOM     58  N   UNL     1       5.327  -1.861   7.996  1.00  0.00    -0.354 N 
ATOM     59  C   UNL     1       5.545  -2.386   6.757  1.00  0.00     0.249 C 
ATOM     60  H   UNL     1       4.927  -2.484   8.646  1.00  0.00     0.163 HD
ATOM     61  O   UNL     1       5.169  -3.549   6.574  1.00  0.00    -0.272 OA
BRANCH  59  62
ATOM     62  C   UNL     1       6.258  -1.602   5.632  1.00  0.00     0.207 C 
ATOM     63  C   UNL     1       5.622  -0.300   5.187  1.00  0.00     0.045 C 
ATOM     64  O   UNL     1       7.620  -1.349   5.966  1.00  0.00    -0.363 OA
ATOM     65  C   UNL     1       6.662   0.773   5.432  1.00  0.00     0.037 C 
ATOM     66  C   UNL     1       7.961   0.029   5.726  1.00  0.00     0.138 C 
BRANCH  66  67
ATOM     67  C   UNL     1       8.840   0.491   6.918  1.00  0.00     0.145 C 
BRANCH  67  68
ATOM     68  N   UNL     1       8.353   1.690   7.590  1.00  0.00    -0.377 N 
ATOM     69  H   UNL     1       8.095   2.450   7.019  1.00  0.00     0.160 HD
BRANCH  68  70
ATOM     70  C   UNL     1       8.220   1.858   8.961  1.00  0.00     0.116 A 
ATOM     71  C   UNL     1       8.892   1.024   9.873  1.00  0.00     0.033 A 
ATOM     72  C   UNL     1       7.316   2.792   9.518  1.00  0.00     0.327 A 
ATOM     73  C   UNL     1       8.675   1.109  11.255  1.00  0.00     0.006 A 
ATOM     74  C   UNL     1       7.101   2.885  10.894  1.00  0.00     0.202 A 
ATOM     75  C   UNL     1       7.775   2.038  11.764  1.00  0.00     0.047 A 
ATOM     76  F   UNL     1       6.252   3.784  11.411  1.00  0.00    -0.199 F 
BRANCH  72  77
ATOM     77  N   UNL     1       6.524   3.653   8.659  1.00  0.00     0.068 N 
ATOM     78  O   UNL     1       7.092   4.165   7.680  1.00  0.00    -0.258 OA
ATOM     79  O   UNL     1       5.320   3.787   8.919  1.00  0.00    -0.258 OA
ENDBRANCH  72  77
ENDBRANCH  68  70
ENDBRANCH  67  68
ENDBRANCH  66  67
ENDBRANCH  59  62
ENDBRANCH   1  58
TORSDOF 14
