REMARK SMILES CC(C)CN(C)c1cc2c(cc1Cl)C=C(C(=O)NCCCNC(=O)c1ccc(-c3c4nc(c(-c5ccccc5)c5ccc([nH]5)c(-c5ccccc5)c5nc(c(-c6ccccc6)c6ccc3[nH]6)C=C5)C=C4)cc1)[C@H](C(F)(F)F)O2
REMARK SMILES IDX 19 1 18 2 16 3 17 4 15 6 7 7 8 8 12 9 9 10 11 11 13 12 10 13
REMARK SMILES IDX 78 14 14 15 73 16 5 17 6 18 4 19 2 20 1 21 3 22 74 23 75 24
REMARK SMILES IDX 76 25 77 26 20 27 21 28 22 29 23 30 24 32 25 33 26 34 72 35
REMARK SMILES IDX 27 36 71 37 28 38 29 39 30 40 65 41 31 42 70 43 64 44 66 45
REMARK SMILES IDX 32 46 69 47 63 48 62 49 33 51 55 52 40 53 54 54 41 55 44 56
REMARK SMILES IDX 53 57 67 58 42 59 43 60 52 62 68 63 45 64 34 65 35 66 39 67
REMARK SMILES IDX 36 68 38 69 37 70 56 71 57 72 61 73 58 74 60 75 59 76 46 77
REMARK SMILES IDX 47 78 51 79 48 80 50 81 49 82
REMARK H PARENT 18 5 22 31 66 50 44 61
REMARK Flexibility Score: inf
ROOT
ATOM      1  C   UNL     1      -2.932   3.400  -8.055  1.00  0.00     0.118 C 
ENDROOT
BRANCH   1   2
ATOM      2  N   UNL     1      -1.645   3.873  -7.575  1.00  0.00    -0.352 N 
ATOM      3  C   UNL     1      -0.877   3.670  -6.481  1.00  0.00     0.251 C 
ATOM      4  O   UNL     1       0.187   4.295  -6.451  1.00  0.00    -0.270 OA
ATOM      5  H   UNL     1      -1.226   4.501  -8.207  1.00  0.00     0.163 HD
BRANCH   3   6
ATOM      6  C   UNL     1      -1.216   2.727  -5.381  1.00  0.00     0.067 C 
ATOM      7  C   UNL     1      -0.734  -0.722  -1.699  1.00  0.00     0.059 A 
ATOM      8  C   UNL     1      -1.807  -0.011  -2.265  1.00  0.00     0.074 A 
ATOM      9  C   UNL     1       0.545  -0.489  -2.251  1.00  0.00     0.065 A 
ATOM     10  C   UNL     1      -1.613   0.904  -3.301  1.00  0.00     0.130 A 
ATOM     11  C   UNL     1       0.750   0.499  -3.220  1.00  0.00     0.034 A 
ATOM     12  Cl  UNL     1       1.923  -1.460  -1.856  1.00  0.00    -0.082 Cl
ATOM     13  C   UNL     1      -0.333   1.196  -3.750  1.00  0.00     0.019 A 
ATOM     14  O   UNL     1      -2.740   1.448  -3.834  1.00  0.00    -0.475 OA
ATOM     15  C   UNL     1      -0.139   2.174  -4.802  1.00  0.00     0.025 C 
ATOM     16  C   UNL     1      -2.614   2.419  -4.910  1.00  0.00     0.314 C 
BRANCH   7  17
ATOM     17  N   UNL     1      -0.960  -1.617  -0.640  1.00  0.00    -0.373 N 
ATOM     18  C   UNL     1      -2.029  -2.593  -0.862  1.00  0.00     0.143 C 
BRANCH  17  19
ATOM     19  C   UNL     1      -0.873  -1.063   0.733  1.00  0.00     0.119 C 
BRANCH  19  20
ATOM     20  C   UNL     1       0.578  -0.904   1.230  1.00  0.00     0.002 C 
ATOM     21  C   UNL     1       1.099   0.522   1.028  1.00  0.00     0.009 C 
ATOM     22  C   UNL     1       0.714  -1.274   2.709  1.00  0.00     0.009 C 
ENDBRANCH  19  20
ENDBRANCH  17  19
ENDBRANCH   7  17
BRANCH  16  23
ATOM     23  C   UNL     1      -3.440   3.650  -4.499  1.00  0.00     0.429 C 
ATOM     24  F   UNL     1      -2.894   4.820  -4.896  1.00  0.00    -0.167 F 
ATOM     25  F   UNL     1      -4.678   3.582  -5.057  1.00  0.00    -0.167 F 
ATOM     26  F   UNL     1      -3.619   3.737  -3.160  1.00  0.00    -0.167 F 
ENDBRANCH  16  23
ENDBRANCH   3   6
ENDBRANCH   1   2
BRANCH   1  27
ATOM     27  C   UNL     1      -3.992   4.482  -7.906  1.00  0.00     0.042 C 
BRANCH  27  28
ATOM     28  C   UNL     1      -3.810   5.617  -8.903  1.00  0.00     0.118 C 
BRANCH  28  29
ATOM     29  N   UNL     1      -4.262   5.246 -10.239  1.00  0.00    -0.352 N 
ATOM     30  C   UNL     1      -5.400   5.612 -10.915  1.00  0.00     0.251 C 
ATOM     31  H   UNL     1      -3.660   4.641 -10.730  1.00  0.00     0.163 HD
ATOM     32  O   UNL     1      -5.732   4.997 -11.928  1.00  0.00    -0.269 OA
BRANCH  30  33
ATOM     33  C   UNL     1      -6.237   6.724 -10.418  1.00  0.00     0.039 A 
ATOM     34  C   UNL     1      -5.645   7.867  -9.883  1.00  0.00     0.014 A 
ATOM     35  C   UNL     1      -7.630   6.635 -10.493  1.00  0.00     0.014 A 
ATOM     36  C   UNL     1      -6.429   8.808  -9.233  1.00  0.00     0.010 A 
ATOM     37  C   UNL     1      -8.424   7.657  -9.961  1.00  0.00     0.010 A 
ATOM     38  C   UNL     1      -7.830   8.731  -9.283  1.00  0.00    -0.014 A 
BRANCH  38  39
ATOM     39  C   UNL     1      -8.626   9.824  -8.665  1.00  0.00     0.031 A 
ATOM     40  C   UNL     1      -9.587   9.560  -7.540  1.00  0.00     0.074 A 
ATOM     41  C   UNL     1      -8.425  11.086  -9.095  1.00  0.00     0.049 A 
ATOM     42  N   UNL     1     -10.290  10.421  -6.846  1.00  0.00    -0.248 NA
ATOM     43  C   UNL     1      -9.801   8.159  -7.146  1.00  0.00     0.031 C 
ATOM     44  C   UNL     1      -7.522  11.464 -10.186  1.00  0.00     0.029 A 
ATOM     45  N   UNL     1      -8.924  12.283  -8.649  1.00  0.00    -0.354 N 
ATOM     46  C   UNL     1     -11.046   9.668  -5.957  1.00  0.00     0.074 A 
ATOM     47  C   UNL     1     -10.741   8.278  -6.217  1.00  0.00     0.031 C 
ATOM     48  C   UNL     1      -7.465  12.799 -10.266  1.00  0.00     0.029 A 
ATOM     49  C   UNL     1      -8.394  13.371  -9.298  1.00  0.00     0.049 A 
ATOM     50  H   UNL     1      -9.596  12.355  -7.933  1.00  0.00     0.167 HD
ATOM     51  C   UNL     1     -11.911  10.101  -5.008  1.00  0.00     0.031 A 
ATOM     52  C   UNL     1      -8.628  14.689  -9.151  1.00  0.00     0.031 A 
ATOM     53  C   UNL     1     -12.194  11.489  -4.746  1.00  0.00     0.049 A 
ATOM     54  C   UNL     1      -9.602  15.141  -8.106  1.00  0.00     0.074 A 
ATOM     55  C   UNL     1     -13.005  12.025  -3.761  1.00  0.00     0.029 A 
ATOM     56  N   UNL     1     -11.688  12.558  -5.472  1.00  0.00    -0.354 N 
ATOM     57  N   UNL     1     -10.271  14.418  -7.241  1.00  0.00    -0.248 NA
ATOM     58  C   UNL     1      -9.856  16.584  -8.015  1.00  0.00     0.031 C 
ATOM     59  C   UNL     1     -13.063  13.408  -3.948  1.00  0.00     0.029 A 
ATOM     60  C   UNL     1     -12.215  13.747  -4.991  1.00  0.00     0.049 A 
ATOM     61  H   UNL     1     -11.051  12.483  -6.219  1.00  0.00     0.167 HD
ATOM     62  C   UNL     1     -11.029  15.316  -6.502  1.00  0.00     0.074 A 
ATOM     63  C   UNL     1     -10.707  16.640  -6.998  1.00  0.00     0.031 C 
ATOM     64  C   UNL     1     -11.916  15.060  -5.510  1.00  0.00     0.031 A 
BRANCH  51  65
ATOM     65  C   UNL     1     -12.645   9.071  -4.188  1.00  0.00    -0.014 A 
ATOM     66  C   UNL     1     -14.043   8.973  -4.295  1.00  0.00     0.009 A 
ATOM     67  C   UNL     1     -11.984   8.267  -3.247  1.00  0.00     0.009 A 
ATOM     68  C   UNL     1     -14.763   8.107  -3.470  1.00  0.00     0.001 A 
ATOM     69  C   UNL     1     -12.703   7.375  -2.446  1.00  0.00     0.001 A 
ATOM     70  C   UNL     1     -14.092   7.304  -2.550  1.00  0.00     0.000 A 
ENDBRANCH  51  65
BRANCH  52  71
ATOM     71  C   UNL     1      -7.902  15.645 -10.029  1.00  0.00    -0.014 A 
ATOM     72  C   UNL     1      -8.135  15.651 -11.416  1.00  0.00     0.009 A 
ATOM     73  C   UNL     1      -6.891  16.466  -9.509  1.00  0.00     0.009 A 
ATOM     74  C   UNL     1      -7.335  16.413 -12.268  1.00  0.00     0.001 A 
ATOM     75  C   UNL     1      -6.117  17.257 -10.363  1.00  0.00     0.001 A 
ATOM     76  C   UNL     1      -6.327  17.216 -11.741  1.00  0.00     0.000 A 
ENDBRANCH  52  71
BRANCH  64  77
ATOM     77  C   UNL     1     -12.636  16.232  -4.898  1.00  0.00    -0.014 A 
ATOM     78  C   UNL     1     -12.418  16.566  -3.551  1.00  0.00     0.009 A 
ATOM     79  C   UNL     1     -13.598  16.950  -5.626  1.00  0.00     0.009 A 
ATOM     80  C   UNL     1     -13.159  17.580  -2.942  1.00  0.00     0.001 A 
ATOM     81  C   UNL     1     -14.310  17.989  -5.025  1.00  0.00     0.001 A 
ATOM     82  C   UNL     1     -14.099  18.295  -3.681  1.00  0.00     0.000 A 
ENDBRANCH  64  77
ENDBRANCH  38  39
ENDBRANCH  30  33
ENDBRANCH  28  29
ENDBRANCH  27  28
ENDBRANCH   1  27
TORSDOF 14
