REMARK SMILES CCC(CC)COc1cc2c(cc1Cl)C=C(C(=O)NCCCNC(=O)c1ccc(-c3c4nc(c(-c5ccccc5)c5ccc([nH]5)c(-c5ccccc5)c5nc(c(-c6ccccc6)c6ccc3[nH]6)C=C5)C=C4)cc1)[C@@H](C(F)(F)F)O2
REMARK SMILES IDX 20 1 19 2 17 3 18 4 16 6 8 7 9 8 13 9 10 10 12 11 14 12
REMARK SMILES IDX 11 13 79 14 15 15 74 16 7 17 6 18 3 19 2 20 1 21 4 22 5 23
REMARK SMILES IDX 75 24 76 25 77 26 78 27 21 28 22 29 23 30 24 31 25 33 26 34
REMARK SMILES IDX 27 35 73 36 28 37 72 38 29 39 30 40 31 41 66 42 32 43 71 44
REMARK SMILES IDX 65 45 67 46 33 47 70 48 64 49 63 50 34 52 56 53 41 54 55 55
REMARK SMILES IDX 42 56 45 57 54 58 68 59 43 60 44 61 53 63 69 64 46 65 35 66
REMARK SMILES IDX 36 67 40 68 37 69 39 70 38 71 57 72 58 73 62 74 59 75 61 76
REMARK SMILES IDX 60 77 47 78 48 79 52 80 49 81 51 82 50 83
REMARK H PARENT 19 5 23 32 67 51 45 62
REMARK Flexibility Score: inf
ROOT
ATOM      1  C   UNL     1      -2.518   3.084   8.988  1.00  0.00     0.118 C 
ENDROOT
BRANCH   1   2
ATOM      2  N   UNL     1      -2.436   1.750   8.419  1.00  0.00    -0.352 N 
ATOM      3  C   UNL     1      -1.907   1.194   7.307  1.00  0.00     0.251 C 
ATOM      4  O   UNL     1      -2.056  -0.027   7.202  1.00  0.00    -0.270 OA
ATOM      5  H   UNL     1      -2.878   1.081   8.989  1.00  0.00     0.163 HD
BRANCH   3   6
ATOM      6  C   UNL     1      -1.194   1.945   6.245  1.00  0.00     0.067 C 
ATOM      7  C   UNL     1       1.119   3.159   1.986  1.00  0.00     0.141 A 
ATOM      8  C   UNL     1       0.110   3.773   2.728  1.00  0.00     0.095 A 
ATOM      9  C   UNL     1       1.763   2.014   2.480  1.00  0.00     0.083 A 
ATOM     10  C   UNL     1      -0.330   3.158   3.892  1.00  0.00     0.131 A 
ATOM     11  C   UNL     1       1.243   1.349   3.590  1.00  0.00     0.036 A 
ATOM     12  Cl  UNL     1       3.147   1.342   1.700  1.00  0.00    -0.080 Cl
ATOM     13  C   UNL     1       0.166   1.905   4.274  1.00  0.00     0.019 A 
ATOM     14  O   UNL     1      -1.266   3.815   4.650  1.00  0.00    -0.475 OA
ATOM     15  C   UNL     1      -0.489   1.204   5.372  1.00  0.00     0.025 C 
ATOM     16  C   UNL     1      -1.224   3.436   6.061  1.00  0.00     0.314 C 
BRANCH   7  17
ATOM     17  O   UNL     1       1.468   3.676   0.768  1.00  0.00    -0.492 OA
BRANCH  17  18
ATOM     18  C   UNL     1       0.469   3.408  -0.245  1.00  0.00     0.233 C 
BRANCH  18  19
ATOM     19  C   UNL     1       0.708   2.044  -0.939  1.00  0.00     0.026 C 
BRANCH  19  20
ATOM     20  C   UNL     1      -0.010   0.886  -0.205  1.00  0.00     0.003 C 
ATOM     21  C   UNL     1       0.567  -0.479  -0.554  1.00  0.00     0.004 C 
ENDBRANCH  19  20
BRANCH  19  22
ATOM     22  C   UNL     1       0.328   2.093  -2.435  1.00  0.00     0.003 C 
ATOM     23  C   UNL     1      -1.160   2.231  -2.728  1.00  0.00     0.004 C 
ENDBRANCH  19  22
ENDBRANCH  18  19
ENDBRANCH  17  18
ENDBRANCH   7  17
BRANCH  16  24
ATOM     24  C   UNL     1      -0.050   4.132   6.795  1.00  0.00     0.429 C 
ATOM     25  F   UNL     1      -0.332   5.441   7.006  1.00  0.00    -0.167 F 
ATOM     26  F   UNL     1       0.183   3.586   8.015  1.00  0.00    -0.167 F 
ATOM     27  F   UNL     1       1.120   4.073   6.123  1.00  0.00    -0.167 F 
ENDBRANCH  16  24
ENDBRANCH   3   6
ENDBRANCH   1   2
BRANCH   1  28
ATOM     28  C   UNL     1      -3.951   3.588   9.005  1.00  0.00     0.042 C 
BRANCH  28  29
ATOM     29  C   UNL     1      -4.766   2.950  10.118  1.00  0.00     0.118 C 
BRANCH  29  30
ATOM     30  N   UNL     1      -4.338   3.403  11.440  1.00  0.00    -0.352 N 
ATOM     31  C   UNL     1      -4.970   4.226  12.341  1.00  0.00     0.251 C 
ATOM     32  H   UNL     1      -3.459   3.066  11.730  1.00  0.00     0.163 HD
ATOM     33  O   UNL     1      -4.352   4.681  13.299  1.00  0.00    -0.269 OA
BRANCH  31  34
ATOM     34  C   UNL     1      -6.388   4.578  12.138  1.00  0.00     0.039 A 
ATOM     35  C   UNL     1      -7.292   3.607  11.710  1.00  0.00     0.014 A 
ATOM     36  C   UNL     1      -6.816   5.891  12.354  1.00  0.00     0.014 A 
ATOM     37  C   UNL     1      -8.557   3.988  11.290  1.00  0.00     0.010 A 
ATOM     38  C   UNL     1      -8.133   6.246  12.049  1.00  0.00     0.010 A 
ATOM     39  C   UNL     1      -8.998   5.309  11.462  1.00  0.00    -0.014 A 
BRANCH  39  40
ATOM     40  C   UNL     1     -10.373   5.668  11.030  1.00  0.00     0.031 A 
ATOM     41  C   UNL     1     -10.604   6.695   9.955  1.00  0.00     0.074 A 
ATOM     42  C   UNL     1     -11.416   5.006  11.570  1.00  0.00     0.049 A 
ATOM     43  N   UNL     1     -11.739   7.111   9.453  1.00  0.00    -0.248 NA
ATOM     44  C   UNL     1      -9.419   7.343   9.366  1.00  0.00     0.031 C 
ATOM     45  C   UNL     1     -11.312   3.978  12.611  1.00  0.00     0.029 A 
ATOM     46  N   UNL     1     -12.759   5.068  11.302  1.00  0.00    -0.354 N 
ATOM     47  C   UNL     1     -11.409   8.082   8.515  1.00  0.00     0.074 A 
ATOM     48  C   UNL     1      -9.969   8.211   8.526  1.00  0.00     0.031 C 
ATOM     49  C   UNL     1     -12.527   3.464  12.844  1.00  0.00     0.029 A 
ATOM     50  C   UNL     1     -13.508   4.182  12.039  1.00  0.00     0.049 A 
ATOM     51  H   UNL     1     -13.150   5.688  10.644  1.00  0.00     0.167 HD
ATOM     52  C   UNL     1     -12.235   8.793   7.714  1.00  0.00     0.031 A 
ATOM     53  C   UNL     1     -14.838   3.980  12.088  1.00  0.00     0.031 A 
ATOM     54  C   UNL     1     -13.665   8.637   7.687  1.00  0.00     0.049 A 
ATOM     55  C   UNL     1     -15.729   4.800  11.204  1.00  0.00     0.074 A 
ATOM     56  C   UNL     1     -14.581   9.300   6.888  1.00  0.00     0.029 A 
ATOM     57  N   UNL     1     -14.384   7.760   8.481  1.00  0.00    -0.354 N 
ATOM     58  N   UNL     1     -15.396   5.710  10.321  1.00  0.00    -0.248 NA
ATOM     59  C   UNL     1     -17.176   4.574  11.322  1.00  0.00     0.031 C 
ATOM     60  C   UNL     1     -15.859   8.866   7.240  1.00  0.00     0.029 A 
ATOM     61  C   UNL     1     -15.736   7.883   8.209  1.00  0.00     0.049 A 
ATOM     62  H   UNL     1     -13.993   7.141   9.140  1.00  0.00     0.167 HD
ATOM     63  C   UNL     1     -16.589   6.160   9.773  1.00  0.00     0.074 A 
ATOM     64  C   UNL     1     -17.652   5.404  10.402  1.00  0.00     0.031 C 
ATOM     65  C   UNL     1     -16.782   7.122   8.841  1.00  0.00     0.031 A 
BRANCH  52  66
ATOM     66  C   UNL     1     -11.638   9.818   6.791  1.00  0.00    -0.014 A 
ATOM     67  C   UNL     1     -11.874  11.183   7.028  1.00  0.00     0.009 A 
ATOM     68  C   UNL     1     -10.973   9.438   5.616  1.00  0.00     0.009 A 
ATOM     69  C   UNL     1     -11.483  12.143   6.094  1.00  0.00     0.001 A 
ATOM     70  C   UNL     1     -10.560  10.404   4.695  1.00  0.00     0.001 A 
ATOM     71  C   UNL     1     -10.827  11.753   4.928  1.00  0.00     0.000 A 
ENDBRANCH  52  66
BRANCH  53  72
ATOM     72  C   UNL     1     -15.387   2.974  13.036  1.00  0.00    -0.014 A 
ATOM     73  C   UNL     1     -15.267   3.171  14.423  1.00  0.00     0.009 A 
ATOM     74  C   UNL     1     -15.981   1.792  12.571  1.00  0.00     0.009 A 
ATOM     75  C   UNL     1     -15.699   2.194  15.321  1.00  0.00     0.001 A 
ATOM     76  C   UNL     1     -16.446   0.833  13.474  1.00  0.00     0.001 A 
ATOM     77  C   UNL     1     -16.294   1.028  14.846  1.00  0.00     0.000 A 
ENDBRANCH  53  72
BRANCH  65  78
ATOM     78  C   UNL     1     -18.194   7.422   8.424  1.00  0.00    -0.014 A 
ATOM     79  C   UNL     1     -18.621   7.096   7.126  1.00  0.00     0.009 A 
ATOM     80  C   UNL     1     -19.060   8.128   9.271  1.00  0.00     0.009 A 
ATOM     81  C   UNL     1     -19.881   7.490   6.677  1.00  0.00     0.001 A 
ATOM     82  C   UNL     1     -20.332   8.495   8.829  1.00  0.00     0.001 A 
ATOM     83  C   UNL     1     -20.737   8.186   7.530  1.00  0.00     0.000 A 
ENDBRANCH  65  78
ENDBRANCH  39  40
ENDBRANCH  31  34
ENDBRANCH  29  30
ENDBRANCH  28  29
ENDBRANCH   1  28
TORSDOF 16
