REMARK SMILES [NH3+][C@]1(C(=O)NCCCNC(=O)c2ccc(-c3c4nc(c(-c5ccccc5)c5ccc([nH]5)c(-c5ccccc5)c5nc(c(-c6ccccc6)c6ccc3[nH]6)C=C5)C=C4)cc2)CC[C@@H]([NH+]2CCC(C(F)(F)F)CC2)C1
REMARK SMILES IDX 7 1 6 2 5 3 3 4 4 5 2 7 60 8 73 9 61 10 62 11 1 12 63 16
REMARK SMILES IDX 64 17 72 18 65 20 71 21 66 22 67 23 68 24 69 25 70 26 8 27
REMARK SMILES IDX 9 28 10 29 11 31 12 32 13 33 59 34 14 35 58 36 15 37 16 38
REMARK SMILES IDX 17 39 52 40 18 41 57 42 51 43 53 44 19 45 56 46 50 47 49 48
REMARK SMILES IDX 20 50 42 51 27 52 41 53 28 54 31 55 40 56 54 57 29 58 30 59
REMARK SMILES IDX 39 61 55 62 32 63 21 64 22 65 26 66 23 67 25 68 24 69 43 70
REMARK SMILES IDX 44 71 48 72 45 73 47 74 46 75 33 76 34 77 38 78 35 79 37 80
REMARK SMILES IDX 36 81
REMARK H PARENT 5 6 1 13 1 14 1 15 63 19 9 30 53 49 31 60
REMARK Flexibility Score: inf
ROOT
ATOM      1  C   UNL     1       4.583   0.254  -0.749  1.00  0.00     0.042 C 
ENDROOT
BRANCH   1   2
ATOM      2  C   UNL     1       3.552  -0.859  -0.556  1.00  0.00     0.118 C 
BRANCH   2   3
ATOM      3  N   UNL     1       2.426  -0.398   0.228  1.00  0.00    -0.351 N 
ATOM      4  C   UNL     1       1.214   0.122  -0.100  1.00  0.00     0.281 C 
ATOM      5  O   UNL     1       0.557   0.546   0.858  1.00  0.00    -0.268 OA
ATOM      6  H   UNL     1       2.567  -0.477   1.199  1.00  0.00     0.163 HD
BRANCH   4   7
ATOM      7  C   UNL     1       0.617   0.078  -1.536  1.00  0.00     0.179 C 
ATOM      8  C   UNL     1      -0.031  -1.295  -1.758  1.00  0.00     0.085 C 
ATOM      9  C   UNL     1      -0.559   1.068  -1.675  1.00  0.00     0.144 C 
ATOM     10  C   UNL     1      -1.128  -1.049  -2.783  1.00  0.00     0.072 C 
ATOM     11  C   UNL     1      -1.672   0.355  -2.473  1.00  0.00     0.191 C 
BRANCH   7  12
ATOM     12  N   UNL     1       1.570   0.410  -2.611  1.00  0.00    -0.345 N 
ATOM     13  H   UNL     1       1.096   0.356  -3.513  1.00  0.00     0.345 HD
ATOM     14  H   UNL     1       2.345  -0.253  -2.595  1.00  0.00     0.345 HD
ATOM     15  H   UNL     1       1.926   1.355  -2.470  1.00  0.00     0.345 HD
ENDBRANCH   7  12
BRANCH  11  16
ATOM     16  N   UNL     1      -3.012   0.378  -1.839  1.00  0.00    -0.332 N 
ATOM     17  C   UNL     1      -3.087  -0.330  -0.554  1.00  0.00     0.263 C 
ATOM     18  C   UNL     1      -3.514   1.758  -1.737  1.00  0.00     0.263 C 
ATOM     19  H   UNL     1      -3.626  -0.151  -2.459  1.00  0.00     0.348 HD
ATOM     20  C   UNL     1      -4.509  -0.330   0.007  1.00  0.00     0.074 C 
ATOM     21  C   UNL     1      -4.942   1.810  -1.200  1.00  0.00     0.074 C 
ATOM     22  C   UNL     1      -5.044   1.096   0.149  1.00  0.00     0.106 C 
BRANCH  22  23
ATOM     23  C   UNL     1      -6.469   1.101   0.664  1.00  0.00     0.392 C 
ATOM     24  F   UNL     1      -6.550   0.491   1.868  1.00  0.00    -0.171 F 
ATOM     25  F   UNL     1      -6.919   2.366   0.823  1.00  0.00    -0.171 F 
ATOM     26  F   UNL     1      -7.314   0.467  -0.176  1.00  0.00    -0.171 F 
ENDBRANCH  22  23
ENDBRANCH  11  16
ENDBRANCH   4   7
ENDBRANCH   2   3
ENDBRANCH   1   2
BRANCH   1  27
ATOM     27  C   UNL     1       5.257   0.699   0.552  1.00  0.00     0.118 C 
BRANCH  27  28
ATOM     28  N   UNL     1       6.077  -0.354   1.138  1.00  0.00    -0.352 N 
ATOM     29  C   UNL     1       7.435  -0.432   1.296  1.00  0.00     0.251 C 
ATOM     30  H   UNL     1       5.575  -1.131   1.473  1.00  0.00     0.163 HD
ATOM     31  O   UNL     1       7.949  -1.511   1.603  1.00  0.00    -0.269 OA
BRANCH  29  32
ATOM     32  C   UNL     1       8.293   0.751   1.091  1.00  0.00     0.039 A 
ATOM     33  C   UNL     1       9.487   0.605   0.377  1.00  0.00     0.014 A 
ATOM     34  C   UNL     1       7.947   1.995   1.627  1.00  0.00     0.014 A 
ATOM     35  C   UNL     1      10.291   1.720   0.131  1.00  0.00     0.010 A 
ATOM     36  C   UNL     1       8.718   3.117   1.331  1.00  0.00     0.010 A 
ATOM     37  C   UNL     1       9.889   2.993   0.568  1.00  0.00    -0.014 A 
BRANCH  37  38
ATOM     38  C   UNL     1      10.646   4.212   0.191  1.00  0.00     0.031 A 
ATOM     39  C   UNL     1      11.329   5.048   1.236  1.00  0.00     0.074 A 
ATOM     40  C   UNL     1      10.642   4.614  -1.095  1.00  0.00     0.049 A 
ATOM     41  N   UNL     1      11.948   6.194   1.101  1.00  0.00    -0.248 NA
ATOM     42  C   UNL     1      11.295   4.540   2.617  1.00  0.00     0.031 C 
ATOM     43  C   UNL     1       9.988   3.910  -2.201  1.00  0.00     0.029 A 
ATOM     44  N   UNL     1      11.191   5.724  -1.687  1.00  0.00    -0.354 N 
ATOM     45  C   UNL     1      12.363   6.552   2.376  1.00  0.00     0.074 A 
ATOM     46  C   UNL     1      11.895   5.521   3.278  1.00  0.00     0.031 C 
ATOM     47  C   UNL     1      10.187   4.596  -3.337  1.00  0.00     0.029 A 
ATOM     48  C   UNL     1      10.940   5.808  -3.035  1.00  0.00     0.049 A 
ATOM     49  H   UNL     1      11.715   6.395  -1.193  1.00  0.00     0.167 HD
ATOM     50  C   UNL     1      13.078   7.637   2.760  1.00  0.00     0.031 A 
ATOM     51  C   UNL     1      11.261   6.763  -3.928  1.00  0.00     0.031 A 
ATOM     52  C   UNL     1      13.546   8.661   1.864  1.00  0.00     0.049 A 
ATOM     53  C   UNL     1      12.023   7.973  -3.469  1.00  0.00     0.074 A 
ATOM     54  C   UNL     1      14.332   9.765   2.151  1.00  0.00     0.029 A 
ATOM     55  N   UNL     1      13.264   8.713   0.508  1.00  0.00    -0.354 N 
ATOM     56  N   UNL     1      12.463   8.264  -2.269  1.00  0.00    -0.248 NA
ATOM     57  C   UNL     1      12.333   8.984  -4.489  1.00  0.00     0.031 C 
ATOM     58  C   UNL     1      14.481  10.512   0.978  1.00  0.00     0.029 A 
ATOM     59  C   UNL     1      13.831   9.848  -0.049  1.00  0.00     0.049 A 
ATOM     60  H   UNL     1      12.739   8.043   0.014  1.00  0.00     0.167 HD
ATOM     61  C   UNL     1      13.114   9.484  -2.393  1.00  0.00     0.074 A 
ATOM     62  C   UNL     1      13.030   9.867  -3.787  1.00  0.00     0.031 C 
ATOM     63  C   UNL     1      13.725  10.223  -1.435  1.00  0.00     0.031 A 
BRANCH  50  64
ATOM     64  C   UNL     1      13.390   7.779   4.224  1.00  0.00    -0.014 A 
ATOM     65  C   UNL     1      14.327   6.943   4.852  1.00  0.00     0.009 A 
ATOM     66  C   UNL     1      12.771   8.790   4.975  1.00  0.00     0.009 A 
ATOM     67  C   UNL     1      14.614   7.097   6.210  1.00  0.00     0.001 A 
ATOM     68  C   UNL     1      13.078   8.957   6.327  1.00  0.00     0.001 A 
ATOM     69  C   UNL     1      13.992   8.106   6.945  1.00  0.00     0.000 A 
ENDBRANCH  50  64
BRANCH  51  70
ATOM     70  C   UNL     1      10.854   6.617  -5.348  1.00  0.00    -0.014 A 
ATOM     71  C   UNL     1      11.812   6.341  -6.336  1.00  0.00     0.009 A 
ATOM     72  C   UNL     1       9.508   6.751  -5.724  1.00  0.00     0.009 A 
ATOM     73  C   UNL     1      11.432   6.223  -7.675  1.00  0.00     0.001 A 
ATOM     74  C   UNL     1       9.128   6.606  -7.060  1.00  0.00     0.001 A 
ATOM     75  C   UNL     1      10.091   6.351  -8.035  1.00  0.00     0.000 A 
ENDBRANCH  51  70
BRANCH  63  76
ATOM     76  C   UNL     1      14.359  11.513  -1.869  1.00  0.00    -0.014 A 
ATOM     77  C   UNL     1      13.574  12.632  -2.189  1.00  0.00     0.009 A 
ATOM     78  C   UNL     1      15.757  11.620  -1.930  1.00  0.00     0.009 A 
ATOM     79  C   UNL     1      14.179  13.825  -2.589  1.00  0.00     0.001 A 
ATOM     80  C   UNL     1      16.358  12.821  -2.305  1.00  0.00     0.001 A 
ATOM     81  C   UNL     1      15.569  13.920  -2.643  1.00  0.00     0.000 A 
ENDBRANCH  63  76
ENDBRANCH  37  38
ENDBRANCH  29  32
ENDBRANCH  27  28
ENDBRANCH   1  27
TORSDOF 13
