REMARK SMILES Cc1ccc(-c2cc3cccnc3n2CCC(=O)NCCCNC(=O)c2ccc(-c3c4nc(c(-c5ccccc5)c5ccc([nH]5)c(-c5ccccc5)c5nc(c(-c6ccccc6)c6ccc3[nH]6)C=C5)C=C4)cc2)cn1
REMARK SMILES IDX 20 1 19 2 17 3 18 4 16 6 15 7 14 8 6 9 7 10 8 11 13 12 9 13
REMARK SMILES IDX 12 14 10 15 11 16 5 17 1 18 2 19 3 20 75 21 4 22 74 23 21 24
REMARK SMILES IDX 22 25 23 26 24 27 25 29 26 30 27 31 73 32 28 33 72 34 29 35
REMARK SMILES IDX 30 36 31 37 66 38 32 39 71 40 65 41 67 42 33 43 70 44 64 45
REMARK SMILES IDX 63 46 34 48 56 49 41 50 55 51 42 52 45 53 54 54 68 55 43 56
REMARK SMILES IDX 44 57 53 59 69 60 46 61 35 62 36 63 40 64 37 65 39 66 38 67
REMARK SMILES IDX 57 68 58 69 62 70 59 71 61 72 60 73 47 74 48 75 52 76 49 77
REMARK SMILES IDX 51 78 50 79
REMARK H PARENT 19 5 23 28 67 47 45 58
REMARK Flexibility Score: inf
ROOT
ATOM      1  C   UNL     1      -3.923  -2.140  -1.713  1.00  0.00     0.117 C 
ENDROOT
BRANCH   1   2
ATOM      2  N   UNL     1      -2.855  -2.616  -0.844  1.00  0.00    -0.356 N 
ATOM      3  C   UNL     1      -2.849  -2.908   0.486  1.00  0.00     0.221 C 
ATOM      4  O   UNL     1      -1.850  -3.475   0.940  1.00  0.00    -0.275 OA
ATOM      5  H   UNL     1      -1.990  -2.749  -1.295  1.00  0.00     0.163 HD
BRANCH   3   6
ATOM      6  C   UNL     1      -3.988  -2.528   1.406  1.00  0.00     0.122 C 
BRANCH   6   7
ATOM      7  C   UNL     1      -3.757  -1.248   2.232  1.00  0.00     0.134 C 
BRANCH   7   8
ATOM      8  N   UNL     1      -3.989   0.000   1.516  1.00  0.00    -0.325 N 
ATOM      9  C   UNL     1      -3.080   0.959   1.050  1.00  0.00     0.052 A 
ATOM     10  C   UNL     1      -3.872   1.931   0.419  1.00  0.00     0.039 A 
ATOM     11  C   UNL     1      -5.214   1.475   0.348  1.00  0.00     0.020 A 
ATOM     12  C   UNL     1      -5.276   0.326   1.116  1.00  0.00     0.140 A 
ATOM     13  C   UNL     1      -6.368   1.848  -0.362  1.00  0.00     0.013 A 
ATOM     14  N   UNL     1      -6.368  -0.440   1.332  1.00  0.00    -0.238 NA
ATOM     15  C   UNL     1      -7.507   1.055  -0.212  1.00  0.00     0.021 A 
ATOM     16  C   UNL     1      -7.459  -0.030   0.650  1.00  0.00     0.113 A 
BRANCH   9  17
ATOM     17  C   UNL     1      -1.594   0.875   0.966  1.00  0.00     0.017 A 
ATOM     18  C   UNL     1       2.585   0.671  -0.039  1.00  0.00     0.066 C 
ATOM     19  C   UNL     1       1.134   0.740   0.331  1.00  0.00     0.037 A 
ATOM     20  C   UNL     1       0.473  -0.401   0.736  1.00  0.00     0.024 A 
ATOM     21  N   UNL     1       0.513   1.940   0.281  1.00  0.00    -0.261 NA
ATOM     22  C   UNL     1      -0.879  -0.314   1.062  1.00  0.00     0.014 A 
ATOM     23  C   UNL     1      -0.816   1.974   0.598  1.00  0.00     0.121 A 
ENDBRANCH   9  17
ENDBRANCH   7   8
ENDBRANCH   6   7
ENDBRANCH   3   6
ENDBRANCH   1   2
BRANCH   1  24
ATOM     24  C   UNL     1      -3.844  -0.660  -2.015  1.00  0.00     0.042 C 
BRANCH  24  25
ATOM     25  C   UNL     1      -2.623  -0.170  -2.754  1.00  0.00     0.118 C 
BRANCH  25  26
ATOM     26  N   UNL     1      -2.858   0.016  -4.174  1.00  0.00    -0.352 N 
ATOM     27  C   UNL     1      -2.574   1.096  -4.987  1.00  0.00     0.251 C 
ATOM     28  H   UNL     1      -3.285  -0.746  -4.628  1.00  0.00     0.163 HD
ATOM     29  O   UNL     1      -3.118   1.168  -6.078  1.00  0.00    -0.269 OA
BRANCH  27  30
ATOM     30  C   UNL     1      -1.585   2.133  -4.585  1.00  0.00     0.039 A 
ATOM     31  C   UNL     1      -1.441   3.287  -5.371  1.00  0.00     0.014 A 
ATOM     32  C   UNL     1      -0.713   1.932  -3.514  1.00  0.00     0.014 A 
ATOM     33  C   UNL     1      -0.351   4.126  -5.152  1.00  0.00     0.010 A 
ATOM     34  C   UNL     1       0.208   2.873  -3.157  1.00  0.00     0.010 A 
ATOM     35  C   UNL     1       0.501   3.851  -4.078  1.00  0.00    -0.014 A 
BRANCH  35  36
ATOM     36  C   UNL     1       1.744   4.554  -3.852  1.00  0.00     0.031 A 
ATOM     37  C   UNL     1       1.547   5.929  -3.377  1.00  0.00     0.074 A 
ATOM     38  C   UNL     1       2.946   3.937  -3.849  1.00  0.00     0.049 A 
ATOM     39  N   UNL     1       1.674   7.003  -4.076  1.00  0.00    -0.248 NA
ATOM     40  C   UNL     1       0.970   6.132  -2.038  1.00  0.00     0.031 C 
ATOM     41  C   UNL     1       3.246   2.500  -3.955  1.00  0.00     0.029 A 
ATOM     42  N   UNL     1       4.175   4.481  -3.651  1.00  0.00    -0.354 N 
ATOM     43  C   UNL     1       1.393   8.040  -3.203  1.00  0.00     0.074 A 
ATOM     44  C   UNL     1       0.770   7.451  -2.043  1.00  0.00     0.031 C 
ATOM     45  C   UNL     1       4.538   2.278  -3.612  1.00  0.00     0.029 A 
ATOM     46  C   UNL     1       5.193   3.561  -3.430  1.00  0.00     0.049 A 
ATOM     47  H   UNL     1       4.332   5.453  -3.664  1.00  0.00     0.167 HD
ATOM     48  C   UNL     1       1.965   9.261  -3.366  1.00  0.00     0.031 A 
ATOM     49  C   UNL     1       6.476   3.864  -3.112  1.00  0.00     0.031 A 
ATOM     50  C   UNL     1       2.687   9.348  -4.607  1.00  0.00     0.049 A 
ATOM     51  C   UNL     1       6.711   5.245  -3.591  1.00  0.00     0.074 A 
ATOM     52  C   UNL     1       2.359   9.471  -5.939  1.00  0.00     0.029 A 
ATOM     53  N   UNL     1       3.958   8.829  -4.544  1.00  0.00    -0.354 N 
ATOM     54  N   UNL     1       6.679   5.581  -4.849  1.00  0.00    -0.248 NA
ATOM     55  C   UNL     1       6.629   6.350  -2.644  1.00  0.00     0.031 C 
ATOM     56  C   UNL     1       3.382   8.783  -6.660  1.00  0.00     0.029 A 
ATOM     57  C   UNL     1       4.330   8.305  -5.756  1.00  0.00     0.049 A 
ATOM     58  H   UNL     1       4.524   8.831  -3.739  1.00  0.00     0.167 HD
ATOM     59  C   UNL     1       6.143   6.855  -4.848  1.00  0.00     0.074 A 
ATOM     60  C   UNL     1       6.299   7.337  -3.481  1.00  0.00     0.031 C 
ATOM     61  C   UNL     1       5.350   7.282  -5.872  1.00  0.00     0.031 A 
BRANCH  48  62
ATOM     62  C   UNL     1       2.266  10.169  -2.212  1.00  0.00    -0.014 A 
ATOM     63  C   UNL     1       2.518  11.527  -2.447  1.00  0.00     0.009 A 
ATOM     64  C   UNL     1       2.542   9.674  -0.921  1.00  0.00     0.009 A 
ATOM     65  C   UNL     1       3.004  12.354  -1.426  1.00  0.00     0.001 A 
ATOM     66  C   UNL     1       2.990  10.502   0.108  1.00  0.00     0.001 A 
ATOM     67  C   UNL     1       3.231  11.843  -0.149  1.00  0.00     0.000 A 
ENDBRANCH  48  62
BRANCH  49  68
ATOM     68  C   UNL     1       7.386   3.229  -2.129  1.00  0.00    -0.014 A 
ATOM     69  C   UNL     1       8.739   3.616  -2.075  1.00  0.00     0.009 A 
ATOM     70  C   UNL     1       6.865   2.526  -1.029  1.00  0.00     0.009 A 
ATOM     71  C   UNL     1       9.512   3.393  -0.927  1.00  0.00     0.001 A 
ATOM     72  C   UNL     1       7.641   2.297   0.116  1.00  0.00     0.001 A 
ATOM     73  C   UNL     1       8.954   2.755   0.177  1.00  0.00     0.000 A 
ENDBRANCH  49  68
BRANCH  61  74
ATOM     74  C   UNL     1       5.420   6.520  -7.167  1.00  0.00    -0.014 A 
ATOM     75  C   UNL     1       4.910   5.222  -7.341  1.00  0.00     0.009 A 
ATOM     76  C   UNL     1       5.926   7.196  -8.287  1.00  0.00     0.009 A 
ATOM     77  C   UNL     1       4.909   4.622  -8.606  1.00  0.00     0.001 A 
ATOM     78  C   UNL     1       5.910   6.604  -9.550  1.00  0.00     0.001 A 
ATOM     79  C   UNL     1       5.401   5.317  -9.710  1.00  0.00     0.000 A 
ENDBRANCH  61  74
ENDBRANCH  35  36
ENDBRANCH  27  30
ENDBRANCH  25  26
ENDBRANCH  24  25
ENDBRANCH   1  24
TORSDOF 13
