REMARK SMILES CCCN(CC)S(=O)(=O)c1ccc(C(=O)NCCCNC(=O)c2ccc(-c3c4nc(c(-c5ccccc5)c5ccc([nH]5)c(-c5ccccc5)c5nc(c(-c6ccccc6)c6ccc3[nH]6)C=C5)C=C4)cc2)o1
REMARK SMILES IDX 17 1 16 2 14 3 15 4 13 6 10 7 11 8 71 9 12 10 7 11 8 12 9 13
REMARK SMILES IDX 4 14 3 15 2 16 1 17 5 18 6 19 18 20 19 21 20 22 21 23 22 25
REMARK SMILES IDX 23 26 24 27 70 28 25 29 69 30 26 31 27 32 28 33 63 34 29 35
REMARK SMILES IDX 68 36 62 37 64 38 30 39 67 40 61 41 60 42 31 44 53 45 38 46
REMARK SMILES IDX 52 47 39 48 42 49 51 50 65 51 40 52 41 53 50 55 66 56 43 57
REMARK SMILES IDX 32 58 33 59 37 60 34 61 36 62 35 63 54 64 55 65 59 66 56 67
REMARK SMILES IDX 58 68 57 69 44 70 45 71 49 72 46 73 48 74 47 75
REMARK H PARENT 16 5 20 24 64 43 42 54
REMARK Flexibility Score: inf
ROOT
ATOM      1  C   UNL     1      -0.098  -2.286  -8.652  1.00  0.00     0.118 C 
ENDROOT
BRANCH   1   2
ATOM      2  N   UNL     1      -0.592  -0.956  -8.348  1.00  0.00    -0.349 N 
ATOM      3  C   UNL     1      -0.554  -0.236  -7.174  1.00  0.00     0.287 C 
ATOM      4  O   UNL     1      -0.878   0.951  -7.256  1.00  0.00    -0.266 OA
ATOM      5  H   UNL     1      -1.024  -0.494  -9.103  1.00  0.00     0.163 HD
BRANCH   3   6
ATOM      6  C   UNL     1      -0.148  -0.856  -5.924  1.00  0.00     0.193 A 
ATOM      7  C   UNL     1       0.599  -0.767  -3.812  1.00  0.00     0.234 A 
ATOM      8  C   UNL     1       0.371  -2.099  -4.129  1.00  0.00     0.065 A 
ATOM      9  O   UNL     1       0.277  -0.018  -4.921  1.00  0.00    -0.438 OA
ATOM     10  C   UNL     1      -0.113  -2.153  -5.452  1.00  0.00     0.058 A 
BRANCH   7  11
ATOM     11  S   UNL     1       1.209  -0.072  -2.272  1.00  0.00     0.276 S 
ATOM     12  O   UNL     1       2.649  -0.097  -2.405  1.00  0.00    -0.204 OA
ATOM     13  O   UNL     1       0.551  -0.897  -1.278  1.00  0.00    -0.204 OA
BRANCH  11  14
ATOM     14  N   UNL     1       0.707   1.545  -2.041  1.00  0.00    -0.195 NA
BRANCH  14  15
ATOM     15  C   UNL     1       1.109   2.144  -0.726  1.00  0.00     0.102 C 
BRANCH  15  16
ATOM     16  C   UNL     1       0.285   1.628   0.456  1.00  0.00     0.013 C 
ATOM     17  C   UNL     1       0.963   0.511   1.246  1.00  0.00     0.005 C 
ENDBRANCH  15  16
ENDBRANCH  14  15
BRANCH  14  18
ATOM     18  C   UNL     1       0.924   2.502  -3.169  1.00  0.00     0.099 C 
ATOM     19  C   UNL     1       2.385   2.772  -3.486  1.00  0.00     0.022 C 
ENDBRANCH  14  18
ENDBRANCH  11  14
ENDBRANCH   7  11
ENDBRANCH   3   6
ENDBRANCH   1   2
BRANCH   1  20
ATOM     20  C   UNL     1      -1.206  -3.338  -8.637  1.00  0.00     0.042 C 
BRANCH  20  21
ATOM     21  C   UNL     1      -2.087  -3.328  -9.885  1.00  0.00     0.118 C 
BRANCH  21  22
ATOM     22  N   UNL     1      -1.371  -3.788 -11.066  1.00  0.00    -0.352 N 
ATOM     23  C   UNL     1      -1.647  -4.817 -11.930  1.00  0.00     0.251 C 
ATOM     24  H   UNL     1      -0.556  -3.279 -11.278  1.00  0.00     0.163 HD
ATOM     25  O   UNL     1      -0.794  -5.159 -12.745  1.00  0.00    -0.269 OA
BRANCH  23  26
ATOM     26  C   UNL     1      -2.947  -5.525 -11.898  1.00  0.00     0.039 A 
ATOM     27  C   UNL     1      -2.959  -6.909 -12.108  1.00  0.00     0.014 A 
ATOM     28  C   UNL     1      -4.154  -4.837 -11.743  1.00  0.00     0.014 A 
ATOM     29  C   UNL     1      -4.170  -7.606 -12.118  1.00  0.00     0.010 A 
ATOM     30  C   UNL     1      -5.358  -5.540 -11.699  1.00  0.00     0.010 A 
ATOM     31  C   UNL     1      -5.378  -6.929 -11.893  1.00  0.00    -0.014 A 
BRANCH  31  32
ATOM     32  C   UNL     1      -6.673  -7.655 -11.873  1.00  0.00     0.031 A 
ATOM     33  C   UNL     1      -7.694  -7.413 -12.950  1.00  0.00     0.074 A 
ATOM     34  C   UNL     1      -6.953  -8.494 -10.857  1.00  0.00     0.049 A 
ATOM     35  N   UNL     1      -8.912  -7.881 -13.054  1.00  0.00    -0.248 NA
ATOM     36  C   UNL     1      -7.301  -6.512 -14.046  1.00  0.00     0.031 C 
ATOM     37  C   UNL     1      -6.059  -8.802  -9.739  1.00  0.00     0.029 A 
ATOM     38  N   UNL     1      -8.079  -9.234 -10.596  1.00  0.00    -0.354 N 
ATOM     39  C   UNL     1      -9.436  -7.320 -14.212  1.00  0.00     0.074 A 
ATOM     40  C   UNL     1      -8.416  -6.451 -14.759  1.00  0.00     0.031 C 
ATOM     41  C   UNL     1      -6.666  -9.677  -8.920  1.00  0.00     0.029 A 
ATOM     42  C   UNL     1      -8.001  -9.964  -9.435  1.00  0.00     0.049 A 
ATOM     43  H   UNL     1      -8.868  -9.241 -11.185  1.00  0.00     0.167 HD
ATOM     44  C   UNL     1     -10.650  -7.519 -14.777  1.00  0.00     0.031 A 
ATOM     45  C   UNL     1      -8.907 -10.767  -8.846  1.00  0.00     0.031 A 
ATOM     46  C   UNL     1     -11.661  -8.394 -14.247  1.00  0.00     0.049 A 
ATOM     47  C   UNL     1     -10.248 -10.967  -9.493  1.00  0.00     0.074 A 
ATOM     48  C   UNL     1     -12.913  -8.680 -14.765  1.00  0.00     0.029 A 
ATOM     49  N   UNL     1     -11.532  -9.130 -13.081  1.00  0.00    -0.354 N 
ATOM     50  N   UNL     1     -10.714 -10.450 -10.603  1.00  0.00    -0.248 NA
ATOM     51  C   UNL     1     -11.184 -11.871  -8.808  1.00  0.00     0.031 C 
ATOM     52  C   UNL     1     -13.552  -9.572 -13.898  1.00  0.00     0.029 A 
ATOM     53  C   UNL     1     -12.683  -9.867 -12.860  1.00  0.00     0.049 A 
ATOM     54  H   UNL     1     -10.740  -9.130 -12.497  1.00  0.00     0.167 HD
ATOM     55  C   UNL     1     -11.986 -10.984 -10.763  1.00  0.00     0.074 A 
ATOM     56  C   UNL     1     -12.213 -11.875  -9.644  1.00  0.00     0.031 C 
ATOM     57  C   UNL     1     -12.887 -10.755 -11.748  1.00  0.00     0.031 A 
BRANCH  44  58
ATOM     58  C   UNL     1     -10.953  -6.774 -16.045  1.00  0.00    -0.014 A 
ATOM     59  C   UNL     1     -10.371  -7.157 -17.263  1.00  0.00     0.009 A 
ATOM     60  C   UNL     1     -11.865  -5.707 -16.031  1.00  0.00     0.009 A 
ATOM     61  C   UNL     1     -10.676  -6.469 -18.439  1.00  0.00     0.001 A 
ATOM     62  C   UNL     1     -12.185  -5.035 -17.212  1.00  0.00     0.001 A 
ATOM     63  C   UNL     1     -11.585  -5.412 -18.413  1.00  0.00     0.000 A 
ENDBRANCH  44  58
BRANCH  45  64
ATOM     64  C   UNL     1      -8.579 -11.452  -7.570  1.00  0.00    -0.014 A 
ATOM     65  C   UNL     1      -8.340 -12.834  -7.548  1.00  0.00     0.009 A 
ATOM     66  C   UNL     1      -8.523 -10.731  -6.368  1.00  0.00     0.009 A 
ATOM     67  C   UNL     1      -8.081 -13.487  -6.341  1.00  0.00     0.001 A 
ATOM     68  C   UNL     1      -8.239 -11.383  -5.166  1.00  0.00     0.001 A 
ATOM     69  C   UNL     1      -8.028 -12.761  -5.152  1.00  0.00     0.000 A 
ENDBRANCH  45  64
BRANCH  57  70
ATOM     70  C   UNL     1     -14.181 -11.511 -11.678  1.00  0.00    -0.014 A 
ATOM     71  C   UNL     1     -15.187 -11.144 -10.771  1.00  0.00     0.009 A 
ATOM     72  C   UNL     1     -14.408 -12.582 -12.555  1.00  0.00     0.009 A 
ATOM     73  C   UNL     1     -16.386 -11.857 -10.725  1.00  0.00     0.001 A 
ATOM     74  C   UNL     1     -15.616 -13.279 -12.520  1.00  0.00     0.001 A 
ATOM     75  C   UNL     1     -16.600 -12.921 -11.601  1.00  0.00     0.000 A 
ENDBRANCH  57  70
ENDBRANCH  31  32
ENDBRANCH  23  26
ENDBRANCH  21  22
ENDBRANCH  20  21
ENDBRANCH   1  20
TORSDOF 15
