REMARK SMILES Cc1n[nH]c(SCC[C@@H]2CCC[C@]2([NH2+]C(C)C)C(=O)NCCCNC(=O)c2ccc(-c3c4nc(c(-c5ccccc5)c5ccc([nH]5)c(-c5ccccc5)c5nc(c(-c6ccccc6)c6ccc3[nH]6)C=C5)C=C4)cc2)n1
REMARK SMILES IDX 21 1 20 2 18 3 19 4 13 6 9 7 10 8 11 9 12 10 8 11 7 12 6 13
REMARK SMILES IDX 5 14 1 15 2 16 3 17 75 18 4 19 14 21 15 24 16 25 17 26 22 27
REMARK SMILES IDX 23 28 24 29 25 30 26 32 27 33 28 34 74 35 29 36 73 37 30 38
REMARK SMILES IDX 31 39 32 40 67 41 33 42 72 43 66 44 68 45 34 46 71 47 65 48
REMARK SMILES IDX 64 49 35 51 57 52 42 53 56 54 43 55 46 56 55 57 69 58 44 59
REMARK SMILES IDX 45 60 54 62 70 63 47 64 36 65 37 66 41 67 38 68 40 69 39 70
REMARK SMILES IDX 58 71 59 72 63 73 60 74 62 75 61 76 48 77 49 78 53 79 50 80
REMARK SMILES IDX 52 81 51 82
REMARK H PARENT 20 5 4 20 14 22 14 23 24 31 68 50 46 61
REMARK Flexibility Score: inf
ROOT
ATOM      1  C   UNL     1      -2.304  -3.178   7.606  1.00  0.00     0.118 C 
ENDROOT
BRANCH   1   2
ATOM      2  N   UNL     1      -3.402  -3.320   6.643  1.00  0.00    -0.351 N 
ATOM      3  C   UNL     1      -3.427  -3.514   5.281  1.00  0.00     0.281 C 
ATOM      4  O   UNL     1      -4.541  -3.725   4.788  1.00  0.00    -0.268 OA
ATOM      5  H   UNL     1      -4.296  -3.267   7.052  1.00  0.00     0.163 HD
BRANCH   3   6
ATOM      6  C   UNL     1      -2.140  -3.427   4.380  1.00  0.00     0.178 C 
ATOM      7  C   UNL     1      -1.786  -1.928   4.046  1.00  0.00     0.061 C 
ATOM      8  C   UNL     1      -2.719  -1.599   2.871  1.00  0.00     0.011 C 
ATOM      9  C   UNL     1      -2.664  -2.819   1.994  1.00  0.00     0.008 C 
ATOM     10  C   UNL     1      -2.390  -3.982   2.938  1.00  0.00     0.079 C 
BRANCH   7  11
ATOM     11  C   UNL     1      -1.958  -0.797   5.074  1.00  0.00     0.022 C 
BRANCH  11  12
ATOM     12  C   UNL     1      -0.661  -0.246   5.667  1.00  0.00     0.079 C 
BRANCH  12  13
ATOM     13  S   UNL     1       0.015   1.170   4.742  1.00  0.00    -0.087 SA
BRANCH  13  14
ATOM     14  C   UNL     1       0.554   0.469   3.273  1.00  0.00     0.183 A 
ATOM     15  C   UNL     1       1.076   0.102  -0.186  1.00  0.00     0.092 C 
ATOM     16  C   UNL     1       1.002  -0.009   1.284  1.00  0.00     0.148 A 
ATOM     17  N   UNL     1       1.616  -0.989   1.964  1.00  0.00    -0.158 NA
ATOM     18  N   UNL     1       0.324   0.898   2.058  1.00  0.00    -0.206 NA
ATOM     19  N   UNL     1       1.355  -0.627   3.231  1.00  0.00    -0.254 N 
ATOM     20  H   UNL     1       1.700  -1.095   4.026  1.00  0.00     0.192 HD
ENDBRANCH  13  14
ENDBRANCH  12  13
ENDBRANCH  11  12
ENDBRANCH   7  11
BRANCH   6  21
ATOM     21  N   UNL     1      -1.024  -4.209   5.001  1.00  0.00    -0.331 N 
ATOM     22  H   UNL     1      -0.779  -3.758   5.883  1.00  0.00     0.347 HD
ATOM     23  H   UNL     1      -0.270  -4.210   4.314  1.00  0.00     0.347 HD
BRANCH  21  24
ATOM     24  C   UNL     1      -1.318  -5.642   5.285  1.00  0.00     0.176 C 
ATOM     25  C   UNL     1      -1.187  -6.588   4.083  1.00  0.00     0.075 C 
ATOM     26  C   UNL     1      -0.334  -6.123   6.360  1.00  0.00     0.075 C 
ENDBRANCH  21  24
ENDBRANCH   6  21
ENDBRANCH   3   6
ENDBRANCH   1   2
BRANCH   1  27
ATOM     27  C   UNL     1      -2.315  -1.891   8.448  1.00  0.00     0.042 C 
BRANCH  27  28
ATOM     28  C   UNL     1      -3.578  -1.658   9.243  1.00  0.00     0.118 C 
BRANCH  28  29
ATOM     29  N   UNL     1      -3.555  -2.270  10.567  1.00  0.00    -0.352 N 
ATOM     30  C   UNL     1      -4.457  -2.051  11.589  1.00  0.00     0.251 C 
ATOM     31  H   UNL     1      -2.823  -2.903  10.750  1.00  0.00     0.163 HD
ATOM     32  O   UNL     1      -4.154  -2.283  12.758  1.00  0.00    -0.269 OA
BRANCH  30  33
ATOM     33  C   UNL     1      -5.795  -1.531  11.253  1.00  0.00     0.039 A 
ATOM     34  C   UNL     1      -6.472  -0.636  12.085  1.00  0.00     0.014 A 
ATOM     35  C   UNL     1      -6.372  -1.953  10.057  1.00  0.00     0.014 A 
ATOM     36  C   UNL     1      -7.704  -0.137  11.670  1.00  0.00     0.010 A 
ATOM     37  C   UNL     1      -7.473  -1.315   9.560  1.00  0.00     0.010 A 
ATOM     38  C   UNL     1      -8.191  -0.478  10.398  1.00  0.00    -0.014 A 
BRANCH  38  39
ATOM     39  C   UNL     1      -9.439   0.062   9.887  1.00  0.00     0.031 A 
ATOM     40  C   UNL     1      -9.499   1.541   9.826  1.00  0.00     0.074 A 
ATOM     41  C   UNL     1     -10.392  -0.709   9.321  1.00  0.00     0.049 A 
ATOM     42  N   UNL     1     -10.210   2.313  10.574  1.00  0.00    -0.248 NA
ATOM     43  C   UNL     1      -8.575   2.255   8.933  1.00  0.00     0.031 C 
ATOM     44  C   UNL     1     -10.349  -2.144   9.008  1.00  0.00     0.029 A 
ATOM     45  N   UNL     1     -11.579  -0.327   8.784  1.00  0.00    -0.354 N 
ATOM     46  C   UNL     1      -9.976   3.608  10.128  1.00  0.00     0.074 A 
ATOM     47  C   UNL     1      -8.841   3.527   9.242  1.00  0.00     0.031 C 
ATOM     48  C   UNL     1     -11.331  -2.443   8.129  1.00  0.00     0.029 A 
ATOM     49  C   UNL     1     -12.170  -1.272   7.957  1.00  0.00     0.049 A 
ATOM     50  H   UNL     1     -11.988   0.550   8.967  1.00  0.00     0.167 HD
ATOM     51  C   UNL     1     -10.882   4.600  10.349  1.00  0.00     0.031 A 
ATOM     52  C   UNL     1     -13.254  -1.088   7.164  1.00  0.00     0.031 A 
ATOM     53  C   UNL     1     -11.904   4.181  11.276  1.00  0.00     0.049 A 
ATOM     54  C   UNL     1     -13.972   0.107   7.669  1.00  0.00     0.074 A 
ATOM     55  C   UNL     1     -11.905   3.743  12.586  1.00  0.00     0.029 A 
ATOM     56  N   UNL     1     -13.102   3.773  10.735  1.00  0.00    -0.354 N 
ATOM     57  N   UNL     1     -14.600   0.131   8.809  1.00  0.00    -0.248 NA
ATOM     58  C   UNL     1     -13.599   1.410   7.138  1.00  0.00     0.031 C 
ATOM     59  C   UNL     1     -12.864   2.689  12.615  1.00  0.00     0.029 A 
ATOM     60  C   UNL     1     -13.457   2.602  11.353  1.00  0.00     0.049 A 
ATOM     61  H   UNL     1     -13.611   4.237  10.032  1.00  0.00     0.167 HD
ATOM     62  C   UNL     1     -14.286   1.367   9.356  1.00  0.00     0.074 A 
ATOM     63  C   UNL     1     -13.765   2.153   8.237  1.00  0.00     0.031 C 
ATOM     64  C   UNL     1     -14.197   1.539  10.709  1.00  0.00     0.031 A 
BRANCH  51  65
ATOM     65  C   UNL     1     -11.088   5.788   9.447  1.00  0.00    -0.014 A 
ATOM     66  C   UNL     1     -12.026   6.764   9.832  1.00  0.00     0.009 A 
ATOM     67  C   UNL     1     -10.617   5.847   8.123  1.00  0.00     0.009 A 
ATOM     68  C   UNL     1     -12.528   7.694   8.916  1.00  0.00     0.001 A 
ATOM     69  C   UNL     1     -11.086   6.802   7.217  1.00  0.00     0.001 A 
ATOM     70  C   UNL     1     -12.064   7.706   7.605  1.00  0.00     0.000 A 
ENDBRANCH  51  65
BRANCH  52  71
ATOM     71  C   UNL     1     -13.604  -1.736   5.883  1.00  0.00    -0.014 A 
ATOM     72  C   UNL     1     -14.912  -1.667   5.378  1.00  0.00     0.009 A 
ATOM     73  C   UNL     1     -12.592  -2.194   5.019  1.00  0.00     0.009 A 
ATOM     74  C   UNL     1     -15.188  -1.996   4.044  1.00  0.00     0.001 A 
ATOM     75  C   UNL     1     -12.869  -2.526   3.688  1.00  0.00     0.001 A 
ATOM     76  C   UNL     1     -14.164  -2.410   3.196  1.00  0.00     0.000 A 
ENDBRANCH  52  71
BRANCH  64  77
ATOM     77  C   UNL     1     -14.682   0.421  11.604  1.00  0.00    -0.014 A 
ATOM     78  C   UNL     1     -14.179  -0.891  11.550  1.00  0.00     0.009 A 
ATOM     79  C   UNL     1     -15.572   0.746  12.639  1.00  0.00     0.009 A 
ATOM     80  C   UNL     1     -14.587  -1.856  12.478  1.00  0.00     0.001 A 
ATOM     81  C   UNL     1     -15.959  -0.209  13.582  1.00  0.00     0.001 A 
ATOM     82  C   UNL     1     -15.474  -1.512  13.496  1.00  0.00     0.000 A 
ENDBRANCH  64  77
ENDBRANCH  38  39
ENDBRANCH  30  33
ENDBRANCH  28  29
ENDBRANCH  27  28
ENDBRANCH   1  27
TORSDOF 16
