REMARK SMILES CC[C@@H](C)NC(=O)[C@H](C)[NH+]1CC(n2cc(C(=O)NCCCNC(=O)c3ccc(-c4c5nc(c(-c6ccccc6)c6ccc([nH]6)c(-c6ccccc6)c6nc(c(-c7ccccc7)c7ccc4[nH]7)C=C6)C=C5)cc3)nn2)C1
REMARK SMILES IDX 16 1 17 2 18 3 15 5 13 6 14 7 74 8 73 9 12 10 10 11 11 12
REMARK SMILES IDX 75 13 8 15 9 16 6 17 5 18 7 20 3 21 4 22 2 23 1 24 19 25
REMARK SMILES IDX 20 26 21 27 22 28 23 29 24 31 25 32 26 33 72 34 27 35 71 36
REMARK SMILES IDX 28 37 29 38 30 39 65 40 31 41 70 42 64 43 66 44 32 45 69 46
REMARK SMILES IDX 63 47 62 48 33 50 55 51 40 52 54 53 41 54 44 55 53 56 67 57
REMARK SMILES IDX 42 58 43 59 52 61 68 62 45 63 34 64 35 65 39 66 36 67 38 68
REMARK SMILES IDX 37 69 56 70 57 71 61 72 58 73 60 74 59 75 46 76 47 77 51 78
REMARK SMILES IDX 48 79 50 80 49 81
REMARK H PARENT 18 4 10 14 5 19 22 30 66 49 44 60
REMARK Flexibility Score: inf
ROOT
ATOM      1  C   UNL     1      -0.347   1.162   5.698  1.00  0.00     0.273 C 
ATOM      2  O   UNL     1      -0.698   2.334   5.570  1.00  0.00    -0.267 OA
ATOM      3  N   UNL     1      -0.976   0.425   6.677  1.00  0.00    -0.351 N 
ATOM      4  H   UNL     1      -1.571   0.943   7.266  1.00  0.00     0.163 HD
ENDROOT
BRANCH   1   5
ATOM      5  C   UNL     1       0.660   0.551   4.840  1.00  0.00     0.170 A 
ATOM      6  N   UNL     1       2.149  -0.693   3.867  1.00  0.00    -0.237 N 
ATOM      7  C   UNL     1       1.531  -0.498   5.069  1.00  0.00     0.145 A 
ATOM      8  N   UNL     1       1.774   0.235   2.977  1.00  0.00    -0.066 NA
ATOM      9  N   UNL     1       0.882   1.018   3.564  1.00  0.00    -0.125 NA
BRANCH   6  10
ATOM     10  C   UNL     1       3.055  -1.766   3.597  1.00  0.00     0.218 C 
ATOM     11  N   UNL     1       3.361  -3.372   2.291  1.00  0.00    -0.321 N 
ATOM     12  C   UNL     1       3.498  -1.898   2.128  1.00  0.00     0.296 C 
ATOM     13  C   UNL     1       2.314  -3.099   3.317  1.00  0.00     0.296 C 
ATOM     14  H   UNL     1       4.174  -3.957   2.486  1.00  0.00     0.348 HD
BRANCH  11  15
ATOM     15  C   UNL     1       2.884  -4.125   1.096  1.00  0.00     0.271 C 
ATOM     16  C   UNL     1       1.411  -4.533   1.010  1.00  0.00     0.086 C 
BRANCH  15  17
ATOM     17  C   UNL     1       3.294  -3.511  -0.265  1.00  0.00     0.278 C 
ATOM     18  N   UNL     1       3.900  -4.266  -1.222  1.00  0.00    -0.349 N 
ATOM     19  H   UNL     1       4.192  -3.757  -2.013  1.00  0.00     0.163 HD
ATOM     20  O   UNL     1       3.034  -2.350  -0.592  1.00  0.00    -0.268 OA
BRANCH  18  21
ATOM     21  C   UNL     1       4.194  -5.694  -1.290  1.00  0.00     0.078 C 
ATOM     22  C   UNL     1       5.665  -5.868  -1.653  1.00  0.00     0.031 C 
BRANCH  21  23
ATOM     23  C   UNL     1       3.244  -6.345  -2.308  1.00  0.00     0.021 C 
ATOM     24  C   UNL     1       3.386  -7.856  -2.394  1.00  0.00     0.006 C 
ENDBRANCH  21  23
ENDBRANCH  18  21
ENDBRANCH  15  17
ENDBRANCH  11  15
ENDBRANCH   6  10
ENDBRANCH   1   5
BRANCH   3  25
ATOM     25  C   UNL     1      -0.902  -0.993   6.980  1.00  0.00     0.118 C 
BRANCH  25  26
ATOM     26  C   UNL     1       0.070  -1.288   8.127  1.00  0.00     0.042 C 
BRANCH  26  27
ATOM     27  C   UNL     1      -0.566  -1.048   9.486  1.00  0.00     0.118 C 
BRANCH  27  28
ATOM     28  N   UNL     1      -1.606  -2.034   9.794  1.00  0.00    -0.352 N 
ATOM     29  C   UNL     1      -2.427  -2.113  10.905  1.00  0.00     0.251 C 
ATOM     30  H   UNL     1      -1.739  -2.736   9.117  1.00  0.00     0.163 HD
ATOM     31  O   UNL     1      -3.008  -3.146  11.183  1.00  0.00    -0.269 OA
BRANCH  29  32
ATOM     32  C   UNL     1      -2.583  -0.915  11.748  1.00  0.00     0.039 A 
ATOM     33  C   UNL     1      -2.608  -1.001  13.143  1.00  0.00     0.014 A 
ATOM     34  C   UNL     1      -2.662   0.314  11.106  1.00  0.00     0.014 A 
ATOM     35  C   UNL     1      -2.623   0.176  13.888  1.00  0.00     0.010 A 
ATOM     36  C   UNL     1      -2.487   1.460  11.829  1.00  0.00     0.010 A 
ATOM     37  C   UNL     1      -2.540   1.404  13.219  1.00  0.00    -0.014 A 
BRANCH  37  38
ATOM     38  C   UNL     1      -2.389   2.663  13.937  1.00  0.00     0.031 A 
ATOM     39  C   UNL     1      -1.191   2.743  14.818  1.00  0.00     0.074 A 
ATOM     40  C   UNL     1      -3.115   3.752  13.597  1.00  0.00     0.049 A 
ATOM     41  N   UNL     1      -1.167   2.954  16.090  1.00  0.00    -0.248 NA
ATOM     42  C   UNL     1       0.133   2.439  14.242  1.00  0.00     0.031 C 
ATOM     43  C   UNL     1      -4.115   3.870  12.526  1.00  0.00     0.029 A 
ATOM     44  N   UNL     1      -2.985   5.037  14.017  1.00  0.00    -0.354 N 
ATOM     45  C   UNL     1       0.177   3.005  16.451  1.00  0.00     0.074 A 
ATOM     46  C   UNL     1       0.918   2.510  15.319  1.00  0.00     0.031 C 
ATOM     47  C   UNL     1      -4.276   5.170  12.201  1.00  0.00     0.029 A 
ATOM     48  C   UNL     1      -3.525   5.978  13.143  1.00  0.00     0.049 A 
ATOM     49  H   UNL     1      -2.548   5.282  14.864  1.00  0.00     0.167 HD
ATOM     50  C   UNL     1       0.588   3.684  17.559  1.00  0.00     0.031 A 
ATOM     51  C   UNL     1      -3.323   7.319  13.160  1.00  0.00     0.031 A 
ATOM     52  C   UNL     1      -0.522   4.021  18.414  1.00  0.00     0.049 A 
ATOM     53  C   UNL     1      -2.822   7.668  14.511  1.00  0.00     0.074 A 
ATOM     54  C   UNL     1      -1.493   3.293  19.073  1.00  0.00     0.029 A 
ATOM     55  N   UNL     1      -0.996   5.311  18.343  1.00  0.00    -0.354 N 
ATOM     56  N   UNL     1      -3.550   7.564  15.586  1.00  0.00    -0.248 NA
ATOM     57  C   UNL     1      -1.383   7.663  14.730  1.00  0.00     0.031 C 
ATOM     58  C   UNL     1      -2.687   4.054  18.909  1.00  0.00     0.029 A 
ATOM     59  C   UNL     1      -2.361   5.239  18.247  1.00  0.00     0.049 A 
ATOM     60  H   UNL     1      -0.455   6.133  18.358  1.00  0.00     0.167 HD
ATOM     61  C   UNL     1      -2.697   7.013  16.531  1.00  0.00     0.074 A 
ATOM     62  C   UNL     1      -1.352   7.201  15.984  1.00  0.00     0.031 C 
ATOM     63  C   UNL     1      -3.170   6.186  17.511  1.00  0.00     0.031 A 
BRANCH  50  64
ATOM     64  C   UNL     1       1.907   4.407  17.666  1.00  0.00    -0.014 A 
ATOM     65  C   UNL     1       2.229   5.041  18.880  1.00  0.00     0.009 A 
ATOM     66  C   UNL     1       2.699   4.737  16.550  1.00  0.00     0.009 A 
ATOM     67  C   UNL     1       3.230   6.018  18.949  1.00  0.00     0.001 A 
ATOM     68  C   UNL     1       3.727   5.681  16.626  1.00  0.00     0.001 A 
ATOM     69  C   UNL     1       3.971   6.345  17.819  1.00  0.00     0.000 A 
ENDBRANCH  50  64
BRANCH  51  70
ATOM     70  C   UNL     1      -3.296   8.272  12.026  1.00  0.00    -0.014 A 
ATOM     71  C   UNL     1      -3.334   9.659  12.249  1.00  0.00     0.009 A 
ATOM     72  C   UNL     1      -2.974   7.834  10.728  1.00  0.00     0.009 A 
ATOM     73  C   UNL     1      -3.018  10.565  11.226  1.00  0.00     0.001 A 
ATOM     74  C   UNL     1      -2.666   8.738   9.704  1.00  0.00     0.001 A 
ATOM     75  C   UNL     1      -2.671  10.104   9.958  1.00  0.00     0.000 A 
ENDBRANCH  51  70
BRANCH  63  76
ATOM     76  C   UNL     1      -4.667   6.043  17.666  1.00  0.00    -0.014 A 
ATOM     77  C   UNL     1      -5.505   5.562  16.643  1.00  0.00     0.009 A 
ATOM     78  C   UNL     1      -5.221   6.230  18.940  1.00  0.00     0.009 A 
ATOM     79  C   UNL     1      -6.859   5.305  16.883  1.00  0.00     0.001 A 
ATOM     80  C   UNL     1      -6.567   5.952  19.186  1.00  0.00     0.001 A 
ATOM     81  C   UNL     1      -7.388   5.495  18.157  1.00  0.00     0.000 A 
ENDBRANCH  63  76
ENDBRANCH  37  38
ENDBRANCH  29  32
ENDBRANCH  27  28
ENDBRANCH  26  27
ENDBRANCH  25  26
ENDBRANCH   3  25
TORSDOF 15
