REMARK SMILES Cc1cc(N(C)C(C)C)cc(C(=O)NCCCNC(=O)c2ccc(-c3c4nc(c(-c5ccccc5)c5ccc([nH]5)c(-c5ccccc5)c5nc(c(-c6ccccc6)c6ccc3[nH]6)C=C5)C=C4)cc2)c1N
REMARK SMILES IDX 16 1 15 2 14 3 12 4 13 5 11 7 1 8 2 9 3 10 69 11 4 12 10 13
REMARK SMILES IDX 70 14 5 17 6 18 7 19 8 20 9 21 17 22 18 23 19 24 20 26 21 27
REMARK SMILES IDX 22 28 68 29 23 30 67 31 24 32 25 33 26 34 61 35 27 36 66 37
REMARK SMILES IDX 60 38 62 39 28 40 65 41 59 42 58 43 29 45 51 46 36 47 50 48
REMARK SMILES IDX 37 49 40 50 49 51 63 52 38 53 39 54 48 56 64 57 41 58 30 59
REMARK SMILES IDX 31 60 35 61 32 62 34 63 33 64 52 65 53 66 57 67 54 68 56 69
REMARK SMILES IDX 55 70 42 71 43 72 47 73 44 74 46 75 45 76
REMARK H PARENT 14 6 70 15 70 16 18 25 62 44 40 55
REMARK Flexibility Score: inf
ROOT
ATOM      1  C   UNL     1      -4.003  -3.333  -0.509  1.00  0.00     0.042 C 
ENDROOT
BRANCH   1   2
ATOM      2  C   UNL     1      -2.998  -3.236   0.641  1.00  0.00     0.118 C 
BRANCH   2   3
ATOM      3  N   UNL     1      -1.662  -3.563   0.180  1.00  0.00    -0.352 N 
ATOM      4  C   UNL     1      -0.588  -2.804  -0.216  1.00  0.00     0.253 C 
ATOM      5  O   UNL     1       0.407  -3.437  -0.582  1.00  0.00    -0.269 OA
ATOM      6  H   UNL     1      -1.490  -4.532   0.142  1.00  0.00     0.163 HD
BRANCH   4   7
ATOM      7  C   UNL     1      -0.550  -1.304  -0.177  1.00  0.00     0.065 A 
ATOM      8  C   UNL     1       2.006   1.512   0.154  1.00  0.00     0.046 C 
ATOM      9  C   UNL     1       0.715   0.747   0.028  1.00  0.00    -0.025 A 
ATOM     10  C   UNL     1      -0.497   1.469  -0.016  1.00  0.00     0.031 A 
ATOM     11  C   UNL     1       0.697  -0.655  -0.041  1.00  0.00     0.047 A 
ATOM     12  C   UNL     1      -1.753   0.868  -0.149  1.00  0.00     0.038 A 
ATOM     13  C   UNL     1      -1.715  -0.525  -0.323  1.00  0.00     0.042 A 
BRANCH  11  14
ATOM     14  N   UNL     1       1.879  -1.372   0.177  1.00  0.00    -0.398 N 
ATOM     15  H   UNL     1       2.735  -0.893   0.268  1.00  0.00     0.156 HD
ATOM     16  H   UNL     1       1.855  -2.354   0.239  1.00  0.00     0.156 HD
ENDBRANCH  11  14
BRANCH  12  17
ATOM     17  N   UNL     1      -2.950   1.575  -0.094  1.00  0.00    -0.372 N 
ATOM     18  C   UNL     1      -4.229   0.873   0.087  1.00  0.00     0.144 C 
BRANCH  17  19
ATOM     19  C   UNL     1      -3.089   3.052  -0.078  1.00  0.00     0.075 C 
ATOM     20  C   UNL     1      -2.625   3.673   1.239  1.00  0.00     0.030 C 
ATOM     21  C   UNL     1      -2.533   3.721  -1.332  1.00  0.00     0.030 C 
ENDBRANCH  17  19
ENDBRANCH  12  17
ENDBRANCH   4   7
ENDBRANCH   2   3
ENDBRANCH   1   2
BRANCH   1  22
ATOM     22  C   UNL     1      -4.314  -4.772  -0.915  1.00  0.00     0.118 C 
BRANCH  22  23
ATOM     23  N   UNL     1      -5.113  -5.457   0.091  1.00  0.00    -0.352 N 
ATOM     24  C   UNL     1      -6.342  -6.056  -0.020  1.00  0.00     0.251 C 
ATOM     25  H   UNL     1      -4.709  -5.497   0.988  1.00  0.00     0.163 HD
ATOM     26  O   UNL     1      -6.955  -6.376   0.993  1.00  0.00    -0.269 OA
BRANCH  24  27
ATOM     27  C   UNL     1      -6.939  -6.311  -1.349  1.00  0.00     0.039 A 
ATOM     28  C   UNL     1      -8.310  -6.096  -1.523  1.00  0.00     0.014 A 
ATOM     29  C   UNL     1      -6.170  -6.806  -2.406  1.00  0.00     0.014 A 
ATOM     30  C   UNL     1      -8.899  -6.328  -2.768  1.00  0.00     0.010 A 
ATOM     31  C   UNL     1      -6.744  -6.973  -3.664  1.00  0.00     0.010 A 
ATOM     32  C   UNL     1      -8.114  -6.742  -3.856  1.00  0.00    -0.014 A 
BRANCH  32  33
ATOM     33  C   UNL     1      -8.706  -6.938  -5.203  1.00  0.00     0.031 A 
ATOM     34  C   UNL     1      -8.727  -8.305  -5.830  1.00  0.00     0.074 A 
ATOM     35  C   UNL     1      -9.158  -5.872  -5.892  1.00  0.00     0.049 A 
ATOM     36  N   UNL     1      -9.119  -8.658  -7.028  1.00  0.00    -0.248 NA
ATOM     37  C   UNL     1      -8.218  -9.417  -5.011  1.00  0.00     0.031 C 
ATOM     38  C   UNL     1      -9.163  -4.490  -5.410  1.00  0.00     0.029 A 
ATOM     39  N   UNL     1      -9.691  -5.785  -7.154  1.00  0.00    -0.354 N 
ATOM     40  C   UNL     1      -8.883 -10.024  -7.114  1.00  0.00     0.074 A 
ATOM     41  C   UNL     1      -8.277 -10.429  -5.864  1.00  0.00     0.031 C 
ATOM     42  C   UNL     1      -9.688  -3.696  -6.356  1.00  0.00     0.029 A 
ATOM     43  C   UNL     1     -10.018  -4.504  -7.525  1.00  0.00     0.049 A 
ATOM     44  H   UNL     1      -9.825  -6.567  -7.738  1.00  0.00     0.167 HD
ATOM     45  C   UNL     1      -9.159 -10.869  -8.136  1.00  0.00     0.031 A 
ATOM     46  C   UNL     1     -10.516  -4.029  -8.683  1.00  0.00     0.031 A 
ATOM     47  C   UNL     1      -9.773 -10.468  -9.374  1.00  0.00     0.049 A 
ATOM     48  C   UNL     1     -10.803  -4.985  -9.806  1.00  0.00     0.074 A 
ATOM     49  C   UNL     1     -10.146 -11.259 -10.447  1.00  0.00     0.029 A 
ATOM     50  N   UNL     1     -10.102  -9.163  -9.704  1.00  0.00    -0.354 N 
ATOM     51  N   UNL     1     -10.632  -6.284  -9.848  1.00  0.00    -0.248 NA
ATOM     52  C   UNL     1     -11.361  -4.410 -11.038  1.00  0.00     0.031 C 
ATOM     53  C   UNL     1     -10.657 -10.425 -11.447  1.00  0.00     0.029 A 
ATOM     54  C   UNL     1     -10.653  -9.123 -10.974  1.00  0.00     0.049 A 
ATOM     55  H   UNL     1      -9.965  -8.381  -9.122  1.00  0.00     0.167 HD
ATOM     56  C   UNL     1     -11.085  -6.685 -11.098  1.00  0.00     0.074 A 
ATOM     57  C   UNL     1     -11.552  -5.494 -11.777  1.00  0.00     0.031 C 
ATOM     58  C   UNL     1     -11.113  -7.929 -11.634  1.00  0.00     0.031 A 
BRANCH  45  59
ATOM     59  C   UNL     1      -8.786 -12.316  -7.961  1.00  0.00    -0.014 A 
ATOM     60  C   UNL     1      -9.482 -13.144  -7.067  1.00  0.00     0.009 A 
ATOM     61  C   UNL     1      -7.749 -12.867  -8.730  1.00  0.00     0.009 A 
ATOM     62  C   UNL     1      -9.123 -14.486  -6.919  1.00  0.00     0.001 A 
ATOM     63  C   UNL     1      -7.411 -14.216  -8.601  1.00  0.00     0.001 A 
ATOM     64  C   UNL     1      -8.091 -15.021  -7.689  1.00  0.00     0.000 A 
ENDBRANCH  45  59
BRANCH  46  65
ATOM     65  C   UNL     1     -10.783  -2.575  -8.835  1.00  0.00    -0.014 A 
ATOM     66  C   UNL     1     -12.100  -2.095  -8.880  1.00  0.00     0.009 A 
ATOM     67  C   UNL     1      -9.723  -1.661  -8.935  1.00  0.00     0.009 A 
ATOM     68  C   UNL     1     -12.351  -0.731  -9.046  1.00  0.00     0.001 A 
ATOM     69  C   UNL     1      -9.977  -0.294  -9.072  1.00  0.00     0.001 A 
ATOM     70  C   UNL     1     -11.290   0.168  -9.137  1.00  0.00     0.000 A 
ENDBRANCH  46  65
BRANCH  58  71
ATOM     71  C   UNL     1     -11.700  -8.072 -13.010  1.00  0.00    -0.014 A 
ATOM     72  C   UNL     1     -11.007  -7.631 -14.147  1.00  0.00     0.009 A 
ATOM     73  C   UNL     1     -12.944  -8.702 -13.171  1.00  0.00     0.009 A 
ATOM     74  C   UNL     1     -11.563  -7.792 -15.418  1.00  0.00     0.001 A 
ATOM     75  C   UNL     1     -13.484  -8.887 -14.444  1.00  0.00     0.001 A 
ATOM     76  C   UNL     1     -12.797  -8.425 -15.565  1.00  0.00     0.000 A 
ENDBRANCH  58  71
ENDBRANCH  32  33
ENDBRANCH  24  27
ENDBRANCH  22  23
ENDBRANCH   1  22
TORSDOF 13
