REMARK SMILES C[C@@H](C(=O)NCCCNC(=O)c1ccc(-c2c3nc(c(-c4ccccc4)c4ccc([nH]4)c(-c4ccccc4)c4nc(c(-c5ccccc5)c5ccc2[nH]5)C=C4)C=C3)cc1)c1ccc(N[C@H]2CCC[C@@H]2O)cc1F
REMARK SMILES IDX 6 1 5 2 3 3 4 4 2 6 1 7 60 8 61 9 72 10 62 11 71 12 73 13
REMARK SMILES IDX 63 14 64 15 65 17 66 18 69 19 67 20 68 21 70 22 7 24 8 25
REMARK SMILES IDX 9 26 10 27 11 29 12 30 13 31 59 32 14 33 58 34 15 35 16 36
REMARK SMILES IDX 17 37 52 38 18 39 57 40 51 41 53 42 19 43 56 44 50 45 49 46
REMARK SMILES IDX 20 48 42 49 27 50 41 51 28 52 31 53 40 54 54 55 29 56 30 57
REMARK SMILES IDX 39 59 55 60 32 61 21 62 22 63 26 64 23 65 25 66 24 67 43 68
REMARK SMILES IDX 44 69 48 70 45 71 47 72 46 73 33 74 34 75 38 76 35 77 37 78
REMARK SMILES IDX 36 79
REMARK H PARENT 5 5 64 16 70 23 9 28 53 47 31 58
REMARK Flexibility Score: inf
ROOT
ATOM      1  C   UNL     1       3.371   1.926  -0.841  1.00  0.00     0.117 C 
ENDROOT
BRANCH   1   2
ATOM      2  N   UNL     1       2.266   1.919  -1.780  1.00  0.00    -0.356 N 
ATOM      3  C   UNL     1       0.976   1.499  -1.627  1.00  0.00     0.227 C 
ATOM      4  O   UNL     1       0.273   1.498  -2.640  1.00  0.00    -0.274 OA
ATOM      5  H   UNL     1       2.481   2.276  -2.672  1.00  0.00     0.163 HD
BRANCH   3   6
ATOM      6  C   UNL     1       0.453   1.091  -0.241  1.00  0.00     0.108 C 
ATOM      7  C   UNL     1       1.006  -0.275   0.175  1.00  0.00     0.023 C 
BRANCH   6   8
ATOM      8  C   UNL     1      -1.066   1.193  -0.180  1.00  0.00     0.000 A 
ATOM      9  C   UNL     1      -1.658   2.450   0.001  1.00  0.00     0.009 A 
ATOM     10  C   UNL     1      -1.922   0.105  -0.347  1.00  0.00     0.129 A 
ATOM     11  C   UNL     1      -3.054   2.596   0.025  1.00  0.00     0.026 A 
ATOM     12  C   UNL     1      -3.309   0.254  -0.311  1.00  0.00     0.065 A 
ATOM     13  F   UNL     1      -1.435  -1.129  -0.545  1.00  0.00    -0.207 F 
ATOM     14  C   UNL     1      -3.910   1.507  -0.142  1.00  0.00     0.037 A 
BRANCH  14  15
ATOM     15  N   UNL     1      -5.287   1.574  -0.111  1.00  0.00    -0.380 N 
ATOM     16  H   UNL     1      -5.750   0.705  -0.129  1.00  0.00     0.160 HD
BRANCH  15  17
ATOM     17  C   UNL     1      -6.161   2.740  -0.054  1.00  0.00     0.107 C 
ATOM     18  C   UNL     1      -6.013   3.583   1.217  1.00  0.00     0.027 C 
ATOM     19  C   UNL     1      -6.022   3.711  -1.243  1.00  0.00     0.136 C 
ATOM     20  C   UNL     1      -5.959   5.039   0.748  1.00  0.00     0.005 C 
ATOM     21  C   UNL     1      -6.525   5.028  -0.664  1.00  0.00     0.034 C 
BRANCH  19  22
ATOM     22  O   UNL     1      -6.796   3.327  -2.374  1.00  0.00    -0.391 OA
ATOM     23  H   UNL     1      -7.731   3.269  -2.122  1.00  0.00     0.211 HD
ENDBRANCH  19  22
ENDBRANCH  15  17
ENDBRANCH  14  15
ENDBRANCH   6   8
ENDBRANCH   3   6
ENDBRANCH   1   2
BRANCH   1  24
ATOM     24  C   UNL     1       4.310   0.742  -1.069  1.00  0.00     0.042 C 
BRANCH  24  25
ATOM     25  C   UNL     1       5.023   0.758  -2.419  1.00  0.00     0.118 C 
BRANCH  25  26
ATOM     26  N   UNL     1       5.983   1.845  -2.533  1.00  0.00    -0.352 N 
ATOM     27  C   UNL     1       7.337   1.810  -2.755  1.00  0.00     0.251 C 
ATOM     28  H   UNL     1       5.602   2.747  -2.436  1.00  0.00     0.163 HD
ATOM     29  O   UNL     1       7.995   2.841  -2.634  1.00  0.00    -0.269 OA
BRANCH  27  30
ATOM     30  C   UNL     1       8.019   0.547  -3.115  1.00  0.00     0.039 A 
ATOM     31  C   UNL     1       9.252   0.260  -2.521  1.00  0.00     0.014 A 
ATOM     32  C   UNL     1       7.479  -0.335  -4.056  1.00  0.00     0.014 A 
ATOM     33  C   UNL     1       9.908  -0.938  -2.816  1.00  0.00     0.010 A 
ATOM     34  C   UNL     1       8.103  -1.559  -4.302  1.00  0.00     0.010 A 
ATOM     35  C   UNL     1       9.321  -1.874  -3.681  1.00  0.00    -0.014 A 
BRANCH  35  36
ATOM     36  C   UNL     1       9.953  -3.196  -3.923  1.00  0.00     0.031 A 
ATOM     37  C   UNL     1      10.471  -3.562  -5.287  1.00  0.00     0.074 A 
ATOM     38  C   UNL     1      10.005  -4.097  -2.922  1.00  0.00     0.049 A 
ATOM     39  N   UNL     1      10.998  -4.690  -5.692  1.00  0.00    -0.248 NA
ATOM     40  C   UNL     1      10.367  -2.535  -6.336  1.00  0.00     0.031 C 
ATOM     41  C   UNL     1       9.506  -3.883  -1.561  1.00  0.00     0.029 A 
ATOM     42  N   UNL     1      10.495  -5.379  -2.897  1.00  0.00    -0.354 N 
ATOM     43  C   UNL     1      11.271  -4.515  -7.043  1.00  0.00     0.074 A 
ATOM     44  C   UNL     1      10.822  -3.186  -7.397  1.00  0.00     0.031 C 
ATOM     45  C   UNL     1       9.733  -4.987  -0.831  1.00  0.00     0.029 A 
ATOM     46  C   UNL     1      10.356  -5.998  -1.679  1.00  0.00     0.049 A 
ATOM     47  H   UNL     1      10.906  -5.814  -3.679  1.00  0.00     0.167 HD
ATOM     48  C   UNL     1      11.856  -5.378  -7.908  1.00  0.00     0.031 A 
ATOM     49  C   UNL     1      10.683  -7.244  -1.287  1.00  0.00     0.031 A 
ATOM     50  C   UNL     1      12.319  -6.695  -7.558  1.00  0.00     0.049 A 
ATOM     51  C   UNL     1      11.319  -8.184  -2.272  1.00  0.00     0.074 A 
ATOM     52  C   UNL     1      12.982  -7.614  -8.353  1.00  0.00     0.029 A 
ATOM     53  N   UNL     1      12.166  -7.280  -6.312  1.00  0.00    -0.354 N 
ATOM     54  N   UNL     1      11.633  -7.976  -3.527  1.00  0.00    -0.248 NA
ATOM     55  C   UNL     1      11.654  -9.529  -1.780  1.00  0.00     0.031 C 
ATOM     56  C   UNL     1      13.190  -8.775  -7.600  1.00  0.00     0.029 A 
ATOM     57  C   UNL     1      12.699  -8.558  -6.323  1.00  0.00     0.049 A 
ATOM     58  H   UNL     1      11.742  -6.851  -5.534  1.00  0.00     0.167 HD
ATOM     59  C   UNL     1      12.223  -9.154  -3.967  1.00  0.00     0.074 A 
ATOM     60  C   UNL     1      12.239 -10.065  -2.842  1.00  0.00     0.031 C 
ATOM     61  C   UNL     1      12.708  -9.453  -5.197  1.00  0.00     0.031 A 
BRANCH  48  62
ATOM     62  C   UNL     1      12.028  -4.928  -9.331  1.00  0.00    -0.014 A 
ATOM     63  C   UNL     1      12.995  -3.972  -9.678  1.00  0.00     0.009 A 
ATOM     64  C   UNL     1      11.255  -5.513 -10.347  1.00  0.00     0.009 A 
ATOM     65  C   UNL     1      13.167  -3.592 -11.010  1.00  0.00     0.001 A 
ATOM     66  C   UNL     1      11.445  -5.148 -11.681  1.00  0.00     0.001 A 
ATOM     67  C   UNL     1      12.396  -4.184 -12.011  1.00  0.00     0.000 A 
ENDBRANCH  48  62
BRANCH  49  68
ATOM     68  C   UNL     1      10.418  -7.682   0.107  1.00  0.00    -0.014 A 
ATOM     69  C   UNL     1      11.479  -7.878   1.004  1.00  0.00     0.009 A 
ATOM     70  C   UNL     1       9.106  -7.926   0.542  1.00  0.00     0.009 A 
ATOM     71  C   UNL     1      11.234  -8.337   2.300  1.00  0.00     0.001 A 
ATOM     72  C   UNL     1       8.862  -8.358   1.847  1.00  0.00     0.001 A 
ATOM     73  C   UNL     1       9.926  -8.573   2.721  1.00  0.00     0.000 A 
ENDBRANCH  49  68
BRANCH  61  74
ATOM     74  C   UNL     1      13.323 -10.811  -5.378  1.00  0.00    -0.014 A 
ATOM     75  C   UNL     1      12.528 -11.965  -5.450  1.00  0.00     0.009 A 
ATOM     76  C   UNL     1      14.715 -10.932  -5.510  1.00  0.00     0.009 A 
ATOM     77  C   UNL     1      13.119 -13.218  -5.619  1.00  0.00     0.001 A 
ATOM     78  C   UNL     1      15.301 -12.183  -5.705  1.00  0.00     0.001 A 
ATOM     79  C   UNL     1      14.503 -13.326  -5.751  1.00  0.00     0.000 A 
ENDBRANCH  61  74
ENDBRANCH  35  36
ENDBRANCH  27  30
ENDBRANCH  25  26
ENDBRANCH  24  25
ENDBRANCH   1  24
TORSDOF 14
