REMARK SMILES CN(C)C(=O)c1cccc(N2CCC3(CC2)[C@H](C(=O)NCCCNC(=O)c2ccc(-c4c5nc(c(-c6ccccc6)c6ccc([nH]6)c(-c6ccccc6)c6nc(c(-c7ccccc7)c7ccc4[nH]7)C=C6)C=C5)cc2)CC(=O)N3C)n1
REMARK SMILES IDX 22 1 21 2 20 3 18 4 19 5 17 7 11 8 12 9 16 10 13 11 15 12
REMARK SMILES IDX 14 13 78 14 75 15 76 16 79 17 77 18 10 19 6 20 7 21 80 22
REMARK SMILES IDX 8 23 9 24 4 25 1 26 2 27 3 28 5 29 23 30 24 31 25 32 26 34
REMARK SMILES IDX 27 35 28 36 74 37 29 38 73 39 30 40 31 41 32 42 67 43 33 44
REMARK SMILES IDX 72 45 66 46 68 47 34 48 71 49 65 50 64 51 35 53 57 54 42 55
REMARK SMILES IDX 56 56 43 57 46 58 55 59 69 60 44 61 45 62 54 64 70 65 47 66
REMARK SMILES IDX 36 67 37 68 41 69 38 70 40 71 39 72 58 73 59 74 63 75 60 76
REMARK SMILES IDX 62 77 61 78 48 79 49 80 53 81 50 82 52 83 51 84
REMARK H PARENT 20 6 24 33 68 52 46 63
REMARK Flexibility Score: inf
ROOT
ATOM      1  C   UNL     1       6.145   6.270   6.896  1.00  0.00     0.042 C 
ENDROOT
BRANCH   1   2
ATOM      2  C   UNL     1       5.677   6.919   8.202  1.00  0.00     0.117 C 
BRANCH   2   3
ATOM      3  N   UNL     1       4.412   7.639   8.107  1.00  0.00    -0.356 N 
ATOM      4  C   UNL     1       3.158   7.433   8.578  1.00  0.00     0.226 C 
ATOM      5  O   UNL     1       2.333   8.317   8.313  1.00  0.00    -0.275 OA
ATOM      6  H   UNL     1       4.487   8.466   7.578  1.00  0.00     0.163 HD
BRANCH   4   7
ATOM      7  C   UNL     1       2.693   6.207   9.363  1.00  0.00     0.113 C 
ATOM      8  N   UNL     1       1.219   3.288   6.644  1.00  0.00    -0.356 N 
ATOM      9  C   UNL     1       2.509   3.809   6.261  1.00  0.00     0.120 C 
ATOM     10  C   UNL     1       1.008   2.907   8.031  1.00  0.00     0.120 C 
ATOM     11  C   UNL     1       2.718   5.057   7.096  1.00  0.00     0.051 C 
ATOM     12  C   UNL     1       1.338   4.089   8.958  1.00  0.00     0.051 C 
ATOM     13  C   UNL     1       2.667   4.835   8.621  1.00  0.00     0.058 C 
ATOM     14  N   UNL     1       3.814   4.152   9.251  1.00  0.00    -0.339 N 
ATOM     15  C   UNL     1       3.468   6.009  10.658  1.00  0.00     0.116 C 
ATOM     16  C   UNL     1       4.252   4.759  10.420  1.00  0.00     0.223 C 
ATOM     17  C   UNL     1       4.414   2.901   8.831  1.00  0.00     0.147 C 
ATOM     18  O   UNL     1       5.153   4.362  11.152  1.00  0.00    -0.275 OA
BRANCH   8  19
ATOM     19  C   UNL     1       0.407   2.830   5.628  1.00  0.00     0.129 A 
ATOM     20  C   UNL     1       0.147   1.800   3.559  1.00  0.00     0.130 A 
ATOM     21  C   UNL     1      -1.208   2.099   3.515  1.00  0.00     0.034 A 
ATOM     22  N   UNL     1       0.957   2.172   4.587  1.00  0.00    -0.226 NA
ATOM     23  C   UNL     1      -1.755   2.821   4.566  1.00  0.00     0.006 A 
ATOM     24  C   UNL     1      -0.943   3.170   5.639  1.00  0.00     0.047 A 
BRANCH  20  25
ATOM     25  C   UNL     1       0.772   0.925   2.511  1.00  0.00     0.272 C 
ATOM     26  C   UNL     1       0.940   0.118   0.215  1.00  0.00     0.146 C 
ATOM     27  N   UNL     1       0.478   1.127   1.153  1.00  0.00    -0.343 N 
ATOM     28  C   UNL     1      -0.110   2.331   0.589  1.00  0.00     0.146 C 
ATOM     29  O   UNL     1       1.507   0.005   2.876  1.00  0.00    -0.267 OA
ENDBRANCH  20  25
ENDBRANCH   8  19
ENDBRANCH   4   7
ENDBRANCH   2   3
ENDBRANCH   1   2
BRANCH   1  30
ATOM     30  C   UNL     1       6.185   7.221   5.705  1.00  0.00     0.118 C 
BRANCH  30  31
ATOM     31  N   UNL     1       7.387   8.036   5.735  1.00  0.00    -0.352 N 
ATOM     32  C   UNL     1       8.503   7.945   4.939  1.00  0.00     0.251 C 
ATOM     33  H   UNL     1       7.405   8.747   6.416  1.00  0.00     0.163 HD
ATOM     34  O   UNL     1       9.556   8.460   5.299  1.00  0.00    -0.269 OA
BRANCH  32  35
ATOM     35  C   UNL     1       8.435   7.230   3.644  1.00  0.00     0.039 A 
ATOM     36  C   UNL     1       9.500   6.410   3.260  1.00  0.00     0.014 A 
ATOM     37  C   UNL     1       7.346   7.410   2.787  1.00  0.00     0.014 A 
ATOM     38  C   UNL     1       9.454   5.742   2.032  1.00  0.00     0.010 A 
ATOM     39  C   UNL     1       7.268   6.687   1.599  1.00  0.00     0.010 A 
ATOM     40  C   UNL     1       8.329   5.859   1.200  1.00  0.00    -0.014 A 
BRANCH  40  41
ATOM     41  C   UNL     1       8.248   5.155  -0.105  1.00  0.00     0.031 A 
ATOM     42  C   UNL     1       8.162   5.947  -1.383  1.00  0.00     0.074 A 
ATOM     43  C   UNL     1       8.177   3.810  -0.143  1.00  0.00     0.049 A 
ATOM     44  N   UNL     1       7.978   5.525  -2.608  1.00  0.00    -0.248 NA
ATOM     45  C   UNL     1       8.270   7.411  -1.263  1.00  0.00     0.031 C 
ATOM     46  C   UNL     1       8.219   2.925   1.023  1.00  0.00     0.029 A 
ATOM     47  N   UNL     1       8.040   2.953  -1.206  1.00  0.00    -0.354 N 
ATOM     48  C   UNL     1       7.922   6.668  -3.397  1.00  0.00     0.074 A 
ATOM     49  C   UNL     1       8.044   7.802  -2.508  1.00  0.00     0.031 C 
ATOM     50  C   UNL     1       8.128   1.651   0.610  1.00  0.00     0.029 A 
ATOM     51  C   UNL     1       7.976   1.630  -0.842  1.00  0.00     0.049 A 
ATOM     52  H   UNL     1       7.991   3.257  -2.141  1.00  0.00     0.167 HD
ATOM     53  C   UNL     1       7.798   6.766  -4.742  1.00  0.00     0.031 A 
ATOM     54  C   UNL     1       7.800   0.523  -1.590  1.00  0.00     0.031 A 
ATOM     55  C   UNL     1       7.695   5.638  -5.628  1.00  0.00     0.049 A 
ATOM     56  C   UNL     1       7.649   0.658  -3.080  1.00  0.00     0.074 A 
ATOM     57  C   UNL     1       7.622   5.632  -7.010  1.00  0.00     0.029 A 
ATOM     58  N   UNL     1       7.654   4.315  -5.218  1.00  0.00    -0.354 N 
ATOM     59  N   UNL     1       7.654   1.743  -3.816  1.00  0.00    -0.248 NA
ATOM     60  C   UNL     1       7.478  -0.586  -3.844  1.00  0.00     0.031 C 
ATOM     61  C   UNL     1       7.485   4.307  -7.434  1.00  0.00     0.029 A 
ATOM     62  C   UNL     1       7.532   3.485  -6.319  1.00  0.00     0.049 A 
ATOM     63  H   UNL     1       7.703   4.010  -4.283  1.00  0.00     0.167 HD
ATOM     64  C   UNL     1       7.521   1.311  -5.129  1.00  0.00     0.074 A 
ATOM     65  C   UNL     1       7.446  -0.134  -5.090  1.00  0.00     0.031 C 
ATOM     66  C   UNL     1       7.469   2.047  -6.265  1.00  0.00     0.031 A 
BRANCH  53  67
ATOM     67  C   UNL     1       7.756   8.147  -5.337  1.00  0.00    -0.014 A 
ATOM     68  C   UNL     1       8.895   8.969  -5.351  1.00  0.00     0.009 A 
ATOM     69  C   UNL     1       6.572   8.619  -5.924  1.00  0.00     0.009 A 
ATOM     70  C   UNL     1       8.836  10.250  -5.905  1.00  0.00     0.001 A 
ATOM     71  C   UNL     1       6.525   9.888  -6.505  1.00  0.00     0.001 A 
ATOM     72  C   UNL     1       7.654  10.706  -6.486  1.00  0.00     0.000 A 
ENDBRANCH  53  67
BRANCH  54  73
ATOM     73  C   UNL     1       7.766  -0.814  -0.942  1.00  0.00    -0.014 A 
ATOM     74  C   UNL     1       8.822  -1.720  -1.125  1.00  0.00     0.009 A 
ATOM     75  C   UNL     1       6.680  -1.193  -0.137  1.00  0.00     0.009 A 
ATOM     76  C   UNL     1       8.779  -2.987  -0.538  1.00  0.00     0.001 A 
ATOM     77  C   UNL     1       6.654  -2.449   0.473  1.00  0.00     0.001 A 
ATOM     78  C   UNL     1       7.698  -3.348   0.264  1.00  0.00     0.000 A 
ENDBRANCH  54  73
BRANCH  66  79
ATOM     79  C   UNL     1       7.371   1.306  -7.568  1.00  0.00    -0.014 A 
ATOM     80  C   UNL     1       6.179   0.683  -7.967  1.00  0.00     0.009 A 
ATOM     81  C   UNL     1       8.473   1.288  -8.438  1.00  0.00     0.009 A 
ATOM     82  C   UNL     1       6.101   0.035  -9.202  1.00  0.00     0.001 A 
ATOM     83  C   UNL     1       8.384   0.665  -9.682  1.00  0.00     0.001 A 
ATOM     84  C   UNL     1       7.201   0.033 -10.061  1.00  0.00     0.000 A 
ENDBRANCH  66  79
ENDBRANCH  40  41
ENDBRANCH  32  35
ENDBRANCH  30  31
ENDBRANCH   1  30
TORSDOF 12
