REMARK SMILES CC[NH+](CC)[C@](C)(C(=O)NCCCNC(=O)c1ccc(-c2c3nc(c(-c4ccccc4)c4ccc([nH]4)c(-c4ccccc4)c4nc(c(-c5ccccc5)c5ccc2[nH]5)C=C4)C=C3)cc1)c1cc(F)c(C)cc1F
REMARK SMILES IDX 12 1 11 2 10 3 8 4 9 5 6 7 7 8 3 9 2 11 1 12 4 13 5 14 65 15
REMARK SMILES IDX 66 16 72 17 67 18 71 19 73 20 68 21 69 22 70 23 13 24 14 25
REMARK SMILES IDX 15 26 16 28 17 29 18 30 64 31 19 32 63 33 20 34 21 35 22 36
REMARK SMILES IDX 57 37 23 38 62 39 56 40 58 41 24 42 61 43 55 44 54 45 25 47
REMARK SMILES IDX 47 48 32 49 46 50 33 51 36 52 45 53 59 54 34 55 35 56 44 58
REMARK SMILES IDX 60 59 37 60 26 61 27 62 31 63 28 64 30 65 29 66 48 67 49 68
REMARK SMILES IDX 53 69 50 70 52 71 51 72 38 73 39 74 43 75 40 76 42 77 41 78
REMARK H PARENT 10 6 3 10 14 27 58 46 36 57
REMARK Flexibility Score: inf
ROOT
ATOM      1  C   UNL     1      -0.035  -0.761   1.106  1.00  0.00     0.042 C 
ENDROOT
BRANCH   1   2
ATOM      2  C   UNL     1       1.004   0.300   0.802  1.00  0.00     0.118 C 
BRANCH   2   3
ATOM      3  N   UNL     1       1.803  -0.012  -0.369  1.00  0.00    -0.350 N 
ATOM      4  C   UNL     1       2.586   0.752  -1.191  1.00  0.00     0.286 C 
ATOM      5  O   UNL     1       3.536   0.088  -1.627  1.00  0.00    -0.267 OA
ATOM      6  H   UNL     1       1.776  -0.963  -0.623  1.00  0.00     0.163 HD
BRANCH   4   7
ATOM      7  C   UNL     1       2.336   2.311  -1.526  1.00  0.00     0.202 C 
ATOM      8  C   UNL     1       0.782   2.460  -1.567  1.00  0.00     0.096 C 
BRANCH   7   9
ATOM      9  N   UNL     1       3.058   3.204  -0.499  1.00  0.00    -0.319 N 
ATOM     10  H   UNL     1       4.025   3.129  -0.813  1.00  0.00     0.349 HD
BRANCH   9  11
ATOM     11  C   UNL     1       3.150   2.738   0.892  1.00  0.00     0.259 C 
ATOM     12  C   UNL     1       4.237   1.708   1.198  1.00  0.00     0.071 C 
ENDBRANCH   9  11
BRANCH   9  13
ATOM     13  C   UNL     1       2.608   4.618  -0.574  1.00  0.00     0.259 C 
ATOM     14  C   UNL     1       3.049   5.607   0.509  1.00  0.00     0.071 C 
ENDBRANCH   9  13
ENDBRANCH   7   9
BRANCH   7  15
ATOM     15  C   UNL     1       2.862   2.676  -2.992  1.00  0.00     0.060 A 
ATOM     16  C   UNL     1       3.809   1.913  -3.705  1.00  0.00     0.053 A 
ATOM     17  C   UNL     1       2.427   3.839  -3.674  1.00  0.00     0.133 A 
ATOM     18  C   UNL     1       4.260   2.275  -4.983  1.00  0.00     0.126 A 
ATOM     19  C   UNL     1       2.901   4.221  -4.936  1.00  0.00     0.046 A 
ATOM     20  F   UNL     1       1.539   4.682  -3.127  1.00  0.00    -0.206 F 
ATOM     21  F   UNL     1       5.130   1.470  -5.611  1.00  0.00    -0.207 F 
ATOM     22  C   UNL     1       3.837   3.442  -5.605  1.00  0.00    -0.012 A 
ATOM     23  C   UNL     1       4.348   3.824  -6.957  1.00  0.00     0.047 C 
ENDBRANCH   7  15
ENDBRANCH   4   7
ENDBRANCH   2   3
ENDBRANCH   1   2
BRANCH   1  24
ATOM     24  C   UNL     1       0.578  -2.094   1.511  1.00  0.00     0.118 C 
BRANCH  24  25
ATOM     25  N   UNL     1       1.313  -2.029   2.771  1.00  0.00    -0.352 N 
ATOM     26  C   UNL     1       0.986  -2.496   4.026  1.00  0.00     0.251 C 
ATOM     27  H   UNL     1       2.187  -1.578   2.716  1.00  0.00     0.163 HD
ATOM     28  O   UNL     1       1.657  -2.183   4.996  1.00  0.00    -0.269 OA
BRANCH  26  29
ATOM     29  C   UNL     1      -0.208  -3.351   4.194  1.00  0.00     0.039 A 
ATOM     30  C   UNL     1      -1.082  -3.110   5.256  1.00  0.00     0.014 A 
ATOM     31  C   UNL     1      -0.481  -4.367   3.279  1.00  0.00     0.014 A 
ATOM     32  C   UNL     1      -2.284  -3.817   5.332  1.00  0.00     0.010 A 
ATOM     33  C   UNL     1      -1.728  -4.974   3.282  1.00  0.00     0.010 A 
ATOM     34  C   UNL     1      -2.644  -4.710   4.311  1.00  0.00    -0.014 A 
BRANCH  34  35
ATOM     35  C   UNL     1      -3.964  -5.390   4.283  1.00  0.00     0.031 A 
ATOM     36  C   UNL     1      -4.031  -6.893   4.251  1.00  0.00     0.074 A 
ATOM     37  C   UNL     1      -5.093  -4.661   4.174  1.00  0.00     0.049 A 
ATOM     38  N   UNL     1      -5.069  -7.671   4.080  1.00  0.00    -0.248 NA
ATOM     39  C   UNL     1      -2.755  -7.618   4.380  1.00  0.00     0.031 C 
ATOM     40  C   UNL     1      -5.165  -3.198   4.128  1.00  0.00     0.029 A 
ATOM     41  N   UNL     1      -6.402  -5.058   4.071  1.00  0.00    -0.354 N 
ATOM     42  C   UNL     1      -4.565  -8.965   4.034  1.00  0.00     0.074 A 
ATOM     43  C   UNL     1      -3.127  -8.866   4.142  1.00  0.00     0.031 C 
ATOM     44  C   UNL     1      -6.451  -2.822   4.042  1.00  0.00     0.029 A 
ATOM     45  C   UNL     1      -7.290  -4.013   3.983  1.00  0.00     0.049 A 
ATOM     46  H   UNL     1      -6.680  -6.003   4.060  1.00  0.00     0.167 HD
ATOM     47  C   UNL     1      -5.238 -10.135   3.935  1.00  0.00     0.031 A 
ATOM     48  C   UNL     1      -8.631  -4.014   3.864  1.00  0.00     0.031 A 
ATOM     49  C   UNL     1      -6.670 -10.238   3.882  1.00  0.00     0.049 A 
ATOM     50  C   UNL     1      -9.360  -5.327   3.807  1.00  0.00     0.074 A 
ATOM     51  C   UNL     1      -7.453 -11.378   3.869  1.00  0.00     0.029 A 
ATOM     52  N   UNL     1      -7.534  -9.155   3.849  1.00  0.00    -0.354 N 
ATOM     53  N   UNL     1      -8.872  -6.543   3.830  1.00  0.00    -0.248 NA
ATOM     54  C   UNL     1     -10.826  -5.265   3.719  1.00  0.00     0.031 C 
ATOM     55  C   UNL     1      -8.793 -10.985   3.793  1.00  0.00     0.029 A 
ATOM     56  C   UNL     1      -8.843  -9.600   3.803  1.00  0.00     0.049 A 
ATOM     57  H   UNL     1      -7.257  -8.210   3.856  1.00  0.00     0.167 HD
ATOM     58  C   UNL     1      -9.971  -7.391   3.784  1.00  0.00     0.074 A 
ATOM     59  C   UNL     1     -11.150  -6.550   3.748  1.00  0.00     0.031 C 
ATOM     60  C   UNL     1     -10.001  -8.746   3.772  1.00  0.00     0.031 A 
BRANCH  47  61
ATOM     61  C   UNL     1      -4.423 -11.397   3.888  1.00  0.00    -0.014 A 
ATOM     62  C   UNL     1      -3.725 -11.856   5.017  1.00  0.00     0.009 A 
ATOM     63  C   UNL     1      -4.363 -12.146   2.702  1.00  0.00     0.009 A 
ATOM     64  C   UNL     1      -2.949 -13.014   4.947  1.00  0.00     0.001 A 
ATOM     65  C   UNL     1      -3.610 -13.320   2.644  1.00  0.00     0.001 A 
ATOM     66  C   UNL     1      -2.895 -13.747   3.762  1.00  0.00     0.000 A 
ENDBRANCH  47  61
BRANCH  48  67
ATOM     67  C   UNL     1      -9.376  -2.730   3.822  1.00  0.00    -0.014 A 
ATOM     68  C   UNL     1     -10.133  -2.317   4.929  1.00  0.00     0.009 A 
ATOM     69  C   UNL     1      -9.336  -1.912   2.683  1.00  0.00     0.009 A 
ATOM     70  C   UNL     1     -10.857  -1.123   4.887  1.00  0.00     0.001 A 
ATOM     71  C   UNL     1     -10.040  -0.706   2.653  1.00  0.00     0.001 A 
ATOM     72  C   UNL     1     -10.807  -0.317   3.751  1.00  0.00     0.000 A 
ENDBRANCH  48  67
BRANCH  60  73
ATOM     73  C   UNL     1     -11.351  -9.400   3.752  1.00  0.00    -0.014 A 
ATOM     74  C   UNL     1     -12.130  -9.422   2.586  1.00  0.00     0.009 A 
ATOM     75  C   UNL     1     -11.828 -10.042   4.906  1.00  0.00     0.009 A 
ATOM     76  C   UNL     1     -13.376 -10.052   2.583  1.00  0.00     0.001 A 
ATOM     77  C   UNL     1     -13.062 -10.692   4.893  1.00  0.00     0.001 A 
ATOM     78  C   UNL     1     -13.838 -10.690   3.735  1.00  0.00     0.000 A 
ENDBRANCH  60  73
ENDBRANCH  34  35
ENDBRANCH  26  29
ENDBRANCH  24  25
ENDBRANCH   1  24
TORSDOF 14
