REMARK SMILES CC(C)(C)c1csc(C[C@H](C(=O)NCCCNC(=O)c2ccc(-c3c4nc(c(-c5ccccc5)c5ccc([nH]5)c(-c5ccccc5)c5nc(c(-c6ccccc6)c6ccc3[nH]6)C=C5)C=C4)cc2)c2ccccc2Cl)n1
REMARK SMILES IDX 14 1 13 2 11 3 12 4 10 6 9 7 8 8 5 9 6 10 75 11 7 12 2 13
REMARK SMILES IDX 1 14 3 15 4 16 68 17 69 18 73 19 70 20 72 21 74 22 71 23
REMARK SMILES IDX 15 24 16 25 17 26 18 27 19 29 20 30 21 31 67 32 22 33 66 34
REMARK SMILES IDX 23 35 24 36 25 37 60 38 26 39 65 40 59 41 61 42 27 43 64 44
REMARK SMILES IDX 58 45 57 46 28 48 50 49 35 50 49 51 36 52 39 53 48 54 62 55
REMARK SMILES IDX 37 56 38 57 47 59 63 60 40 61 29 62 30 63 34 64 31 65 33 66
REMARK SMILES IDX 32 67 51 68 52 69 56 70 53 71 55 72 54 73 41 74 42 75 46 76
REMARK SMILES IDX 43 77 45 78 44 79
REMARK H PARENT 13 5 17 28 61 47 39 58
REMARK Flexibility Score: inf
ROOT
ATOM      1  C   UNL     1      -0.571   3.225   3.024  1.00  0.00     0.117 C 
ENDROOT
BRANCH   1   2
ATOM      2  N   UNL     1       0.782   3.734   3.097  1.00  0.00    -0.355 N 
ATOM      3  C   UNL     1       1.412   4.511   4.024  1.00  0.00     0.228 C 
ATOM      4  O   UNL     1       2.445   5.037   3.619  1.00  0.00    -0.274 OA
ATOM      5  H   UNL     1       1.352   3.471   2.338  1.00  0.00     0.163 HD
BRANCH   3   6
ATOM      6  C   UNL     1       0.881   4.566   5.459  1.00  0.00     0.117 C 
BRANCH   6   7
ATOM      7  C   UNL     1       1.305   3.340   6.293  1.00  0.00     0.086 C 
BRANCH   7   8
ATOM      8  C   UNL     1       2.707   2.873   6.058  1.00  0.00     0.094 A 
ATOM      9  C   UNL     1       4.910   2.683   6.259  1.00  0.00     0.057 A 
ATOM     10  C   UNL     1       4.710   1.879   5.152  1.00  0.00     0.091 A 
ATOM     11  N   UNL     1       3.743   3.236   6.778  1.00  0.00    -0.246 NA
ATOM     12  S   UNL     1       3.042   1.718   4.825  1.00  0.00    -0.127 S 
BRANCH   9  13
ATOM     13  C   UNL     1       6.222   3.001   6.955  1.00  0.00     0.005 C 
ATOM     14  C   UNL     1       7.424   2.321   6.267  1.00  0.00     0.017 C 
ATOM     15  C   UNL     1       6.156   2.499   8.411  1.00  0.00     0.017 C 
ATOM     16  C   UNL     1       6.466   4.521   6.956  1.00  0.00     0.017 C 
ENDBRANCH   9  13
ENDBRANCH   7   8
ENDBRANCH   6   7
BRANCH   6  17
ATOM     17  C   UNL     1       0.902   5.894   6.226  1.00  0.00    -0.016 A 
ATOM     18  C   UNL     1      -0.255   6.154   7.011  1.00  0.00     0.006 A 
ATOM     19  C   UNL     1       1.915   6.865   6.263  1.00  0.00     0.045 A 
ATOM     20  C   UNL     1      -0.434   7.347   7.712  1.00  0.00     0.000 A 
ATOM     21  C   UNL     1       1.707   8.087   6.929  1.00  0.00     0.021 A 
ATOM     22  Cl  UNL     1       3.498   6.660   5.621  1.00  0.00    -0.084 Cl
ATOM     23  C   UNL     1       0.536   8.333   7.642  1.00  0.00     0.002 A 
ENDBRANCH   6  17
ENDBRANCH   3   6
ENDBRANCH   1   2
BRANCH   1  24
ATOM     24  C   UNL     1      -1.411   4.086   2.085  1.00  0.00     0.042 C 
BRANCH  24  25
ATOM     25  C   UNL     1      -0.822   4.231   0.682  1.00  0.00     0.118 C 
BRANCH  25  26
ATOM     26  N   UNL     1      -0.656   2.954  -0.000  1.00  0.00    -0.352 N 
ATOM     27  C   UNL     1      -1.139   2.538  -1.217  1.00  0.00     0.251 C 
ATOM     28  H   UNL     1      -0.116   2.289   0.484  1.00  0.00     0.163 HD
ATOM     29  O   UNL     1      -1.030   1.366  -1.554  1.00  0.00    -0.269 OA
BRANCH  27  30
ATOM     30  C   UNL     1      -1.817   3.503  -2.106  1.00  0.00     0.039 A 
ATOM     31  C   UNL     1      -3.019   3.130  -2.712  1.00  0.00     0.014 A 
ATOM     32  C   UNL     1      -1.278   4.772  -2.333  1.00  0.00     0.014 A 
ATOM     33  C   UNL     1      -3.719   4.057  -3.486  1.00  0.00     0.010 A 
ATOM     34  C   UNL     1      -2.016   5.719  -3.035  1.00  0.00     0.010 A 
ATOM     35  C   UNL     1      -3.245   5.372  -3.617  1.00  0.00    -0.014 A 
BRANCH  35  36
ATOM     36  C   UNL     1      -4.028   6.403  -4.342  1.00  0.00     0.031 A 
ATOM     37  C   UNL     1      -3.477   7.044  -5.584  1.00  0.00     0.074 A 
ATOM     38  C   UNL     1      -5.210   6.812  -3.842  1.00  0.00     0.049 A 
ATOM     39  N   UNL     1      -3.998   7.988  -6.327  1.00  0.00    -0.248 NA
ATOM     40  C   UNL     1      -2.156   6.582  -6.036  1.00  0.00     0.031 C 
ATOM     41  C   UNL     1      -5.842   6.294  -2.627  1.00  0.00     0.029 A 
ATOM     42  N   UNL     1      -6.091   7.761  -4.297  1.00  0.00    -0.354 N 
ATOM     43  C   UNL     1      -3.062   8.243  -7.322  1.00  0.00     0.074 A 
ATOM     44  C   UNL     1      -1.920   7.397  -7.052  1.00  0.00     0.031 C 
ATOM     45  C   UNL     1      -7.028   6.899  -2.458  1.00  0.00     0.029 A 
ATOM     46  C   UNL     1      -7.218   7.881  -3.521  1.00  0.00     0.049 A 
ATOM     47  H   UNL     1      -5.931   8.304  -5.103  1.00  0.00     0.167 HD
ATOM     48  C   UNL     1      -3.150   9.092  -8.374  1.00  0.00     0.031 A 
ATOM     49  C   UNL     1      -8.285   8.691  -3.649  1.00  0.00     0.031 A 
ATOM     50  C   UNL     1      -4.283   9.941  -8.636  1.00  0.00     0.049 A 
ATOM     51  C   UNL     1      -8.342   9.658  -4.797  1.00  0.00     0.074 A 
ATOM     52  C   UNL     1      -4.493  10.795  -9.704  1.00  0.00     0.029 A 
ATOM     53  N   UNL     1      -5.391  10.054  -7.809  1.00  0.00    -0.354 N 
ATOM     54  N   UNL     1      -7.483   9.836  -5.771  1.00  0.00    -0.248 NA
ATOM     55  C   UNL     1      -9.521  10.531  -4.864  1.00  0.00     0.031 C 
ATOM     56  C   UNL     1      -5.698  11.473  -9.490  1.00  0.00     0.029 A 
ATOM     57  C   UNL     1      -6.271  10.992  -8.323  1.00  0.00     0.049 A 
ATOM     58  H   UNL     1      -5.531   9.543  -6.979  1.00  0.00     0.167 HD
ATOM     59  C   UNL     1      -8.030  10.820  -6.584  1.00  0.00     0.074 A 
ATOM     60  C   UNL     1      -9.301  11.190  -5.994  1.00  0.00     0.031 C 
ATOM     61  C   UNL     1      -7.528  11.362  -7.721  1.00  0.00     0.031 A 
BRANCH  48  62
ATOM     62  C   UNL     1      -1.966   9.155  -9.302  1.00  0.00    -0.014 A 
ATOM     63  C   UNL     1      -1.603   8.060 -10.105  1.00  0.00     0.009 A 
ATOM     64  C   UNL     1      -1.194  10.326  -9.369  1.00  0.00     0.009 A 
ATOM     65  C   UNL     1      -0.461   8.116 -10.906  1.00  0.00     0.001 A 
ATOM     66  C   UNL     1      -0.074  10.391 -10.199  1.00  0.00     0.001 A 
ATOM     67  C   UNL     1       0.302   9.281 -10.954  1.00  0.00     0.000 A 
ENDBRANCH  48  62
BRANCH  49  68
ATOM     68  C   UNL     1      -9.406   8.592  -2.679  1.00  0.00    -0.014 A 
ATOM     69  C   UNL     1     -10.634   8.038  -3.075  1.00  0.00     0.009 A 
ATOM     70  C   UNL     1      -9.254   9.025  -1.353  1.00  0.00     0.009 A 
ATOM     71  C   UNL     1     -11.690   7.934  -2.167  1.00  0.00     0.001 A 
ATOM     72  C   UNL     1     -10.303   8.894  -0.440  1.00  0.00     0.001 A 
ATOM     73  C   UNL     1     -11.521   8.355  -0.850  1.00  0.00     0.000 A 
ENDBRANCH  49  68
BRANCH  61  74
ATOM     74  C   UNL     1      -8.368  12.395  -8.420  1.00  0.00    -0.014 A 
ATOM     75  C   UNL     1      -8.551  13.679  -7.881  1.00  0.00     0.009 A 
ATOM     76  C   UNL     1      -8.955  12.089  -9.658  1.00  0.00     0.009 A 
ATOM     77  C   UNL     1      -9.332  14.622  -8.553  1.00  0.00     0.001 A 
ATOM     78  C   UNL     1      -9.708  13.044 -10.343  1.00  0.00     0.001 A 
ATOM     79  C   UNL     1      -9.904  14.306  -9.785  1.00  0.00     0.000 A 
ENDBRANCH  61  74
ENDBRANCH  35  36
ENDBRANCH  27  30
ENDBRANCH  25  26
ENDBRANCH  24  25
ENDBRANCH   1  24
TORSDOF 14
