REMARK SMILES CS(=O)(=O)c1ccc(/C=C(/C(=O)NCCCNC(=O)c2ccc(-c3c4nc(c(-c5ccccc5)c5ccc([nH]5)c(-c5ccccc5)c5nc(c(-c6ccccc6)c6ccc3[nH]6)C=C5)C=C4)cc2)c2cccc(Br)c2)cc1
REMARK SMILES IDX 15 1 14 2 13 3 11 4 12 5 10 7 9 8 8 9 5 10 6 11 76 12 7 13
REMARK SMILES IDX 75 14 2 15 1 16 3 17 4 18 68 19 69 20 74 21 70 22 72 23
REMARK SMILES IDX 71 24 73 25 16 26 17 27 18 28 19 30 20 31 21 32 67 33 22 34
REMARK SMILES IDX 66 35 23 36 24 37 25 38 60 39 26 40 65 41 59 42 61 43 27 44
REMARK SMILES IDX 64 45 58 46 57 47 28 49 50 50 35 51 49 52 36 53 39 54 48 55
REMARK SMILES IDX 62 56 37 57 38 58 47 60 63 61 40 62 29 63 30 64 34 65 31 66
REMARK SMILES IDX 33 67 32 68 51 69 52 70 56 71 53 72 55 73 54 74 41 75 42 76
REMARK SMILES IDX 46 77 43 78 45 79 44 80
REMARK H PARENT 13 6 17 29 61 48 39 59
REMARK Flexibility Score: inf
ROOT
ATOM      1  C   UNL     1       2.350   4.664   8.769  1.00  0.00     0.042 C 
ENDROOT
BRANCH   1   2
ATOM      2  C   UNL     1       3.443   3.686   8.330  1.00  0.00     0.118 C 
BRANCH   2   3
ATOM      3  N   UNL     1       3.269   2.392   8.966  1.00  0.00    -0.352 N 
ATOM      4  C   UNL     1       2.799   1.188   8.543  1.00  0.00     0.251 C 
ATOM      5  O   UNL     1       2.791   0.284   9.383  1.00  0.00    -0.269 OA
ATOM      6  H   UNL     1       3.553   2.385   9.909  1.00  0.00     0.163 HD
BRANCH   4   7
ATOM      7  C   UNL     1       2.378   0.913   7.120  1.00  0.00     0.047 C 
ATOM      8  C   UNL     1       1.708   1.834   6.391  1.00  0.00     0.022 C 
BRANCH   8   9
ATOM      9  C   UNL     1       1.286   1.764   4.976  1.00  0.00    -0.025 A 
ATOM     10  C   UNL     1       0.662   1.709   2.242  1.00  0.00     0.067 A 
ATOM     11  C   UNL     1       0.298   0.637   3.057  1.00  0.00     0.021 A 
ATOM     12  C   UNL     1       1.285   2.833   2.786  1.00  0.00     0.021 A 
ATOM     13  C   UNL     1       0.596   0.676   4.423  1.00  0.00     0.009 A 
ATOM     14  C   UNL     1       1.594   2.856   4.149  1.00  0.00     0.009 A 
BRANCH  10  15
ATOM     15  S   UNL     1       0.319   1.647   0.499  1.00  0.00     0.175 S 
ATOM     16  C   UNL     1       1.144   0.180  -0.065  1.00  0.00     0.163 C 
ATOM     17  O   UNL     1       0.980   2.778  -0.118  1.00  0.00    -0.224 OA
ATOM     18  O   UNL     1      -1.113   1.449   0.363  1.00  0.00    -0.224 OA
ENDBRANCH  10  15
ENDBRANCH   8   9
BRANCH   7  19
ATOM     19  C   UNL     1       2.562  -0.471   6.610  1.00  0.00    -0.012 A 
ATOM     20  C   UNL     1       1.820  -1.514   7.193  1.00  0.00     0.009 A 
ATOM     21  C   UNL     1       3.376  -0.753   5.506  1.00  0.00     0.024 A 
ATOM     22  C   UNL     1       1.867  -2.807   6.671  1.00  0.00     0.002 A 
ATOM     23  C   UNL     1       3.401  -2.046   4.976  1.00  0.00     0.018 A 
ATOM     24  C   UNL     1       2.651  -3.071   5.551  1.00  0.00     0.016 A 
ATOM     25  Br  UNL     1       4.425  -2.400   3.426  1.00  0.00    -0.051 Br
ENDBRANCH   7  19
ENDBRANCH   4   7
ENDBRANCH   2   3
ENDBRANCH   1   2
BRANCH   1  26
ATOM     26  C   UNL     1       2.433   5.070  10.242  1.00  0.00     0.118 C 
BRANCH  26  27
ATOM     27  N   UNL     1       3.591   5.904  10.523  1.00  0.00    -0.352 N 
ATOM     28  C   UNL     1       3.668   7.158  11.076  1.00  0.00     0.251 C 
ATOM     29  H   UNL     1       4.457   5.506  10.276  1.00  0.00     0.163 HD
ATOM     30  O   UNL     1       4.736   7.765  11.039  1.00  0.00    -0.269 OA
BRANCH  28  31
ATOM     31  C   UNL     1       2.489   7.794  11.704  1.00  0.00     0.039 A 
ATOM     32  C   UNL     1       2.277   9.161  11.492  1.00  0.00     0.014 A 
ATOM     33  C   UNL     1       1.632   7.082  12.547  1.00  0.00     0.014 A 
ATOM     34  C   UNL     1       1.183   9.799  12.082  1.00  0.00     0.010 A 
ATOM     35  C   UNL     1       0.507   7.706  13.089  1.00  0.00     0.010 A 
ATOM     36  C   UNL     1       0.274   9.071  12.865  1.00  0.00    -0.014 A 
BRANCH  36  37
ATOM     37  C   UNL     1      -0.927   9.725  13.446  1.00  0.00     0.031 A 
ATOM     38  C   UNL     1      -1.072   9.880  14.934  1.00  0.00     0.074 A 
ATOM     39  C   UNL     1      -1.916  10.138  12.630  1.00  0.00     0.049 A 
ATOM     40  N   UNL     1      -2.066  10.392  15.618  1.00  0.00    -0.248 NA
ATOM     41  C   UNL     1       0.033   9.377  15.765  1.00  0.00     0.031 C 
ATOM     42  C   UNL     1      -1.918  10.016  11.171  1.00  0.00     0.029 A 
ATOM     43  N   UNL     1      -3.116  10.741  12.915  1.00  0.00    -0.354 N 
ATOM     44  C   UNL     1      -1.714  10.256  16.955  1.00  0.00     0.074 A 
ATOM     45  C   UNL     1      -0.435   9.580  16.988  1.00  0.00     0.031 C 
ATOM     46  C   UNL     1      -3.050  10.550  10.687  1.00  0.00     0.029 A 
ATOM     47  C   UNL     1      -3.868  11.021  11.800  1.00  0.00     0.049 A 
ATOM     48  H   UNL     1      -3.409  10.953  13.830  1.00  0.00     0.167 HD
ATOM     49  C   UNL     1      -2.387  10.669  18.056  1.00  0.00     0.031 A 
ATOM     50  C   UNL     1      -5.083  11.590  11.685  1.00  0.00     0.031 A 
ATOM     51  C   UNL     1      -3.654  11.351  18.028  1.00  0.00     0.049 A 
ATOM     52  C   UNL     1      -5.810  12.037  12.921  1.00  0.00     0.074 A 
ATOM     53  C   UNL     1      -4.384  11.860  19.089  1.00  0.00     0.029 A 
ATOM     54  N   UNL     1      -4.380  11.619  16.879  1.00  0.00    -0.354 N 
ATOM     55  N   UNL     1      -5.434  11.956  14.174  1.00  0.00    -0.248 NA
ATOM     56  C   UNL     1      -7.125  12.663  12.722  1.00  0.00     0.031 C 
ATOM     57  C   UNL     1      -5.574  12.397  18.585  1.00  0.00     0.029 A 
ATOM     58  C   UNL     1      -5.561  12.265  17.206  1.00  0.00     0.049 A 
ATOM     59  H   UNL     1      -4.098  11.384  15.965  1.00  0.00     0.167 HD
ATOM     60  C   UNL     1      -6.455  12.540  14.912  1.00  0.00     0.074 A 
ATOM     61  C   UNL     1      -7.457  12.984  13.965  1.00  0.00     0.031 C 
ATOM     62  C   UNL     1      -6.552  12.694  16.254  1.00  0.00     0.031 A 
BRANCH  49  63
ATOM     63  C   UNL     1      -1.762  10.382  19.394  1.00  0.00    -0.014 A 
ATOM     64  C   UNL     1      -0.622  11.077  19.827  1.00  0.00     0.009 A 
ATOM     65  C   UNL     1      -2.339   9.426  20.244  1.00  0.00     0.009 A 
ATOM     66  C   UNL     1      -0.050  10.792  21.069  1.00  0.00     0.001 A 
ATOM     67  C   UNL     1      -1.781   9.163  21.496  1.00  0.00     0.001 A 
ATOM     68  C   UNL     1      -0.631   9.838  21.903  1.00  0.00     0.000 A 
ENDBRANCH  49  63
BRANCH  50  69
ATOM     69  C   UNL     1      -5.681  11.790  10.341  1.00  0.00    -0.014 A 
ATOM     70  C   UNL     1      -5.755  13.075   9.782  1.00  0.00     0.009 A 
ATOM     71  C   UNL     1      -6.173  10.700   9.608  1.00  0.00     0.009 A 
ATOM     72  C   UNL     1      -6.331  13.267   8.525  1.00  0.00     0.001 A 
ATOM     73  C   UNL     1      -6.726  10.892   8.340  1.00  0.00     0.001 A 
ATOM     74  C   UNL     1      -6.811  12.175   7.803  1.00  0.00     0.000 A 
ENDBRANCH  50  69
BRANCH  62  75
ATOM     75  C   UNL     1      -7.776  13.393  16.774  1.00  0.00    -0.014 A 
ATOM     76  C   UNL     1      -9.025  12.754  16.791  1.00  0.00     0.009 A 
ATOM     77  C   UNL     1      -7.671  14.698  17.278  1.00  0.00     0.009 A 
ATOM     78  C   UNL     1     -10.153  13.422  17.272  1.00  0.00     0.001 A 
ATOM     79  C   UNL     1      -8.795  15.354  17.782  1.00  0.00     0.001 A 
ATOM     80  C   UNL     1     -10.036  14.720  17.770  1.00  0.00     0.000 A 
ENDBRANCH  62  75
ENDBRANCH  36  37
ENDBRANCH  28  31
ENDBRANCH  26  27
ENDBRANCH   1  26
TORSDOF 13
