REMARK SMILES O=C(CC1CC[NH+](C[C@@H]2Cc3ccccc32)CC1)NCCCNC(=O)c1ccc(-c2c3nc(c(-c4ccccc4)c4ccc([nH]4)c(-c4ccccc4)c4nc(c(-c5ccccc5)c5ccc2[nH]5)C=C4)C=C3)cc1
REMARK SMILES IDX 20 1 19 2 1 3 2 4 3 6 4 7 5 8 18 9 6 10 17 11 7 12 8 14 9 15
REMARK SMILES IDX 10 16 16 17 11 18 15 19 12 20 14 21 13 22 21 23 22 24 23 25
REMARK SMILES IDX 24 26 25 28 26 29 27 30 73 31 28 32 72 33 29 34 30 35 31 36
REMARK SMILES IDX 66 37 32 38 71 39 65 40 67 41 33 42 70 43 64 44 63 45 34 47
REMARK SMILES IDX 56 48 41 49 55 50 42 51 45 52 54 53 68 54 43 55 44 56 53 58
REMARK SMILES IDX 69 59 46 60 35 61 36 62 40 63 37 64 39 65 38 66 57 67 58 68
REMARK SMILES IDX 62 69 59 70 61 71 60 72 47 73 48 74 52 75 49 76 51 77 50 78
REMARK H PARENT 19 5 7 13 23 27 67 46 45 57
REMARK Flexibility Score: inf
ROOT
ATOM      1  C   UNL     1      -1.876  -3.371  -0.306  1.00  0.00     0.117 C 
ENDROOT
BRANCH   1   2
ATOM      2  N   UNL     1      -2.825  -2.361   0.114  1.00  0.00    -0.356 N 
ATOM      3  O   UNL     1      -1.308  -0.999   1.118  1.00  0.00    -0.275 OA
ATOM      4  C   UNL     1      -2.423  -1.158   0.632  1.00  0.00     0.220 C 
ATOM      5  H   UNL     1      -3.788  -2.544   0.024  1.00  0.00     0.163 HD
BRANCH   4   6
ATOM      6  C   UNL     1      -3.479  -0.064   0.656  1.00  0.00     0.104 C 
BRANCH   6   7
ATOM      7  C   UNL     1      -4.258   0.344  -0.628  1.00  0.00     0.009 C 
ATOM      8  C   UNL     1      -4.238  -0.581  -1.855  1.00  0.00     0.066 C 
ATOM      9  C   UNL     1      -3.849   1.741  -1.134  1.00  0.00     0.066 C 
ATOM     10  C   UNL     1      -2.890  -0.584  -2.586  1.00  0.00     0.262 C 
ATOM     11  C   UNL     1      -2.493   1.711  -1.843  1.00  0.00     0.262 C 
ATOM     12  N   UNL     1      -2.466   0.759  -2.951  1.00  0.00    -0.334 N 
ATOM     13  H   UNL     1      -3.198   1.097  -3.575  1.00  0.00     0.348 HD
BRANCH  12  14
ATOM     14  C   UNL     1      -1.264   0.817  -3.807  1.00  0.00     0.270 C 
BRANCH  14  15
ATOM     15  C   UNL     1       0.154   0.551  -3.258  1.00  0.00     0.079 C 
ATOM     16  C   UNL     1       0.562  -0.744  -2.459  1.00  0.00     0.050 C 
ATOM     17  C   UNL     1       0.593   1.315  -2.035  1.00  0.00    -0.036 A 
ATOM     18  C   UNL     1       0.852   0.176  -1.310  1.00  0.00    -0.043 A 
ATOM     19  C   UNL     1       0.729   2.574  -1.492  1.00  0.00     0.004 A 
ATOM     20  C   UNL     1       1.221   0.225   0.013  1.00  0.00     0.004 A 
ATOM     21  C   UNL     1       1.087   2.654  -0.143  1.00  0.00     0.000 A 
ATOM     22  C   UNL     1       1.321   1.486   0.607  1.00  0.00     0.000 A 
ENDBRANCH  14  15
ENDBRANCH  12  14
ENDBRANCH   6   7
ENDBRANCH   4   6
ENDBRANCH   1   2
BRANCH   1  23
ATOM     23  C   UNL     1      -1.801  -4.556   0.637  1.00  0.00     0.042 C 
BRANCH  23  24
ATOM     24  C   UNL     1      -3.144  -5.210   0.920  1.00  0.00     0.118 C 
BRANCH  24  25
ATOM     25  N   UNL     1      -3.825  -5.706  -0.269  1.00  0.00    -0.352 N 
ATOM     26  C   UNL     1      -4.517  -6.880  -0.444  1.00  0.00     0.251 C 
ATOM     27  H   UNL     1      -3.784  -5.117  -1.057  1.00  0.00     0.163 HD
ATOM     28  O   UNL     1      -4.964  -7.172  -1.550  1.00  0.00    -0.269 OA
BRANCH  26  29
ATOM     29  C   UNL     1      -4.685  -7.811   0.692  1.00  0.00     0.039 A 
ATOM     30  C   UNL     1      -4.438  -9.171   0.485  1.00  0.00     0.014 A 
ATOM     31  C   UNL     1      -5.052  -7.346   1.957  1.00  0.00     0.014 A 
ATOM     32  C   UNL     1      -4.489 -10.053   1.566  1.00  0.00     0.010 A 
ATOM     33  C   UNL     1      -5.021  -8.211   3.046  1.00  0.00     0.010 A 
ATOM     34  C   UNL     1      -4.743  -9.573   2.861  1.00  0.00    -0.014 A 
BRANCH  34  35
ATOM     35  C   UNL     1      -4.726 -10.481   4.034  1.00  0.00     0.031 A 
ATOM     36  C   UNL     1      -5.980 -10.707   4.831  1.00  0.00     0.074 A 
ATOM     37  C   UNL     1      -3.568 -11.053   4.419  1.00  0.00     0.049 A 
ATOM     38  N   UNL     1      -6.152 -11.424   5.913  1.00  0.00    -0.248 NA
ATOM     39  C   UNL     1      -7.194 -10.014   4.370  1.00  0.00     0.031 C 
ATOM     40  C   UNL     1      -2.271 -10.875   3.762  1.00  0.00     0.029 A 
ATOM     41  N   UNL     1      -3.297 -11.898   5.465  1.00  0.00    -0.354 N 
ATOM     42  C   UNL     1      -7.484 -11.252   6.270  1.00  0.00     0.074 A 
ATOM     43  C   UNL     1      -8.061 -10.325   5.322  1.00  0.00     0.031 C 
ATOM     44  C   UNL     1      -1.350 -11.614   4.401  1.00  0.00     0.029 A 
ATOM     45  C   UNL     1      -1.981 -12.288   5.531  1.00  0.00     0.049 A 
ATOM     46  H   UNL     1      -3.980 -12.197   6.108  1.00  0.00     0.167 HD
ATOM     47  C   UNL     1      -8.172 -11.830   7.283  1.00  0.00     0.031 A 
ATOM     48  C   UNL     1      -1.353 -13.099   6.403  1.00  0.00     0.031 A 
ATOM     49  C   UNL     1      -7.606 -12.765   8.216  1.00  0.00     0.049 A 
ATOM     50  C   UNL     1      -2.142 -13.736   7.512  1.00  0.00     0.074 A 
ATOM     51  C   UNL     1      -8.235 -13.449   9.241  1.00  0.00     0.029 A 
ATOM     52  N   UNL     1      -6.274 -13.150   8.235  1.00  0.00    -0.354 N 
ATOM     53  N   UNL     1      -3.416 -13.616   7.795  1.00  0.00    -0.248 NA
ATOM     54  C   UNL     1      -1.405 -14.633   8.414  1.00  0.00     0.031 C 
ATOM     55  C   UNL     1      -7.274 -14.218   9.907  1.00  0.00     0.029 A 
ATOM     56  C   UNL     1      -6.058 -14.050   9.264  1.00  0.00     0.049 A 
ATOM     57  H   UNL     1      -5.584 -12.830   7.609  1.00  0.00     0.167 HD
ATOM     58  C   UNL     1      -3.640 -14.443   8.888  1.00  0.00     0.074 A 
ATOM     59  C   UNL     1      -2.374 -15.070   9.206  1.00  0.00     0.031 C 
ATOM     60  C   UNL     1      -4.792 -14.664   9.567  1.00  0.00     0.031 A 
BRANCH  47  61
ATOM     61  C   UNL     1      -9.621 -11.458   7.430  1.00  0.00    -0.014 A 
ATOM     62  C   UNL     1     -10.580 -11.892   6.500  1.00  0.00     0.009 A 
ATOM     63  C   UNL     1     -10.037 -10.684   8.524  1.00  0.00     0.009 A 
ATOM     64  C   UNL     1     -11.919 -11.524   6.641  1.00  0.00     0.001 A 
ATOM     65  C   UNL     1     -11.382 -10.343   8.678  1.00  0.00     0.001 A 
ATOM     66  C   UNL     1     -12.320 -10.754   7.732  1.00  0.00     0.000 A 
ENDBRANCH  47  61
BRANCH  48  67
ATOM     67  C   UNL     1       0.097 -13.381   6.246  1.00  0.00    -0.014 A 
ATOM     68  C   UNL     1       0.531 -14.642   5.809  1.00  0.00     0.009 A 
ATOM     69  C   UNL     1       1.053 -12.397   6.539  1.00  0.00     0.009 A 
ATOM     70  C   UNL     1       1.894 -14.920   5.694  1.00  0.00     0.001 A 
ATOM     71  C   UNL     1       2.416 -12.670   6.398  1.00  0.00     0.001 A 
ATOM     72  C   UNL     1       2.835 -13.934   5.985  1.00  0.00     0.000 A 
ENDBRANCH  48  67
BRANCH  60  73
ATOM     73  C   UNL     1      -4.740 -15.653  10.696  1.00  0.00    -0.014 A 
ATOM     74  C   UNL     1      -4.110 -15.341  11.910  1.00  0.00     0.009 A 
ATOM     75  C   UNL     1      -5.359 -16.904  10.551  1.00  0.00     0.009 A 
ATOM     76  C   UNL     1      -4.069 -16.279  12.944  1.00  0.00     0.001 A 
ATOM     77  C   UNL     1      -5.341 -17.828  11.595  1.00  0.00     0.001 A 
ATOM     78  C   UNL     1      -4.687 -17.519  12.787  1.00  0.00     0.000 A 
ENDBRANCH  60  73
ENDBRANCH  34  35
ENDBRANCH  26  29
ENDBRANCH  24  25
ENDBRANCH  23  24
ENDBRANCH   1  23
TORSDOF 13
