REMARK SMILES CCCCCCNC(=O)Oc1cccc(-c2ccc(CC(=O)NCCCNC(=O)c3ccc(-c4c5nc(c(-c6ccccc6)c6ccc([nH]6)c(-c6ccccc6)c6nc(c(-c7ccccc7)c7ccc4[nH]7)C=C6)C=C5)cc3)cc2F)c1
REMARK SMILES IDX 16 1 17 2 18 3 19 4 78 5 79 6 80 7 15 8 11 9 12 10 81 11
REMARK SMILES IDX 13 12 14 13 10 14 8 15 7 16 9 18 6 19 5 20 4 21 3 22 2 23
REMARK SMILES IDX 1 24 20 25 21 26 22 27 23 28 24 30 25 31 26 32 27 33 28 34
REMARK SMILES IDX 29 36 30 37 31 38 77 39 32 40 76 41 33 42 34 43 35 44 70 45
REMARK SMILES IDX 36 46 75 47 69 48 71 49 37 50 74 51 68 52 67 53 38 55 60 56
REMARK SMILES IDX 45 57 59 58 46 59 49 60 58 61 72 62 47 63 48 64 57 66 73 67
REMARK SMILES IDX 50 68 39 69 40 70 44 71 41 72 43 73 42 74 61 75 62 76 66 77
REMARK SMILES IDX 63 78 65 79 64 80 51 81 52 82 56 83 53 84 55 85 54 86
REMARK H PARENT 7 17 23 29 27 35 71 54 49 65
REMARK Flexibility Score: inf
ROOT
ATOM      1  C   UNL     1      -4.918   6.468   7.555  1.00  0.00     0.018 A 
ATOM      2  C   UNL     1      -5.140   6.965   8.850  1.00  0.00     0.012 A 
ATOM      3  C   UNL     1      -5.037   8.333   9.130  1.00  0.00     0.005 A 
ATOM      4  C   UNL     1      -4.711   9.244   8.118  1.00  0.00    -0.036 A 
ATOM      5  C   UNL     1      -4.440   8.755   6.836  1.00  0.00     0.044 A 
ATOM      6  C   UNL     1      -4.556   7.393   6.565  1.00  0.00     0.131 A 
ATOM      7  F   UNL     1      -4.341   6.991   5.302  1.00  0.00    -0.206 F 
ENDROOT
BRANCH   1   8
ATOM      8  C   UNL     1      -5.066   5.034   7.250  1.00  0.00    -0.012 A 
ATOM      9  C   UNL     1      -4.234   2.991   6.231  1.00  0.00     0.133 A 
ATOM     10  C   UNL     1      -5.381   2.301   6.608  1.00  0.00     0.047 A 
ATOM     11  C   UNL     1      -4.077   4.345   6.532  1.00  0.00     0.056 A 
ATOM     12  C   UNL     1      -6.372   2.967   7.325  1.00  0.00     0.004 A 
ATOM     13  C   UNL     1      -6.214   4.320   7.644  1.00  0.00     0.009 A 
BRANCH   9  14
ATOM     14  O   UNL     1      -3.307   2.303   5.430  1.00  0.00    -0.410 OA
BRANCH  14  15
ATOM     15  C   UNL     1      -1.963   2.372   5.764  1.00  0.00     0.412 C 
ATOM     16  N   UNL     1      -1.148   1.758   4.856  1.00  0.00    -0.321 N 
ATOM     17  H   UNL     1      -0.183   1.773   5.050  1.00  0.00     0.167 HD
ATOM     18  O   UNL     1      -1.493   2.908   6.766  1.00  0.00    -0.224 OA
BRANCH  16  19
ATOM     19  C   UNL     1      -1.555   1.088   3.637  1.00  0.00     0.119 C 
BRANCH  19  20
ATOM     20  C   UNL     1      -0.943   1.735   2.395  1.00  0.00     0.021 C 
BRANCH  20  21
ATOM     21  C   UNL     1       0.587   1.664   2.316  1.00  0.00     0.002 C 
BRANCH  21  22
ATOM     22  C   UNL     1       1.188   0.254   2.353  1.00  0.00    -0.000 C 
BRANCH  22  23
ATOM     23  C   UNL     1       0.710  -0.695   1.252  1.00  0.00    -0.003 C 
ATOM     24  C   UNL     1       1.079  -0.229  -0.148  1.00  0.00     0.004 C 
ENDBRANCH  22  23
ENDBRANCH  21  22
ENDBRANCH  20  21
ENDBRANCH  19  20
ENDBRANCH  16  19
ENDBRANCH  14  15
ENDBRANCH   9  14
ENDBRANCH   1   8
BRANCH   4  25
ATOM     25  C   UNL     1      -4.662  10.726   8.394  1.00  0.00     0.135 C 
BRANCH  25  26
ATOM     26  C   UNL     1      -5.964  11.289   8.938  1.00  0.00     0.224 C 
ATOM     27  O   UNL     1      -6.068  11.646  10.113  1.00  0.00    -0.275 OA
ATOM     28  N   UNL     1      -7.048  11.429   8.120  1.00  0.00    -0.356 N 
ATOM     29  H   UNL     1      -7.830  11.866   8.527  1.00  0.00     0.163 HD
BRANCH  28  30
ATOM     30  C   UNL     1      -7.211  11.025   6.735  1.00  0.00     0.117 C 
BRANCH  30  31
ATOM     31  C   UNL     1      -7.999   9.723   6.599  1.00  0.00     0.042 C 
BRANCH  31  32
ATOM     32  C   UNL     1      -9.461   9.826   7.026  1.00  0.00     0.118 C 
BRANCH  32  33
ATOM     33  N   UNL     1     -10.232  10.728   6.183  1.00  0.00    -0.352 N 
ATOM     34  C   UNL     1     -11.391  10.519   5.479  1.00  0.00     0.251 C 
ATOM     35  H   UNL     1      -9.861  11.637   6.105  1.00  0.00     0.163 HD
ATOM     36  O   UNL     1     -11.779  11.377   4.691  1.00  0.00    -0.269 OA
BRANCH  34  37
ATOM     37  C   UNL     1     -12.172   9.272   5.643  1.00  0.00     0.039 A 
ATOM     38  C   UNL     1     -12.743   8.689   4.507  1.00  0.00     0.014 A 
ATOM     39  C   UNL     1     -12.394   8.706   6.901  1.00  0.00     0.014 A 
ATOM     40  C   UNL     1     -13.487   7.512   4.624  1.00  0.00     0.010 A 
ATOM     41  C   UNL     1     -13.081   7.498   7.010  1.00  0.00     0.010 A 
ATOM     42  C   UNL     1     -13.638   6.891   5.874  1.00  0.00    -0.014 A 
BRANCH  42  43
ATOM     43  C   UNL     1     -14.374   5.609   6.011  1.00  0.00     0.031 A 
ATOM     44  C   UNL     1     -15.659   5.549   6.790  1.00  0.00     0.074 A 
ATOM     45  C   UNL     1     -13.857   4.484   5.482  1.00  0.00     0.049 A 
ATOM     46  N   UNL     1     -16.406   4.511   7.072  1.00  0.00    -0.248 NA
ATOM     47  C   UNL     1     -16.158   6.818   7.343  1.00  0.00     0.031 C 
ATOM     48  C   UNL     1     -12.608   4.399   4.724  1.00  0.00     0.029 A 
ATOM     49  N   UNL     1     -14.320   3.192   5.508  1.00  0.00    -0.354 N 
ATOM     50  C   UNL     1     -17.451   4.998   7.849  1.00  0.00     0.074 A 
ATOM     51  C   UNL     1     -17.217   6.415   8.029  1.00  0.00     0.031 C 
ATOM     52  C   UNL     1     -12.418   3.128   4.333  1.00  0.00     0.029 A 
ATOM     53  C   UNL     1     -13.508   2.304   4.846  1.00  0.00     0.049 A 
ATOM     54  H   UNL     1     -15.155   2.927   5.957  1.00  0.00     0.167 HD
ATOM     55  C   UNL     1     -18.517   4.331   8.354  1.00  0.00     0.031 A 
ATOM     56  C   UNL     1     -13.623   0.974   4.675  1.00  0.00     0.031 A 
ATOM     57  C   UNL     1     -18.756   2.925   8.171  1.00  0.00     0.049 A 
ATOM     58  C   UNL     1     -14.802   0.253   5.264  1.00  0.00     0.074 A 
ATOM     59  C   UNL     1     -19.832   2.169   8.604  1.00  0.00     0.029 A 
ATOM     60  N   UNL     1     -17.906   2.061   7.499  1.00  0.00    -0.354 N 
ATOM     61  N   UNL     1     -15.805   0.736   5.954  1.00  0.00    -0.248 NA
ATOM     62  C   UNL     1     -14.864  -1.199   5.043  1.00  0.00     0.031 C 
ATOM     63  C   UNL     1     -19.611   0.838   8.231  1.00  0.00     0.029 A 
ATOM     64  C   UNL     1     -18.421   0.776   7.523  1.00  0.00     0.049 A 
ATOM     65  H   UNL     1     -17.060   2.322   7.068  1.00  0.00     0.167 HD
ATOM     66  C   UNL     1     -16.633  -0.345   6.226  1.00  0.00     0.074 A 
ATOM     67  C   UNL     1     -16.019  -1.508   5.617  1.00  0.00     0.031 C 
ATOM     68  C   UNL     1     -17.799  -0.371   6.916  1.00  0.00     0.031 A 
BRANCH  55  69
ATOM     69  C   UNL     1     -19.500   5.125   9.167  1.00  0.00    -0.014 A 
ATOM     70  C   UNL     1     -20.351   6.066   8.563  1.00  0.00     0.009 A 
ATOM     71  C   UNL     1     -19.592   4.919  10.552  1.00  0.00     0.009 A 
ATOM     72  C   UNL     1     -21.243   6.812   9.336  1.00  0.00     0.001 A 
ATOM     73  C   UNL     1     -20.504   5.646  11.318  1.00  0.00     0.001 A 
ATOM     74  C   UNL     1     -21.321   6.600  10.712  1.00  0.00     0.000 A 
ENDBRANCH  55  69
BRANCH  56  75
ATOM     75  C   UNL     1     -12.601   0.238   3.888  1.00  0.00    -0.014 A 
ATOM     76  C   UNL     1     -12.908  -0.244   2.607  1.00  0.00     0.009 A 
ATOM     77  C   UNL     1     -11.317   0.017   4.408  1.00  0.00     0.009 A 
ATOM     78  C   UNL     1     -11.956  -0.951   1.870  1.00  0.00     0.001 A 
ATOM     79  C   UNL     1     -10.358  -0.668   3.659  1.00  0.00     0.001 A 
ATOM     80  C   UNL     1     -10.681  -1.158   2.394  1.00  0.00     0.000 A 
ENDBRANCH  56  75
BRANCH  68  81
ATOM     81  C   UNL     1     -18.503  -1.694   7.020  1.00  0.00    -0.014 A 
ATOM     82  C   UNL     1     -18.026  -2.709   7.863  1.00  0.00     0.009 A 
ATOM     83  C   UNL     1     -19.681  -1.912   6.289  1.00  0.00     0.009 A 
ATOM     84  C   UNL     1     -18.700  -3.929   7.948  1.00  0.00     0.001 A 
ATOM     85  C   UNL     1     -20.367  -3.123   6.395  1.00  0.00     0.001 A 
ATOM     86  C   UNL     1     -19.871  -4.133   7.218  1.00  0.00     0.000 A 
ENDBRANCH  68  81
ENDBRANCH  42  43
ENDBRANCH  34  37
ENDBRANCH  32  33
ENDBRANCH  31  32
ENDBRANCH  30  31
ENDBRANCH  28  30
ENDBRANCH  25  26
ENDBRANCH   4  25
TORSDOF 19
