REMARK SMILES Nn1c(S[C@@H](C(=O)NCCCNC(=O)c2ccc(-c3c4nc(c(-c5ccccc5)c5ccc([nH]5)c(-c5ccccc5)c5nc(c(-c6ccccc6)c6ccc3[nH]6)C=C5)C=C4)cc2)c2ccccc2)nc2ccc(Br)cc2c1=O
REMARK SMILES IDX 9 1 8 2 6 3 7 4 5 6 4 7 3 8 2 9 77 10 69 11 76 12 78 13
REMARK SMILES IDX 70 14 75 15 71 16 73 17 72 18 74 19 1 20 63 23 64 24 68 25
REMARK SMILES IDX 65 26 67 27 66 28 10 29 11 30 12 31 13 32 14 34 15 35 16 36
REMARK SMILES IDX 62 37 17 38 61 39 18 40 19 41 20 42 55 43 21 44 60 45 54 46
REMARK SMILES IDX 56 47 22 48 59 49 53 50 52 51 23 53 45 54 30 55 44 56 31 57
REMARK SMILES IDX 34 58 43 59 57 60 32 61 33 62 42 64 58 65 35 66 24 67 25 68
REMARK SMILES IDX 29 69 26 70 28 71 27 72 46 73 47 74 51 75 48 76 50 77 49 78
REMARK SMILES IDX 36 79 37 80 41 81 38 82 40 83 39 84
REMARK H PARENT 8 5 1 21 1 22 12 33 56 52 34 63
REMARK Flexibility Score: inf
ROOT
ATOM      1  C   UNL     1       5.237  -1.660  -1.657  1.00  0.00     0.117 C 
ENDROOT
BRANCH   1   2
ATOM      2  N   UNL     1       4.650  -0.444  -1.120  1.00  0.00    -0.355 N 
ATOM      3  C   UNL     1       3.586  -0.233  -0.281  1.00  0.00     0.238 C 
ATOM      4  O   UNL     1       3.313   0.961  -0.113  1.00  0.00    -0.273 OA
ATOM      5  H   UNL     1       5.101   0.381  -1.412  1.00  0.00     0.163 HD
BRANCH   3   6
ATOM      6  C   UNL     1       2.838  -1.422   0.380  1.00  0.00     0.174 C 
BRANCH   6   7
ATOM      7  S   UNL     1       1.967  -2.382  -0.891  1.00  0.00    -0.068 SA
BRANCH   7   8
ATOM      8  C   UNL     1       0.512  -1.620  -1.487  1.00  0.00     0.191 A 
ATOM      9  N   UNL     1       0.055  -0.341  -1.181  1.00  0.00    -0.202 N 
ATOM     10  C   UNL     1      -1.110   0.188  -1.748  1.00  0.00     0.280 A 
ATOM     11  N   UNL     1      -0.125  -2.394  -2.313  1.00  0.00    -0.222 NA
ATOM     12  C   UNL     1      -1.849  -0.695  -2.654  1.00  0.00     0.069 A 
ATOM     13  O   UNL     1      -1.532   1.321  -1.511  1.00  0.00    -0.267 OA
ATOM     14  C   UNL     1      -1.321  -1.960  -2.890  1.00  0.00     0.079 A 
ATOM     15  C   UNL     1      -3.054  -0.285  -3.234  1.00  0.00     0.031 A 
ATOM     16  C   UNL     1      -2.020  -2.833  -3.726  1.00  0.00     0.030 A 
ATOM     17  C   UNL     1      -3.739  -1.169  -4.060  1.00  0.00     0.018 A 
ATOM     18  C   UNL     1      -3.229  -2.442  -4.310  1.00  0.00     0.018 A 
ATOM     19  Br  UNL     1      -5.378  -0.644  -4.839  1.00  0.00    -0.051 Br
BRANCH   9  20
ATOM     20  N   UNL     1       0.673   0.491  -0.243  1.00  0.00    -0.334 N 
ATOM     21  H   UNL     1       1.498   0.198   0.206  1.00  0.00     0.178 HD
ATOM     22  H   UNL     1       0.283   1.369  -0.032  1.00  0.00     0.178 HD
ENDBRANCH   9  20
ENDBRANCH   7   8
ENDBRANCH   6   7
BRANCH   6  23
ATOM     23  C   UNL     1       2.048  -1.218   1.683  1.00  0.00    -0.025 A 
ATOM     24  C   UNL     1       1.248  -2.263   2.194  1.00  0.00     0.005 A 
ATOM     25  C   UNL     1       2.090  -0.027   2.428  1.00  0.00     0.005 A 
ATOM     26  C   UNL     1       0.440  -2.084   3.320  1.00  0.00     0.000 A 
ATOM     27  C   UNL     1       1.272   0.157   3.549  1.00  0.00     0.000 A 
ATOM     28  C   UNL     1       0.435  -0.864   3.984  1.00  0.00     0.000 A 
ENDBRANCH   6  23
ENDBRANCH   3   6
ENDBRANCH   1   2
BRANCH   1  29
ATOM     29  C   UNL     1       4.806  -1.938  -3.098  1.00  0.00     0.042 C 
BRANCH  29  30
ATOM     30  C   UNL     1       5.039  -0.791  -4.078  1.00  0.00     0.118 C 
BRANCH  30  31
ATOM     31  N   UNL     1       6.447  -0.510  -4.319  1.00  0.00    -0.352 N 
ATOM     32  C   UNL     1       7.174  -0.558  -5.485  1.00  0.00     0.251 C 
ATOM     33  H   UNL     1       6.958  -0.242  -3.521  1.00  0.00     0.163 HD
ATOM     34  O   UNL     1       8.392  -0.404  -5.450  1.00  0.00    -0.269 OA
BRANCH  32  35
ATOM     35  C   UNL     1       6.509  -0.842  -6.776  1.00  0.00     0.039 A 
ATOM     36  C   UNL     1       5.320  -0.204  -7.136  1.00  0.00     0.014 A 
ATOM     37  C   UNL     1       7.088  -1.776  -7.641  1.00  0.00     0.014 A 
ATOM     38  C   UNL     1       4.620  -0.631  -8.263  1.00  0.00     0.010 A 
ATOM     39  C   UNL     1       6.423  -2.146  -8.813  1.00  0.00     0.010 A 
ATOM     40  C   UNL     1       5.155  -1.621  -9.103  1.00  0.00    -0.014 A 
BRANCH  40  41
ATOM     41  C   UNL     1       4.362  -2.126 -10.255  1.00  0.00     0.031 A 
ATOM     42  C   UNL     1       3.872  -3.551 -10.275  1.00  0.00     0.074 A 
ATOM     43  C   UNL     1       4.038  -1.294 -11.263  1.00  0.00     0.049 A 
ATOM     44  N   UNL     1       3.167  -4.167 -11.192  1.00  0.00    -0.248 NA
ATOM     45  C   UNL     1       4.215  -4.397  -9.120  1.00  0.00     0.031 C 
ATOM     46  C   UNL     1       4.421   0.116 -11.347  1.00  0.00     0.029 A 
ATOM     47  N   UNL     1       3.294  -1.506 -12.397  1.00  0.00    -0.354 N 
ATOM     48  C   UNL     1       3.004  -5.469 -10.736  1.00  0.00     0.074 A 
ATOM     49  C   UNL     1       3.701  -5.567  -9.474  1.00  0.00     0.031 C 
ATOM     50  C   UNL     1       3.868   0.655 -12.444  1.00  0.00     0.029 A 
ATOM     51  C   UNL     1       3.146  -0.383 -13.175  1.00  0.00     0.049 A 
ATOM     52  H   UNL     1       2.905  -2.379 -12.631  1.00  0.00     0.167 HD
ATOM     53  C   UNL     1       2.324  -6.489 -11.312  1.00  0.00     0.031 A 
ATOM     54  C   UNL     1       2.513  -0.205 -14.350  1.00  0.00     0.031 A 
ATOM     55  C   UNL     1       1.610  -6.387 -12.556  1.00  0.00     0.049 A 
ATOM     56  C   UNL     1       1.819  -1.368 -14.999  1.00  0.00     0.074 A 
ATOM     57  C   UNL     1       0.865  -7.362 -13.197  1.00  0.00     0.029 A 
ATOM     58  N   UNL     1       1.549  -5.250 -13.345  1.00  0.00    -0.354 N 
ATOM     59  N   UNL     1       1.669  -2.590 -14.550  1.00  0.00    -0.248 NA
ATOM     60  C   UNL     1       1.214  -1.133 -16.319  1.00  0.00     0.031 C 
ATOM     61  C   UNL     1       0.401  -6.832 -14.403  1.00  0.00     0.029 A 
ATOM     62  C   UNL     1       0.804  -5.509 -14.482  1.00  0.00     0.049 A 
ATOM     63  H   UNL     1       1.972  -4.388 -13.128  1.00  0.00     0.167 HD
ATOM     64  C   UNL     1       0.941  -3.265 -15.521  1.00  0.00     0.074 A 
ATOM     65  C   UNL     1       0.667  -2.314 -16.579  1.00  0.00     0.031 C 
ATOM     66  C   UNL     1       0.538  -4.558 -15.530  1.00  0.00     0.031 A 
BRANCH  53  67
ATOM     67  C   UNL     1       2.321  -7.822 -10.616  1.00  0.00    -0.014 A 
ATOM     68  C   UNL     1       3.013  -8.903 -11.187  1.00  0.00     0.009 A 
ATOM     69  C   UNL     1       1.558  -8.038  -9.460  1.00  0.00     0.009 A 
ATOM     70  C   UNL     1       2.931 -10.176 -10.620  1.00  0.00     0.001 A 
ATOM     71  C   UNL     1       1.498  -9.307  -8.880  1.00  0.00     0.001 A 
ATOM     72  C   UNL     1       2.177 -10.376  -9.465  1.00  0.00     0.000 A 
ENDBRANCH  53  67
BRANCH  54  73
ATOM     73  C   UNL     1       2.511   1.141 -14.980  1.00  0.00    -0.014 A 
ATOM     74  C   UNL     1       3.698   1.692 -15.492  1.00  0.00     0.009 A 
ATOM     75  C   UNL     1       1.336   1.905 -15.023  1.00  0.00     0.009 A 
ATOM     76  C   UNL     1       3.714   2.990 -16.007  1.00  0.00     0.001 A 
ATOM     77  C   UNL     1       1.349   3.192 -15.565  1.00  0.00     0.001 A 
ATOM     78  C   UNL     1       2.539   3.737 -16.046  1.00  0.00     0.000 A 
ENDBRANCH  54  73
BRANCH  66  79
ATOM     79  C   UNL     1      -0.258  -5.042 -16.707  1.00  0.00    -0.014 A 
ATOM     80  C   UNL     1      -1.620  -5.344 -16.550  1.00  0.00     0.009 A 
ATOM     81  C   UNL     1       0.365  -5.319 -17.933  1.00  0.00     0.009 A 
ATOM     82  C   UNL     1      -2.339  -5.935 -17.589  1.00  0.00     0.001 A 
ATOM     83  C   UNL     1      -0.364  -5.887 -18.980  1.00  0.00     0.001 A 
ATOM     84  C   UNL     1      -1.711  -6.205 -18.804  1.00  0.00     0.000 A 
ENDBRANCH  66  79
ENDBRANCH  40  41
ENDBRANCH  32  35
ENDBRANCH  30  31
ENDBRANCH  29  30
ENDBRANCH   1  29
TORSDOF 14
