REMARK SMILES CC(C)(C)[NH2+]Cc1cc(C(=O)NCCCNC(=O)c2ccc(-c3c4nc(c(-c5ccccc5)c5ccc([nH]5)c(-c5ccccc5)c5nc(c(-c6ccccc6)c6ccc3[nH]6)C=C5)C=C4)cc2)cs1
REMARK SMILES IDX 13 1 12 2 10 3 11 4 9 6 7 7 8 8 68 9 67 10 6 11 5 12 2 15
REMARK SMILES IDX 1 16 3 17 4 18 14 19 15 20 16 21 17 22 18 24 19 25 20 26
REMARK SMILES IDX 66 27 21 28 65 29 22 30 23 31 24 32 59 33 25 34 64 35 58 36
REMARK SMILES IDX 60 37 26 38 63 39 57 40 56 41 27 43 49 44 34 45 48 46 35 47
REMARK SMILES IDX 38 48 47 49 61 50 36 51 37 52 46 54 62 55 39 56 28 57 29 58
REMARK SMILES IDX 33 59 30 60 32 61 31 62 50 63 51 64 55 65 52 66 54 67 53 68
REMARK SMILES IDX 40 69 41 70 45 71 42 72 44 73 43 74
REMARK H PARENT 12 5 5 13 5 14 16 23 60 42 38 53
REMARK Flexibility Score: inf
ROOT
ATOM      1  C   UNL     1       7.040  -2.268  -0.818  1.00  0.00     0.118 C 
ENDROOT
BRANCH   1   2
ATOM      2  N   UNL     1       6.621  -3.630  -0.546  1.00  0.00    -0.352 N 
ATOM      3  C   UNL     1       5.530  -4.332  -0.994  1.00  0.00     0.252 C 
ATOM      4  O   UNL     1       5.497  -5.541  -0.771  1.00  0.00    -0.269 OA
ATOM      5  H   UNL     1       7.216  -4.132   0.057  1.00  0.00     0.163 HD
BRANCH   3   6
ATOM      6  C   UNL     1       4.473  -3.659  -1.744  1.00  0.00     0.051 A 
ATOM      7  C   UNL     1       2.940  -2.024  -2.470  1.00  0.00     0.059 A 
ATOM      8  C   UNL     1       3.945  -2.336  -1.574  1.00  0.00     0.035 A 
ATOM      9  S   UNL     1       2.617  -3.337  -3.519  1.00  0.00    -0.142 S 
ATOM     10  C   UNL     1       3.774  -4.320  -2.740  1.00  0.00     0.079 A 
BRANCH   7  11
ATOM     11  C   UNL     1       2.183  -0.737  -2.595  1.00  0.00     0.308 C 
BRANCH  11  12
ATOM     12  N   UNL     1       0.755  -0.859  -2.321  1.00  0.00    -0.338 N 
ATOM     13  H   UNL     1       0.307  -0.021  -2.692  1.00  0.00     0.347 HD
ATOM     14  H   UNL     1       0.500  -1.746  -2.755  1.00  0.00     0.347 HD
BRANCH  12  15
ATOM     15  C   UNL     1       0.300  -1.009  -0.929  1.00  0.00     0.088 C 
ATOM     16  C   UNL     1       0.917   0.030   0.021  1.00  0.00     0.078 C 
ATOM     17  C   UNL     1       0.535  -2.424  -0.374  1.00  0.00     0.078 C 
ATOM     18  C   UNL     1      -1.223  -0.773  -0.978  1.00  0.00     0.078 C 
ENDBRANCH  12  15
ENDBRANCH  11  12
ENDBRANCH   7  11
ENDBRANCH   3   6
ENDBRANCH   1   2
BRANCH   1  19
ATOM     19  C   UNL     1       6.946  -1.390   0.427  1.00  0.00     0.042 C 
BRANCH  19  20
ATOM     20  C   UNL     1       8.050  -1.662   1.448  1.00  0.00     0.118 C 
BRANCH  20  21
ATOM     21  N   UNL     1       9.360  -1.263   0.956  1.00  0.00    -0.352 N 
ATOM     22  C   UNL     1      10.318  -0.465   1.527  1.00  0.00     0.251 C 
ATOM     23  H   UNL     1       9.597  -1.624   0.071  1.00  0.00     0.163 HD
ATOM     24  O   UNL     1      11.273  -0.096   0.849  1.00  0.00    -0.269 OA
BRANCH  22  25
ATOM     25  C   UNL     1      10.216  -0.037   2.939  1.00  0.00     0.039 A 
ATOM     26  C   UNL     1      10.622   1.260   3.273  1.00  0.00     0.014 A 
ATOM     27  C   UNL     1       9.799  -0.916   3.943  1.00  0.00     0.014 A 
ATOM     28  C   UNL     1      10.576   1.686   4.601  1.00  0.00     0.010 A 
ATOM     29  C   UNL     1       9.695  -0.470   5.260  1.00  0.00     0.010 A 
ATOM     30  C   UNL     1      10.094   0.830   5.603  1.00  0.00    -0.014 A 
BRANCH  30  31
ATOM     31  C   UNL     1      10.025   1.274   7.017  1.00  0.00     0.031 A 
ATOM     32  C   UNL     1      10.904   0.635   8.057  1.00  0.00     0.074 A 
ATOM     33  C   UNL     1       9.138   2.222   7.375  1.00  0.00     0.049 A 
ATOM     34  N   UNL     1      10.956   0.860   9.346  1.00  0.00    -0.248 NA
ATOM     35  C   UNL     1      11.832  -0.408   7.591  1.00  0.00     0.031 C 
ATOM     36  C   UNL     1       8.208   2.898   6.468  1.00  0.00     0.029 A 
ATOM     37  N   UNL     1       8.873   2.779   8.600  1.00  0.00    -0.354 N 
ATOM     38  C   UNL     1      11.903  -0.025   9.845  1.00  0.00     0.074 A 
ATOM     39  C   UNL     1      12.372  -0.818   8.729  1.00  0.00     0.031 C 
ATOM     40  C   UNL     1       7.495   3.798   7.163  1.00  0.00     0.029 A 
ATOM     41  C   UNL     1       7.892   3.739   8.566  1.00  0.00     0.049 A 
ATOM     42  H   UNL     1       9.343   2.517   9.425  1.00  0.00     0.167 HD
ATOM     43  C   UNL     1      12.357  -0.155  11.115  1.00  0.00     0.031 A 
ATOM     44  C   UNL     1       7.370   4.488   9.555  1.00  0.00     0.031 A 
ATOM     45  C   UNL     1      11.905   0.644  12.223  1.00  0.00     0.049 A 
ATOM     46  C   UNL     1       7.889   4.325  10.955  1.00  0.00     0.074 A 
ATOM     47  C   UNL     1      12.340   0.622  13.537  1.00  0.00     0.029 A 
ATOM     48  N   UNL     1      10.915   1.611  12.144  1.00  0.00    -0.354 N 
ATOM     49  N   UNL     1       8.824   3.522  11.401  1.00  0.00    -0.248 NA
ATOM     50  C   UNL     1       7.288   5.183  11.986  1.00  0.00     0.031 C 
ATOM     51  C   UNL     1      11.586   1.551  14.262  1.00  0.00     0.029 A 
ATOM     52  C   UNL     1      10.714   2.182  13.389  1.00  0.00     0.049 A 
ATOM     53  H   UNL     1      10.428   1.855  11.325  1.00  0.00     0.167 HD
ATOM     54  C   UNL     1       8.942   3.795  12.757  1.00  0.00     0.074 A 
ATOM     55  C   UNL     1       7.992   4.846  13.058  1.00  0.00     0.031 C 
ATOM     56  C   UNL     1       9.766   3.227  13.671  1.00  0.00     0.031 A 
BRANCH  43  57
ATOM     57  C   UNL     1      13.396  -1.210  11.371  1.00  0.00    -0.014 A 
ATOM     58  C   UNL     1      14.714  -1.059  10.911  1.00  0.00     0.009 A 
ATOM     59  C   UNL     1      13.059  -2.360  12.102  1.00  0.00     0.009 A 
ATOM     60  C   UNL     1      15.664  -2.054  11.146  1.00  0.00     0.001 A 
ATOM     61  C   UNL     1      14.018  -3.342  12.359  1.00  0.00     0.001 A 
ATOM     62  C   UNL     1      15.316  -3.193  11.872  1.00  0.00     0.000 A 
ENDBRANCH  43  57
BRANCH  44  63
ATOM     63  C   UNL     1       6.311   5.484   9.250  1.00  0.00    -0.014 A 
ATOM     64  C   UNL     1       6.605   6.856   9.263  1.00  0.00     0.009 A 
ATOM     65  C   UNL     1       5.006   5.069   8.942  1.00  0.00     0.009 A 
ATOM     66  C   UNL     1       5.607   7.795   8.995  1.00  0.00     0.001 A 
ATOM     67  C   UNL     1       4.017   6.010   8.650  1.00  0.00     0.001 A 
ATOM     68  C   UNL     1       4.315   7.371   8.684  1.00  0.00     0.000 A 
ENDBRANCH  44  63
BRANCH  56  69
ATOM     69  C   UNL     1       9.698   3.756  15.074  1.00  0.00    -0.014 A 
ATOM     70  C   UNL     1       8.623   3.440  15.919  1.00  0.00     0.009 A 
ATOM     71  C   UNL     1      10.744   4.551  15.567  1.00  0.00     0.009 A 
ATOM     72  C   UNL     1       8.583   3.937  17.223  1.00  0.00     0.001 A 
ATOM     73  C   UNL     1      10.713   5.025  16.879  1.00  0.00     0.001 A 
ATOM     74  C   UNL     1       9.630   4.725  17.703  1.00  0.00     0.000 A 
ENDBRANCH  56  69
ENDBRANCH  30  31
ENDBRANCH  22  25
ENDBRANCH  20  21
ENDBRANCH  19  20
ENDBRANCH   1  19
TORSDOF 13
