REMARK SMILES O=C(NCCCNC(=O)c1cc(-c2cccc(Cl)c2)oc1C(F)(F)F)c1ccc(-c2c3nc(c(-c4ccccc4)c4ccc([nH]4)c(-c4ccccc4)c4nc(c(-c5ccccc5)c5ccc2[nH]5)C=C4)C=C3)cc1
REMARK SMILES IDX 4 1 3 2 1 3 2 4 26 6 27 7 73 8 28 9 72 10 29 11 30 12 31 13
REMARK SMILES IDX 66 14 32 15 71 16 65 17 67 18 33 19 70 20 64 21 63 22 34 24
REMARK SMILES IDX 56 25 41 26 55 27 42 28 45 29 54 30 68 31 43 32 44 33 53 35
REMARK SMILES IDX 69 36 46 37 35 38 36 39 40 40 37 41 39 42 38 43 57 44 58 45
REMARK SMILES IDX 62 46 59 47 61 48 60 49 47 50 48 51 52 52 49 53 51 54 50 55
REMARK SMILES IDX 5 56 6 57 7 58 8 59 9 61 10 62 11 63 21 64 12 65 20 66 22 67
REMARK SMILES IDX 23 68 24 69 25 70 13 71 14 72 19 73 15 74 17 75 16 76 18 77
REMARK H PARENT 3 5 67 23 45 34 7 60
REMARK Flexibility Score: inf
ROOT
ATOM      1  C   UNL     1       4.618   1.416   0.263  1.00  0.00     0.118 C 
ENDROOT
BRANCH   1   2
ATOM      2  N   UNL     1       3.213   1.056   0.392  1.00  0.00    -0.352 N 
ATOM      3  O   UNL     1       1.325  -0.115   0.095  1.00  0.00    -0.269 OA
ATOM      4  C   UNL     1       2.553  -0.107   0.087  1.00  0.00     0.251 C 
ATOM      5  H   UNL     1       2.641   1.767   0.760  1.00  0.00     0.163 HD
BRANCH   4   6
ATOM      6  C   UNL     1       3.287  -1.346  -0.256  1.00  0.00     0.039 A 
ATOM      7  C   UNL     1       4.438  -1.730   0.437  1.00  0.00     0.014 A 
ATOM      8  C   UNL     1       2.755  -2.192  -1.237  1.00  0.00     0.014 A 
ATOM      9  C   UNL     1       5.111  -2.897   0.079  1.00  0.00     0.010 A 
ATOM     10  C   UNL     1       3.395  -3.394  -1.553  1.00  0.00     0.010 A 
ATOM     11  C   UNL     1       4.589  -3.747  -0.910  1.00  0.00    -0.014 A 
BRANCH  11  12
ATOM     12  C   UNL     1       5.274  -5.029  -1.204  1.00  0.00     0.031 A 
ATOM     13  C   UNL     1       5.977  -5.255  -2.512  1.00  0.00     0.074 A 
ATOM     14  C   UNL     1       5.285  -5.991  -0.261  1.00  0.00     0.049 A 
ATOM     15  N   UNL     1       6.673  -6.294  -2.900  1.00  0.00    -0.248 NA
ATOM     16  C   UNL     1       5.883  -4.184  -3.516  1.00  0.00     0.031 C 
ATOM     17  C   UNL     1       4.621  -5.904   1.042  1.00  0.00     0.029 A 
ATOM     18  N   UNL     1       5.895  -7.219  -0.243  1.00  0.00    -0.354 N 
ATOM     19  C   UNL     1       7.084  -6.013  -4.196  1.00  0.00     0.074 A 
ATOM     20  C   UNL     1       6.550  -4.711  -4.535  1.00  0.00     0.031 C 
ATOM     21  C   UNL     1       4.904  -7.007   1.752  1.00  0.00     0.029 A 
ATOM     22  C   UNL     1       5.736  -7.891   0.944  1.00  0.00     0.049 A 
ATOM     23  H   UNL     1       6.399  -7.583  -1.007  1.00  0.00     0.167 HD
ATOM     24  C   UNL     1       7.841  -6.769  -5.027  1.00  0.00     0.031 A 
ATOM     25  C   UNL     1       6.210  -9.084   1.342  1.00  0.00     0.031 A 
ATOM     26  C   UNL     1       8.391  -8.055  -4.692  1.00  0.00     0.049 A 
ATOM     27  C   UNL     1       7.059  -9.892   0.408  1.00  0.00     0.074 A 
ATOM     28  C   UNL     1       9.203  -8.872  -5.460  1.00  0.00     0.029 A 
ATOM     29  N   UNL     1       8.187  -8.710  -3.489  1.00  0.00    -0.354 N 
ATOM     30  N   UNL     1       7.464  -9.594  -0.801  1.00  0.00    -0.248 NA
ATOM     31  C   UNL     1       7.512 -11.203   0.895  1.00  0.00     0.031 C 
ATOM     32  C   UNL     1       9.470 -10.036  -4.729  1.00  0.00     0.029 A 
ATOM     33  C   UNL     1       8.843  -9.929  -3.499  1.00  0.00     0.049 A 
ATOM     34  H   UNL     1       7.654  -8.361  -2.738  1.00  0.00     0.167 HD
ATOM     35  C   UNL     1       8.218 -10.678  -1.223  1.00  0.00     0.074 A 
ATOM     36  C   UNL     1       8.234 -11.632  -0.132  1.00  0.00     0.031 C 
ATOM     37  C   UNL     1       8.838 -10.869  -2.411  1.00  0.00     0.031 A 
BRANCH  24  38
ATOM     38  C   UNL     1       8.111  -6.225  -6.398  1.00  0.00    -0.014 A 
ATOM     39  C   UNL     1       9.103  -5.256  -6.608  1.00  0.00     0.009 A 
ATOM     40  C   UNL     1       7.398  -6.726  -7.498  1.00  0.00     0.009 A 
ATOM     41  C   UNL     1       9.365  -4.785  -7.896  1.00  0.00     0.001 A 
ATOM     42  C   UNL     1       7.672  -6.262  -8.786  1.00  0.00     0.001 A 
ATOM     43  C   UNL     1       8.652  -5.290  -8.983  1.00  0.00     0.000 A 
ENDBRANCH  24  38
BRANCH  25  44
ATOM     44  C   UNL     1       5.894  -9.581   2.703  1.00  0.00    -0.014 A 
ATOM     45  C   UNL     1       6.861  -9.530   3.717  1.00  0.00     0.009 A 
ATOM     46  C   UNL     1       4.619 -10.087   2.996  1.00  0.00     0.009 A 
ATOM     47  C   UNL     1       6.559  -9.989   5.000  1.00  0.00     0.001 A 
ATOM     48  C   UNL     1       4.315 -10.528   4.284  1.00  0.00     0.001 A 
ATOM     49  C   UNL     1       5.286 -10.483   5.284  1.00  0.00     0.000 A 
ENDBRANCH  25  44
BRANCH  37  50
ATOM     50  C   UNL     1       9.577 -12.160  -2.587  1.00  0.00    -0.014 A 
ATOM     51  C   UNL     1       8.887 -13.342  -2.897  1.00  0.00     0.009 A 
ATOM     52  C   UNL     1      10.974 -12.193  -2.461  1.00  0.00     0.009 A 
ATOM     53  C   UNL     1       9.583 -14.541  -3.054  1.00  0.00     0.001 A 
ATOM     54  C   UNL     1      11.667 -13.391  -2.633  1.00  0.00     0.001 A 
ATOM     55  C   UNL     1      10.971 -14.565  -2.923  1.00  0.00     0.000 A 
ENDBRANCH  37  50
ENDBRANCH  11  12
ENDBRANCH   4   6
ENDBRANCH   1   2
BRANCH   1  56
ATOM     56  C   UNL     1       4.834   2.592  -0.686  1.00  0.00     0.042 C 
BRANCH  56  57
ATOM     57  C   UNL     1       4.197   3.899  -0.222  1.00  0.00     0.118 C 
BRANCH  57  58
ATOM     58  N   UNL     1       4.823   4.421   0.985  1.00  0.00    -0.352 N 
ATOM     59  C   UNL     1       5.763   5.407   1.133  1.00  0.00     0.255 C 
ATOM     60  H   UNL     1       4.524   4.000   1.824  1.00  0.00     0.163 HD
ATOM     61  O   UNL     1       6.344   5.526   2.210  1.00  0.00    -0.269 OA
BRANCH  59  62
ATOM     62  C   UNL     1       6.058   6.275   0.016  1.00  0.00     0.091 A 
ATOM     63  C   UNL     1       5.176   6.944  -0.879  1.00  0.00     0.065 A 
ATOM     64  C   UNL     1       7.333   6.680  -0.343  1.00  0.00     0.221 A 
ATOM     65  C   UNL     1       5.959   7.610  -1.794  1.00  0.00     0.135 A 
ATOM     66  O   UNL     1       7.274   7.460  -1.468  1.00  0.00    -0.451 OA
BRANCH  64  67
ATOM     67  C   UNL     1       8.673   6.404   0.235  1.00  0.00     0.450 C 
ATOM     68  F   UNL     1       9.670   6.566  -0.676  1.00  0.00    -0.163 F 
ATOM     69  F   UNL     1       8.962   7.225   1.276  1.00  0.00    -0.163 F 
ATOM     70  F   UNL     1       8.781   5.127   0.686  1.00  0.00    -0.163 F 
ENDBRANCH  64  67
BRANCH  65  71
ATOM     71  C   UNL     1       5.663   8.398  -2.980  1.00  0.00     0.019 A 
ATOM     72  C   UNL     1       4.494   9.171  -3.042  1.00  0.00     0.012 A 
ATOM     73  C   UNL     1       6.507   8.354  -4.097  1.00  0.00     0.032 A 
ATOM     74  C   UNL     1       4.171   9.885  -4.198  1.00  0.00     0.002 A 
ATOM     75  C   UNL     1       6.175   9.059  -5.254  1.00  0.00     0.041 A 
ATOM     76  C   UNL     1       5.011   9.824  -5.309  1.00  0.00     0.020 A 
ATOM     77  Cl  UNL     1       7.200   8.968  -6.633  1.00  0.00    -0.084 Cl
ENDBRANCH  65  71
ENDBRANCH  59  62
ENDBRANCH  57  58
ENDBRANCH  56  57
ENDBRANCH   1  56
TORSDOF 12
