REMARK SMILES O=C(NCCCNC(=O)[C@@H](c1ccccc1)[C@H](C(=O)c1ccccc1)c1ccccc1)c1ccc(-c2c3nc(c(-c4ccccc4)c4ccc([nH]4)c(-c4ccccc4)c4nc(c(-c5ccccc5)c5ccc2[nH]5)C=C4)C=C3)cc1
REMARK SMILES IDX 5 1 4 2 3 3 1 4 2 5 32 7 33 8 79 9 34 10 78 11 35 12 36 13
REMARK SMILES IDX 37 14 72 15 38 16 77 17 71 18 73 19 39 20 76 21 70 22 69 23
REMARK SMILES IDX 40 25 62 26 47 27 61 28 48 29 51 30 60 31 74 32 49 33 50 34
REMARK SMILES IDX 59 36 75 37 52 38 41 39 42 40 46 41 43 42 45 43 44 44 63 45
REMARK SMILES IDX 64 46 68 47 65 48 67 49 66 50 53 51 54 52 58 53 55 54 57 55
REMARK SMILES IDX 56 56 6 57 7 58 8 59 9 61 10 62 11 63 12 64 16 65 13 66
REMARK SMILES IDX 15 67 14 68 17 69 26 70 27 71 31 72 28 73 30 74 29 75 18 76
REMARK SMILES IDX 19 77 20 78 21 79 25 80 22 81 24 82 23 83
REMARK H PARENT 3 6 73 24 51 35 7 60
REMARK Flexibility Score: inf
ROOT
ATOM      1  C   UNL     1       2.532  -3.911   2.214  1.00  0.00     0.042 C 
ENDROOT
BRANCH   1   2
ATOM      2  C   UNL     1       1.306  -3.387   1.499  1.00  0.00     0.118 C 
BRANCH   2   3
ATOM      3  N   UNL     1       1.529  -2.054   0.948  1.00  0.00    -0.352 N 
ATOM      4  O   UNL     1       2.204  -0.520  -0.545  1.00  0.00    -0.269 OA
ATOM      5  C   UNL     1       1.752  -1.641  -0.342  1.00  0.00     0.251 C 
ATOM      6  H   UNL     1       1.519  -1.328   1.613  1.00  0.00     0.163 HD
BRANCH   5   7
ATOM      7  C   UNL     1       1.460  -2.541  -1.478  1.00  0.00     0.039 A 
ATOM      8  C   UNL     1       0.382  -3.425  -1.432  1.00  0.00     0.014 A 
ATOM      9  C   UNL     1       2.247  -2.463  -2.630  1.00  0.00     0.014 A 
ATOM     10  C   UNL     1       0.198  -4.353  -2.445  1.00  0.00     0.010 A 
ATOM     11  C   UNL     1       1.982  -3.311  -3.706  1.00  0.00     0.010 A 
ATOM     12  C   UNL     1       0.973  -4.282  -3.607  1.00  0.00    -0.014 A 
BRANCH  12  13
ATOM     13  C   UNL     1       0.668  -5.178  -4.745  1.00  0.00     0.031 A 
ATOM     14  C   UNL     1       1.688  -6.154  -5.244  1.00  0.00     0.074 A 
ATOM     15  C   UNL     1      -0.537  -5.080  -5.338  1.00  0.00     0.049 A 
ATOM     16  N   UNL     1       1.633  -6.941  -6.287  1.00  0.00    -0.248 NA
ATOM     17  C   UNL     1       2.942  -6.252  -4.480  1.00  0.00     0.031 C 
ATOM     18  C   UNL     1      -1.613  -4.175  -4.924  1.00  0.00     0.029 A 
ATOM     19  N   UNL     1      -1.058  -5.743  -6.417  1.00  0.00    -0.354 N 
ATOM     20  C   UNL     1       2.854  -7.600  -6.328  1.00  0.00     0.074 A 
ATOM     21  C   UNL     1       3.638  -7.106  -5.216  1.00  0.00     0.031 C 
ATOM     22  C   UNL     1      -2.671  -4.353  -5.725  1.00  0.00     0.029 A 
ATOM     23  C   UNL     1      -2.320  -5.320  -6.756  1.00  0.00     0.049 A 
ATOM     24  H   UNL     1      -0.577  -6.452  -6.902  1.00  0.00     0.167 HD
ATOM     25  C   UNL     1       3.279  -8.529  -7.217  1.00  0.00     0.031 A 
ATOM     26  C   UNL     1      -3.095  -5.637  -7.808  1.00  0.00     0.031 A 
ATOM     27  C   UNL     1       2.489  -8.998  -8.326  1.00  0.00     0.049 A 
ATOM     28  C   UNL     1      -2.582  -6.623  -8.812  1.00  0.00     0.074 A 
ATOM     29  C   UNL     1       2.811  -9.956  -9.271  1.00  0.00     0.029 A 
ATOM     30  N   UNL     1       1.221  -8.532  -8.644  1.00  0.00    -0.354 N 
ATOM     31  N   UNL     1      -1.434  -7.256  -8.829  1.00  0.00    -0.248 NA
ATOM     32  C   UNL     1      -3.467  -6.941  -9.939  1.00  0.00     0.031 C 
ATOM     33  C   UNL     1       1.766 -10.021 -10.198  1.00  0.00     0.029 A 
ATOM     34  C   UNL     1       0.760  -9.159  -9.789  1.00  0.00     0.049 A 
ATOM     35  H   UNL     1       0.723  -7.855  -8.132  1.00  0.00     0.167 HD
ATOM     36  C   UNL     1      -1.468  -8.072  -9.950  1.00  0.00     0.074 A 
ATOM     37  C   UNL     1      -2.753  -7.853 -10.586  1.00  0.00     0.031 C 
ATOM     38  C   UNL     1      -0.523  -8.930 -10.405  1.00  0.00     0.031 A 
BRANCH  25  39
ATOM     39  C   UNL     1       4.683  -9.047  -7.056  1.00  0.00    -0.014 A 
ATOM     40  C   UNL     1       5.055  -9.849  -5.964  1.00  0.00     0.009 A 
ATOM     41  C   UNL     1       5.653  -8.726  -8.019  1.00  0.00     0.009 A 
ATOM     42  C   UNL     1       6.378 -10.272  -5.814  1.00  0.00     0.001 A 
ATOM     43  C   UNL     1       6.967  -9.179  -7.885  1.00  0.00     0.001 A 
ATOM     44  C   UNL     1       7.332  -9.938  -6.775  1.00  0.00     0.000 A 
ENDBRANCH  25  39
BRANCH  26  45
ATOM     45  C   UNL     1      -4.419  -4.980  -7.956  1.00  0.00    -0.014 A 
ATOM     46  C   UNL     1      -5.602  -5.699  -7.738  1.00  0.00     0.009 A 
ATOM     47  C   UNL     1      -4.500  -3.608  -8.251  1.00  0.00     0.009 A 
ATOM     48  C   UNL     1      -6.841  -5.058  -7.821  1.00  0.00     0.001 A 
ATOM     49  C   UNL     1      -5.737  -2.965  -8.303  1.00  0.00     0.001 A 
ATOM     50  C   UNL     1      -6.907  -3.692  -8.094  1.00  0.00     0.000 A 
ENDBRANCH  26  45
BRANCH  38  51
ATOM     51  C   UNL     1      -0.860  -9.743 -11.623  1.00  0.00    -0.014 A 
ATOM     52  C   UNL     1      -0.891  -9.171 -12.903  1.00  0.00     0.009 A 
ATOM     53  C   UNL     1      -1.075 -11.124 -11.486  1.00  0.00     0.009 A 
ATOM     54  C   UNL     1      -1.149  -9.966 -14.022  1.00  0.00     0.001 A 
ATOM     55  C   UNL     1      -1.302 -11.920 -12.608  1.00  0.00     0.001 A 
ATOM     56  C   UNL     1      -1.345 -11.340 -13.874  1.00  0.00     0.000 A 
ENDBRANCH  38  51
ENDBRANCH  12  13
ENDBRANCH   5   7
ENDBRANCH   2   3
ENDBRANCH   1   2
BRANCH   1  57
ATOM     57  C   UNL     1       2.882  -3.090   3.438  1.00  0.00     0.117 C 
BRANCH  57  58
ATOM     58  N   UNL     1       2.224  -3.535   4.637  1.00  0.00    -0.355 N 
ATOM     59  C   UNL     1       2.741  -4.194   5.712  1.00  0.00     0.228 C 
ATOM     60  H   UNL     1       1.262  -3.334   4.689  1.00  0.00     0.163 HD
ATOM     61  O   UNL     1       1.942  -4.495   6.605  1.00  0.00    -0.274 OA
BRANCH  59  62
ATOM     62  C   UNL     1       4.235  -4.572   5.829  1.00  0.00     0.124 C 
BRANCH  62  63
ATOM     63  C   UNL     1       4.546  -5.843   5.031  1.00  0.00    -0.035 A 
ATOM     64  C   UNL     1       4.423  -7.088   5.680  1.00  0.00     0.004 A 
ATOM     65  C   UNL     1       4.893  -5.875   3.679  1.00  0.00     0.004 A 
ATOM     66  C   UNL     1       4.698  -8.290   5.021  1.00  0.00     0.000 A 
ATOM     67  C   UNL     1       5.190  -7.072   3.017  1.00  0.00     0.000 A 
ATOM     68  C   UNL     1       5.101  -8.281   3.691  1.00  0.00     0.000 A 
ENDBRANCH  62  63
BRANCH  62  69
ATOM     69  C   UNL     1       5.187  -3.309   5.838  1.00  0.00     0.108 C 
BRANCH  69  70
ATOM     70  C   UNL     1       5.348  -2.716   7.253  1.00  0.00    -0.036 A 
ATOM     71  C   UNL     1       5.649  -3.519   8.366  1.00  0.00     0.004 A 
ATOM     72  C   UNL     1       5.190  -1.334   7.457  1.00  0.00     0.004 A 
ATOM     73  C   UNL     1       5.703  -2.976   9.650  1.00  0.00     0.000 A 
ATOM     74  C   UNL     1       5.272  -0.788   8.741  1.00  0.00     0.000 A 
ATOM     75  C   UNL     1       5.510  -1.611   9.839  1.00  0.00     0.000 A 
ENDBRANCH  69  70
BRANCH  69  76
ATOM     76  C   UNL     1       6.569  -3.498   5.171  1.00  0.00     0.171 C 
ATOM     77  O   UNL     1       7.529  -3.996   5.757  1.00  0.00    -0.293 OA
BRANCH  76  78
ATOM     78  C   UNL     1       6.739  -3.150   3.720  1.00  0.00     0.018 A 
ATOM     79  C   UNL     1       7.460  -4.053   2.924  1.00  0.00     0.012 A 
ATOM     80  C   UNL     1       6.083  -2.076   3.106  1.00  0.00     0.012 A 
ATOM     81  C   UNL     1       7.391  -3.975   1.530  1.00  0.00     0.001 A 
ATOM     82  C   UNL     1       6.010  -2.004   1.709  1.00  0.00     0.001 A 
ATOM     83  C   UNL     1       6.637  -2.972   0.924  1.00  0.00     0.000 A 
ENDBRANCH  76  78
ENDBRANCH  69  76
ENDBRANCH  62  69
ENDBRANCH  59  62
ENDBRANCH  57  58
ENDBRANCH   1  57
TORSDOF 15
