REMARK SMILES CCCc1cc(OC(F)(F)F)cc2c1O[C@@H](C(F)(F)F)C(C(=O)NCCCNC(=O)c1ccc(-c3c4nc(c(-c5ccccc5)c5ccc([nH]5)c(-c5ccccc5)c5nc(c(-c6ccccc6)c6ccc3[nH]6)C=C5)C=C4)cc1)=C2
REMARK SMILES IDX 26 1 25 2 24 3 22 4 23 5 21 7 4 8 5 9 14 10 6 11 13 12 15 13
REMARK SMILES IDX 12 14 79 15 16 16 3 17 2 18 1 19 7 20 8 21 9 22 10 23 11 24
REMARK SMILES IDX 17 25 18 26 19 27 20 28 27 29 28 30 29 31 30 33 31 34 32 35
REMARK SMILES IDX 78 36 33 37 77 38 34 39 35 40 36 41 71 42 37 43 76 44 70 45
REMARK SMILES IDX 72 46 38 47 75 48 69 49 68 50 39 52 61 53 46 54 60 55 47 56
REMARK SMILES IDX 50 57 59 58 73 59 48 60 49 61 58 63 74 64 51 65 40 66 41 67
REMARK SMILES IDX 45 68 42 69 44 70 43 71 62 72 63 73 67 74 64 75 66 76 65 77
REMARK SMILES IDX 52 78 53 79 57 80 54 81 56 82 55 83
REMARK H PARENT 24 6 28 32 72 51 50 62
REMARK Flexibility Score: inf
ROOT
ATOM      1  C   UNL     1      -2.326   2.916  -6.516  1.00  0.00     0.042 C 
ENDROOT
BRANCH   1   2
ATOM      2  C   UNL     1      -3.091   2.190  -5.406  1.00  0.00     0.118 C 
BRANCH   2   3
ATOM      3  N   UNL     1      -2.603   0.829  -5.268  1.00  0.00    -0.352 N 
ATOM      4  C   UNL     1      -1.641   0.278  -4.486  1.00  0.00     0.251 C 
ATOM      5  O   UNL     1      -1.305  -0.882  -4.712  1.00  0.00    -0.270 OA
ATOM      6  H   UNL     1      -3.057   0.182  -5.855  1.00  0.00     0.163 HD
BRANCH   4   7
ATOM      7  C   UNL     1      -1.041   0.993  -3.334  1.00  0.00     0.067 C 
ATOM      8  C   UNL     1       0.648   2.713   0.116  1.00  0.00    -0.002 A 
ATOM      9  C   UNL     1       1.020   4.077   0.066  1.00  0.00     0.054 A 
ATOM     10  C   UNL     1       0.034   2.157  -1.015  1.00  0.00     0.131 A 
ATOM     11  C   UNL     1       0.818   4.849  -1.080  1.00  0.00     0.130 A 
ATOM     12  C   UNL     1      -0.111   2.903  -2.189  1.00  0.00     0.021 A 
ATOM     13  O   UNL     1      -0.512   0.910  -0.923  1.00  0.00    -0.475 OA
ATOM     14  C   UNL     1       0.278   4.244  -2.215  1.00  0.00     0.058 A 
ATOM     15  C   UNL     1      -0.718   2.294  -3.365  1.00  0.00     0.025 C 
ATOM     16  C   UNL     1      -0.645   0.133  -2.143  1.00  0.00     0.314 C 
BRANCH   8  17
ATOM     17  C   UNL     1       0.929   1.982   1.418  1.00  0.00     0.039 C 
BRANCH  17  18
ATOM     18  C   UNL     1       0.829   0.453   1.503  1.00  0.00     0.001 C 
ATOM     19  C   UNL     1       1.856  -0.287   0.655  1.00  0.00     0.004 C 
ENDBRANCH  17  18
ENDBRANCH   8  17
BRANCH  11  20
ATOM     20  O   UNL     1       1.096   6.176  -1.232  1.00  0.00    -0.406 OA
BRANCH  20  21
ATOM     21  C   UNL     1       1.510   6.904  -0.089  1.00  0.00     0.573 C 
ATOM     22  F   UNL     1       0.602   6.817   0.905  1.00  0.00    -0.132 F 
ATOM     23  F   UNL     1       2.708   6.466   0.352  1.00  0.00    -0.132 F 
ATOM     24  F   UNL     1       1.637   8.206  -0.429  1.00  0.00    -0.132 F 
ENDBRANCH  20  21
ENDBRANCH  11  20
BRANCH  16  25
ATOM     25  C   UNL     1      -1.565  -1.065  -1.813  1.00  0.00     0.429 C 
ATOM     26  F   UNL     1      -1.270  -2.167  -2.538  1.00  0.00    -0.167 F 
ATOM     27  F   UNL     1      -1.425  -1.441  -0.513  1.00  0.00    -0.167 F 
ATOM     28  F   UNL     1      -2.874  -0.776  -1.995  1.00  0.00    -0.167 F 
ENDBRANCH  16  25
ENDBRANCH   4   7
ENDBRANCH   2   3
ENDBRANCH   1   2
BRANCH   1  29
ATOM     29  C   UNL     1      -2.688   2.418  -7.913  1.00  0.00     0.118 C 
BRANCH  29  30
ATOM     30  N   UNL     1      -4.035   2.817  -8.290  1.00  0.00    -0.352 N 
ATOM     31  C   UNL     1      -4.455   3.593  -9.339  1.00  0.00     0.251 C 
ATOM     32  H   UNL     1      -4.751   2.481  -7.704  1.00  0.00     0.163 HD
ATOM     33  O   UNL     1      -5.598   4.040  -9.345  1.00  0.00    -0.269 OA
BRANCH  31  34
ATOM     34  C   UNL     1      -3.541   3.896 -10.460  1.00  0.00     0.039 A 
ATOM     35  C   UNL     1      -3.548   5.182 -11.007  1.00  0.00     0.014 A 
ATOM     36  C   UNL     1      -2.722   2.905 -11.010  1.00  0.00     0.014 A 
ATOM     37  C   UNL     1      -2.704   5.487 -12.078  1.00  0.00     0.010 A 
ATOM     38  C   UNL     1      -1.836   3.226 -12.035  1.00  0.00     0.010 A 
ATOM     39  C   UNL     1      -1.826   4.517 -12.586  1.00  0.00    -0.014 A 
BRANCH  39  40
ATOM     40  C   UNL     1      -0.894   4.829 -13.698  1.00  0.00     0.031 A 
ATOM     41  C   UNL     1      -1.040   4.133 -15.024  1.00  0.00     0.074 A 
ATOM     42  C   UNL     1       0.128   5.682 -13.489  1.00  0.00     0.049 A 
ATOM     43  N   UNL     1      -0.275   4.207 -16.083  1.00  0.00    -0.248 NA
ATOM     44  C   UNL     1      -2.181   3.213 -15.171  1.00  0.00     0.031 C 
ATOM     45  C   UNL     1       0.403   6.386 -12.234  1.00  0.00     0.029 A 
ATOM     46  N   UNL     1       1.137   6.087 -14.325  1.00  0.00    -0.354 N 
ATOM     47  C   UNL     1      -0.821   3.325 -17.007  1.00  0.00     0.074 A 
ATOM     48  C   UNL     1      -1.964   2.703 -16.375  1.00  0.00     0.031 C 
ATOM     49  C   UNL     1       1.501   7.143 -12.387  1.00  0.00     0.029 A 
ATOM     50  C   UNL     1       2.029   6.949 -13.733  1.00  0.00     0.049 A 
ATOM     51  H   UNL     1       1.216   5.789 -15.260  1.00  0.00     0.167 HD
ATOM     52  C   UNL     1      -0.415   3.066 -18.272  1.00  0.00     0.031 A 
ATOM     53  C   UNL     1       3.154   7.510 -14.216  1.00  0.00     0.031 A 
ATOM     54  C   UNL     1       0.703   3.709 -18.909  1.00  0.00     0.049 A 
ATOM     55  C   UNL     1       3.571   7.216 -15.630  1.00  0.00     0.074 A 
ATOM     56  C   UNL     1       1.143   3.574 -20.215  1.00  0.00     0.029 A 
ATOM     57  N   UNL     1       1.557   4.605 -18.288  1.00  0.00    -0.354 N 
ATOM     58  N   UNL     1       2.994   6.444 -16.518  1.00  0.00    -0.248 NA
ATOM     59  C   UNL     1       4.789   7.883 -16.113  1.00  0.00     0.031 C 
ATOM     60  C   UNL     1       2.293   4.353 -20.369  1.00  0.00     0.029 A 
ATOM     61  C   UNL     1       2.538   5.012 -19.176  1.00  0.00     0.049 A 
ATOM     62  H   UNL     1       1.478   4.908 -17.354  1.00  0.00     0.167 HD
ATOM     63  C   UNL     1       3.761   6.553 -17.670  1.00  0.00     0.074 A 
ATOM     64  C   UNL     1       4.834   7.479 -17.375  1.00  0.00     0.031 C 
ATOM     65  C   UNL     1       3.593   5.940 -18.866  1.00  0.00     0.031 A 
BRANCH  52  66
ATOM     66  C   UNL     1      -1.177   2.037 -19.057  1.00  0.00    -0.014 A 
ATOM     67  C   UNL     1      -2.466   2.299 -19.546  1.00  0.00     0.009 A 
ATOM     68  C   UNL     1      -0.568   0.810 -19.370  1.00  0.00     0.009 A 
ATOM     69  C   UNL     1      -3.140   1.343 -20.310  1.00  0.00     0.001 A 
ATOM     70  C   UNL     1      -1.234  -0.132 -20.156  1.00  0.00     0.001 A 
ATOM     71  C   UNL     1      -2.522   0.133 -20.620  1.00  0.00     0.000 A 
ENDBRANCH  52  66
BRANCH  53  72
ATOM     72  C   UNL     1       3.973   8.403 -13.356  1.00  0.00    -0.014 A 
ATOM     73  C   UNL     1       4.041   9.780 -13.616  1.00  0.00     0.009 A 
ATOM     74  C   UNL     1       4.710   7.878 -12.283  1.00  0.00     0.009 A 
ATOM     75  C   UNL     1       4.856  10.608 -12.840  1.00  0.00     0.001 A 
ATOM     76  C   UNL     1       5.501   8.712 -11.490  1.00  0.00     0.001 A 
ATOM     77  C   UNL     1       5.583  10.074 -11.777  1.00  0.00     0.000 A 
ENDBRANCH  53  72
BRANCH  65  78
ATOM     78  C   UNL     1       4.569   6.279 -19.956  1.00  0.00    -0.014 A 
ATOM     79  C   UNL     1       5.887   5.798 -19.928  1.00  0.00     0.009 A 
ATOM     80  C   UNL     1       4.147   7.053 -21.048  1.00  0.00     0.009 A 
ATOM     81  C   UNL     1       6.772   6.112 -20.961  1.00  0.00     0.001 A 
ATOM     82  C   UNL     1       5.026   7.341 -22.092  1.00  0.00     0.001 A 
ATOM     83  C   UNL     1       6.340   6.878 -22.044  1.00  0.00     0.000 A 
ENDBRANCH  65  78
ENDBRANCH  39  40
ENDBRANCH  31  34
ENDBRANCH  29  30
ENDBRANCH   1  29
TORSDOF 15
