REMARK SMILES Cc1cc(C(=O)NCCCNC(=O)c2ccc(-c3c4nc(c(-c5ccccc5)c5ccc([nH]5)c(-c5ccccc5)c5nc(c(-c6ccccc6)c6ccc3[nH]6)C=C5)C=C4)cc2)cc(S(=O)(=O)NNC(=O)c2c[nH]c3ccccc23)c1C
REMARK SMILES IDX 8 1 7 2 5 3 6 4 4 6 1 7 2 8 3 9 80 10 63 11 81 12 62 13
REMARK SMILES IDX 64 14 65 15 66 16 67 17 68 19 69 20 70 22 71 23 72 24 79 25
REMARK SMILES IDX 73 26 74 27 78 28 75 30 77 31 76 32 9 33 10 34 11 35 12 36
REMARK SMILES IDX 13 38 14 39 15 40 61 41 16 42 60 43 17 44 18 45 19 46 54 47
REMARK SMILES IDX 20 48 59 49 53 50 55 51 21 52 58 53 52 54 51 55 22 57 44 58
REMARK SMILES IDX 29 59 43 60 30 61 33 62 42 63 56 64 31 65 32 66 41 68 57 69
REMARK SMILES IDX 34 70 23 71 24 72 28 73 25 74 27 75 26 76 45 77 46 78 50 79
REMARK SMILES IDX 47 80 49 81 48 82 35 83 36 84 40 85 37 86 39 87 38 88
REMARK H PARENT 7 5 67 18 68 21 73 29 11 37 55 56 33 67
REMARK Flexibility Score: inf
ROOT
ATOM      1  C   UNL     1      -2.354   3.471   0.678  1.00  0.00     0.118 C 
ENDROOT
BRANCH   1   2
ATOM      2  N   UNL     1      -3.298   2.465   0.215  1.00  0.00    -0.352 N 
ATOM      3  C   UNL     1      -3.182   1.147  -0.150  1.00  0.00     0.251 C 
ATOM      4  O   UNL     1      -4.221   0.559  -0.457  1.00  0.00    -0.269 OA
ATOM      5  H   UNL     1      -4.220   2.804   0.148  1.00  0.00     0.163 HD
BRANCH   3   6
ATOM      6  C   UNL     1      -1.903   0.377  -0.180  1.00  0.00     0.041 A 
ATOM      7  C   UNL     1       1.861   0.908  -0.218  1.00  0.00     0.044 C 
ATOM      8  C   UNL     1       0.538   0.185  -0.230  1.00  0.00    -0.046 A 
ATOM      9  C   UNL     1      -0.637   0.958  -0.257  1.00  0.00     0.017 A 
ATOM     10  C   UNL     1       0.446  -1.221  -0.226  1.00  0.00    -0.028 A 
ATOM     11  C   UNL     1      -0.841  -1.815  -0.275  1.00  0.00     0.088 A 
ATOM     12  C   UNL     1       1.692  -2.076  -0.184  1.00  0.00     0.046 C 
ATOM     13  C   UNL     1      -1.996  -1.026  -0.205  1.00  0.00     0.036 A 
BRANCH  11  14
ATOM     14  S   UNL     1      -0.961  -3.566  -0.605  1.00  0.00     0.257 S 
ATOM     15  O   UNL     1      -0.451  -3.748  -1.958  1.00  0.00    -0.205 OA
ATOM     16  O   UNL     1      -0.394  -4.259   0.510  1.00  0.00    -0.205 OA
BRANCH  14  17
ATOM     17  N   UNL     1      -2.607  -4.011  -0.610  1.00  0.00    -0.123 NA
ATOM     18  H   UNL     1      -3.044  -3.523   0.171  1.00  0.00     0.167 HD
BRANCH  17  19
ATOM     19  N   UNL     1      -3.447  -3.755  -1.789  1.00  0.00    -0.273 N 
ATOM     20  C   UNL     1      -4.386  -4.692  -2.199  1.00  0.00     0.268 C 
ATOM     21  H   UNL     1      -3.342  -2.914  -2.291  1.00  0.00     0.186 HD
ATOM     22  O   UNL     1      -5.590  -4.495  -2.058  1.00  0.00    -0.268 OA
BRANCH  20  23
ATOM     23  C   UNL     1      -3.844  -5.718  -3.091  1.00  0.00     0.066 A 
ATOM     24  C   UNL     1      -2.509  -5.893  -3.412  1.00  0.00     0.097 A 
ATOM     25  C   UNL     1      -4.557  -6.597  -3.971  1.00  0.00     0.012 A 
ATOM     26  N   UNL     1      -2.473  -6.343  -4.703  1.00  0.00    -0.360 N 
ATOM     27  C   UNL     1      -3.719  -6.780  -5.074  1.00  0.00     0.046 A 
ATOM     28  C   UNL     1      -5.859  -7.137  -4.033  1.00  0.00     0.011 A 
ATOM     29  H   UNL     1      -1.674  -6.352  -5.278  1.00  0.00     0.166 HD
ATOM     30  C   UNL     1      -4.165  -7.294  -6.293  1.00  0.00     0.027 A 
ATOM     31  C   UNL     1      -6.276  -7.787  -5.203  1.00  0.00     0.001 A 
ATOM     32  C   UNL     1      -5.462  -7.808  -6.333  1.00  0.00     0.002 A 
ENDBRANCH  20  23
ENDBRANCH  17  19
ENDBRANCH  14  17
ENDBRANCH  11  14
ENDBRANCH   3   6
ENDBRANCH   1   2
BRANCH   1  33
ATOM     33  C   UNL     1      -1.905   4.391  -0.461  1.00  0.00     0.042 C 
BRANCH  33  34
ATOM     34  C   UNL     1      -2.941   5.454  -0.836  1.00  0.00     0.118 C 
BRANCH  34  35
ATOM     35  N   UNL     1      -3.066   6.483   0.187  1.00  0.00    -0.352 N 
ATOM     36  C   UNL     1      -3.006   7.851   0.088  1.00  0.00     0.251 C 
ATOM     37  H   UNL     1      -3.219   6.142   1.098  1.00  0.00     0.163 HD
ATOM     38  O   UNL     1      -2.949   8.523   1.115  1.00  0.00    -0.269 OA
BRANCH  36  39
ATOM     39  C   UNL     1      -2.995   8.530  -1.228  1.00  0.00     0.039 A 
ATOM     40  C   UNL     1      -2.179   9.655  -1.391  1.00  0.00     0.014 A 
ATOM     41  C   UNL     1      -3.822   8.116  -2.275  1.00  0.00     0.014 A 
ATOM     42  C   UNL     1      -2.152  10.331  -2.615  1.00  0.00     0.010 A 
ATOM     43  C   UNL     1      -3.752   8.755  -3.514  1.00  0.00     0.010 A 
ATOM     44  C   UNL     1      -2.918   9.870  -3.696  1.00  0.00    -0.014 A 
BRANCH  44  45
ATOM     45  C   UNL     1      -2.857  10.535  -5.023  1.00  0.00     0.031 A 
ATOM     46  C   UNL     1      -4.067  11.230  -5.585  1.00  0.00     0.074 A 
ATOM     47  C   UNL     1      -1.728  10.458  -5.754  1.00  0.00     0.049 A 
ATOM     48  N   UNL     1      -4.225  11.797  -6.755  1.00  0.00    -0.248 NA
ATOM     49  C   UNL     1      -5.262  11.277  -4.728  1.00  0.00     0.031 C 
ATOM     50  C   UNL     1      -0.493   9.790  -5.339  1.00  0.00     0.029 A 
ATOM     51  N   UNL     1      -1.440  10.938  -7.008  1.00  0.00    -0.354 N 
ATOM     52  C   UNL     1      -5.539  12.246  -6.784  1.00  0.00     0.074 A 
ATOM     53  C   UNL     1      -6.146  11.854  -5.530  1.00  0.00     0.031 C 
ATOM     54  C   UNL     1       0.424   9.919  -6.311  1.00  0.00     0.029 A 
ATOM     55  C   UNL     1      -0.168  10.641  -7.432  1.00  0.00     0.049 A 
ATOM     56  H   UNL     1      -2.085  11.447  -7.551  1.00  0.00     0.167 HD
ATOM     57  C   UNL     1      -6.181  12.934  -7.759  1.00  0.00     0.031 A 
ATOM     58  C   UNL     1       0.451  10.910  -8.597  1.00  0.00     0.031 A 
ATOM     59  C   UNL     1      -5.577  13.336  -9.001  1.00  0.00     0.049 A 
ATOM     60  C   UNL     1      -0.286  11.664  -9.667  1.00  0.00     0.074 A 
ATOM     61  C   UNL     1      -6.130  14.083 -10.028  1.00  0.00     0.029 A 
ATOM     62  N   UNL     1      -4.283  13.024  -9.387  1.00  0.00    -0.354 N 
ATOM     63  N   UNL     1      -1.510  12.130  -9.654  1.00  0.00    -0.248 NA
ATOM     64  C   UNL     1       0.451  11.937 -10.909  1.00  0.00     0.031 C 
ATOM     65  C   UNL     1      -5.185  14.183 -11.055  1.00  0.00     0.029 A 
ATOM     66  C   UNL     1      -4.026  13.544 -10.645  1.00  0.00     0.049 A 
ATOM     67  H   UNL     1      -3.641  12.508  -8.847  1.00  0.00     0.167 HD
ATOM     68  C   UNL     1      -1.682  12.775 -10.872  1.00  0.00     0.074 A 
ATOM     69  C   UNL     1      -0.432  12.651 -11.593  1.00  0.00     0.031 C 
ATOM     70  C   UNL     1      -2.778  13.413 -11.350  1.00  0.00     0.031 A 
BRANCH  57  71
ATOM     71  C   UNL     1      -7.623  13.289  -7.521  1.00  0.00    -0.014 A 
ATOM     72  C   UNL     1      -7.987  14.264  -6.579  1.00  0.00     0.009 A 
ATOM     73  C   UNL     1      -8.629  12.665  -8.275  1.00  0.00     0.009 A 
ATOM     74  C   UNL     1      -9.331  14.579  -6.369  1.00  0.00     0.001 A 
ATOM     75  C   UNL     1      -9.970  13.002  -8.084  1.00  0.00     0.001 A 
ATOM     76  C   UNL     1     -10.321  13.951  -7.125  1.00  0.00     0.000 A 
ENDBRANCH  57  71
BRANCH  58  77
ATOM     77  C   UNL     1       1.855  10.473  -8.809  1.00  0.00    -0.014 A 
ATOM     78  C   UNL     1       2.896  11.414  -8.831  1.00  0.00     0.009 A 
ATOM     79  C   UNL     1       2.162   9.116  -8.993  1.00  0.00     0.009 A 
ATOM     80  C   UNL     1       4.213  11.007  -9.057  1.00  0.00     0.001 A 
ATOM     81  C   UNL     1       3.483   8.709  -9.191  1.00  0.00     0.001 A 
ATOM     82  C   UNL     1       4.506   9.655  -9.232  1.00  0.00     0.000 A 
ENDBRANCH  58  77
BRANCH  70  83
ATOM     83  C   UNL     1      -2.661  14.059 -12.701  1.00  0.00    -0.014 A 
ATOM     84  C   UNL     1      -2.636  13.292 -13.876  1.00  0.00     0.009 A 
ATOM     85  C   UNL     1      -2.615  15.459 -12.799  1.00  0.00     0.009 A 
ATOM     86  C   UNL     1      -2.534  13.915 -15.122  1.00  0.00     0.001 A 
ATOM     87  C   UNL     1      -2.540  16.079 -14.047  1.00  0.00     0.001 A 
ATOM     88  C   UNL     1      -2.491  15.306 -15.206  1.00  0.00     0.000 A 
ENDBRANCH  70  83
ENDBRANCH  44  45
ENDBRANCH  36  39
ENDBRANCH  34  35
ENDBRANCH  33  34
ENDBRANCH   1  33
TORSDOF 14
