REMARK SMILES Cc1ccc(-c2cc(Cl)ccc2Cl)c(C(=O)NCCCNC(=O)c2ccc(-c3c4nc(c(-c5ccccc5)c5ccc([nH]5)c(-c5ccccc5)c5nc(c(-c6ccccc6)c6ccc3[nH]6)C=C5)C=C4)cc2)c1
REMARK SMILES IDX 19 1 18 2 17 3 15 4 16 5 14 7 1 8 2 9 3 10 72 11 4 12 5 13
REMARK SMILES IDX 6 14 7 15 12 16 8 17 11 18 13 19 9 20 10 21 20 22 21 23
REMARK SMILES IDX 22 24 23 26 24 27 25 28 71 29 26 30 70 31 27 32 28 33 29 34
REMARK SMILES IDX 64 35 30 36 69 37 63 38 65 39 31 40 68 41 62 42 61 43 32 45
REMARK SMILES IDX 54 46 39 47 53 48 40 49 43 50 52 51 66 52 41 53 42 54 51 56
REMARK SMILES IDX 67 57 44 58 33 59 34 60 38 61 35 62 37 63 36 64 55 65 56 66
REMARK SMILES IDX 60 67 57 68 59 69 58 70 45 71 46 72 50 73 47 74 49 75 48 76
REMARK H PARENT 17 6 21 25 65 44 43 55
REMARK Flexibility Score: inf
ROOT
ATOM      1  C   UNL     1       1.322   3.986  -0.428  1.00  0.00     0.042 C 
ENDROOT
BRANCH   1   2
ATOM      2  C   UNL     1       0.420   3.828   0.798  1.00  0.00     0.118 C 
BRANCH   2   3
ATOM      3  N   UNL     1      -0.953   3.527   0.422  1.00  0.00    -0.352 N 
ATOM      4  C   UNL     1      -1.650   2.376   0.126  1.00  0.00     0.251 C 
ATOM      5  O   UNL     1      -2.848   2.561  -0.086  1.00  0.00    -0.269 OA
ATOM      6  H   UNL     1      -1.515   4.334   0.366  1.00  0.00     0.163 HD
BRANCH   4   7
ATOM      7  C   UNL     1      -1.058   0.984   0.043  1.00  0.00     0.047 A 
ATOM      8  C   UNL     1       2.422  -0.618  -0.169  1.00  0.00     0.044 C 
ATOM      9  C   UNL     1       0.928  -0.482  -0.103  1.00  0.00    -0.050 A 
ATOM     10  C   UNL     1       0.114  -1.604  -0.114  1.00  0.00     0.004 A 
ATOM     11  C   UNL     1       0.331   0.785  -0.035  1.00  0.00     0.018 A 
ATOM     12  C   UNL     1      -1.270  -1.448  -0.075  1.00  0.00     0.010 A 
ATOM     13  C   UNL     1      -1.884  -0.173   0.001  1.00  0.00    -0.004 A 
BRANCH  13  14
ATOM     14  C   UNL     1      -3.364  -0.159   0.009  1.00  0.00     0.003 A 
ATOM     15  C   UNL     1      -4.056   0.210  -1.163  1.00  0.00     0.030 A 
ATOM     16  C   UNL     1      -4.128  -0.548   1.128  1.00  0.00     0.049 A 
ATOM     17  C   UNL     1      -5.451   0.231  -1.198  1.00  0.00     0.041 A 
ATOM     18  C   UNL     1      -5.528  -0.552   1.078  1.00  0.00     0.023 A 
ATOM     19  Cl  UNL     1      -3.387  -1.047   2.612  1.00  0.00    -0.084 Cl
ATOM     20  Cl  UNL     1      -6.265   0.737  -2.627  1.00  0.00    -0.084 Cl
ATOM     21  C   UNL     1      -6.190  -0.154  -0.083  1.00  0.00     0.022 A 
ENDBRANCH  13  14
ENDBRANCH   4   7
ENDBRANCH   2   3
ENDBRANCH   1   2
BRANCH   1  22
ATOM     22  C   UNL     1       1.391   5.406  -0.964  1.00  0.00     0.118 C 
BRANCH  22  23
ATOM     23  N   UNL     1       2.591   6.131  -0.559  1.00  0.00    -0.352 N 
ATOM     24  C   UNL     1       2.940   7.447  -0.819  1.00  0.00     0.251 C 
ATOM     25  H   UNL     1       3.241   5.616  -0.029  1.00  0.00     0.163 HD
ATOM     26  O   UNL     1       3.991   7.904  -0.406  1.00  0.00    -0.269 OA
BRANCH  24  27
ATOM     27  C   UNL     1       1.949   8.323  -1.487  1.00  0.00     0.039 A 
ATOM     28  C   UNL     1       1.605   9.513  -0.839  1.00  0.00     0.014 A 
ATOM     29  C   UNL     1       1.199   7.856  -2.563  1.00  0.00     0.014 A 
ATOM     30  C   UNL     1       0.364  10.084  -1.095  1.00  0.00     0.010 A 
ATOM     31  C   UNL     1      -0.072   8.358  -2.744  1.00  0.00     0.010 A 
ATOM     32  C   UNL     1      -0.513   9.425  -1.954  1.00  0.00    -0.014 A 
BRANCH  32  33
ATOM     33  C   UNL     1      -1.942   9.704  -1.986  1.00  0.00     0.031 A 
ATOM     34  C   UNL     1      -2.530  10.448  -3.112  1.00  0.00     0.074 A 
ATOM     35  C   UNL     1      -2.729   9.232  -0.995  1.00  0.00     0.049 A 
ATOM     36  N   UNL     1      -3.645  11.095  -3.053  1.00  0.00    -0.248 NA
ATOM     37  C   UNL     1      -1.853  10.576  -4.397  1.00  0.00     0.031 C 
ATOM     38  C   UNL     1      -4.187   9.158  -0.966  1.00  0.00     0.029 A 
ATOM     39  N   UNL     1      -2.339   8.925   0.310  1.00  0.00    -0.354 N 
ATOM     40  C   UNL     1      -3.968  11.474  -4.334  1.00  0.00     0.074 A 
ATOM     41  C   UNL     1      -2.784  11.207  -5.117  1.00  0.00     0.031 C 
ATOM     42  C   UNL     1      -4.590   9.082   0.312  1.00  0.00     0.029 A 
ATOM     43  C   UNL     1      -3.415   9.272   1.147  1.00  0.00     0.049 A 
ATOM     44  H   UNL     1      -1.477   8.540   0.591  1.00  0.00     0.167 HD
ATOM     45  C   UNL     1      -5.249  11.837  -4.622  1.00  0.00     0.031 A 
ATOM     46  C   UNL     1      -3.286  10.247   2.095  1.00  0.00     0.031 A 
ATOM     47  C   UNL     1      -6.083  11.882  -3.424  1.00  0.00     0.049 A 
ATOM     48  C   UNL     1      -4.238  11.408   1.909  1.00  0.00     0.074 A 
ATOM     49  C   UNL     1      -6.988  10.990  -2.870  1.00  0.00     0.029 A 
ATOM     50  N   UNL     1      -5.815  12.831  -2.446  1.00  0.00    -0.354 N 
ATOM     51  N   UNL     1      -4.839  11.686   0.786  1.00  0.00    -0.248 NA
ATOM     52  C   UNL     1      -4.548  12.374   2.961  1.00  0.00     0.031 C 
ATOM     53  C   UNL     1      -7.203  11.369  -1.519  1.00  0.00     0.029 A 
ATOM     54  C   UNL     1      -6.457  12.507  -1.268  1.00  0.00     0.049 A 
ATOM     55  H   UNL     1      -5.247  13.625  -2.575  1.00  0.00     0.167 HD
ATOM     56  C   UNL     1      -5.590  12.822   0.937  1.00  0.00     0.074 A 
ATOM     57  C   UNL     1      -5.384  13.211   2.320  1.00  0.00     0.031 C 
ATOM     58  C   UNL     1      -6.306  13.356  -0.095  1.00  0.00     0.031 A 
BRANCH  45  59
ATOM     59  C   UNL     1      -5.803  11.852  -6.027  1.00  0.00    -0.014 A 
ATOM     60  C   UNL     1      -7.170  11.588  -6.235  1.00  0.00     0.009 A 
ATOM     61  C   UNL     1      -5.034  12.047  -7.185  1.00  0.00     0.009 A 
ATOM     62  C   UNL     1      -7.709  11.423  -7.518  1.00  0.00     0.001 A 
ATOM     63  C   UNL     1      -5.553  11.842  -8.471  1.00  0.00     0.001 A 
ATOM     64  C   UNL     1      -6.892  11.517  -8.637  1.00  0.00     0.000 A 
ENDBRANCH  45  59
BRANCH  46  65
ATOM     65  C   UNL     1      -1.906  10.375   2.644  1.00  0.00    -0.014 A 
ATOM     66  C   UNL     1      -1.364   9.290   3.364  1.00  0.00     0.009 A 
ATOM     67  C   UNL     1      -1.035  11.369   2.178  1.00  0.00     0.009 A 
ATOM     68  C   UNL     1       0.018   9.145   3.509  1.00  0.00     0.001 A 
ATOM     69  C   UNL     1       0.349  11.227   2.341  1.00  0.00     0.001 A 
ATOM     70  C   UNL     1       0.876  10.101   2.973  1.00  0.00     0.000 A 
ENDBRANCH  46  65
BRANCH  58  71
ATOM     71  C   UNL     1      -6.984  14.702  -0.103  1.00  0.00    -0.014 A 
ATOM     72  C   UNL     1      -6.604  15.783   0.703  1.00  0.00     0.009 A 
ATOM     73  C   UNL     1      -7.973  14.957  -1.081  1.00  0.00     0.009 A 
ATOM     74  C   UNL     1      -7.208  17.041   0.565  1.00  0.00     0.001 A 
ATOM     75  C   UNL     1      -8.545  16.219  -1.252  1.00  0.00     0.001 A 
ATOM     76  C   UNL     1      -8.168  17.262  -0.419  1.00  0.00     0.000 A 
ENDBRANCH  58  71
ENDBRANCH  32  33
ENDBRANCH  24  27
ENDBRANCH  22  23
ENDBRANCH   1  22
TORSDOF 11
