REMARK SMILES COC(=O)[C@@H]([NH2+]CC(C)(C)C(=O)NCCCNC(=O)c1ccc(-c2c3nc(c(-c4ccccc4)c4ccc([nH]4)c(-c4ccccc4)c4nc(c(-c5ccccc5)c5ccc2[nH]5)C=C4)C=C3)cc1)c1ccccc1
REMARK SMILES IDX 11 1 12 2 13 3 8 5 9 6 10 7 7 8 6 9 5 12 3 13 4 14 2 15 1 16
REMARK SMILES IDX 68 17 69 18 73 19 70 20 72 21 71 22 14 23 15 24 16 25 17 26
REMARK SMILES IDX 18 27 19 29 20 30 21 31 67 32 22 33 66 34 23 35 24 36 25 37
REMARK SMILES IDX 60 38 26 39 65 40 59 41 61 42 27 43 64 44 58 45 57 46 28 48
REMARK SMILES IDX 50 49 35 50 49 51 36 52 39 53 48 54 62 55 37 56 38 57 47 59
REMARK SMILES IDX 63 60 40 61 29 62 30 63 34 64 31 65 33 66 32 67 51 68 52 69
REMARK SMILES IDX 56 70 53 71 55 72 54 73 41 74 42 75 46 76 43 77 45 78 44 79
REMARK H PARENT 13 4 6 10 6 11 17 28 61 47 39 58
REMARK Flexibility Score: inf
ROOT
ATOM      1  C   UNL     1       0.901  -6.729   0.321  1.00  0.00     0.231 C 
ATOM      2  O   UNL     1      -0.071  -6.289  -0.289  1.00  0.00    -0.274 OA
ATOM      3  N   UNL     1       1.675  -7.556  -0.429  1.00  0.00    -0.355 N 
ATOM      4  H   UNL     1       1.901  -7.221  -1.327  1.00  0.00     0.163 HD
ENDROOT
BRANCH   1   5
ATOM      5  C   UNL     1       1.187  -6.428   1.806  1.00  0.00     0.092 C 
ATOM      6  C   UNL     1       2.698  -6.258   2.038  1.00  0.00     0.027 C 
ATOM      7  C   UNL     1       0.629  -7.603   2.637  1.00  0.00     0.027 C 
BRANCH   5   8
ATOM      8  C   UNL     1       0.458  -5.142   2.361  1.00  0.00     0.277 C 
BRANCH   8   9
ATOM      9  N   UNL     1       0.720  -3.794   1.837  1.00  0.00    -0.330 N 
ATOM     10  H   UNL     1       0.471  -3.124   2.565  1.00  0.00     0.347 HD
ATOM     11  H   UNL     1       1.707  -3.791   1.580  1.00  0.00     0.347 HD
BRANCH   9  12
ATOM     12  C   UNL     1      -0.013  -3.409   0.597  1.00  0.00     0.324 C 
BRANCH  12  13
ATOM     13  C   UNL     1       0.678  -2.173  -0.036  1.00  0.00     0.369 C 
ATOM     14  O   UNL     1       1.312  -2.225  -1.088  1.00  0.00    -0.245 OA
BRANCH  13  15
ATOM     15  O   UNL     1       0.579  -1.044   0.724  1.00  0.00    -0.464 OA
ATOM     16  C   UNL     1       1.122   0.121   0.099  1.00  0.00     0.282 C 
ENDBRANCH  13  15
ENDBRANCH  12  13
BRANCH  12  17
ATOM     17  C   UNL     1      -1.543  -3.314   0.726  1.00  0.00     0.021 A 
ATOM     18  C   UNL     1      -2.256  -2.109   0.782  1.00  0.00     0.010 A 
ATOM     19  C   UNL     1      -2.315  -4.495   0.743  1.00  0.00     0.010 A 
ATOM     20  C   UNL     1      -3.659  -2.095   0.834  1.00  0.00     0.001 A 
ATOM     21  C   UNL     1      -3.708  -4.489   0.820  1.00  0.00     0.001 A 
ATOM     22  C   UNL     1      -4.383  -3.283   0.856  1.00  0.00     0.000 A 
ENDBRANCH  12  17
ENDBRANCH   9  12
ENDBRANCH   8   9
ENDBRANCH   5   8
ENDBRANCH   1   5
BRANCH   3  23
ATOM     23  C   UNL     1       2.215  -8.860  -0.099  1.00  0.00     0.117 C 
BRANCH  23  24
ATOM     24  C   UNL     1       1.179  -9.961  -0.335  1.00  0.00     0.042 C 
BRANCH  24  25
ATOM     25  C   UNL     1       0.571  -9.964  -1.737  1.00  0.00     0.118 C 
BRANCH  25  26
ATOM     26  N   UNL     1       1.581 -10.032  -2.786  1.00  0.00    -0.352 N 
ATOM     27  C   UNL     1       1.902 -11.054  -3.640  1.00  0.00     0.251 C 
ATOM     28  H   UNL     1       2.117  -9.214  -2.898  1.00  0.00     0.163 HD
ATOM     29  O   UNL     1       2.940 -10.998  -4.298  1.00  0.00    -0.269 OA
BRANCH  27  30
ATOM     30  C   UNL     1       1.019 -12.229  -3.759  1.00  0.00     0.039 A 
ATOM     31  C   UNL     1       1.589 -13.503  -3.795  1.00  0.00     0.014 A 
ATOM     32  C   UNL     1      -0.366 -12.075  -3.853  1.00  0.00     0.014 A 
ATOM     33  C   UNL     1       0.764 -14.627  -3.853  1.00  0.00     0.010 A 
ATOM     34  C   UNL     1      -1.189 -13.196  -3.823  1.00  0.00     0.010 A 
ATOM     35  C   UNL     1      -0.633 -14.484  -3.826  1.00  0.00    -0.014 A 
BRANCH  35  36
ATOM     36  C   UNL     1      -1.528 -15.668  -3.800  1.00  0.00     0.031 A 
ATOM     37  C   UNL     1      -2.490 -15.915  -4.930  1.00  0.00     0.074 A 
ATOM     38  C   UNL     1      -1.513 -16.490  -2.732  1.00  0.00     0.049 A 
ATOM     39  N   UNL     1      -3.388 -16.859  -5.058  1.00  0.00    -0.248 NA
ATOM     40  C   UNL     1      -2.457 -14.964  -6.054  1.00  0.00     0.031 C 
ATOM     41  C   UNL     1      -0.653 -16.340  -1.556  1.00  0.00     0.029 A 
ATOM     42  N   UNL     1      -2.249 -17.617  -2.461  1.00  0.00    -0.354 N 
ATOM     43  C   UNL     1      -4.030 -16.609  -6.264  1.00  0.00     0.074 A 
ATOM     44  C   UNL     1      -3.460 -15.395  -6.804  1.00  0.00     0.031 C 
ATOM     45  C   UNL     1      -0.888 -17.353  -0.706  1.00  0.00     0.029 A 
ATOM     46  C   UNL     1      -1.946 -18.196  -1.252  1.00  0.00     0.049 A 
ATOM     47  H   UNL     1      -2.930 -17.976  -3.074  1.00  0.00     0.167 HD
ATOM     48  C   UNL     1      -4.992 -17.337  -6.880  1.00  0.00     0.031 A 
ATOM     49  C   UNL     1      -2.469 -19.278  -0.646  1.00  0.00     0.031 A 
ATOM     50  C   UNL     1      -5.553 -18.548  -6.346  1.00  0.00     0.049 A 
ATOM     51  C   UNL     1      -3.561 -20.048  -1.338  1.00  0.00     0.074 A 
ATOM     52  C   UNL     1      -6.501 -19.382  -6.915  1.00  0.00     0.029 A 
ATOM     53  N   UNL     1      -5.221 -19.099  -5.119  1.00  0.00    -0.354 N 
ATOM     54  N   UNL     1      -4.109 -19.834  -2.510  1.00  0.00    -0.248 NA
ATOM     55  C   UNL     1      -4.097 -21.217  -0.627  1.00  0.00     0.031 C 
ATOM     56  C   UNL     1      -6.782 -20.406  -6.007  1.00  0.00     0.029 A 
ATOM     57  C   UNL     1      -5.962 -20.247  -4.902  1.00  0.00     0.049 A 
ATOM     58  H   UNL     1      -4.556 -18.728  -4.494  1.00  0.00     0.167 HD
ATOM     59  C   UNL     1      -5.029 -20.859  -2.689  1.00  0.00     0.074 A 
ATOM     60  C   UNL     1      -4.950 -21.704  -1.516  1.00  0.00     0.031 C 
ATOM     61  C   UNL     1      -5.867 -21.081  -3.731  1.00  0.00     0.031 A 
BRANCH  48  62
ATOM     62  C   UNL     1      -5.499 -16.840  -8.206  1.00  0.00    -0.014 A 
ATOM     63  C   UNL     1      -4.690 -16.880  -9.354  1.00  0.00     0.009 A 
ATOM     64  C   UNL     1      -6.818 -16.377  -8.322  1.00  0.00     0.009 A 
ATOM     65  C   UNL     1      -5.183 -16.436 -10.582  1.00  0.00     0.001 A 
ATOM     66  C   UNL     1      -7.318 -15.963  -9.558  1.00  0.00     0.001 A 
ATOM     67  C   UNL     1      -6.498 -15.985 -10.685  1.00  0.00     0.000 A 
ENDBRANCH  48  62
BRANCH  49  68
ATOM     68  C   UNL     1      -1.973 -19.709   0.689  1.00  0.00    -0.014 A 
ATOM     69  C   UNL     1      -1.277 -20.919   0.836  1.00  0.00     0.009 A 
ATOM     70  C   UNL     1      -2.224 -18.930   1.830  1.00  0.00     0.009 A 
ATOM     71  C   UNL     1      -0.879 -21.359   2.101  1.00  0.00     0.001 A 
ATOM     72  C   UNL     1      -1.794 -19.356   3.089  1.00  0.00     0.001 A 
ATOM     73  C   UNL     1      -1.135 -20.576   3.225  1.00  0.00     0.000 A 
ENDBRANCH  49  68
BRANCH  61  74
ATOM     74  C   UNL     1      -6.731 -22.309  -3.671  1.00  0.00    -0.014 A 
ATOM     75  C   UNL     1      -7.807 -22.405  -2.774  1.00  0.00     0.009 A 
ATOM     76  C   UNL     1      -6.486 -23.372  -4.554  1.00  0.00     0.009 A 
ATOM     77  C   UNL     1      -8.595 -23.557  -2.739  1.00  0.00     0.001 A 
ATOM     78  C   UNL     1      -7.296 -24.508  -4.540  1.00  0.00     0.001 A 
ATOM     79  C   UNL     1      -8.343 -24.604  -3.625  1.00  0.00     0.000 A 
ENDBRANCH  61  74
ENDBRANCH  35  36
ENDBRANCH  27  30
ENDBRANCH  25  26
ENDBRANCH  24  25
ENDBRANCH  23  24
ENDBRANCH   3  23
TORSDOF 16
