REMARK SMILES CCOC(=O)c1c(NC(=O)[C@H]2[C@@H]3CC[C@@H](C3)[C@@H]2C(=O)NCCCNC(=O)c2ccc(-c3c4nc(c(-c5ccccc5)c5ccc([nH]5)c(-c5ccccc5)c5nc(c(-c6ccccc6)c6ccc3[nH]6)C=C5)C=C4)cc2)sc2c1CCCC2
REMARK SMILES IDX 18 1 19 2 20 3 17 5 11 6 12 7 13 8 16 9 15 10 14 11 9 12
REMARK SMILES IDX 8 13 10 15 7 16 6 17 77 18 75 19 76 20 78 21 81 22 79 23
REMARK SMILES IDX 80 24 4 25 5 26 3 27 2 28 1 29 21 30 22 31 23 32 24 33 25 34
REMARK SMILES IDX 26 36 27 37 28 38 74 39 29 40 73 41 30 42 31 43 32 44 67 45
REMARK SMILES IDX 33 46 72 47 66 48 68 49 34 50 71 51 65 52 64 53 35 55 57 56
REMARK SMILES IDX 42 57 56 58 43 59 46 60 55 61 69 62 44 63 45 64 54 66 70 67
REMARK SMILES IDX 47 68 36 69 37 70 41 71 38 72 40 73 39 74 58 75 59 76 63 77
REMARK SMILES IDX 60 78 62 79 61 80 48 81 49 82 53 83 50 84 52 85 51 86
REMARK H PARENT 20 4 8 14 24 35 68 54 46 65
REMARK Flexibility Score: inf
ROOT
ATOM      1  C   UNL     1       1.813  -1.845   0.477  1.00  0.00     0.224 C 
ATOM      2  O   UNL     1       1.448  -1.007   1.299  1.00  0.00    -0.275 OA
ATOM      3  N   UNL     1       1.392  -3.158   0.645  1.00  0.00    -0.356 N 
ATOM      4  H   UNL     1       0.883  -3.338   1.468  1.00  0.00     0.163 HD
ENDROOT
BRANCH   1   5
ATOM      5  C   UNL     1       2.758  -1.505  -0.681  1.00  0.00     0.094 C 
ATOM      6  C   UNL     1       4.209  -1.577  -0.263  1.00  0.00     0.094 C 
ATOM      7  C   UNL     1       4.798  -0.223  -0.731  1.00  0.00     0.002 C 
ATOM      8  C   UNL     1       4.155   0.950   0.048  1.00  0.00     0.005 C 
ATOM      9  C   UNL     1       4.129  -0.090  -2.091  1.00  0.00     0.009 C 
ATOM     10  C   UNL     1       2.717  -0.160  -1.475  1.00  0.00     0.002 C 
ATOM     11  C   UNL     1       2.768   1.072  -0.584  1.00  0.00     0.005 C 
BRANCH   6  12
ATOM     12  C   UNL     1       4.995  -2.712  -0.892  1.00  0.00     0.229 C 
ATOM     13  N   UNL     1       4.697  -3.502  -1.949  1.00  0.00    -0.317 N 
ATOM     14  H   UNL     1       5.493  -4.048  -2.142  1.00  0.00     0.170 HD
ATOM     15  O   UNL     1       6.098  -2.966  -0.374  1.00  0.00    -0.274 OA
BRANCH  13  16
ATOM     16  C   UNL     1       3.719  -3.853  -2.873  1.00  0.00     0.110 A 
ATOM     17  C   UNL     1       2.492  -3.530  -3.477  1.00  0.00     0.098 A 
ATOM     18  C   UNL     1       2.011  -4.644  -4.287  1.00  0.00    -0.017 A 
ATOM     19  S   UNL     1       4.287  -5.392  -3.451  1.00  0.00    -0.122 S 
ATOM     20  C   UNL     1       2.873  -5.713  -4.291  1.00  0.00     0.011 A 
ATOM     21  C   UNL     1       0.734  -4.667  -5.087  1.00  0.00     0.038 C 
ATOM     22  C   UNL     1       2.629  -7.028  -4.957  1.00  0.00     0.047 C 
ATOM     23  C   UNL     1       0.328  -6.093  -5.477  1.00  0.00     0.005 C 
ATOM     24  C   UNL     1       1.521  -6.896  -6.009  1.00  0.00     0.006 C 
BRANCH  17  25
ATOM     25  C   UNL     1       1.649  -2.320  -3.463  1.00  0.00     0.341 C 
ATOM     26  O   UNL     1       1.756  -1.437  -4.306  1.00  0.00    -0.246 OA
BRANCH  25  27
ATOM     27  O   UNL     1       0.621  -2.399  -2.552  1.00  0.00    -0.462 OA
BRANCH  27  28
ATOM     28  C   UNL     1      -0.457  -1.435  -2.609  1.00  0.00     0.230 C 
ATOM     29  C   UNL     1      -0.743  -0.811  -1.247  1.00  0.00     0.049 C 
ENDBRANCH  27  28
ENDBRANCH  25  27
ENDBRANCH  17  25
ENDBRANCH  13  16
ENDBRANCH   6  12
ENDBRANCH   1   5
BRANCH   3  30
ATOM     30  C   UNL     1       1.599  -4.312  -0.233  1.00  0.00     0.117 C 
BRANCH  30  31
ATOM     31  C   UNL     1       1.424  -5.700   0.383  1.00  0.00     0.042 C 
BRANCH  31  32
ATOM     32  C   UNL     1       0.027  -6.309   0.240  1.00  0.00     0.118 C 
BRANCH  32  33
ATOM     33  N   UNL     1      -0.256  -6.908  -1.068  1.00  0.00    -0.352 N 
ATOM     34  C   UNL     1      -0.478  -8.205  -1.489  1.00  0.00     0.251 C 
ATOM     35  H   UNL     1      -0.296  -6.248  -1.798  1.00  0.00     0.163 HD
ATOM     36  O   UNL     1      -0.673  -8.403  -2.689  1.00  0.00    -0.269 OA
BRANCH  34  37
ATOM     37  C   UNL     1      -0.435  -9.379  -0.575  1.00  0.00     0.039 A 
ATOM     38  C   UNL     1       0.057 -10.599  -1.065  1.00  0.00     0.014 A 
ATOM     39  C   UNL     1      -0.880  -9.327   0.742  1.00  0.00     0.014 A 
ATOM     40  C   UNL     1       0.228 -11.698  -0.208  1.00  0.00     0.010 A 
ATOM     41  C   UNL     1      -0.610 -10.379   1.619  1.00  0.00     0.010 A 
ATOM     42  C   UNL     1      -0.029 -11.573   1.165  1.00  0.00    -0.014 A 
BRANCH  42  43
ATOM     43  C   UNL     1       0.323 -12.638   2.151  1.00  0.00     0.031 A 
ATOM     44  C   UNL     1      -0.724 -13.199   3.081  1.00  0.00     0.074 A 
ATOM     45  C   UNL     1       1.609 -13.017   2.308  1.00  0.00     0.049 A 
ATOM     46  N   UNL     1      -0.574 -13.964   4.135  1.00  0.00    -0.248 NA
ATOM     47  C   UNL     1      -2.119 -12.816   2.813  1.00  0.00     0.031 C 
ATOM     48  C   UNL     1       2.744 -12.539   1.515  1.00  0.00     0.029 A 
ATOM     49  N   UNL     1       2.182 -13.883   3.210  1.00  0.00    -0.354 N 
ATOM     50  C   UNL     1      -1.843 -14.111   4.681  1.00  0.00     0.074 A 
ATOM     51  C   UNL     1      -2.745 -13.328   3.863  1.00  0.00     0.031 C 
ATOM     52  C   UNL     1       3.868 -13.133   1.947  1.00  0.00     0.029 A 
ATOM     53  C   UNL     1       3.547 -13.993   3.080  1.00  0.00     0.049 A 
ATOM     54  H   UNL     1       1.664 -14.378   3.885  1.00  0.00     0.167 HD
ATOM     55  C   UNL     1      -2.232 -14.840   5.756  1.00  0.00     0.031 A 
ATOM     56  C   UNL     1       4.447 -14.690   3.800  1.00  0.00     0.031 A 
ATOM     57  C   UNL     1      -1.354 -15.659   6.549  1.00  0.00     0.049 A 
ATOM     58  C   UNL     1       3.989 -15.511   4.972  1.00  0.00     0.074 A 
ATOM     59  C   UNL     1      -1.672 -16.480   7.618  1.00  0.00     0.029 A 
ATOM     60  N   UNL     1       0.012 -15.773   6.350  1.00  0.00    -0.354 N 
ATOM     61  N   UNL     1       2.780 -15.660   5.453  1.00  0.00    -0.248 NA
ATOM     62  C   UNL     1       5.024 -16.264   5.697  1.00  0.00     0.031 C 
ATOM     63  C   UNL     1      -0.492 -17.071   8.083  1.00  0.00     0.029 A 
ATOM     64  C   UNL     1       0.552 -16.648   7.278  1.00  0.00     0.049 A 
ATOM     65  H   UNL     1       0.523 -15.303   5.652  1.00  0.00     0.167 HD
ATOM     66  C   UNL     1       2.904 -16.544   6.517  1.00  0.00     0.074 A 
ATOM     67  C   UNL     1       4.303 -16.907   6.604  1.00  0.00     0.031 C 
ATOM     68  C   UNL     1       1.942 -17.011   7.349  1.00  0.00     0.031 A 
BRANCH  55  69
ATOM     69  C   UNL     1      -3.686 -14.785   6.136  1.00  0.00    -0.014 A 
ATOM     70  C   UNL     1      -4.667 -15.405   5.346  1.00  0.00     0.009 A 
ATOM     71  C   UNL     1      -4.078 -14.130   7.314  1.00  0.00     0.009 A 
ATOM     72  C   UNL     1      -6.015 -15.331   5.704  1.00  0.00     0.001 A 
ATOM     73  C   UNL     1      -5.423 -14.083   7.685  1.00  0.00     0.001 A 
ATOM     74  C   UNL     1      -6.391 -14.673   6.874  1.00  0.00     0.000 A 
ENDBRANCH  55  69
BRANCH  56  75
ATOM     75  C   UNL     1       5.886 -14.660   3.426  1.00  0.00    -0.014 A 
ATOM     76  C   UNL     1       6.482 -15.784   2.834  1.00  0.00     0.009 A 
ATOM     77  C   UNL     1       6.671 -13.523   3.670  1.00  0.00     0.009 A 
ATOM     78  C   UNL     1       7.843 -15.781   2.519  1.00  0.00     0.001 A 
ATOM     79  C   UNL     1       8.025 -13.513   3.328  1.00  0.00     0.001 A 
ATOM     80  C   UNL     1       8.612 -14.644   2.762  1.00  0.00     0.000 A 
ENDBRANCH  56  75
BRANCH  68  81
ATOM     81  C   UNL     1       2.361 -18.003   8.395  1.00  0.00    -0.014 A 
ATOM     82  C   UNL     1       3.070 -17.601   9.537  1.00  0.00     0.009 A 
ATOM     83  C   UNL     1       2.008 -19.354   8.251  1.00  0.00     0.009 A 
ATOM     84  C   UNL     1       3.442 -18.540  10.501  1.00  0.00     0.001 A 
ATOM     85  C   UNL     1       2.361 -20.285   9.227  1.00  0.00     0.001 A 
ATOM     86  C   UNL     1       3.084 -19.880  10.348  1.00  0.00     0.000 A 
ENDBRANCH  68  81
ENDBRANCH  42  43
ENDBRANCH  34  37
ENDBRANCH  32  33
ENDBRANCH  31  32
ENDBRANCH  30  31
ENDBRANCH   3  30
TORSDOF 15
