REMARK SMILES CN(C)Nc1ncnc(Nc2ccc(C(=O)NCCCNC(=O)c3ccc(-c4c5nc(c(-c6ccccc6)c6ccc([nH]6)c(-c6ccccc6)c6nc(c(-c7ccccc7)c7ccc4[nH]7)C=C6)C=C5)cc3)cc2)c1[N+](=O)[O-]
REMARK SMILES IDX 18 1 17 2 15 3 16 4 14 6 11 7 12 8 73 9 13 10 72 11 10 12
REMARK SMILES IDX 9 14 5 15 6 16 74 17 7 18 8 19 4 20 2 22 1 23 3 24 75 25
REMARK SMILES IDX 76 26 77 27 19 28 20 29 21 30 22 31 23 33 24 34 25 35 71 36
REMARK SMILES IDX 26 37 70 38 27 39 28 40 29 41 64 42 30 43 69 44 63 45 65 46
REMARK SMILES IDX 31 47 68 48 62 49 61 50 32 52 54 53 39 54 53 55 40 56 43 57
REMARK SMILES IDX 52 58 66 59 41 60 42 61 51 63 67 64 44 65 33 66 34 67 38 68
REMARK SMILES IDX 35 69 37 70 36 71 55 72 56 73 60 74 57 75 59 76 58 77 45 78
REMARK SMILES IDX 46 79 50 80 47 81 49 82 48 83
REMARK H PARENT 17 5 10 13 4 21 21 32 65 51 43 62
REMARK Flexibility Score: inf
ROOT
ATOM      1  C   UNL     1       6.117  -8.095   3.090  1.00  0.00     0.118 C 
ENDROOT
BRANCH   1   2
ATOM      2  N   UNL     1       7.459  -7.689   2.717  1.00  0.00    -0.352 N 
ATOM      3  C   UNL     1       7.960  -6.543   2.157  1.00  0.00     0.251 C 
ATOM      4  O   UNL     1       9.171  -6.504   1.937  1.00  0.00    -0.269 OA
ATOM      5  H   UNL     1       8.144  -8.370   2.902  1.00  0.00     0.163 HD
BRANCH   3   6
ATOM      6  C   UNL     1       7.132  -5.338   1.876  1.00  0.00     0.039 A 
ATOM      7  C   UNL     1       5.694  -2.928   1.587  1.00  0.00     0.040 A 
ATOM      8  C   UNL     1       7.075  -2.904   1.774  1.00  0.00     0.027 A 
ATOM      9  C   UNL     1       5.061  -4.165   1.425  1.00  0.00     0.027 A 
ATOM     10  C   UNL     1       7.784  -4.097   1.942  1.00  0.00     0.016 A 
ATOM     11  C   UNL     1       5.778  -5.361   1.544  1.00  0.00     0.016 A 
BRANCH   7  12
ATOM     12  N   UNL     1       4.989  -1.718   1.458  1.00  0.00    -0.334 N 
ATOM     13  H   UNL     1       5.362  -1.046   0.841  1.00  0.00     0.168 HD
BRANCH  12  14
ATOM     14  C   UNL     1       3.798  -1.379   2.131  1.00  0.00     0.215 A 
ATOM     15  C   UNL     1       1.839  -0.076   2.464  1.00  0.00     0.225 A 
ATOM     16  N   UNL     1       1.524  -0.813   3.551  1.00  0.00    -0.212 NA
ATOM     17  C   UNL     1       3.026  -0.279   1.790  1.00  0.00     0.354 A 
ATOM     18  C   UNL     1       2.354  -1.806   3.872  1.00  0.00     0.227 A 
ATOM     19  N   UNL     1       3.449  -2.146   3.189  1.00  0.00    -0.212 NA
BRANCH  15  20
ATOM     20  N   UNL     1       0.793   0.768   2.086  1.00  0.00    -0.298 N 
ATOM     21  H   UNL     1       0.342   1.269   2.804  1.00  0.00     0.184 HD
BRANCH  20  22
ATOM     22  N   UNL     1       0.318   0.974   0.760  1.00  0.00    -0.228 NA
ATOM     23  C   UNL     1       0.308  -0.261  -0.043  1.00  0.00     0.130 C 
ATOM     24  C   UNL     1      -1.085   1.427   0.882  1.00  0.00     0.130 C 
ENDBRANCH  20  22
ENDBRANCH  15  20
BRANCH  17  25
ATOM     25  N   UNL     1       3.489   0.650   0.803  1.00  0.00     0.070 N 
ATOM     26  O   UNL     1       3.885   0.175  -0.275  1.00  0.00    -0.258 OA
ATOM     27  O   UNL     1       3.571   1.843   1.123  1.00  0.00    -0.258 OA
ENDBRANCH  17  25
ENDBRANCH  12  14
ENDBRANCH   7  12
ENDBRANCH   3   6
ENDBRANCH   1   2
BRANCH   1  28
ATOM     28  C   UNL     1       5.522  -9.007   2.020  1.00  0.00     0.042 C 
BRANCH  28  29
ATOM     29  C   UNL     1       6.134 -10.405   2.034  1.00  0.00     0.118 C 
BRANCH  29  30
ATOM     30  N   UNL     1       5.743 -11.157   3.221  1.00  0.00    -0.352 N 
ATOM     31  C   UNL     1       5.097 -12.365   3.317  1.00  0.00     0.251 C 
ATOM     32  H   UNL     1       5.976 -10.736   4.080  1.00  0.00     0.163 HD
ATOM     33  O   UNL     1       4.641 -12.737   4.390  1.00  0.00    -0.269 OA
BRANCH  31  34
ATOM     34  C   UNL     1       4.946 -13.209   2.114  1.00  0.00     0.039 A 
ATOM     35  C   UNL     1       3.715 -13.820   1.863  1.00  0.00     0.014 A 
ATOM     36  C   UNL     1       6.021 -13.398   1.243  1.00  0.00     0.014 A 
ATOM     37  C   UNL     1       3.542 -14.566   0.696  1.00  0.00     0.010 A 
ATOM     38  C   UNL     1       5.825 -14.076   0.046  1.00  0.00     0.010 A 
ATOM     39  C   UNL     1       4.584 -14.666  -0.240  1.00  0.00    -0.014 A 
BRANCH  39  40
ATOM     40  C   UNL     1       4.409 -15.375  -1.531  1.00  0.00     0.031 A 
ATOM     41  C   UNL     1       5.244 -16.585  -1.841  1.00  0.00     0.074 A 
ATOM     42  C   UNL     1       3.569 -14.875  -2.457  1.00  0.00     0.049 A 
ATOM     43  N   UNL     1       5.331 -17.266  -2.955  1.00  0.00    -0.248 NA
ATOM     44  C   UNL     1       6.118 -17.079  -0.763  1.00  0.00     0.031 C 
ATOM     45  C   UNL     1       2.721 -13.693  -2.285  1.00  0.00     0.029 A 
ATOM     46  N   UNL     1       3.303 -15.291  -3.737  1.00  0.00    -0.354 N 
ATOM     47  C   UNL     1       6.280 -18.253  -2.719  1.00  0.00     0.074 A 
ATOM     48  C   UNL     1       6.778 -18.050  -1.376  1.00  0.00     0.031 C 
ATOM     49  C   UNL     1       2.013 -13.494  -3.408  1.00  0.00     0.029 A 
ATOM     50  C   UNL     1       2.395 -14.498  -4.396  1.00  0.00     0.049 A 
ATOM     51  H   UNL     1       3.722 -16.084  -4.144  1.00  0.00     0.167 HD
ATOM     52  C   UNL     1       6.690 -19.249  -3.540  1.00  0.00     0.031 A 
ATOM     53  C   UNL     1       1.937 -14.560  -5.660  1.00  0.00     0.031 A 
ATOM     54  C   UNL     1       6.195 -19.444  -4.877  1.00  0.00     0.049 A 
ATOM     55  C   UNL     1       2.443 -15.646  -6.569  1.00  0.00     0.074 A 
ATOM     56  C   UNL     1       6.516 -20.445  -5.777  1.00  0.00     0.029 A 
ATOM     57  N   UNL     1       5.278 -18.616  -5.507  1.00  0.00    -0.354 N 
ATOM     58  N   UNL     1       3.301 -16.604  -6.315  1.00  0.00    -0.248 NA
ATOM     59  C   UNL     1       1.909 -15.662  -7.938  1.00  0.00     0.031 C 
ATOM     60  C   UNL     1       5.837 -20.189  -6.973  1.00  0.00     0.029 A 
ATOM     61  C   UNL     1       5.040 -19.070  -6.794  1.00  0.00     0.049 A 
ATOM     62  H   UNL     1       4.859 -17.824  -5.101  1.00  0.00     0.167 HD
ATOM     63  C   UNL     1       3.381 -17.359  -7.479  1.00  0.00     0.074 A 
ATOM     64  C   UNL     1       2.477 -16.752  -8.434  1.00  0.00     0.031 C 
ATOM     65  C   UNL     1       4.132 -18.459  -7.730  1.00  0.00     0.031 A 
BRANCH  52  66
ATOM     66  C   UNL     1       7.737 -20.192  -3.015  1.00  0.00    -0.014 A 
ATOM     67  C   UNL     1       7.455 -21.087  -1.969  1.00  0.00     0.009 A 
ATOM     68  C   UNL     1       9.018 -20.205  -3.588  1.00  0.00     0.009 A 
ATOM     69  C   UNL     1       8.446 -21.940  -1.479  1.00  0.00     0.001 A 
ATOM     70  C   UNL     1       9.997 -21.084  -3.120  1.00  0.00     0.001 A 
ATOM     71  C   UNL     1       9.714 -21.941  -2.058  1.00  0.00     0.000 A 
ENDBRANCH  52  66
BRANCH  53  72
ATOM     72  C   UNL     1       0.934 -13.573  -6.141  1.00  0.00    -0.014 A 
ATOM     73  C   UNL     1      -0.380 -13.976  -6.422  1.00  0.00     0.009 A 
ATOM     74  C   UNL     1       1.284 -12.226  -6.328  1.00  0.00     0.009 A 
ATOM     75  C   UNL     1      -1.314 -13.059  -6.910  1.00  0.00     0.001 A 
ATOM     76  C   UNL     1       0.339 -11.305  -6.785  1.00  0.00     0.001 A 
ATOM     77  C   UNL     1      -0.955 -11.724  -7.086  1.00  0.00     0.000 A 
ENDBRANCH  53  72
BRANCH  65  78
ATOM     78  C   UNL     1       3.968 -19.114  -9.074  1.00  0.00    -0.014 A 
ATOM     79  C   UNL     1       4.457 -18.520 -10.247  1.00  0.00     0.009 A 
ATOM     80  C   UNL     1       3.356 -20.376  -9.154  1.00  0.00     0.009 A 
ATOM     81  C   UNL     1       4.307 -19.164 -11.478  1.00  0.00     0.001 A 
ATOM     82  C   UNL     1       3.238 -21.031 -10.380  1.00  0.00     0.001 A 
ATOM     83  C   UNL     1       3.705 -20.421 -11.542  1.00  0.00     0.000 A 
ENDBRANCH  65  78
ENDBRANCH  39  40
ENDBRANCH  31  34
ENDBRANCH  29  30
ENDBRANCH  28  29
ENDBRANCH   1  28
TORSDOF 15
