REMARK SMILES CCc1ccc(C(=O)N2CC[C@H](C(=O)NCCCNC(=O)c3ccc(-c4c5nc(c(-c6ccccc6)c6ccc([nH]6)c(-c6ccccc6)c6nc(c(-c7ccccc7)c7ccc4[nH]7)C=C6)C=C5)cc3)[C@@H]2C)s1
REMARK SMILES IDX 16 1 15 2 13 3 14 4 12 6 9 7 10 8 70 9 11 10 71 11 7 12 8 13
REMARK SMILES IDX 6 14 3 15 4 16 72 17 5 18 2 19 1 20 17 21 18 22 19 23 20 24
REMARK SMILES IDX 21 26 22 27 23 28 69 29 24 30 68 31 25 32 26 33 27 34 62 35
REMARK SMILES IDX 28 36 67 37 61 38 63 39 29 40 66 41 60 42 59 43 30 45 52 46
REMARK SMILES IDX 37 47 51 48 38 49 41 50 50 51 64 52 39 53 40 54 49 56 65 57
REMARK SMILES IDX 42 58 31 59 32 60 36 61 33 62 35 63 34 64 53 65 54 66 58 67
REMARK SMILES IDX 55 68 57 69 56 70 43 71 44 72 48 73 45 74 47 75 46 76
REMARK H PARENT 15 5 19 25 63 44 41 55
REMARK Flexibility Score: inf
ROOT
ATOM      1  C   UNL     1       0.012  -2.774   9.577  1.00  0.00     0.117 C 
ENDROOT
BRANCH   1   2
ATOM      2  N   UNL     1       1.083  -3.754   9.612  1.00  0.00    -0.356 N 
ATOM      3  C   UNL     1       2.180  -3.930   8.831  1.00  0.00     0.225 C 
ATOM      4  O   UNL     1       2.842  -4.948   9.040  1.00  0.00    -0.275 OA
ATOM      5  H   UNL     1       0.998  -4.415  10.337  1.00  0.00     0.163 HD
BRANCH   3   6
ATOM      6  C   UNL     1       2.597  -2.878   7.807  1.00  0.00     0.102 C 
ATOM      7  N   UNL     1       3.067  -3.618   5.574  1.00  0.00    -0.334 N 
ATOM      8  C   UNL     1       4.174  -4.027   6.410  1.00  0.00     0.121 C 
ATOM      9  C   UNL     1       2.011  -2.983   6.376  1.00  0.00     0.094 C 
ATOM     10  C   UNL     1       4.112  -3.017   7.547  1.00  0.00     0.037 C 
ATOM     11  C   UNL     1       0.685  -3.717   6.243  1.00  0.00     0.032 C 
BRANCH   7  12
ATOM     12  C   UNL     1       3.137  -3.795   4.196  1.00  0.00     0.264 C 
ATOM     13  O   UNL     1       3.871  -4.660   3.720  1.00  0.00    -0.268 OA
BRANCH  12  14
ATOM     14  C   UNL     1       2.399  -2.856   3.363  1.00  0.00     0.092 A 
ATOM     15  C   UNL     1       1.145  -1.814   1.494  1.00  0.00     0.005 A 
ATOM     16  C   UNL     1       1.592  -0.884   2.410  1.00  0.00     0.016 A 
ATOM     17  S   UNL     1       1.582  -3.407   1.965  1.00  0.00    -0.135 S 
ATOM     18  C   UNL     1       2.338  -1.479   3.465  1.00  0.00     0.026 A 
BRANCH  15  19
ATOM     19  C   UNL     1       0.371  -1.598   0.224  1.00  0.00     0.043 C 
ATOM     20  C   UNL     1       0.736  -0.299  -0.483  1.00  0.00     0.010 C 
ENDBRANCH  15  19
ENDBRANCH  12  14
ENDBRANCH   7  12
ENDBRANCH   3   6
ENDBRANCH   1   2
BRANCH   1  21
ATOM     21  C   UNL     1      -1.327  -3.441   9.256  1.00  0.00     0.042 C 
BRANCH  21  22
ATOM     22  C   UNL     1      -1.791  -4.447  10.309  1.00  0.00     0.118 C 
BRANCH  22  23
ATOM     23  N   UNL     1      -2.819  -3.904  11.177  1.00  0.00    -0.352 N 
ATOM     24  C   UNL     1      -4.080  -4.384  11.438  1.00  0.00     0.251 C 
ATOM     25  H   UNL     1      -2.579  -3.072  11.646  1.00  0.00     0.163 HD
ATOM     26  O   UNL     1      -4.872  -3.692  12.070  1.00  0.00    -0.269 OA
BRANCH  24  27
ATOM     27  C   UNL     1      -4.506  -5.720  10.950  1.00  0.00     0.039 A 
ATOM     28  C   UNL     1      -5.789  -5.853  10.409  1.00  0.00     0.014 A 
ATOM     29  C   UNL     1      -3.687  -6.846  11.077  1.00  0.00     0.014 A 
ATOM     30  C   UNL     1      -6.237  -7.100   9.964  1.00  0.00     0.010 A 
ATOM     31  C   UNL     1      -4.116  -8.082  10.588  1.00  0.00     0.010 A 
ATOM     32  C   UNL     1      -5.400  -8.224  10.039  1.00  0.00    -0.014 A 
BRANCH  32  33
ATOM     33  C   UNL     1      -5.871  -9.558   9.590  1.00  0.00     0.031 A 
ATOM     34  C   UNL     1      -6.122 -10.649  10.595  1.00  0.00     0.074 A 
ATOM     35  C   UNL     1      -6.036  -9.813   8.278  1.00  0.00     0.049 A 
ATOM     36  N   UNL     1      -6.467 -11.896  10.392  1.00  0.00    -0.248 NA
ATOM     37  C   UNL     1      -5.943 -10.296  12.012  1.00  0.00     0.031 C 
ATOM     38  C   UNL     1      -5.801  -8.863   7.190  1.00  0.00     0.029 A 
ATOM     39  N   UNL     1      -6.435 -10.962   7.640  1.00  0.00    -0.354 N 
ATOM     40  C   UNL     1      -6.509 -12.485  11.648  1.00  0.00     0.074 A 
ATOM     41  C   UNL     1      -6.146 -11.463  12.607  1.00  0.00     0.031 C 
ATOM     42  C   UNL     1      -6.073  -9.464   6.019  1.00  0.00     0.029 A 
ATOM     43  C   UNL     1      -6.479 -10.843   6.273  1.00  0.00     0.049 A 
ATOM     44  H   UNL     1      -6.667 -11.791   8.117  1.00  0.00     0.167 HD
ATOM     45  C   UNL     1      -6.826 -13.758  11.980  1.00  0.00     0.031 A 
ATOM     46  C   UNL     1      -6.805 -11.744   5.328  1.00  0.00     0.031 A 
ATOM     47  C   UNL     1      -7.231 -14.774  11.048  1.00  0.00     0.049 A 
ATOM     48  C   UNL     1      -7.201 -13.137   5.724  1.00  0.00     0.074 A 
ATOM     49  C   UNL     1      -7.628 -16.075  11.306  1.00  0.00     0.029 A 
ATOM     50  N   UNL     1      -7.298 -14.599   9.676  1.00  0.00    -0.354 N 
ATOM     51  N   UNL     1      -7.267 -13.666   6.920  1.00  0.00    -0.248 NA
ATOM     52  C   UNL     1      -7.570 -14.054   4.635  1.00  0.00     0.031 C 
ATOM     53  C   UNL     1      -7.923 -16.693  10.085  1.00  0.00     0.029 A 
ATOM     54  C   UNL     1      -7.724 -15.769   9.073  1.00  0.00     0.049 A 
ATOM     55  H   UNL     1      -7.075 -13.766   9.201  1.00  0.00     0.167 HD
ATOM     56  C   UNL     1      -7.692 -14.973   6.730  1.00  0.00     0.074 A 
ATOM     57  C   UNL     1      -7.880 -15.156   5.306  1.00  0.00     0.031 C 
ATOM     58  C   UNL     1      -7.906 -15.937   7.657  1.00  0.00     0.031 A 
BRANCH  45  59
ATOM     59  C   UNL     1      -6.734 -14.125  13.431  1.00  0.00    -0.014 A 
ATOM     60  C   UNL     1      -7.749 -13.769  14.331  1.00  0.00     0.009 A 
ATOM     61  C   UNL     1      -5.626 -14.849  13.896  1.00  0.00     0.009 A 
ATOM     62  C   UNL     1      -7.641 -14.109  15.681  1.00  0.00     0.001 A 
ATOM     63  C   UNL     1      -5.529 -15.200  15.243  1.00  0.00     0.001 A 
ATOM     64  C   UNL     1      -6.533 -14.824  16.135  1.00  0.00     0.000 A 
ENDBRANCH  45  59
BRANCH  46  65
ATOM     65  C   UNL     1      -6.779 -11.351   3.900  1.00  0.00    -0.014 A 
ATOM     66  C   UNL     1      -7.969 -11.012   3.239  1.00  0.00     0.009 A 
ATOM     67  C   UNL     1      -5.568 -11.313   3.195  1.00  0.00     0.009 A 
ATOM     68  C   UNL     1      -7.946 -10.652   1.890  1.00  0.00     0.001 A 
ATOM     69  C   UNL     1      -5.548 -10.941   1.850  1.00  0.00     0.001 A 
ATOM     70  C   UNL     1      -6.736 -10.616   1.198  1.00  0.00     0.000 A 
ENDBRANCH  46  65
BRANCH  58  71
ATOM     71  C   UNL     1      -8.380 -17.268   7.159  1.00  0.00    -0.014 A 
ATOM     72  C   UNL     1      -7.471 -18.204   6.643  1.00  0.00     0.009 A 
ATOM     73  C   UNL     1      -9.740 -17.601   7.237  1.00  0.00     0.009 A 
ATOM     74  C   UNL     1      -7.922 -19.447   6.195  1.00  0.00     0.001 A 
ATOM     75  C   UNL     1     -10.185 -18.849   6.799  1.00  0.00     0.001 A 
ATOM     76  C   UNL     1      -9.277 -19.769   6.274  1.00  0.00     0.000 A 
ENDBRANCH  58  71
ENDBRANCH  32  33
ENDBRANCH  24  27
ENDBRANCH  22  23
ENDBRANCH  21  22
ENDBRANCH   1  21
TORSDOF 13
