REMARK SMILES O=C(OCCOC(=O)c1cc(-c2ccc(C(F)(F)F)cc2)cc([N+](=O)[O-])c1)c1ccc(-c2c3nc(c(-c4ccccc4)c4ccc([nH]4)c(-c4ccccc4)c4nc(c(-c5ccccc5)c5ccc2[nH]5)C=C4)C=C3)cc1
REMARK SMILES IDX 4 1 3 2 2 3 1 4 28 5 29 6 75 7 30 8 74 9 31 10 32 11 33 12
REMARK SMILES IDX 68 13 34 14 73 15 67 16 69 17 35 18 72 19 66 20 65 21 36 23
REMARK SMILES IDX 58 24 43 25 57 26 44 27 47 28 56 29 70 30 45 31 46 32 55 34
REMARK SMILES IDX 71 35 48 36 37 37 38 38 42 39 39 40 41 41 40 42 59 43 60 44
REMARK SMILES IDX 64 45 61 46 63 47 62 48 49 49 50 50 54 51 51 52 53 53 52 54
REMARK SMILES IDX 5 55 6 56 7 57 8 58 9 59 10 60 27 61 11 62 23 63 22 64 12 65
REMARK SMILES IDX 13 66 21 67 14 68 20 69 15 70 16 71 17 72 18 73 19 74 24 75
REMARK SMILES IDX 25 76 26 77
REMARK H PARENT 69 22 47 33
REMARK Flexibility Score: inf
ROOT
ATOM      1  C   UNL     1       4.094   0.433   1.551  1.00  0.00     0.275 C 
ENDROOT
BRANCH   1   2
ATOM      2  O   UNL     1       3.140   1.054   0.672  1.00  0.00    -0.458 OA
BRANCH   2   3
ATOM      3  C   UNL     1       3.080   1.065  -0.679  1.00  0.00     0.338 C 
ATOM      4  O   UNL     1       2.309   1.850  -1.230  1.00  0.00    -0.246 OA
BRANCH   3   5
ATOM      5  C   UNL     1       3.782   0.071  -1.553  1.00  0.00     0.060 A 
ATOM      6  C   UNL     1       5.002  -0.556  -1.292  1.00  0.00     0.016 A 
ATOM      7  C   UNL     1       3.133  -0.244  -2.761  1.00  0.00     0.016 A 
ATOM      8  C   UNL     1       5.522  -1.522  -2.164  1.00  0.00     0.010 A 
ATOM      9  C   UNL     1       3.637  -1.215  -3.629  1.00  0.00     0.010 A 
ATOM     10  C   UNL     1       4.841  -1.863  -3.333  1.00  0.00    -0.014 A 
BRANCH  10  11
ATOM     11  C   UNL     1       5.441  -2.786  -4.321  1.00  0.00     0.031 A 
ATOM     12  C   UNL     1       6.024  -2.212  -5.577  1.00  0.00     0.074 A 
ATOM     13  C   UNL     1       5.463  -4.116  -4.113  1.00  0.00     0.049 A 
ATOM     14  N   UNL     1       6.537  -2.836  -6.604  1.00  0.00    -0.248 NA
ATOM     15  C   UNL     1       6.066  -0.743  -5.677  1.00  0.00     0.031 C 
ATOM     16  C   UNL     1       5.046  -4.795  -2.889  1.00  0.00     0.029 A 
ATOM     17  N   UNL     1       5.822  -5.141  -4.953  1.00  0.00    -0.354 N 
ATOM     18  C   UNL     1       7.006  -1.840  -7.447  1.00  0.00     0.074 A 
ATOM     19  C   UNL     1       6.649  -0.571  -6.853  1.00  0.00     0.031 C 
ATOM     20  C   UNL     1       5.076  -6.124  -3.094  1.00  0.00     0.029 A 
ATOM     21  C   UNL     1       5.493  -6.383  -4.464  1.00  0.00     0.049 A 
ATOM     22  H   UNL     1       6.270  -5.000  -5.819  1.00  0.00     0.167 HD
ATOM     23  C   UNL     1       7.710  -1.975  -8.592  1.00  0.00     0.031 A 
ATOM     24  C   UNL     1       5.486  -7.585  -5.069  1.00  0.00     0.031 A 
ATOM     25  C   UNL     1       8.040  -3.239  -9.187  1.00  0.00     0.049 A 
ATOM     26  C   UNL     1       6.043  -7.695  -6.457  1.00  0.00     0.074 A 
ATOM     27  C   UNL     1       8.802  -3.493 -10.312  1.00  0.00     0.029 A 
ATOM     28  N   UNL     1       7.596  -4.464  -8.714  1.00  0.00    -0.354 N 
ATOM     29  N   UNL     1       6.557  -6.753  -7.209  1.00  0.00    -0.248 NA
ATOM     30  C   UNL     1       6.065  -9.034  -7.059  1.00  0.00     0.031 C 
ATOM     31  C   UNL     1       8.763  -4.869 -10.559  1.00  0.00     0.029 A 
ATOM     32  C   UNL     1       8.018  -5.475  -9.559  1.00  0.00     0.049 A 
ATOM     33  H   UNL     1       7.060  -4.596  -7.899  1.00  0.00     0.167 HD
ATOM     34  C   UNL     1       7.026  -7.396  -8.345  1.00  0.00     0.074 A 
ATOM     35  C   UNL     1       6.709  -8.802  -8.195  1.00  0.00     0.031 C 
ATOM     36  C   UNL     1       7.693  -6.868  -9.399  1.00  0.00     0.031 A 
BRANCH  23  37
ATOM     37  C   UNL     1       8.159  -0.715  -9.269  1.00  0.00    -0.014 A 
ATOM     38  C   UNL     1       9.200   0.061  -8.733  1.00  0.00     0.009 A 
ATOM     39  C   UNL     1       7.546  -0.306 -10.461  1.00  0.00     0.009 A 
ATOM     40  C   UNL     1       9.596   1.242  -9.362  1.00  0.00     0.001 A 
ATOM     41  C   UNL     1       7.959   0.865 -11.100  1.00  0.00     0.001 A 
ATOM     42  C   UNL     1       8.977   1.641 -10.546  1.00  0.00     0.000 A 
ENDBRANCH  23  37
BRANCH  24  43
ATOM     43  C   UNL     1       4.885  -8.770  -4.406  1.00  0.00    -0.014 A 
ATOM     44  C   UNL     1       5.677  -9.791  -3.864  1.00  0.00     0.009 A 
ATOM     45  C   UNL     1       3.488  -8.907  -4.372  1.00  0.00     0.009 A 
ATOM     46  C   UNL     1       5.080 -10.933  -3.320  1.00  0.00     0.001 A 
ATOM     47  C   UNL     1       2.894 -10.038  -3.809  1.00  0.00     0.001 A 
ATOM     48  C   UNL     1       3.691 -11.056  -3.292  1.00  0.00     0.000 A 
ENDBRANCH  24  43
BRANCH  36  49
ATOM     49  C   UNL     1       8.173  -7.823 -10.448  1.00  0.00    -0.014 A 
ATOM     50  C   UNL     1       7.288  -8.398 -11.371  1.00  0.00     0.009 A 
ATOM     51  C   UNL     1       9.544  -8.112 -10.540  1.00  0.00     0.009 A 
ATOM     52  C   UNL     1       7.767  -9.262 -12.356  1.00  0.00     0.001 A 
ATOM     53  C   UNL     1      10.023  -8.953 -11.543  1.00  0.00     0.001 A 
ATOM     54  C   UNL     1       9.133  -9.532 -12.446  1.00  0.00     0.000 A 
ENDBRANCH  36  49
ENDBRANCH  10  11
ENDBRANCH   3   5
ENDBRANCH   2   3
ENDBRANCH   1   2
BRANCH   1  55
ATOM     55  C   UNL     1       3.749  -1.000   1.962  1.00  0.00     0.275 C 
BRANCH  55  56
ATOM     56  O   UNL     1       3.299  -1.822   0.875  1.00  0.00    -0.458 OA
BRANCH  56  57
ATOM     57  C   UNL     1       1.951  -1.848   0.704  1.00  0.00     0.338 C 
ATOM     58  O   UNL     1       1.113  -1.273   1.372  1.00  0.00    -0.246 OA
BRANCH  57  59
ATOM     59  C   UNL     1       1.624  -2.630  -0.504  1.00  0.00     0.067 A 
ATOM     60  C   UNL     1       0.734  -2.080  -1.443  1.00  0.00     0.025 A 
ATOM     61  C   UNL     1       2.109  -3.929  -0.657  1.00  0.00     0.101 A 
ATOM     62  C   UNL     1       0.370  -2.800  -2.591  1.00  0.00    -0.011 A 
ATOM     63  C   UNL     1       1.713  -4.660  -1.781  1.00  0.00     0.270 A 
ATOM     64  C   UNL     1       0.910  -4.083  -2.770  1.00  0.00     0.094 A 
BRANCH  62  65
ATOM     65  C   UNL     1      -0.671  -2.329  -3.515  1.00  0.00    -0.018 A 
ATOM     66  C   UNL     1      -0.599  -1.117  -4.211  1.00  0.00     0.009 A 
ATOM     67  C   UNL     1      -1.805  -3.138  -3.712  1.00  0.00     0.009 A 
ATOM     68  C   UNL     1      -1.631  -0.729  -5.077  1.00  0.00     0.014 A 
ATOM     69  C   UNL     1      -2.833  -2.756  -4.569  1.00  0.00     0.014 A 
ATOM     70  C   UNL     1      -2.761  -1.542  -5.258  1.00  0.00     0.056 A 
BRANCH  70  71
ATOM     71  C   UNL     1      -3.886  -1.111  -6.166  1.00  0.00     0.416 C 
ATOM     72  F   UNL     1      -4.458   0.058  -5.767  1.00  0.00    -0.166 F 
ATOM     73  F   UNL     1      -3.478  -0.913  -7.449  1.00  0.00    -0.166 F 
ATOM     74  F   UNL     1      -4.903  -2.017  -6.235  1.00  0.00    -0.166 F 
ENDBRANCH  70  71
ENDBRANCH  62  65
BRANCH  63  75
ATOM     75  N   UNL     1       2.026  -6.089  -1.873  1.00  0.00     0.062 N 
ATOM     76  O   UNL     1       1.618  -6.704  -2.868  1.00  0.00    -0.258 OA
ATOM     77  O   UNL     1       2.647  -6.601  -0.931  1.00  0.00    -0.258 OA
ENDBRANCH  63  75
ENDBRANCH  57  59
ENDBRANCH  56  57
ENDBRANCH  55  56
ENDBRANCH   1  55
TORSDOF 14
