REMARK SMILES CC(=O)N[C@@H](C[NH2+]CCc1ccc(F)cc1C)C(=O)OCCOC(=O)c1ccc(-c2c3nc(c(-c4ccccc4)c4ccc([nH]4)c(-c4ccccc4)c4nc(c(-c5ccccc5)c5ccc2[nH]5)C=C4)C=C3)cc1
REMARK SMILES IDX 20 1 18 2 19 3 5 4 4 5 1 6 2 7 3 8 6 10 7 11 8 14 9 15 10 16
REMARK SMILES IDX 11 17 16 18 12 19 15 20 17 21 13 22 14 23 21 24 22 25 23 26
REMARK SMILES IDX 24 27 25 28 26 29 27 30 73 31 28 32 72 33 29 34 30 35 31 36
REMARK SMILES IDX 66 37 32 38 71 39 65 40 67 41 33 42 70 43 64 44 63 45 34 47
REMARK SMILES IDX 56 48 41 49 55 50 42 51 45 52 54 53 68 54 43 55 44 56 53 58
REMARK SMILES IDX 69 59 46 60 35 61 36 62 40 63 37 64 39 65 38 66 57 67 58 68
REMARK SMILES IDX 62 69 59 70 61 71 60 72 47 73 48 74 52 75 49 76 51 77 50 78
REMARK H PARENT 4 9 7 12 7 13 67 46 45 57
REMARK Flexibility Score: inf
ROOT
ATOM      1  O   UNL     1       0.093   3.704   3.057  1.00  0.00    -0.460 OA
ENDROOT
BRANCH   1   2
ATOM      2  C   UNL     1       1.236   2.970   3.140  1.00  0.00     0.334 C 
ATOM      3  O   UNL     1       1.773   2.620   4.186  1.00  0.00    -0.250 OA
BRANCH   2   4
ATOM      4  C   UNL     1       1.812   2.620   1.762  1.00  0.00     0.247 C 
BRANCH   4   5
ATOM      5  N   UNL     1       0.909   2.883   0.635  1.00  0.00    -0.338 N 
ATOM      6  C   UNL     1       0.970   0.607  -0.317  1.00  0.00     0.114 C 
ATOM      7  C   UNL     1       0.489   2.033  -0.343  1.00  0.00     0.217 C 
ATOM      8  O   UNL     1      -0.262   2.440  -1.226  1.00  0.00    -0.275 OA
ATOM      9  H   UNL     1       0.558   3.801   0.578  1.00  0.00     0.164 HD
ENDBRANCH   4   5
BRANCH   4  10
ATOM     10  C   UNL     1       3.156   3.350   1.588  1.00  0.00     0.297 C 
BRANCH  10  11
ATOM     11  N   UNL     1       2.975   4.795   1.404  1.00  0.00    -0.344 N 
ATOM     12  H   UNL     1       2.529   5.178   2.238  1.00  0.00     0.346 HD
ATOM     13  H   UNL     1       2.398   4.932   0.574  1.00  0.00     0.346 HD
BRANCH  11  14
ATOM     14  C   UNL     1       4.244   5.499   1.185  1.00  0.00     0.265 C 
BRANCH  14  15
ATOM     15  C   UNL     1       4.898   5.260  -0.191  1.00  0.00     0.097 C 
BRANCH  15  16
ATOM     16  C   UNL     1       3.962   5.492  -1.361  1.00  0.00    -0.039 A 
ATOM     17  C   UNL     1       3.434   4.361  -2.020  1.00  0.00     0.007 A 
ATOM     18  C   UNL     1       3.559   6.779  -1.778  1.00  0.00    -0.045 A 
ATOM     19  C   UNL     1       2.509   4.495  -3.053  1.00  0.00     0.039 A 
ATOM     20  C   UNL     1       2.626   6.894  -2.824  1.00  0.00     0.043 A 
ATOM     21  C   UNL     1       4.035   8.053  -1.137  1.00  0.00     0.045 C 
ATOM     22  C   UNL     1       2.114   5.762  -3.447  1.00  0.00     0.123 A 
ATOM     23  F   UNL     1       1.225   5.901  -4.439  1.00  0.00    -0.207 F 
ENDBRANCH  15  16
ENDBRANCH  14  15
ENDBRANCH  11  14
ENDBRANCH  10  11
ENDBRANCH   4  10
ENDBRANCH   2   4
ENDBRANCH   1   2
BRANCH   1  24
ATOM     24  C   UNL     1      -0.527   4.058   4.307  1.00  0.00     0.274 C 
BRANCH  24  25
ATOM     25  C   UNL     1      -1.759   3.193   4.579  1.00  0.00     0.275 C 
BRANCH  25  26
ATOM     26  O   UNL     1      -1.407   1.807   4.747  1.00  0.00    -0.458 OA
BRANCH  26  27
ATOM     27  C   UNL     1      -1.486   1.064   3.621  1.00  0.00     0.338 C 
ATOM     28  O   UNL     1      -1.834   1.424   2.510  1.00  0.00    -0.246 OA
BRANCH  27  29
ATOM     29  C   UNL     1      -0.945  -0.278   3.867  1.00  0.00     0.060 A 
ATOM     30  C   UNL     1       0.326  -0.562   3.370  1.00  0.00     0.016 A 
ATOM     31  C   UNL     1      -1.724  -1.282   4.437  1.00  0.00     0.016 A 
ATOM     32  C   UNL     1       0.814  -1.860   3.388  1.00  0.00     0.010 A 
ATOM     33  C   UNL     1      -1.216  -2.584   4.494  1.00  0.00     0.010 A 
ATOM     34  C   UNL     1       0.045  -2.885   3.948  1.00  0.00    -0.014 A 
BRANCH  34  35
ATOM     35  C   UNL     1       0.553  -4.276   3.912  1.00  0.00     0.031 A 
ATOM     36  C   UNL     1      -0.117  -5.296   3.037  1.00  0.00     0.074 A 
ATOM     37  C   UNL     1       1.639  -4.612   4.631  1.00  0.00     0.049 A 
ATOM     38  N   UNL     1       0.095  -6.585   2.962  1.00  0.00    -0.248 NA
ATOM     39  C   UNL     1      -1.164  -4.802   2.128  1.00  0.00     0.031 C 
ATOM     40  C   UNL     1       2.423  -3.696   5.462  1.00  0.00     0.029 A 
ATOM     41  N   UNL     1       2.275  -5.819   4.773  1.00  0.00    -0.354 N 
ATOM     42  C   UNL     1      -0.820  -7.063   2.034  1.00  0.00     0.074 A 
ATOM     43  C   UNL     1      -1.586  -5.927   1.567  1.00  0.00     0.031 C 
ATOM     44  C   UNL     1       3.445  -4.370   6.013  1.00  0.00     0.029 A 
ATOM     45  C   UNL     1       3.348  -5.774   5.628  1.00  0.00     0.049 A 
ATOM     46  H   UNL     1       1.990  -6.637   4.306  1.00  0.00     0.167 HD
ATOM     47  C   UNL     1      -1.010  -8.337   1.617  1.00  0.00     0.031 A 
ATOM     48  C   UNL     1       4.141  -6.761   6.084  1.00  0.00     0.031 A 
ATOM     49  C   UNL     1      -0.232  -9.460   2.067  1.00  0.00     0.049 A 
ATOM     50  C   UNL     1       3.878  -8.172   5.646  1.00  0.00     0.074 A 
ATOM     51  C   UNL     1      -0.353 -10.793   1.710  1.00  0.00     0.029 A 
ATOM     52  N   UNL     1       0.820  -9.379   2.965  1.00  0.00    -0.354 N 
ATOM     53  N   UNL     1       2.973  -8.621   4.811  1.00  0.00    -0.248 NA
ATOM     54  C   UNL     1       4.738  -9.214   6.225  1.00  0.00     0.031 C 
ATOM     55  C   UNL     1       0.609 -11.522   2.418  1.00  0.00     0.029 A 
ATOM     56  C   UNL     1       1.351 -10.638   3.184  1.00  0.00     0.049 A 
ATOM     57  H   UNL     1       1.142  -8.548   3.384  1.00  0.00     0.167 HD
ATOM     58  C   UNL     1       3.156  -9.995   4.759  1.00  0.00     0.074 A 
ATOM     59  C   UNL     1       4.272 -10.304   5.630  1.00  0.00     0.031 C 
ATOM     60  C   UNL     1       2.460 -10.921   4.056  1.00  0.00     0.031 A 
BRANCH  47  61
ATOM     61  C   UNL     1      -2.138  -8.588   0.660  1.00  0.00    -0.014 A 
ATOM     62  C   UNL     1      -2.033  -8.256  -0.699  1.00  0.00     0.009 A 
ATOM     63  C   UNL     1      -3.316  -9.194   1.126  1.00  0.00     0.009 A 
ATOM     64  C   UNL     1      -3.099  -8.503  -1.568  1.00  0.00     0.001 A 
ATOM     65  C   UNL     1      -4.370  -9.458   0.251  1.00  0.00     0.001 A 
ATOM     66  C   UNL     1      -4.264  -9.106  -1.093  1.00  0.00     0.000 A 
ENDBRANCH  47  61
BRANCH  48  67
ATOM     67  C   UNL     1       5.224  -6.452   7.050  1.00  0.00    -0.014 A 
ATOM     68  C   UNL     1       6.569  -6.506   6.657  1.00  0.00     0.009 A 
ATOM     69  C   UNL     1       4.914  -6.091   8.371  1.00  0.00     0.009 A 
ATOM     70  C   UNL     1       7.583  -6.218   7.573  1.00  0.00     0.001 A 
ATOM     71  C   UNL     1       5.929  -5.780   9.277  1.00  0.00     0.001 A 
ATOM     72  C   UNL     1       7.263  -5.849   8.880  1.00  0.00     0.000 A 
ENDBRANCH  48  67
BRANCH  60  73
ATOM     73  C   UNL     1       2.904 -12.347   4.186  1.00  0.00    -0.014 A 
ATOM     74  C   UNL     1       2.584 -13.101   5.325  1.00  0.00     0.009 A 
ATOM     75  C   UNL     1       3.623 -12.950   3.144  1.00  0.00     0.009 A 
ATOM     76  C   UNL     1       3.001 -14.429   5.428  1.00  0.00     0.001 A 
ATOM     77  C   UNL     1       4.021 -14.283   3.241  1.00  0.00     0.001 A 
ATOM     78  C   UNL     1       3.716 -15.020   4.385  1.00  0.00     0.000 A 
ENDBRANCH  60  73
ENDBRANCH  34  35
ENDBRANCH  27  29
ENDBRANCH  26  27
ENDBRANCH  25  26
ENDBRANCH  24  25
ENDBRANCH   1  24
TORSDOF 17
