REMARK SMILES O=C(OCCOC(=O)[C@@H]1Cc2ccccc2CN1C(=O)COc1ccccc1)c1ccc(-c2c3nc(c(-c4ccccc4)c4ccc([nH]4)c(-c4ccccc4)c4nc(c(-c5ccccc5)c5ccc2[nH]5)C=C4)C=C3)cc1
REMARK SMILES IDX 5 1 4 2 3 3 2 4 1 5 29 6 30 7 76 8 31 9 75 10 32 11 33 12
REMARK SMILES IDX 34 13 69 14 35 15 74 16 68 17 70 18 36 19 73 20 67 21 66 22
REMARK SMILES IDX 37 24 59 25 44 26 58 27 45 28 48 29 57 30 71 31 46 32 47 33
REMARK SMILES IDX 56 35 72 36 49 37 38 38 39 39 43 40 40 41 42 42 41 43 60 44
REMARK SMILES IDX 61 45 65 46 62 47 64 48 63 49 50 50 51 51 55 52 52 53 54 54
REMARK SMILES IDX 53 55 6 56 7 57 8 58 9 59 10 60 18 61 11 62 17 63 12 64
REMARK SMILES IDX 16 65 13 66 15 67 14 68 19 69 20 70 21 71 22 72 23 73 24 74
REMARK SMILES IDX 28 75 25 76 27 77 26 78
REMARK H PARENT 70 23 48 34
REMARK Flexibility Score: inf
ROOT
ATOM      1  C   UNL     1       0.248   5.143   3.214  1.00  0.00     0.274 C 
ENDROOT
BRANCH   1   2
ATOM      2  C   UNL     1      -0.147   5.635   1.811  1.00  0.00     0.275 C 
BRANCH   2   3
ATOM      3  O   UNL     1       0.113   4.657   0.792  1.00  0.00    -0.458 OA
BRANCH   3   4
ATOM      4  C   UNL     1       1.275   4.400   0.149  1.00  0.00     0.338 C 
ATOM      5  O   UNL     1       1.257   3.528  -0.723  1.00  0.00    -0.246 OA
BRANCH   4   6
ATOM      6  C   UNL     1       2.608   5.013   0.492  1.00  0.00     0.060 A 
ATOM      7  C   UNL     1       2.882   5.945   1.504  1.00  0.00     0.016 A 
ATOM      8  C   UNL     1       3.710   4.500  -0.208  1.00  0.00     0.016 A 
ATOM      9  C   UNL     1       4.187   6.266   1.890  1.00  0.00     0.010 A 
ATOM     10  C   UNL     1       5.016   4.805   0.184  1.00  0.00     0.010 A 
ATOM     11  C   UNL     1       5.266   5.663   1.263  1.00  0.00    -0.014 A 
BRANCH  11  12
ATOM     12  C   UNL     1       6.653   5.965   1.678  1.00  0.00     0.031 A 
ATOM     13  C   UNL     1       7.550   6.630   0.680  1.00  0.00     0.074 A 
ATOM     14  C   UNL     1       7.114   5.615   2.897  1.00  0.00     0.049 A 
ATOM     15  N   UNL     1       8.807   6.963   0.791  1.00  0.00    -0.248 NA
ATOM     16  C   UNL     1       6.952   6.953  -0.629  1.00  0.00     0.031 C 
ATOM     17  C   UNL     1       6.341   4.965   3.960  1.00  0.00     0.029 A 
ATOM     18  N   UNL     1       8.369   5.733   3.440  1.00  0.00    -0.354 N 
ATOM     19  C   UNL     1       9.135   7.545  -0.423  1.00  0.00     0.074 A 
ATOM     20  C   UNL     1       8.001   7.389  -1.301  1.00  0.00     0.031 C 
ATOM     21  C   UNL     1       7.151   4.685   4.995  1.00  0.00     0.029 A 
ATOM     22  C   UNL     1       8.490   5.166   4.689  1.00  0.00     0.049 A 
ATOM     23  H   UNL     1       9.114   6.181   2.979  1.00  0.00     0.167 HD
ATOM     24  C   UNL     1      10.248   8.236  -0.753  1.00  0.00     0.031 A 
ATOM     25  C   UNL     1       9.563   5.065   5.496  1.00  0.00     0.031 A 
ATOM     26  C   UNL     1      11.363   8.401   0.130  1.00  0.00     0.049 A 
ATOM     27  C   UNL     1      10.840   5.739   5.069  1.00  0.00     0.074 A 
ATOM     28  C   UNL     1      12.524   9.122  -0.064  1.00  0.00     0.029 A 
ATOM     29  N   UNL     1      11.449   7.818   1.387  1.00  0.00    -0.354 N 
ATOM     30  N   UNL     1      11.095   6.402   3.966  1.00  0.00    -0.248 NA
ATOM     31  C   UNL     1      11.956   5.705   6.024  1.00  0.00     0.031 C 
ATOM     32  C   UNL     1      13.336   8.936   1.060  1.00  0.00     0.029 A 
ATOM     33  C   UNL     1      12.656   8.145   1.975  1.00  0.00     0.049 A 
ATOM     34  H   UNL     1      10.754   7.255   1.798  1.00  0.00     0.167 HD
ATOM     35  C   UNL     1      12.370   6.926   4.125  1.00  0.00     0.074 A 
ATOM     36  C   UNL     1      12.839   6.493   5.427  1.00  0.00     0.031 C 
ATOM     37  C   UNL     1      13.082   7.715   3.282  1.00  0.00     0.031 A 
BRANCH  24  38
ATOM     38  C   UNL     1      10.252   8.871  -2.113  1.00  0.00    -0.014 A 
ATOM     39  C   UNL     1       9.354   9.911  -2.421  1.00  0.00     0.009 A 
ATOM     40  C   UNL     1      11.087   8.374  -3.122  1.00  0.00     0.009 A 
ATOM     41  C   UNL     1       9.238  10.384  -3.728  1.00  0.00     0.001 A 
ATOM     42  C   UNL     1      10.995   8.878  -4.421  1.00  0.00     0.001 A 
ATOM     43  C   UNL     1      10.058   9.866  -4.727  1.00  0.00     0.000 A 
ENDBRANCH  24  38
BRANCH  25  44
ATOM     44  C   UNL     1       9.472   4.378   6.814  1.00  0.00    -0.014 A 
ATOM     45  C   UNL     1       9.501   5.118   8.007  1.00  0.00     0.009 A 
ATOM     46  C   UNL     1       9.402   2.979   6.891  1.00  0.00     0.009 A 
ATOM     47  C   UNL     1       9.511   4.471   9.247  1.00  0.00     0.001 A 
ATOM     48  C   UNL     1       9.389   2.335   8.133  1.00  0.00     0.001 A 
ATOM     49  C   UNL     1       9.458   3.080   9.309  1.00  0.00     0.000 A 
ENDBRANCH  25  44
BRANCH  37  50
ATOM     50  C   UNL     1      14.408   8.220   3.772  1.00  0.00    -0.014 A 
ATOM     51  C   UNL     1      15.516   7.371   3.900  1.00  0.00     0.009 A 
ATOM     52  C   UNL     1      14.559   9.589   4.047  1.00  0.00     0.009 A 
ATOM     53  C   UNL     1      16.745   7.880   4.322  1.00  0.00     0.001 A 
ATOM     54  C   UNL     1      15.796  10.101   4.433  1.00  0.00     0.001 A 
ATOM     55  C   UNL     1      16.886   9.245   4.579  1.00  0.00     0.000 A 
ENDBRANCH  37  50
ENDBRANCH  11  12
ENDBRANCH   4   6
ENDBRANCH   3   4
ENDBRANCH   2   3
ENDBRANCH   1   2
BRANCH   1  56
ATOM     56  O   UNL     1       1.270   4.119   3.129  1.00  0.00    -0.461 OA
BRANCH  56  57
ATOM     57  C   UNL     1       0.865   2.859   3.456  1.00  0.00     0.329 C 
ATOM     58  O   UNL     1      -0.140   2.637   4.126  1.00  0.00    -0.250 OA
BRANCH  57  59
ATOM     59  C   UNL     1       1.768   1.762   2.824  1.00  0.00     0.200 C 
ATOM     60  C   UNL     1       0.776   0.626   2.430  1.00  0.00     0.073 C 
ATOM     61  N   UNL     1       2.903   1.283   3.674  1.00  0.00    -0.321 N 
ATOM     62  C   UNL     1       1.353  -0.757   2.505  1.00  0.00    -0.040 A 
ATOM     63  C   UNL     1       2.664   0.081   4.457  1.00  0.00     0.156 C 
ATOM     64  C   UNL     1       0.871  -1.780   1.687  1.00  0.00     0.004 A 
ATOM     65  C   UNL     1       2.301  -1.033   3.504  1.00  0.00    -0.025 A 
ATOM     66  C   UNL     1       1.380  -3.068   1.821  1.00  0.00     0.000 A 
ATOM     67  C   UNL     1       2.840  -2.318   3.603  1.00  0.00     0.006 A 
ATOM     68  C   UNL     1       2.379  -3.331   2.759  1.00  0.00     0.000 A 
BRANCH  61  69
ATOM     69  C   UNL     1       4.238   1.662   3.583  1.00  0.00     0.261 C 
ATOM     70  O   UNL     1       5.051   1.404   4.478  1.00  0.00    -0.271 OA
BRANCH  69  71
ATOM     71  C   UNL     1       4.721   2.383   2.334  1.00  0.00     0.329 C 
BRANCH  71  72
ATOM     72  O   UNL     1       4.608   1.655   1.114  1.00  0.00    -0.484 OA
BRANCH  72  73
ATOM     73  C   UNL     1       5.806   1.145   0.682  1.00  0.00     0.120 A 
ATOM     74  C   UNL     1       6.282   1.540  -0.571  1.00  0.00     0.046 A 
ATOM     75  C   UNL     1       6.505   0.188   1.414  1.00  0.00     0.046 A 
ATOM     76  C   UNL     1       7.485   1.031  -1.064  1.00  0.00     0.004 A 
ATOM     77  C   UNL     1       7.692  -0.347   0.905  1.00  0.00     0.004 A 
ATOM     78  C   UNL     1       8.188   0.081  -0.327  1.00  0.00     0.000 A 
ENDBRANCH  72  73
ENDBRANCH  71  72
ENDBRANCH  69  71
ENDBRANCH  61  69
ENDBRANCH  57  59
ENDBRANCH  56  57
ENDBRANCH   1  56
TORSDOF 15
