REMARK SMILES COc1ccc(C(=O)Nc2cc(C(=O)OCCOC(=O)c3ccc(-c4c5nc(c(-c6ccccc6)c6ccc([nH]6)c(-c6ccccc6)c6nc(c(-c7ccccc7)c7ccc4[nH]7)C=C6)C=C5)cc3)c(Cl)cc2Cl)cc1Cl
REMARK SMILES IDX 16 1 15 2 13 3 14 4 12 5 10 6 11 7 72 8 71 9 73 10 69 11
REMARK SMILES IDX 70 12 9 13 7 14 8 15 6 17 3 18 4 19 75 20 5 21 74 22 76 23
REMARK SMILES IDX 2 24 1 25 17 26 18 27 19 28 20 29 21 30 22 31 68 32 23 33
REMARK SMILES IDX 67 34 24 35 25 36 26 37 61 38 27 39 66 40 60 41 62 42 28 43
REMARK SMILES IDX 65 44 59 45 58 46 29 48 51 49 36 50 50 51 37 52 40 53 49 54
REMARK SMILES IDX 63 55 38 56 39 57 48 59 64 60 41 61 30 62 31 63 35 64 32 65
REMARK SMILES IDX 34 66 33 67 52 68 53 69 57 70 54 71 56 72 55 73 42 74 43 75
REMARK SMILES IDX 47 76 44 77 46 78 45 79
REMARK H PARENT 9 16 62 47 40 58
REMARK Flexibility Score: inf
ROOT
ATOM      1  C   UNL     1       6.607  -2.454  -0.626  1.00  0.00     0.275 C 
ENDROOT
BRANCH   1   2
ATOM      2  O   UNL     1       6.424  -1.466  -1.663  1.00  0.00    -0.458 OA
BRANCH   2   3
ATOM      3  C   UNL     1       6.269  -1.935  -2.922  1.00  0.00     0.339 C 
ATOM      4  O   UNL     1       6.197  -3.107  -3.259  1.00  0.00    -0.246 OA
BRANCH   3   5
ATOM      5  C   UNL     1       6.064  -0.836  -3.891  1.00  0.00     0.080 A 
ATOM      6  C   UNL     1       4.704  -0.002  -5.740  1.00  0.00     0.061 A 
ATOM      7  C   UNL     1       4.961  -0.951  -4.752  1.00  0.00     0.045 A 
ATOM      8  C   UNL     1       5.628   1.024  -5.948  1.00  0.00     0.066 A 
ATOM      9  C   UNL     1       6.721   1.163  -5.087  1.00  0.00     0.044 A 
ATOM     10  Cl  UNL     1       5.390   2.198  -7.189  1.00  0.00    -0.082 Cl
ATOM     11  C   UNL     1       6.937   0.242  -4.050  1.00  0.00     0.057 A 
ATOM     12  Cl  UNL     1       8.332   0.473  -3.062  1.00  0.00    -0.083 Cl
BRANCH   6  13
ATOM     13  N   UNL     1       3.528  -0.079  -6.505  1.00  0.00    -0.321 N 
ATOM     14  C   UNL     1       2.239  -0.384  -6.114  1.00  0.00     0.255 C 
ATOM     15  O   UNL     1       1.440  -0.777  -6.964  1.00  0.00    -0.269 OA
ATOM     16  H   UNL     1       3.640   0.113  -7.465  1.00  0.00     0.170 HD
BRANCH  14  17
ATOM     17  C   UNL     1       1.737  -0.102  -4.725  1.00  0.00     0.041 A 
ATOM     18  C   UNL     1       0.624   0.483  -2.183  1.00  0.00     0.137 A 
ATOM     19  C   UNL     1      -0.091  -0.253  -3.129  1.00  0.00     0.049 A 
ATOM     20  C   UNL     1       1.862   1.011  -2.548  1.00  0.00     0.083 A 
ATOM     21  C   UNL     1       0.464  -0.566  -4.377  1.00  0.00     0.018 A 
ATOM     22  C   UNL     1       2.396   0.735  -3.816  1.00  0.00     0.038 A 
ATOM     23  Cl  UNL     1       2.759   2.101  -1.552  1.00  0.00    -0.080 Cl
BRANCH  18  24
ATOM     24  O   UNL     1      -0.043   0.697  -1.007  1.00  0.00    -0.495 OA
ATOM     25  C   UNL     1       0.716   0.437   0.172  1.00  0.00     0.278 C 
ENDBRANCH  18  24
ENDBRANCH  14  17
ENDBRANCH   6  13
ENDBRANCH   3   5
ENDBRANCH   2   3
ENDBRANCH   1   2
BRANCH   1  26
ATOM     26  C   UNL     1       5.369  -2.589   0.267  1.00  0.00     0.275 C 
BRANCH  26  27
ATOM     27  O   UNL     1       4.309  -3.322  -0.381  1.00  0.00    -0.458 OA
BRANCH  27  28
ATOM     28  C   UNL     1       3.463  -2.550  -1.095  1.00  0.00     0.338 C 
ATOM     29  O   UNL     1       3.515  -1.340  -1.236  1.00  0.00    -0.246 OA
BRANCH  28  30
ATOM     30  C   UNL     1       2.485  -3.362  -1.829  1.00  0.00     0.060 A 
ATOM     31  C   UNL     1       2.703  -3.516  -3.192  1.00  0.00     0.016 A 
ATOM     32  C   UNL     1       1.283  -3.777  -1.262  1.00  0.00     0.016 A 
ATOM     33  C   UNL     1       1.678  -3.944  -4.024  1.00  0.00     0.010 A 
ATOM     34  C   UNL     1       0.293  -4.332  -2.088  1.00  0.00     0.010 A 
ATOM     35  C   UNL     1       0.457  -4.374  -3.486  1.00  0.00    -0.014 A 
BRANCH  35  36
ATOM     36  C   UNL     1      -0.610  -4.871  -4.405  1.00  0.00     0.031 A 
ATOM     37  C   UNL     1      -1.955  -4.194  -4.495  1.00  0.00     0.074 A 
ATOM     38  C   UNL     1      -0.344  -5.904  -5.231  1.00  0.00     0.049 A 
ATOM     39  N   UNL     1      -2.954  -4.434  -5.311  1.00  0.00    -0.248 NA
ATOM     40  C   UNL     1      -2.208  -3.083  -3.570  1.00  0.00     0.031 C 
ATOM     41  C   UNL     1       0.927  -6.629  -5.303  1.00  0.00     0.029 A 
ATOM     42  N   UNL     1      -1.127  -6.515  -6.178  1.00  0.00    -0.354 N 
ATOM     43  C   UNL     1      -3.918  -3.471  -5.032  1.00  0.00     0.074 A 
ATOM     44  C   UNL     1      -3.404  -2.661  -3.952  1.00  0.00     0.031 C 
ATOM     45  C   UNL     1       0.848  -7.560  -6.263  1.00  0.00     0.029 A 
ATOM     46  C   UNL     1      -0.502  -7.560  -6.812  1.00  0.00     0.049 A 
ATOM     47  H   UNL     1      -2.047  -6.231  -6.383  1.00  0.00     0.167 HD
ATOM     48  C   UNL     1      -5.132  -3.284  -5.603  1.00  0.00     0.031 A 
ATOM     49  C   UNL     1      -0.970  -8.457  -7.699  1.00  0.00     0.031 A 
ATOM     50  C   UNL     1      -5.713  -4.165  -6.577  1.00  0.00     0.049 A 
ATOM     51  C   UNL     1      -2.399  -8.371  -8.142  1.00  0.00     0.074 A 
ATOM     52  C   UNL     1      -6.970  -4.108  -7.155  1.00  0.00     0.029 A 
ATOM     53  N   UNL     1      -5.091  -5.295  -7.082  1.00  0.00    -0.354 N 
ATOM     54  N   UNL     1      -3.290  -7.447  -7.878  1.00  0.00    -0.248 NA
ATOM     55  C   UNL     1      -2.894  -9.466  -8.988  1.00  0.00     0.031 C 
ATOM     56  C   UNL     1      -7.138  -5.251  -7.945  1.00  0.00     0.029 A 
ATOM     57  C   UNL     1      -5.961  -5.981  -7.912  1.00  0.00     0.049 A 
ATOM     58  H   UNL     1      -4.167  -5.569  -6.881  1.00  0.00     0.167 HD
ATOM     59  C   UNL     1      -4.447  -7.839  -8.537  1.00  0.00     0.074 A 
ATOM     60  C   UNL     1      -4.141  -9.078  -9.222  1.00  0.00     0.031 C 
ATOM     61  C   UNL     1      -5.653  -7.222  -8.572  1.00  0.00     0.031 A 
BRANCH  48  62
ATOM     62  C   UNL     1      -5.946  -2.116  -5.120  1.00  0.00    -0.014 A 
ATOM     63  C   UNL     1      -5.650  -0.808  -5.534  1.00  0.00     0.009 A 
ATOM     64  C   UNL     1      -7.034  -2.328  -4.260  1.00  0.00     0.009 A 
ATOM     65  C   UNL     1      -6.417   0.267  -5.078  1.00  0.00     0.001 A 
ATOM     66  C   UNL     1      -7.808  -1.254  -3.819  1.00  0.00     0.001 A 
ATOM     67  C   UNL     1      -7.495   0.043  -4.223  1.00  0.00     0.000 A 
ENDBRANCH  48  62
BRANCH  49  68
ATOM     68  C   UNL     1      -0.089  -9.564  -8.154  1.00  0.00    -0.014 A 
ATOM     69  C   UNL     1       0.362  -9.630  -9.479  1.00  0.00     0.009 A 
ATOM     70  C   UNL     1       0.323 -10.554  -7.245  1.00  0.00     0.009 A 
ATOM     71  C   UNL     1       1.206 -10.667  -9.885  1.00  0.00     0.001 A 
ATOM     72  C   UNL     1       1.190 -11.571  -7.645  1.00  0.00     0.001 A 
ATOM     73  C   UNL     1       1.626 -11.630  -8.967  1.00  0.00     0.000 A 
ENDBRANCH  49  68
BRANCH  61  74
ATOM     74  C   UNL     1      -6.729  -7.871  -9.391  1.00  0.00    -0.014 A 
ATOM     75  C   UNL     1      -7.383  -9.028  -8.943  1.00  0.00     0.009 A 
ATOM     76  C   UNL     1      -7.117  -7.294 -10.610  1.00  0.00     0.009 A 
ATOM     77  C   UNL     1      -8.389  -9.611  -9.716  1.00  0.00     0.001 A 
ATOM     78  C   UNL     1      -8.140  -7.864 -11.367  1.00  0.00     0.001 A 
ATOM     79  C   UNL     1      -8.769  -9.026 -10.924  1.00  0.00     0.000 A 
ENDBRANCH  61  74
ENDBRANCH  35  36
ENDBRANCH  28  30
ENDBRANCH  27  28
ENDBRANCH  26  27
ENDBRANCH   1  26
TORSDOF 14
