REMARK SMILES O=C(C[C@@H](C(=O)OCCOC(=O)c1ccc(-c2c3nc(c(-c4ccccc4)c4ccc([nH]4)c(-c4ccccc4)c4nc(c(-c5ccccc5)c5ccc2[nH]5)C=C4)C=C3)cc1)[NH+]1CCN(c2cccc(Cl)c2)CC1)c1ccc(F)cc1
REMARK SMILES IDX 8 1 7 2 5 3 6 4 4 5 3 6 2 7 1 8 74 9 75 10 80 11 76 12 79 13
REMARK SMILES IDX 77 14 78 15 61 16 62 17 73 18 63 20 72 21 64 22 65 23 66 24
REMARK SMILES IDX 71 25 67 26 69 27 68 28 70 29 9 30 10 31 11 32 12 33 13 34
REMARK SMILES IDX 14 35 60 36 15 37 59 38 16 39 17 40 18 41 53 42 19 43 58 44
REMARK SMILES IDX 52 45 54 46 20 47 57 48 51 49 50 50 21 52 43 53 28 54 42 55
REMARK SMILES IDX 29 56 32 57 41 58 55 59 30 60 31 61 40 63 56 64 33 65 22 66
REMARK SMILES IDX 23 67 27 68 24 69 26 70 25 71 44 72 45 73 49 74 46 75 48 76
REMARK SMILES IDX 47 77 34 78 35 79 39 80 36 81 38 82 37 83
REMARK H PARENT 61 19 54 51 32 62
REMARK Flexibility Score: inf
ROOT
ATOM      1  C   UNL     1       5.693   1.825  -1.381  1.00  0.00     0.274 C 
ENDROOT
BRANCH   1   2
ATOM      2  O   UNL     1       4.654   0.946  -0.875  1.00  0.00    -0.458 OA
BRANCH   2   3
ATOM      3  C   UNL     1       3.834   0.361  -1.809  1.00  0.00     0.365 C 
ATOM      4  O   UNL     1       3.807   0.705  -2.984  1.00  0.00    -0.245 OA
BRANCH   3   5
ATOM      5  C   UNL     1       3.041  -0.864  -1.221  1.00  0.00     0.303 C 
BRANCH   5   6
ATOM      6  C   UNL     1       2.105  -0.525  -0.054  1.00  0.00     0.158 C 
BRANCH   6   7
ATOM      7  C   UNL     1       1.497   0.849  -0.200  1.00  0.00     0.169 C 
ATOM      8  O   UNL     1       0.652   1.109  -1.048  1.00  0.00    -0.294 OA
BRANCH   7   9
ATOM      9  C   UNL     1       2.057   1.927   0.641  1.00  0.00     0.018 A 
ATOM     10  C   UNL     1       2.524   3.081   0.002  1.00  0.00     0.015 A 
ATOM     11  C   UNL     1       2.223   1.752   2.019  1.00  0.00     0.015 A 
ATOM     12  C   UNL     1       3.224   4.035   0.737  1.00  0.00     0.040 A 
ATOM     13  C   UNL     1       2.905   2.721   2.752  1.00  0.00     0.040 A 
ATOM     14  C   UNL     1       3.414   3.842   2.102  1.00  0.00     0.123 A 
ATOM     15  F   UNL     1       4.112   4.745   2.802  1.00  0.00    -0.207 F 
ENDBRANCH   7   9
ENDBRANCH   6   7
ENDBRANCH   5   6
BRANCH   5  16
ATOM     16  N   UNL     1       3.908  -2.075  -1.037  1.00  0.00    -0.320 N 
ATOM     17  C   UNL     1       5.273  -1.789  -0.625  1.00  0.00     0.284 C 
ATOM     18  C   UNL     1       3.414  -3.162  -0.168  1.00  0.00     0.284 C 
ATOM     19  H   UNL     1       3.875  -2.417  -1.997  1.00  0.00     0.348 HD
ATOM     20  C   UNL     1       5.384  -1.300   0.812  1.00  0.00     0.178 C 
ATOM     21  C   UNL     1       4.032  -3.379   1.277  1.00  0.00     0.178 C 
ATOM     22  N   UNL     1       4.990  -2.356   1.738  1.00  0.00    -0.360 N 
BRANCH  22  23
ATOM     23  C   UNL     1       5.934  -2.516   2.752  1.00  0.00     0.038 A 
ATOM     24  C   UNL     1       6.309  -1.388   3.516  1.00  0.00     0.026 A 
ATOM     25  C   UNL     1       6.686  -3.681   2.914  1.00  0.00     0.046 A 
ATOM     26  C   UNL     1       7.439  -1.386   4.333  1.00  0.00     0.004 A 
ATOM     27  C   UNL     1       7.818  -3.681   3.740  1.00  0.00     0.043 A 
ATOM     28  C   UNL     1       8.210  -2.535   4.430  1.00  0.00     0.020 A 
ATOM     29  Cl  UNL     1       8.791  -5.095   3.877  1.00  0.00    -0.084 Cl
ENDBRANCH  22  23
ENDBRANCH   5  16
ENDBRANCH   3   5
ENDBRANCH   2   3
ENDBRANCH   1   2
BRANCH   1  30
ATOM     30  C   UNL     1       6.836   1.931  -0.355  1.00  0.00     0.275 C 
BRANCH  30  31
ATOM     31  O   UNL     1       7.519   0.669  -0.194  1.00  0.00    -0.458 OA
BRANCH  31  32
ATOM     32  C   UNL     1       8.454   0.363  -1.128  1.00  0.00     0.338 C 
ATOM     33  O   UNL     1       8.867   1.083  -2.010  1.00  0.00    -0.246 OA
BRANCH  32  34
ATOM     34  C   UNL     1       8.676  -1.098  -1.075  1.00  0.00     0.060 A 
ATOM     35  C   UNL     1       8.007  -1.857  -2.032  1.00  0.00     0.016 A 
ATOM     36  C   UNL     1       9.488  -1.725  -0.126  1.00  0.00     0.016 A 
ATOM     37  C   UNL     1       8.101  -3.246  -2.012  1.00  0.00     0.010 A 
ATOM     38  C   UNL     1       9.707  -3.113  -0.212  1.00  0.00     0.010 A 
ATOM     39  C   UNL     1       9.052  -3.877  -1.193  1.00  0.00    -0.014 A 
BRANCH  39  40
ATOM     40  C   UNL     1       9.539  -5.226  -1.607  1.00  0.00     0.031 A 
ATOM     41  C   UNL     1       9.503  -6.439  -0.727  1.00  0.00     0.074 A 
ATOM     42  C   UNL     1      10.043  -5.334  -2.855  1.00  0.00     0.049 A 
ATOM     43  N   UNL     1      10.061  -7.609  -0.916  1.00  0.00    -0.248 NA
ATOM     44  C   UNL     1       8.757  -6.327   0.528  1.00  0.00     0.031 C 
ATOM     45  C   UNL     1      10.130  -4.236  -3.824  1.00  0.00     0.029 A 
ATOM     46  N   UNL     1      10.544  -6.409  -3.541  1.00  0.00    -0.354 N 
ATOM     47  C   UNL     1       9.795  -8.352   0.229  1.00  0.00     0.074 A 
ATOM     48  C   UNL     1       8.995  -7.507   1.092  1.00  0.00     0.031 C 
ATOM     49  C   UNL     1      10.543  -4.710  -5.001  1.00  0.00     0.029 A 
ATOM     50  C   UNL     1      10.914  -6.103  -4.828  1.00  0.00     0.049 A 
ATOM     51  H   UNL     1      10.629  -7.309  -3.152  1.00  0.00     0.167 HD
ATOM     52  C   UNL     1      10.208  -9.610   0.531  1.00  0.00     0.031 A 
ATOM     53  C   UNL     1      11.558  -6.823  -5.761  1.00  0.00     0.031 A 
ATOM     54  C   UNL     1      10.978 -10.444  -0.363  1.00  0.00     0.049 A 
ATOM     55  C   UNL     1      12.011  -8.197  -5.408  1.00  0.00     0.074 A 
ATOM     56  C   UNL     1      11.447 -11.732  -0.161  1.00  0.00     0.029 A 
ATOM     57  N   UNL     1      11.379 -10.074  -1.639  1.00  0.00    -0.354 N 
ATOM     58  N   UNL     1      11.837  -8.851  -4.286  1.00  0.00    -0.248 NA
ATOM     59  C   UNL     1      12.778  -8.917  -6.427  1.00  0.00     0.031 C 
ATOM     60  C   UNL     1      12.162 -12.124  -1.299  1.00  0.00     0.029 A 
ATOM     61  C   UNL     1      12.099 -11.100  -2.230  1.00  0.00     0.049 A 
ATOM     62  H   UNL     1      11.181  -9.208  -2.064  1.00  0.00     0.167 HD
ATOM     63  C   UNL     1      12.496 -10.056  -4.450  1.00  0.00     0.074 A 
ATOM     64  C   UNL     1      13.037 -10.056  -5.798  1.00  0.00     0.031 C 
ATOM     65  C   UNL     1      12.655 -11.064  -3.559  1.00  0.00     0.031 A 
BRANCH  52  66
ATOM     66  C   UNL     1       9.899 -10.140   1.908  1.00  0.00    -0.014 A 
ATOM     67  C   UNL     1       8.604 -10.525   2.287  1.00  0.00     0.009 A 
ATOM     68  C   UNL     1      10.945 -10.296   2.834  1.00  0.00     0.009 A 
ATOM     69  C   UNL     1       8.359 -11.019   3.573  1.00  0.00     0.001 A 
ATOM     70  C   UNL     1      10.702 -10.813   4.109  1.00  0.00     0.001 A 
ATOM     71  C   UNL     1       9.407 -11.164   4.481  1.00  0.00     0.000 A 
ENDBRANCH  52  66
BRANCH  53  72
ATOM     72  C   UNL     1      11.876  -6.180  -7.061  1.00  0.00    -0.014 A 
ATOM     73  C   UNL     1      11.159  -6.515  -8.216  1.00  0.00     0.009 A 
ATOM     74  C   UNL     1      12.804  -5.124  -7.114  1.00  0.00     0.009 A 
ATOM     75  C   UNL     1      11.351  -5.790  -9.395  1.00  0.00     0.001 A 
ATOM     76  C   UNL     1      12.966  -4.380  -8.281  1.00  0.00     0.001 A 
ATOM     77  C   UNL     1      12.239  -4.714  -9.422  1.00  0.00     0.000 A 
ENDBRANCH  53  72
BRANCH  65  78
ATOM     78  C   UNL     1      13.453 -12.239  -4.035  1.00  0.00    -0.014 A 
ATOM     79  C   UNL     1      14.851 -12.166  -4.130  1.00  0.00     0.009 A 
ATOM     80  C   UNL     1      12.800 -13.422  -4.410  1.00  0.00     0.009 A 
ATOM     81  C   UNL     1      15.579 -13.246  -4.630  1.00  0.00     0.001 A 
ATOM     82  C   UNL     1      13.533 -14.508  -4.888  1.00  0.00     0.001 A 
ATOM     83  C   UNL     1      14.919 -14.416  -5.007  1.00  0.00     0.000 A 
ENDBRANCH  65  78
ENDBRANCH  39  40
ENDBRANCH  32  34
ENDBRANCH  31  32
ENDBRANCH  30  31
ENDBRANCH   1  30
TORSDOF 16
