REMARK SMILES COc1cccc(-c2ccc(=O)n(CC(=O)N[C@@H](C(=O)OCCOC(=O)c3ccc(-c4c5nc(c(-c6ccccc6)c6ccc([nH]6)c(-c6ccccc6)c6nc(c(-c7ccccc7)c7ccc4[nH]7)C=C6)C=C5)cc3)C(C)C)n2)c1
REMARK SMILES IDX 21 1 19 2 20 3 18 4 17 5 15 6 16 7 14 9 13 10 8 11 9 12
REMARK SMILES IDX 78 13 10 14 11 15 12 16 7 17 3 18 4 19 79 20 5 21 6 22 2 23
REMARK SMILES IDX 1 24 75 25 76 26 77 27 22 28 23 29 24 30 25 31 26 32 27 33
REMARK SMILES IDX 28 34 74 35 29 36 73 37 30 38 31 39 32 40 67 41 33 42 72 43
REMARK SMILES IDX 66 44 68 45 34 46 71 47 65 48 64 49 35 51 57 52 42 53 56 54
REMARK SMILES IDX 43 55 46 56 55 57 69 58 44 59 45 60 54 62 70 63 47 64 36 65
REMARK SMILES IDX 37 66 41 67 38 68 40 69 39 70 58 71 59 72 63 73 60 74 62 75
REMARK SMILES IDX 61 76 48 77 49 78 53 79 50 80 52 81 51 82
REMARK H PARENT 17 8 68 50 46 61
REMARK Flexibility Score: inf
ROOT
ATOM      1  O   UNL     1       5.493   3.010   6.791  1.00  0.00    -0.461 OA
ENDROOT
BRANCH   1   2
ATOM      2  C   UNL     1       4.741   3.682   5.869  1.00  0.00     0.329 C 
ATOM      3  O   UNL     1       3.522   3.788   5.944  1.00  0.00    -0.250 OA
BRANCH   2   4
ATOM      4  C   UNL     1       5.592   4.269   4.708  1.00  0.00     0.194 C 
BRANCH   4   5
ATOM      5  N   UNL     1       7.023   4.026   4.923  1.00  0.00    -0.341 N 
ATOM      6  C   UNL     1       7.833   3.103   4.326  1.00  0.00     0.242 C 
ATOM      7  O   UNL     1       9.046   3.202   4.536  1.00  0.00    -0.273 OA
ATOM      8  H   UNL     1       7.458   4.607   5.587  1.00  0.00     0.164 HD
BRANCH   6   9
ATOM      9  C   UNL     1       7.278   2.100   3.310  1.00  0.00     0.248 C 
BRANCH   9  10
ATOM     10  N   UNL     1       6.227   1.258   3.877  1.00  0.00    -0.220 N 
ATOM     11  C   UNL     1       3.987   0.802   4.014  1.00  0.00     0.091 A 
ATOM     12  C   UNL     1       4.199  -0.241   5.036  1.00  0.00     0.036 A 
ATOM     13  N   UNL     1       4.933   1.480   3.446  1.00  0.00    -0.169 NA
ATOM     14  C   UNL     1       5.463  -0.496   5.373  1.00  0.00     0.075 A 
ATOM     15  C   UNL     1       6.581   0.268   4.781  1.00  0.00     0.267 A 
ATOM     16  O   UNL     1       7.727   0.009   5.133  1.00  0.00    -0.268 OA
BRANCH  11  17
ATOM     17  C   UNL     1       2.580   1.075   3.649  1.00  0.00     0.006 A 
ATOM     18  C   UNL     1       0.863   1.242   1.964  1.00  0.00     0.119 A 
ATOM     19  C   UNL     1      -0.031   1.699   2.937  1.00  0.00     0.046 A 
ATOM     20  C   UNL     1       2.184   0.958   2.313  1.00  0.00     0.056 A 
ATOM     21  C   UNL     1       0.371   1.827   4.266  1.00  0.00     0.005 A 
ATOM     22  C   UNL     1       1.677   1.505   4.627  1.00  0.00     0.011 A 
BRANCH  18  23
ATOM     23  O   UNL     1       0.352   1.150   0.699  1.00  0.00    -0.497 OA
ATOM     24  C   UNL     1       0.921   0.122  -0.106  1.00  0.00     0.278 C 
ENDBRANCH  18  23
ENDBRANCH  11  17
ENDBRANCH   9  10
ENDBRANCH   6   9
ENDBRANCH   4   5
BRANCH   4  25
ATOM     25  C   UNL     1       5.344   5.775   4.428  1.00  0.00     0.017 C 
ATOM     26  C   UNL     1       6.250   6.284   3.294  1.00  0.00     0.010 C 
ATOM     27  C   UNL     1       3.889   6.066   4.032  1.00  0.00     0.010 C 
ENDBRANCH   4  25
ENDBRANCH   2   4
ENDBRANCH   1   2
BRANCH   1  28
ATOM     28  C   UNL     1       4.782   2.343   7.858  1.00  0.00     0.274 C 
BRANCH  28  29
ATOM     29  C   UNL     1       5.033   3.040   9.191  1.00  0.00     0.275 C 
BRANCH  29  30
ATOM     30  O   UNL     1       4.498   4.370   9.115  1.00  0.00    -0.458 OA
BRANCH  30  31
ATOM     31  C   UNL     1       5.345   5.367   9.449  1.00  0.00     0.338 C 
ATOM     32  O   UNL     1       6.465   5.273   9.927  1.00  0.00    -0.246 OA
BRANCH  31  33
ATOM     33  C   UNL     1       4.729   6.652   9.088  1.00  0.00     0.060 A 
ATOM     34  C   UNL     1       4.307   6.853   7.776  1.00  0.00     0.016 A 
ATOM     35  C   UNL     1       4.681   7.696  10.008  1.00  0.00     0.016 A 
ATOM     36  C   UNL     1       3.927   8.120   7.347  1.00  0.00     0.010 A 
ATOM     37  C   UNL     1       4.203   8.946   9.601  1.00  0.00     0.010 A 
ATOM     38  C   UNL     1       3.860   9.183   8.256  1.00  0.00    -0.014 A 
BRANCH  38  39
ATOM     39  C   UNL     1       3.499  10.549   7.791  1.00  0.00     0.031 A 
ATOM     40  C   UNL     1       4.471  11.684   7.975  1.00  0.00     0.074 A 
ATOM     41  C   UNL     1       2.323  10.783   7.176  1.00  0.00     0.049 A 
ATOM     42  N   UNL     1       4.278  12.970   7.829  1.00  0.00    -0.248 NA
ATOM     43  C   UNL     1       5.838  11.325   8.389  1.00  0.00     0.031 C 
ATOM     44  C   UNL     1       1.310   9.775   6.854  1.00  0.00     0.029 A 
ATOM     45  N   UNL     1       1.786  11.954   6.697  1.00  0.00    -0.354 N 
ATOM     46  C   UNL     1       5.473  13.575   8.198  1.00  0.00     0.074 A 
ATOM     47  C   UNL     1       6.390  12.517   8.563  1.00  0.00     0.031 C 
ATOM     48  C   UNL     1       0.300  10.362   6.193  1.00  0.00     0.029 A 
ATOM     49  C   UNL     1       0.547  11.798   6.127  1.00  0.00     0.049 A 
ATOM     50  H   UNL     1       2.247  12.822   6.758  1.00  0.00     0.167 HD
ATOM     51  C   UNL     1       5.776  14.894   8.239  1.00  0.00     0.031 A 
ATOM     52  C   UNL     1      -0.319  12.709   5.646  1.00  0.00     0.031 A 
ATOM     53  C   UNL     1       4.886  15.946   7.829  1.00  0.00     0.049 A 
ATOM     54  C   UNL     1       0.021  14.168   5.736  1.00  0.00     0.074 A 
ATOM     55  C   UNL     1       5.098  17.314   7.847  1.00  0.00     0.029 A 
ATOM     56  N   UNL     1       3.621  15.743   7.303  1.00  0.00    -0.354 N 
ATOM     57  N   UNL     1       1.116  14.733   6.183  1.00  0.00    -0.248 NA
ATOM     58  C   UNL     1      -1.007  15.115   5.283  1.00  0.00     0.031 C 
ATOM     59  C   UNL     1       3.948  17.941   7.354  1.00  0.00     0.029 A 
ATOM     60  C   UNL     1       3.036  16.960   6.998  1.00  0.00     0.049 A 
ATOM     61  H   UNL     1       3.200  14.864   7.166  1.00  0.00     0.167 HD
ATOM     62  C   UNL     1       0.907  16.101   6.069  1.00  0.00     0.074 A 
ATOM     63  C   UNL     1      -0.407  16.280   5.485  1.00  0.00     0.031 C 
ATOM     64  C   UNL     1       1.727  17.118   6.426  1.00  0.00     0.031 A 
BRANCH  51  65
ATOM     65  C   UNL     1       7.115  15.274   8.801  1.00  0.00    -0.014 A 
ATOM     66  C   UNL     1       8.295  15.125   8.057  1.00  0.00     0.009 A 
ATOM     67  C   UNL     1       7.189  15.813  10.096  1.00  0.00     0.009 A 
ATOM     68  C   UNL     1       9.526  15.481   8.612  1.00  0.00     0.001 A 
ATOM     69  C   UNL     1       8.418  16.188  10.639  1.00  0.00     0.001 A 
ATOM     70  C   UNL     1       9.586  16.014   9.900  1.00  0.00     0.000 A 
ENDBRANCH  51  65
BRANCH  52  71
ATOM     71  C   UNL     1      -1.627  12.269   5.098  1.00  0.00    -0.014 A 
ATOM     72  C   UNL     1      -1.885  12.344   3.721  1.00  0.00     0.009 A 
ATOM     73  C   UNL     1      -2.623  11.766   5.951  1.00  0.00     0.009 A 
ATOM     74  C   UNL     1      -3.119  11.933   3.212  1.00  0.00     0.001 A 
ATOM     75  C   UNL     1      -3.844  11.331   5.435  1.00  0.00     0.001 A 
ATOM     76  C   UNL     1      -4.094  11.421   4.067  1.00  0.00     0.000 A 
ENDBRANCH  52  71
BRANCH  64  77
ATOM     77  C   UNL     1       1.227  18.511   6.181  1.00  0.00    -0.014 A 
ATOM     78  C   UNL     1       0.279  19.095   7.035  1.00  0.00     0.009 A 
ATOM     79  C   UNL     1       1.730  19.254   5.103  1.00  0.00     0.009 A 
ATOM     80  C   UNL     1      -0.176  20.393   6.797  1.00  0.00     0.001 A 
ATOM     81  C   UNL     1       1.286  20.558   4.879  1.00  0.00     0.001 A 
ATOM     82  C   UNL     1       0.330  21.123   5.722  1.00  0.00     0.000 A 
ENDBRANCH  64  77
ENDBRANCH  38  39
ENDBRANCH  31  33
ENDBRANCH  30  31
ENDBRANCH  29  30
ENDBRANCH  28  29
ENDBRANCH   1  28
TORSDOF 17
