REMARK SMILES O=C(CN1C(=O)S/C(=C\c2cccc(F)c2)C1=O)NCC(=O)OCCOC(=O)c1ccc(-c2c3nc(c(-c4ccccc4)c4ccc([nH]4)c(-c4ccccc4)c4nc(c(-c5ccccc5)c5ccc2[nH]5)C=C4)C=C3)cc1
REMARK SMILES IDX 24 1 23 2 21 3 22 4 20 5 19 6 1 7 2 8 3 10 4 11 5 12 17 13
REMARK SMILES IDX 6 14 7 15 8 16 18 17 9 18 10 19 11 20 16 21 12 22 14 23
REMARK SMILES IDX 13 24 15 25 25 26 26 27 27 28 28 29 29 30 30 31 76 32 31 33
REMARK SMILES IDX 75 34 32 35 33 36 34 37 69 38 35 39 74 40 68 41 70 42 36 43
REMARK SMILES IDX 73 44 67 45 66 46 37 48 59 49 44 50 58 51 45 52 48 53 57 54
REMARK SMILES IDX 71 55 46 56 47 57 56 59 72 60 49 61 38 62 39 63 43 64 40 65
REMARK SMILES IDX 42 66 41 67 60 68 61 69 65 70 62 71 64 72 63 73 50 74 51 75
REMARK SMILES IDX 55 76 52 77 54 78 53 79
REMARK H PARENT 19 9 70 47 48 58
REMARK Flexibility Score: inf
ROOT
ATOM      1  C   UNL     1       2.739  -4.271  -2.592  1.00  0.00     0.274 C 
ENDROOT
BRANCH   1   2
ATOM      2  O   UNL     1       2.368  -3.137  -1.789  1.00  0.00    -0.461 OA
BRANCH   2   3
ATOM      3  C   UNL     1       1.682  -3.385  -0.637  1.00  0.00     0.325 C 
ATOM      4  O   UNL     1       1.248  -4.480  -0.302  1.00  0.00    -0.250 OA
BRANCH   3   5
ATOM      5  C   UNL     1       1.456  -2.110   0.172  1.00  0.00     0.238 C 
BRANCH   5   6
ATOM      6  N   UNL     1       2.388  -1.047  -0.159  1.00  0.00    -0.344 N 
ATOM      7  O   UNL     1       1.019   0.677   0.463  1.00  0.00    -0.273 OA
ATOM      8  C   UNL     1       2.085   0.284  -0.003  1.00  0.00     0.240 C 
ATOM      9  H   UNL     1       3.275  -1.290  -0.511  1.00  0.00     0.164 HD
BRANCH   8  10
ATOM     10  C   UNL     1       3.243   1.226  -0.325  1.00  0.00     0.229 C 
BRANCH  10  11
ATOM     11  N   UNL     1       3.863   1.640   0.917  1.00  0.00    -0.259 N 
ATOM     12  C   UNL     1       3.819   2.931   1.353  1.00  0.00     0.294 C 
ATOM     13  C   UNL     1       4.595   0.751   1.665  1.00  0.00     0.268 C 
ATOM     14  O   UNL     1       3.304   3.890   0.793  1.00  0.00    -0.261 OA
ATOM     15  S   UNL     1       4.714   3.085   2.857  1.00  0.00    -0.022 SA
ATOM     16  C   UNL     1       5.127   1.418   2.878  1.00  0.00     0.083 C 
ATOM     17  O   UNL     1       4.795  -0.423   1.393  1.00  0.00    -0.268 OA
ATOM     18  C   UNL     1       5.838   0.731   3.783  1.00  0.00     0.029 C 
BRANCH  18  19
ATOM     19  C   UNL     1       6.466   1.261   4.997  1.00  0.00    -0.021 A 
ATOM     20  C   UNL     1       5.743   1.973   5.963  1.00  0.00     0.008 A 
ATOM     21  C   UNL     1       7.826   1.009   5.213  1.00  0.00     0.047 A 
ATOM     22  C   UNL     1       6.379   2.470   7.103  1.00  0.00     0.004 A 
ATOM     23  C   UNL     1       8.448   1.503   6.354  1.00  0.00     0.123 A 
ATOM     24  C   UNL     1       7.739   2.238   7.297  1.00  0.00     0.039 A 
ATOM     25  F   UNL     1       9.753   1.266   6.546  1.00  0.00    -0.207 F 
ENDBRANCH  18  19
ENDBRANCH  10  11
ENDBRANCH   8  10
ENDBRANCH   5   6
ENDBRANCH   3   5
ENDBRANCH   2   3
ENDBRANCH   1   2
BRANCH   1  26
ATOM     26  C   UNL     1       4.250  -4.513  -2.519  1.00  0.00     0.275 C 
BRANCH  26  27
ATOM     27  O   UNL     1       4.667  -4.951  -1.210  1.00  0.00    -0.458 OA
BRANCH  27  28
ATOM     28  C   UNL     1       4.913  -3.950  -0.332  1.00  0.00     0.338 C 
ATOM     29  O   UNL     1       4.824  -2.751  -0.548  1.00  0.00    -0.246 OA
BRANCH  28  30
ATOM     30  C   UNL     1       5.169  -4.502   1.011  1.00  0.00     0.060 A 
ATOM     31  C   UNL     1       4.390  -4.020   2.065  1.00  0.00     0.016 A 
ATOM     32  C   UNL     1       6.204  -5.408   1.255  1.00  0.00     0.016 A 
ATOM     33  C   UNL     1       4.659  -4.418   3.372  1.00  0.00     0.010 A 
ATOM     34  C   UNL     1       6.467  -5.815   2.570  1.00  0.00     0.010 A 
ATOM     35  C   UNL     1       5.710  -5.306   3.640  1.00  0.00    -0.014 A 
BRANCH  35  36
ATOM     36  C   UNL     1       6.029  -5.644   5.052  1.00  0.00     0.031 A 
ATOM     37  C   UNL     1       7.271  -5.098   5.700  1.00  0.00     0.074 A 
ATOM     38  C   UNL     1       5.171  -6.393   5.771  1.00  0.00     0.049 A 
ATOM     39  N   UNL     1       7.705  -5.263   6.925  1.00  0.00    -0.248 NA
ATOM     40  C   UNL     1       8.139  -4.256   4.864  1.00  0.00     0.031 C 
ATOM     41  C   UNL     1       3.913  -6.950   5.272  1.00  0.00     0.029 A 
ATOM     42  N   UNL     1       5.220  -6.799   7.082  1.00  0.00    -0.354 N 
ATOM     43  C   UNL     1       8.900  -4.558   7.003  1.00  0.00     0.074 A 
ATOM     44  C   UNL     1       9.138  -3.989   5.693  1.00  0.00     0.031 C 
ATOM     45  C   UNL     1       3.298  -7.604   6.270  1.00  0.00     0.029 A 
ATOM     46  C   UNL     1       4.139  -7.555   7.463  1.00  0.00     0.049 A 
ATOM     47  H   UNL     1       5.960  -6.570   7.690  1.00  0.00     0.167 HD
ATOM     48  C   UNL     1       9.723  -4.395   8.067  1.00  0.00     0.031 A 
ATOM     49  C   UNL     1       3.861  -8.155   8.636  1.00  0.00     0.031 A 
ATOM     50  C   UNL     1       9.492  -4.968   9.369  1.00  0.00     0.049 A 
ATOM     51  C   UNL     1       4.824  -8.012   9.782  1.00  0.00     0.074 A 
ATOM     52  C   UNL     1      10.264  -4.850  10.513  1.00  0.00     0.029 A 
ATOM     53  N   UNL     1       8.412  -5.773   9.699  1.00  0.00    -0.354 N 
ATOM     54  N   UNL     1       5.942  -7.330   9.844  1.00  0.00    -0.248 NA
ATOM     55  C   UNL     1       4.480  -8.719  11.024  1.00  0.00     0.031 C 
ATOM     56  C   UNL     1       9.683  -5.632  11.517  1.00  0.00     0.029 A 
ATOM     57  C   UNL     1       8.512  -6.180  11.020  1.00  0.00     0.049 A 
ATOM     58  H   UNL     1       7.683  -6.019   9.085  1.00  0.00     0.167 HD
ATOM     59  C   UNL     1       6.420  -7.503  11.136  1.00  0.00     0.074 A 
ATOM     60  C   UNL     1       5.459  -8.336  11.830  1.00  0.00     0.031 C 
ATOM     61  C   UNL     1       7.553  -7.015  11.699  1.00  0.00     0.031 A 
BRANCH  48  62
ATOM     62  C   UNL     1      10.979  -3.593   7.856  1.00  0.00    -0.014 A 
ATOM     63  C   UNL     1      10.940  -2.204   7.654  1.00  0.00     0.009 A 
ATOM     64  C   UNL     1      12.227  -4.236   7.893  1.00  0.00     0.009 A 
ATOM     65  C   UNL     1      12.120  -1.483   7.457  1.00  0.00     0.001 A 
ATOM     66  C   UNL     1      13.408  -3.508   7.727  1.00  0.00     0.001 A 
ATOM     67  C   UNL     1      13.352  -2.135   7.499  1.00  0.00     0.000 A 
ENDBRANCH  48  62
BRANCH  49  68
ATOM     68  C   UNL     1       2.622  -8.965   8.784  1.00  0.00    -0.014 A 
ATOM     69  C   UNL     1       1.587  -8.547   9.634  1.00  0.00     0.009 A 
ATOM     70  C   UNL     1       2.477 -10.173   8.084  1.00  0.00     0.009 A 
ATOM     71  C   UNL     1       0.446  -9.336   9.800  1.00  0.00     0.001 A 
ATOM     72  C   UNL     1       1.321 -10.943   8.225  1.00  0.00     0.001 A 
ATOM     73  C   UNL     1       0.311 -10.530   9.092  1.00  0.00     0.000 A 
ENDBRANCH  49  68
BRANCH  61  74
ATOM     74  C   UNL     1       7.793  -7.339  13.149  1.00  0.00    -0.014 A 
ATOM     75  C   UNL     1       8.114  -8.639  13.568  1.00  0.00     0.009 A 
ATOM     76  C   UNL     1       7.713  -6.318  14.109  1.00  0.00     0.009 A 
ATOM     77  C   UNL     1       8.305  -8.919  14.923  1.00  0.00     0.001 A 
ATOM     78  C   UNL     1       7.938  -6.593  15.459  1.00  0.00     0.001 A 
ATOM     79  C   UNL     1       8.220  -7.895  15.866  1.00  0.00     0.000 A 
ENDBRANCH  61  74
ENDBRANCH  35  36
ENDBRANCH  28  30
ENDBRANCH  27  28
ENDBRANCH  26  27
ENDBRANCH   1  26
TORSDOF 15
