REMARK SMILES COc1ccc2c(c1)c(Cc1nc(-c3ccc(C(=O)OCCOC(=O)c4ccc(-c5c6nc(c(-c7ccccc7)c7ccc([nH]7)c(-c7ccccc7)c7nc(c(-c8ccccc8)c8ccc5[nH]8)C=C7)C=C6)cc4)cc3)cs1)c(C)n2C(=O)c1ccc(Cl)cc1
REMARK SMILES IDX 20 1 18 2 19 3 17 4 14 5 15 6 75 7 16 8 74 9 13 10 11 11
REMARK SMILES IDX 12 12 77 13 76 14 10 15 9 16 3 17 4 18 8 19 5 20 7 21 6 22
REMARK SMILES IDX 80 23 78 24 79 25 2 26 1 27 81 28 82 29 83 30 84 31 89 32
REMARK SMILES IDX 85 33 88 34 86 35 87 36 21 37 22 38 23 39 24 40 25 41 26 42
REMARK SMILES IDX 27 43 73 44 28 45 72 46 29 47 30 48 31 49 66 50 32 51 71 52
REMARK SMILES IDX 65 53 67 54 33 55 70 56 64 57 63 58 34 60 56 61 41 62 55 63
REMARK SMILES IDX 42 64 45 65 54 66 68 67 43 68 44 69 53 71 69 72 46 73 35 74
REMARK SMILES IDX 36 75 40 76 37 77 39 78 38 79 57 80 58 81 62 82 59 83 61 84
REMARK SMILES IDX 60 85 47 86 48 87 52 88 49 89 51 90 50 91
REMARK H PARENT 67 59 45 70
REMARK Flexibility Score: inf
ROOT
ATOM      1  O   UNL     1      -4.103   5.970   2.866  1.00  0.00    -0.458 OA
ENDROOT
BRANCH   1   2
ATOM      2  C   UNL     1      -2.881   5.402   3.001  1.00  0.00     0.338 C 
ATOM      3  O   UNL     1      -1.819   5.994   2.893  1.00  0.00    -0.246 OA
BRANCH   2   4
ATOM      4  C   UNL     1      -2.963   3.975   3.430  1.00  0.00     0.060 A 
ATOM      5  C   UNL     1      -2.989   1.406   4.595  1.00  0.00     0.001 A 
ATOM      6  C   UNL     1      -1.879   2.225   4.743  1.00  0.00     0.011 A 
ATOM      7  C   UNL     1      -4.040   1.826   3.768  1.00  0.00     0.011 A 
ATOM      8  C   UNL     1      -1.882   3.482   4.157  1.00  0.00     0.016 A 
ATOM      9  C   UNL     1      -4.034   3.117   3.193  1.00  0.00     0.016 A 
BRANCH   5  10
ATOM     10  C   UNL     1      -2.999   0.166   5.343  1.00  0.00     0.081 A 
ATOM     11  C   UNL     1      -2.534  -1.968   5.656  1.00  0.00     0.098 A 
ATOM     12  N   UNL     1      -2.774  -1.048   4.741  1.00  0.00    -0.241 NA
ATOM     13  S   UNL     1      -2.721  -1.444   7.286  1.00  0.00    -0.126 S 
ATOM     14  C   UNL     1      -3.056   0.139   6.723  1.00  0.00     0.095 A 
BRANCH  11  15
ATOM     15  C   UNL     1      -2.186  -3.396   5.353  1.00  0.00     0.105 C 
BRANCH  15  16
ATOM     16  C   UNL     1      -0.754  -3.633   4.923  1.00  0.00    -0.012 A 
ATOM     17  C   UNL     1       0.168  -2.091   1.548  1.00  0.00     0.119 A 
ATOM     18  C   UNL     1       1.218  -2.960   1.295  1.00  0.00     0.048 A 
ATOM     19  C   UNL     1      -0.550  -2.226   2.735  1.00  0.00     0.057 A 
ATOM     20  C   UNL     1       1.679  -3.846   2.287  1.00  0.00     0.031 A 
ATOM     21  C   UNL     1      -0.147  -3.144   3.730  1.00  0.00     0.008 A 
ATOM     22  C   UNL     1       1.037  -3.861   3.543  1.00  0.00     0.057 A 
ATOM     23  N   UNL     1       1.338  -4.504   4.752  1.00  0.00    -0.280 N 
ATOM     24  C   UNL     1       0.161  -4.500   5.519  1.00  0.00     0.028 A 
ATOM     25  C   UNL     1      -0.063  -5.299   6.764  1.00  0.00     0.065 C 
BRANCH  17  26
ATOM     26  O   UNL     1      -0.283  -1.105   0.715  1.00  0.00    -0.497 OA
ATOM     27  C   UNL     1       0.636  -0.615  -0.253  1.00  0.00     0.278 C 
ENDBRANCH  17  26
BRANCH  23  28
ATOM     28  C   UNL     1       2.603  -5.052   5.113  1.00  0.00     0.262 C 
ATOM     29  O   UNL     1       2.684  -5.790   6.092  1.00  0.00    -0.268 OA
BRANCH  28  30
ATOM     30  C   UNL     1       3.886  -4.769   4.441  1.00  0.00     0.040 A 
ATOM     31  C   UNL     1       4.502  -3.523   4.598  1.00  0.00     0.015 A 
ATOM     32  C   UNL     1       4.541  -5.802   3.761  1.00  0.00     0.015 A 
ATOM     33  C   UNL     1       5.756  -3.294   4.021  1.00  0.00     0.021 A 
ATOM     34  C   UNL     1       5.790  -5.566   3.179  1.00  0.00     0.021 A 
ATOM     35  C   UNL     1       6.388  -4.311   3.305  1.00  0.00     0.041 A 
ATOM     36  Cl  UNL     1       7.918  -4.019   2.575  1.00  0.00    -0.084 Cl
ENDBRANCH  28  30
ENDBRANCH  23  28
ENDBRANCH  15  16
ENDBRANCH  11  15
ENDBRANCH   5  10
ENDBRANCH   2   4
ENDBRANCH   1   2
BRANCH   1  37
ATOM     37  C   UNL     1      -4.096   7.394   2.593  1.00  0.00     0.275 C 
BRANCH  37  38
ATOM     38  C   UNL     1      -4.659   8.178   3.784  1.00  0.00     0.275 C 
BRANCH  38  39
ATOM     39  O   UNL     1      -3.637   8.289   4.786  1.00  0.00    -0.458 OA
BRANCH  39  40
ATOM     40  C   UNL     1      -3.818   7.576   5.927  1.00  0.00     0.338 C 
ATOM     41  O   UNL     1      -4.859   7.152   6.374  1.00  0.00    -0.246 OA
BRANCH  40  42
ATOM     42  C   UNL     1      -2.469   7.108   6.325  1.00  0.00     0.060 A 
ATOM     43  C   UNL     1      -1.313   7.835   6.014  1.00  0.00     0.016 A 
ATOM     44  C   UNL     1      -2.377   5.788   6.759  1.00  0.00     0.016 A 
ATOM     45  C   UNL     1      -0.085   7.180   5.937  1.00  0.00     0.010 A 
ATOM     46  C   UNL     1      -1.146   5.149   6.700  1.00  0.00     0.010 A 
ATOM     47  C   UNL     1      -0.017   5.809   6.188  1.00  0.00    -0.014 A 
BRANCH  47  48
ATOM     48  C   UNL     1       1.235   5.076   5.953  1.00  0.00     0.031 A 
ATOM     49  C   UNL     1       1.996   4.707   7.168  1.00  0.00     0.074 A 
ATOM     50  C   UNL     1       1.720   4.628   4.771  1.00  0.00     0.049 A 
ATOM     51  N   UNL     1       3.131   5.210   7.524  1.00  0.00    -0.248 NA
ATOM     52  C   UNL     1       1.434   3.743   8.118  1.00  0.00     0.031 C 
ATOM     53  C   UNL     1       1.118   4.641   3.439  1.00  0.00     0.029 A 
ATOM     54  N   UNL     1       2.884   3.942   4.547  1.00  0.00    -0.354 N 
ATOM     55  C   UNL     1       3.482   4.576   8.706  1.00  0.00     0.074 A 
ATOM     56  C   UNL     1       2.343   3.781   9.091  1.00  0.00     0.031 C 
ATOM     57  C   UNL     1       1.754   3.763   2.628  1.00  0.00     0.029 A 
ATOM     58  C   UNL     1       2.964   3.339   3.301  1.00  0.00     0.049 A 
ATOM     59  H   UNL     1       3.605   3.883   5.216  1.00  0.00     0.167 HD
ATOM     60  C   UNL     1       4.743   4.640   9.212  1.00  0.00     0.031 A 
ATOM     61  C   UNL     1       3.984   2.608   2.801  1.00  0.00     0.031 A 
ATOM     62  C   UNL     1       5.550   5.620   8.530  1.00  0.00     0.049 A 
ATOM     63  C   UNL     1       5.203   2.903   3.563  1.00  0.00     0.074 A 
ATOM     64  C   UNL     1       5.500   6.992   8.379  1.00  0.00     0.029 A 
ATOM     65  N   UNL     1       6.415   5.167   7.563  1.00  0.00    -0.354 N 
ATOM     66  N   UNL     1       5.858   4.013   3.424  1.00  0.00    -0.248 NA
ATOM     67  C   UNL     1       5.522   2.125   4.749  1.00  0.00     0.031 C 
ATOM     68  C   UNL     1       5.987   7.248   7.064  1.00  0.00     0.029 A 
ATOM     69  C   UNL     1       6.321   6.021   6.493  1.00  0.00     0.049 A 
ATOM     70  H   UNL     1       6.996   4.375   7.627  1.00  0.00     0.167 HD
ATOM     71  C   UNL     1       6.297   4.303   4.701  1.00  0.00     0.074 A 
ATOM     72  C   UNL     1       6.216   3.041   5.429  1.00  0.00     0.031 C 
ATOM     73  C   UNL     1       6.380   5.599   5.114  1.00  0.00     0.031 A 
BRANCH  60  74
ATOM     74  C   UNL     1       5.330   3.640  10.168  1.00  0.00    -0.014 A 
ATOM     75  C   UNL     1       4.792   2.359  10.391  1.00  0.00     0.009 A 
ATOM     76  C   UNL     1       6.585   3.905  10.741  1.00  0.00     0.009 A 
ATOM     77  C   UNL     1       5.447   1.405  11.175  1.00  0.00     0.001 A 
ATOM     78  C   UNL     1       7.269   2.935  11.484  1.00  0.00     0.001 A 
ATOM     79  C   UNL     1       6.696   1.688  11.707  1.00  0.00     0.000 A 
ENDBRANCH  60  74
BRANCH  61  80
ATOM     80  C   UNL     1       3.914   1.363   2.034  1.00  0.00    -0.014 A 
ATOM     81  C   UNL     1       3.223   0.314   2.647  1.00  0.00     0.009 A 
ATOM     82  C   UNL     1       4.826   1.074   1.009  1.00  0.00     0.009 A 
ATOM     83  C   UNL     1       3.532  -0.998   2.323  1.00  0.00     0.001 A 
ATOM     84  C   UNL     1       5.072  -0.253   0.637  1.00  0.00     0.001 A 
ATOM     85  C   UNL     1       4.445  -1.292   1.315  1.00  0.00     0.000 A 
ENDBRANCH  61  80
BRANCH  73  86
ATOM     86  C   UNL     1       6.168   6.661   4.058  1.00  0.00    -0.014 A 
ATOM     87  C   UNL     1       7.167   7.614   3.829  1.00  0.00     0.009 A 
ATOM     88  C   UNL     1       4.943   6.806   3.377  1.00  0.00     0.009 A 
ATOM     89  C   UNL     1       6.947   8.677   2.947  1.00  0.00     0.001 A 
ATOM     90  C   UNL     1       4.731   7.853   2.477  1.00  0.00     0.001 A 
ATOM     91  C   UNL     1       5.733   8.795   2.269  1.00  0.00     0.000 A 
ENDBRANCH  73  86
ENDBRANCH  47  48
ENDBRANCH  40  42
ENDBRANCH  39  40
ENDBRANCH  38  39
ENDBRANCH  37  38
ENDBRANCH   1  37
TORSDOF 17
