REMARK SMILES O=C(OCCOC(=O)c1ccc(-c2c3nc(c(-c4ccccc4)c4ccc([nH]4)c(-c4ccccc4)c4nc(c(-c5ccccc5)c5ccc2[nH]5)C=C4)C=C3)cc1)C1=NN(c2ccc(S(=O)(=O)[O-])cc2)C(=O)/C1=C/Nc1ccccc1
REMARK SMILES IDX 4 1 3 2 2 3 1 4 57 5 58 6 72 7 59 8 70 9 73 10 71 11 60 12
REMARK SMILES IDX 61 13 69 14 62 15 68 16 63 17 64 18 65 19 66 20 67 21 74 22
REMARK SMILES IDX 75 24 76 25 80 26 77 27 79 28 78 29 5 30 6 31 7 32 8 33 9 34
REMARK SMILES IDX 10 35 56 36 11 37 55 38 12 39 13 40 14 41 49 42 15 43 54 44
REMARK SMILES IDX 48 45 50 46 16 47 53 48 47 49 46 50 17 52 39 53 24 54 38 55
REMARK SMILES IDX 25 56 28 57 37 58 51 59 26 60 27 61 36 63 52 64 29 65 18 66
REMARK SMILES IDX 19 67 23 68 20 69 22 70 21 71 40 72 41 73 45 74 42 75 44 76
REMARK SMILES IDX 43 77 30 78 31 79 35 80 32 81 34 82 33 83
REMARK H PARENT 74 23 50 51 28 62
REMARK Flexibility Score: inf
ROOT
ATOM      1  C   UNL     1       3.812   1.379   0.187  1.00  0.00     0.275 C 
ENDROOT
BRANCH   1   2
ATOM      2  O   UNL     1       4.084   0.567  -0.973  1.00  0.00    -0.457 OA
BRANCH   2   3
ATOM      3  C   UNL     1       3.371  -0.556  -1.115  1.00  0.00     0.359 C 
ATOM      4  O   UNL     1       2.209  -0.621  -1.477  1.00  0.00    -0.244 OA
BRANCH   3   5
ATOM      5  C   UNL     1       4.203  -1.782  -0.841  1.00  0.00     0.183 C 
ATOM      6  N   UNL     1       4.112  -2.825  -1.629  1.00  0.00    -0.157 NA
ATOM      7  C   UNL     1       5.183  -1.980   0.259  1.00  0.00     0.093 C 
ATOM      8  N   UNL     1       4.991  -3.755  -1.113  1.00  0.00    -0.196 N 
ATOM      9  C   UNL     1       5.796  -3.288  -0.069  1.00  0.00     0.282 C 
ATOM     10  C   UNL     1       5.470  -1.518   1.489  1.00  0.00     0.099 C 
ATOM     11  O   UNL     1       6.697  -3.832   0.545  1.00  0.00    -0.267 OA
BRANCH   8  12
ATOM     12  C   UNL     1       4.801  -5.108  -1.449  1.00  0.00     0.069 A 
ATOM     13  C   UNL     1       4.360  -5.490  -2.720  1.00  0.00     0.030 A 
ATOM     14  C   UNL     1       5.004  -6.090  -0.469  1.00  0.00     0.030 A 
ATOM     15  C   UNL     1       4.226  -6.849  -3.034  1.00  0.00     0.021 A 
ATOM     16  C   UNL     1       4.817  -7.436  -0.755  1.00  0.00     0.021 A 
ATOM     17  C   UNL     1       4.465  -7.814  -2.047  1.00  0.00     0.054 A 
BRANCH  17  18
ATOM     18  S   UNL     1       4.455  -9.534  -2.466  1.00  0.00     0.124 S 
ATOM     19  O   UNL     1       3.092  -9.969  -2.597  1.00  0.00    -0.237 OA
ATOM     20  O   UNL     1       5.428  -9.721  -3.525  1.00  0.00    -0.237 OA
ATOM     21  O   UNL     1       5.000 -10.300  -1.155  1.00  0.00    -0.744 OA
ENDBRANCH  17  18
ENDBRANCH   8  12
BRANCH  10  22
ATOM     22  N   UNL     1       4.729  -0.729   2.327  1.00  0.00    -0.361 N 
ATOM     23  H   UNL     1       3.783  -0.643   2.066  1.00  0.00     0.166 HD
BRANCH  22  24
ATOM     24  C   UNL     1       5.070  -0.021   3.490  1.00  0.00     0.038 A 
ATOM     25  C   UNL     1       4.036   0.370   4.362  1.00  0.00     0.026 A 
ATOM     26  C   UNL     1       6.377   0.346   3.811  1.00  0.00     0.026 A 
ATOM     27  C   UNL     1       4.289   1.167   5.479  1.00  0.00     0.002 A 
ATOM     28  C   UNL     1       6.632   1.155   4.926  1.00  0.00     0.002 A 
ATOM     29  C   UNL     1       5.589   1.575   5.750  1.00  0.00     0.000 A 
ENDBRANCH  22  24
ENDBRANCH  10  22
ENDBRANCH   3   5
ENDBRANCH   2   3
ENDBRANCH   1   2
BRANCH   1  30
ATOM     30  C   UNL     1       2.520   1.101   0.989  1.00  0.00     0.275 C 
BRANCH  30  31
ATOM     31  O   UNL     1       2.399  -0.317   1.273  1.00  0.00    -0.458 OA
BRANCH  31  32
ATOM     32  C   UNL     1       1.167  -0.767   1.612  1.00  0.00     0.338 C 
ATOM     33  O   UNL     1       0.236  -0.084   1.993  1.00  0.00    -0.246 OA
BRANCH  32  34
ATOM     34  C   UNL     1       1.094  -2.220   1.298  1.00  0.00     0.060 A 
ATOM     35  C   UNL     1       0.038  -2.648   0.493  1.00  0.00     0.016 A 
ATOM     36  C   UNL     1       2.035  -3.152   1.753  1.00  0.00     0.016 A 
ATOM     37  C   UNL     1      -0.106  -4.005   0.178  1.00  0.00     0.010 A 
ATOM     38  C   UNL     1       1.911  -4.508   1.396  1.00  0.00     0.010 A 
ATOM     39  C   UNL     1       0.816  -4.960   0.636  1.00  0.00    -0.014 A 
BRANCH  39  40
ATOM     40  C   UNL     1       0.555  -6.419   0.414  1.00  0.00     0.031 A 
ATOM     41  C   UNL     1       0.240  -7.315   1.593  1.00  0.00     0.074 A 
ATOM     42  C   UNL     1       0.515  -6.947  -0.828  1.00  0.00     0.049 A 
ATOM     43  N   UNL     1      -0.093  -8.585   1.607  1.00  0.00    -0.248 NA
ATOM     44  C   UNL     1       0.302  -6.706   2.932  1.00  0.00     0.031 C 
ATOM     45  C   UNL     1       0.766  -6.219  -2.073  1.00  0.00     0.029 A 
ATOM     46  N   UNL     1       0.233  -8.228  -1.250  1.00  0.00    -0.354 N 
ATOM     47  C   UNL     1      -0.319  -8.906   2.941  1.00  0.00     0.074 A 
ATOM     48  C   UNL     1       0.014  -7.733   3.717  1.00  0.00     0.031 C 
ATOM     49  C   UNL     1       0.614  -7.058  -3.114  1.00  0.00     0.029 A 
ATOM     50  C   UNL     1       0.291  -8.392  -2.617  1.00  0.00     0.049 A 
ATOM     51  H   UNL     1       0.011  -8.960  -0.631  1.00  0.00     0.167 HD
ATOM     52  C   UNL     1      -0.813 -10.048   3.480  1.00  0.00     0.031 A 
ATOM     53  C   UNL     1       0.129  -9.494  -3.381  1.00  0.00     0.031 A 
ATOM     54  C   UNL     1      -1.162 -11.224   2.730  1.00  0.00     0.049 A 
ATOM     55  C   UNL     1      -0.196 -10.813  -2.719  1.00  0.00     0.074 A 
ATOM     56  C   UNL     1      -1.737 -12.399   3.186  1.00  0.00     0.029 A 
ATOM     57  N   UNL     1      -0.963 -11.378   1.370  1.00  0.00    -0.354 N 
ATOM     58  N   UNL     1      -0.496 -11.067  -1.468  1.00  0.00    -0.248 NA
ATOM     59  C   UNL     1      -0.223 -12.003  -3.588  1.00  0.00     0.031 C 
ATOM     60  C   UNL     1      -1.831 -13.287   2.110  1.00  0.00     0.029 A 
ATOM     61  C   UNL     1      -1.362 -12.644   0.977  1.00  0.00     0.049 A 
ATOM     62  H   UNL     1      -0.593 -10.690   0.770  1.00  0.00     0.167 HD
ATOM     63  C   UNL     1      -0.827 -12.418  -1.422  1.00  0.00     0.074 A 
ATOM     64  C   UNL     1      -0.664 -12.940  -2.760  1.00  0.00     0.031 C 
ATOM     65  C   UNL     1      -1.254 -13.150  -0.365  1.00  0.00     0.031 A 
BRANCH  52  66
ATOM     66  C   UNL     1      -1.043 -10.069   4.967  1.00  0.00    -0.014 A 
ATOM     67  C   UNL     1      -2.081  -9.316   5.541  1.00  0.00     0.009 A 
ATOM     68  C   UNL     1      -0.259 -10.886   5.795  1.00  0.00     0.009 A 
ATOM     69  C   UNL     1      -2.304  -9.352   6.919  1.00  0.00     0.001 A 
ATOM     70  C   UNL     1      -0.502 -10.940   7.169  1.00  0.00     0.001 A 
ATOM     71  C   UNL     1      -1.517 -10.166   7.731  1.00  0.00     0.000 A 
ENDBRANCH  52  66
BRANCH  53  72
ATOM     72  C   UNL     1       0.331  -9.450  -4.862  1.00  0.00    -0.014 A 
ATOM     73  C   UNL     1      -0.719  -9.737  -5.747  1.00  0.00     0.009 A 
ATOM     74  C   UNL     1       1.611  -9.240  -5.401  1.00  0.00     0.009 A 
ATOM     75  C   UNL     1      -0.478  -9.862  -7.120  1.00  0.00     0.001 A 
ATOM     76  C   UNL     1       1.849  -9.345  -6.772  1.00  0.00     0.001 A 
ATOM     77  C   UNL     1       0.805  -9.671  -7.631  1.00  0.00     0.000 A 
ENDBRANCH  53  72
BRANCH  65  78
ATOM     78  C   UNL     1      -1.709 -14.560  -0.624  1.00  0.00    -0.014 A 
ATOM     79  C   UNL     1      -0.803 -15.603  -0.863  1.00  0.00     0.009 A 
ATOM     80  C   UNL     1      -3.083 -14.852  -0.575  1.00  0.00     0.009 A 
ATOM     81  C   UNL     1      -1.267 -16.905  -1.071  1.00  0.00     0.001 A 
ATOM     82  C   UNL     1      -3.541 -16.157  -0.758  1.00  0.00     0.001 A 
ATOM     83  C   UNL     1      -2.633 -17.182  -1.013  1.00  0.00     0.000 A 
ENDBRANCH  65  78
ENDBRANCH  39  40
ENDBRANCH  32  34
ENDBRANCH  31  32
ENDBRANCH  30  31
ENDBRANCH   1  30
TORSDOF 15
