REMARK SMILES O=C(Cc1ccccc1Nc1c(Cl)cccc1Cl)OCCOC(=O)c1ccc(-c2c3nc(c(-c4ccccc4)c4ccc([nH]4)c(-c4ccccc4)c4nc(c(-c5ccccc5)c5ccc2[nH]5)C=C4)C=C3)cc1
REMARK SMILES IDX 20 1 19 2 2 3 1 4 3 5 4 6 5 7 9 8 6 9 8 10 7 11 10 12 11 14
REMARK SMILES IDX 12 15 17 16 13 17 14 18 16 19 18 20 15 21 21 22 22 23 23 24
REMARK SMILES IDX 24 25 25 26 26 27 72 28 27 29 71 30 28 31 29 32 30 33 65 34
REMARK SMILES IDX 31 35 70 36 64 37 66 38 32 39 69 40 63 41 62 42 33 44 55 45
REMARK SMILES IDX 40 46 54 47 41 48 44 49 53 50 67 51 42 52 43 53 52 55 68 56
REMARK SMILES IDX 45 57 34 58 35 59 39 60 36 61 38 62 37 63 56 64 57 65 61 66
REMARK SMILES IDX 58 67 60 68 59 69 46 70 47 71 51 72 48 73 50 74 49 75
REMARK H PARENT 10 13 66 43 44 54
REMARK Flexibility Score: inf
ROOT
ATOM      1  C   UNL     1       4.177  -1.641   0.028  1.00  0.00     0.274 C 
ENDROOT
BRANCH   1   2
ATOM      2  O   UNL     1       2.910  -1.139   0.496  1.00  0.00    -0.462 OA
BRANCH   2   3
ATOM      3  C   UNL     1       2.633   0.171   0.713  1.00  0.00     0.310 C 
ATOM      4  O   UNL     1       1.622   0.490   1.335  1.00  0.00    -0.252 OA
BRANCH   3   5
ATOM      5  C   UNL     1       3.545   1.220   0.110  1.00  0.00     0.160 C 
BRANCH   5   6
ATOM      6  C   UNL     1       4.174   2.128   1.139  1.00  0.00    -0.013 A 
ATOM      7  C   UNL     1       5.143   1.574   2.002  1.00  0.00     0.006 A 
ATOM      8  C   UNL     1       3.858   3.496   1.245  1.00  0.00     0.042 A 
ATOM      9  C   UNL     1       5.796   2.353   2.953  1.00  0.00     0.000 A 
ATOM     10  C   UNL     1       4.494   4.244   2.254  1.00  0.00     0.026 A 
ATOM     11  C   UNL     1       5.464   3.689   3.086  1.00  0.00     0.002 A 
BRANCH   8  12
ATOM     12  N   UNL     1       2.994   4.125   0.319  1.00  0.00    -0.353 N 
ATOM     13  H   UNL     1       2.469   3.522  -0.254  1.00  0.00     0.167 HD
BRANCH  12  14
ATOM     14  C   UNL     1       2.787   5.513   0.107  1.00  0.00     0.076 A 
ATOM     15  C   UNL     1       1.468   6.012   0.088  1.00  0.00     0.066 A 
ATOM     16  C   UNL     1       3.836   6.455   0.034  1.00  0.00     0.066 A 
ATOM     17  Cl  UNL     1       0.117   4.931   0.019  1.00  0.00    -0.082 Cl
ATOM     18  C   UNL     1       1.209   7.383   0.126  1.00  0.00     0.023 A 
ATOM     19  C   UNL     1       3.578   7.826   0.115  1.00  0.00     0.023 A 
ATOM     20  Cl  UNL     1       5.475   5.994  -0.307  1.00  0.00    -0.082 Cl
ATOM     21  C   UNL     1       2.266   8.284   0.192  1.00  0.00     0.003 A 
ENDBRANCH  12  14
ENDBRANCH   8  12
ENDBRANCH   5   6
ENDBRANCH   3   5
ENDBRANCH   2   3
ENDBRANCH   1   2
BRANCH   1  22
ATOM     22  C   UNL     1       4.170  -1.956  -1.470  1.00  0.00     0.275 C 
BRANCH  22  23
ATOM     23  O   UNL     1       3.809  -0.808  -2.261  1.00  0.00    -0.458 OA
BRANCH  23  24
ATOM     24  C   UNL     1       2.494  -0.728  -2.600  1.00  0.00     0.338 C 
ATOM     25  O   UNL     1       1.628  -1.537  -2.341  1.00  0.00    -0.246 OA
BRANCH  24  26
ATOM     26  C   UNL     1       2.221   0.586  -3.230  1.00  0.00     0.060 A 
ATOM     27  C   UNL     1       1.050   1.263  -2.867  1.00  0.00     0.016 A 
ATOM     28  C   UNL     1       3.090   1.149  -4.170  1.00  0.00     0.016 A 
ATOM     29  C   UNL     1       0.747   2.502  -3.443  1.00  0.00     0.010 A 
ATOM     30  C   UNL     1       2.774   2.379  -4.761  1.00  0.00     0.010 A 
ATOM     31  C   UNL     1       1.598   3.062  -4.409  1.00  0.00    -0.014 A 
BRANCH  31  32
ATOM     32  C   UNL     1       1.238   4.339  -5.078  1.00  0.00     0.031 A 
ATOM     33  C   UNL     1       0.431   4.332  -6.343  1.00  0.00     0.074 A 
ATOM     34  C   UNL     1       1.686   5.515  -4.603  1.00  0.00     0.049 A 
ATOM     35  N   UNL     1       0.034   5.347  -7.069  1.00  0.00    -0.248 NA
ATOM     36  C   UNL     1       0.071   3.016  -6.889  1.00  0.00     0.031 C 
ATOM     37  C   UNL     1       2.588   5.667  -3.468  1.00  0.00     0.029 A 
ATOM     38  N   UNL     1       1.456   6.805  -5.026  1.00  0.00    -0.354 N 
ATOM     39  C   UNL     1      -0.565   4.795  -8.191  1.00  0.00     0.074 A 
ATOM     40  C   UNL     1      -0.510   3.355  -8.032  1.00  0.00     0.031 C 
ATOM     41  C   UNL     1       2.804   6.976  -3.267  1.00  0.00     0.029 A 
ATOM     42  C   UNL     1       2.042   7.758  -4.228  1.00  0.00     0.049 A 
ATOM     43  H   UNL     1       0.923   7.023  -5.825  1.00  0.00     0.167 HD
ATOM     44  C   UNL     1      -1.076   5.428  -9.274  1.00  0.00     0.031 A 
ATOM     45  C   UNL     1       1.969   9.104  -4.252  1.00  0.00     0.031 A 
ATOM     46  C   UNL     1      -1.129   6.856  -9.451  1.00  0.00     0.049 A 
ATOM     47  C   UNL     1       1.249   9.779  -5.384  1.00  0.00     0.074 A 
ATOM     48  C   UNL     1      -1.674   7.569 -10.506  1.00  0.00     0.029 A 
ATOM     49  N   UNL     1      -0.611   7.787  -8.568  1.00  0.00    -0.354 N 
ATOM     50  N   UNL     1       0.607   9.241  -6.389  1.00  0.00    -0.248 NA
ATOM     51  C   UNL     1       1.284  11.251  -5.408  1.00  0.00     0.031 C 
ATOM     52  C   UNL     1      -1.440   8.931 -10.287  1.00  0.00     0.029 A 
ATOM     53  C   UNL     1      -0.797   9.066  -9.070  1.00  0.00     0.049 A 
ATOM     54  H   UNL     1      -0.175   7.573  -7.711  1.00  0.00     0.167 HD
ATOM     55  C   UNL     1       0.209  10.304  -7.188  1.00  0.00     0.074 A 
ATOM     56  C   UNL     1       0.598  11.520  -6.508  1.00  0.00     0.031 C 
ATOM     57  C   UNL     1      -0.378  10.270  -8.406  1.00  0.00     0.031 A 
BRANCH  44  58
ATOM     58  C   UNL     1      -1.570   4.572 -10.402  1.00  0.00    -0.014 A 
ATOM     59  C   UNL     1      -2.791   3.887 -10.322  1.00  0.00     0.009 A 
ATOM     60  C   UNL     1      -0.824   4.508 -11.590  1.00  0.00     0.009 A 
ATOM     61  C   UNL     1      -3.247   3.138 -11.409  1.00  0.00     0.001 A 
ATOM     62  C   UNL     1      -1.294   3.779 -12.682  1.00  0.00     0.001 A 
ATOM     63  C   UNL     1      -2.502   3.091 -12.588  1.00  0.00     0.000 A 
ENDBRANCH  44  58
BRANCH  45  64
ATOM     64  C   UNL     1       2.583   9.940  -3.182  1.00  0.00    -0.014 A 
ATOM     65  C   UNL     1       1.758  10.702  -2.336  1.00  0.00     0.009 A 
ATOM     66  C   UNL     1       3.973  10.048  -3.042  1.00  0.00     0.009 A 
ATOM     67  C   UNL     1       2.311  11.578  -1.399  1.00  0.00     0.001 A 
ATOM     68  C   UNL     1       4.524  10.894  -2.076  1.00  0.00     0.001 A 
ATOM     69  C   UNL     1       3.695  11.666  -1.263  1.00  0.00     0.000 A 
ENDBRANCH  45  64
BRANCH  57  70
ATOM     70  C   UNL     1      -0.577  11.587  -9.099  1.00  0.00    -0.014 A 
ATOM     71  C   UNL     1       0.521  12.288  -9.624  1.00  0.00     0.009 A 
ATOM     72  C   UNL     1      -1.862  12.129  -9.241  1.00  0.00     0.009 A 
ATOM     73  C   UNL     1       0.341  13.523 -10.249  1.00  0.00     0.001 A 
ATOM     74  C   UNL     1      -2.042  13.353  -9.889  1.00  0.00     0.001 A 
ATOM     75  C   UNL     1      -0.942  14.052 -10.384  1.00  0.00     0.000 A 
ENDBRANCH  57  70
ENDBRANCH  31  32
ENDBRANCH  24  26
ENDBRANCH  23  24
ENDBRANCH  22  23
ENDBRANCH   1  22
TORSDOF 14
