REMARK SMILES CC1(C)[C@@]2(C(=O)OCCOC(=O)c3ccc(-c4c5nc(c(-c6ccccc6)c6ccc([nH]6)c(-c6ccccc6)c6nc(c(-c7ccccc7)c7ccc4[nH]7)C=C6)C=C5)cc3)CC[C@]1(C)/C(=N/NC(=O)c1ccc(Cl)cc1)C2
REMARK SMILES IDX 8 1 7 2 5 3 6 4 4 5 1 6 2 7 3 8 63 9 61 10 77 11 62 12 64 13
REMARK SMILES IDX 65 14 66 15 67 16 68 17 69 19 70 20 71 21 76 22 72 23 75 24
REMARK SMILES IDX 73 25 74 26 9 27 10 28 11 29 12 30 13 31 14 32 60 33 15 34
REMARK SMILES IDX 59 35 16 36 17 37 18 38 53 39 19 40 58 41 52 42 54 43 20 44
REMARK SMILES IDX 57 45 51 46 50 47 21 49 43 50 28 51 42 52 29 53 32 54 41 55
REMARK SMILES IDX 55 56 30 57 31 58 40 60 56 61 33 62 22 63 23 64 27 65 24 66
REMARK SMILES IDX 26 67 25 68 44 69 45 70 49 71 46 72 48 73 47 74 34 75 35 76
REMARK SMILES IDX 39 77 36 78 38 79 37 80
REMARK H PARENT 67 18 54 48 32 59
REMARK Flexibility Score: inf
ROOT
ATOM      1  C   UNL     1       0.757   4.227   1.890  1.00  0.00     0.274 C 
ENDROOT
BRANCH   1   2
ATOM      2  O   UNL     1       0.340   2.857   2.090  1.00  0.00    -0.462 OA
BRANCH   2   3
ATOM      3  C   UNL     1       0.499   1.972   1.065  1.00  0.00     0.313 C 
ATOM      4  O   UNL     1       1.044   2.225   0.000  1.00  0.00    -0.252 OA
BRANCH   3   5
ATOM      5  C   UNL     1      -0.215   0.664   1.357  1.00  0.00     0.079 C 
ATOM      6  C   UNL     1       0.843  -0.820  -0.505  1.00  0.00     0.013 C 
ATOM      7  C   UNL     1       0.427  -0.706   0.976  1.00  0.00    -0.008 C 
ATOM      8  C   UNL     1       1.623  -1.149   1.852  1.00  0.00     0.013 C 
ATOM      9  C   UNL     1      -0.883  -1.485   1.357  1.00  0.00     0.014 C 
ATOM     10  C   UNL     1      -1.554   0.663   0.544  1.00  0.00     0.021 C 
ATOM     11  C   UNL     1      -0.555   0.463   2.850  1.00  0.00     0.073 C 
ATOM     12  C   UNL     1      -1.968  -0.816   0.505  1.00  0.00     0.014 C 
ATOM     13  C   UNL     1      -0.835  -2.996   1.256  1.00  0.00     0.018 C 
ATOM     14  C   UNL     1      -1.119  -0.928   2.784  1.00  0.00     0.046 C 
ATOM     15  N   UNL     1      -1.666  -1.666   3.695  1.00  0.00    -0.181 NA
BRANCH  15  16
ATOM     16  N   UNL     1      -1.777  -1.345   5.011  1.00  0.00    -0.243 N 
ATOM     17  C   UNL     1      -2.078  -0.209   5.729  1.00  0.00     0.271 C 
ATOM     18  H   UNL     1      -1.596  -2.116   5.596  1.00  0.00     0.194 HD
ATOM     19  O   UNL     1      -1.950  -0.214   6.955  1.00  0.00    -0.267 OA
BRANCH  17  20
ATOM     20  C   UNL     1      -2.582   1.022   5.107  1.00  0.00     0.041 A 
ATOM     21  C   UNL     1      -1.961   2.231   5.464  1.00  0.00     0.015 A 
ATOM     22  C   UNL     1      -3.614   1.007   4.162  1.00  0.00     0.015 A 
ATOM     23  C   UNL     1      -2.308   3.412   4.807  1.00  0.00     0.021 A 
ATOM     24  C   UNL     1      -3.966   2.197   3.516  1.00  0.00     0.021 A 
ATOM     25  C   UNL     1      -3.297   3.386   3.824  1.00  0.00     0.041 A 
ATOM     26  Cl  UNL     1      -3.663   4.824   2.954  1.00  0.00    -0.084 Cl
ENDBRANCH  17  20
ENDBRANCH  15  16
ENDBRANCH   3   5
ENDBRANCH   2   3
ENDBRANCH   1   2
BRANCH   1  27
ATOM     27  C   UNL     1       1.864   4.583   2.884  1.00  0.00     0.275 C 
BRANCH  27  28
ATOM     28  O   UNL     1       3.043   3.875   2.473  1.00  0.00    -0.458 OA
BRANCH  28  29
ATOM     29  C   UNL     1       3.689   3.142   3.405  1.00  0.00     0.338 C 
ATOM     30  O   UNL     1       3.572   3.212   4.617  1.00  0.00    -0.246 OA
BRANCH  29  31
ATOM     31  C   UNL     1       4.500   2.122   2.702  1.00  0.00     0.060 A 
ATOM     32  C   UNL     1       3.996   1.557   1.532  1.00  0.00     0.016 A 
ATOM     33  C   UNL     1       5.682   1.625   3.244  1.00  0.00     0.016 A 
ATOM     34  C   UNL     1       4.595   0.439   0.970  1.00  0.00     0.010 A 
ATOM     35  C   UNL     1       6.355   0.576   2.596  1.00  0.00     0.010 A 
ATOM     36  C   UNL     1       5.801  -0.057   1.466  1.00  0.00    -0.014 A 
BRANCH  36  37
ATOM     37  C   UNL     1       6.431  -1.255   0.834  1.00  0.00     0.031 A 
ATOM     38  C   UNL     1       6.854  -2.423   1.685  1.00  0.00     0.074 A 
ATOM     39  C   UNL     1       6.585  -1.349  -0.504  1.00  0.00     0.049 A 
ATOM     40  N   UNL     1       7.669  -3.404   1.391  1.00  0.00    -0.248 NA
ATOM     41  C   UNL     1       6.304  -2.489   3.048  1.00  0.00     0.031 C 
ATOM     42  C   UNL     1       6.139  -0.366  -1.496  1.00  0.00     0.029 A 
ATOM     43  N   UNL     1       7.138  -2.349  -1.269  1.00  0.00    -0.354 N 
ATOM     44  C   UNL     1       7.818  -4.135   2.563  1.00  0.00     0.074 A 
ATOM     45  C   UNL     1       6.975  -3.512   3.560  1.00  0.00     0.031 C 
ATOM     46  C   UNL     1       6.344  -0.853  -2.728  1.00  0.00     0.029 A 
ATOM     47  C   UNL     1       7.077  -2.106  -2.620  1.00  0.00     0.049 A 
ATOM     48  H   UNL     1       7.540  -3.161  -0.885  1.00  0.00     0.167 HD
ATOM     49  C   UNL     1       8.610  -5.210   2.788  1.00  0.00     0.031 A 
ATOM     50  C   UNL     1       7.611  -2.768  -3.663  1.00  0.00     0.031 A 
ATOM     51  C   UNL     1       9.379  -5.875   1.770  1.00  0.00     0.049 A 
ATOM     52  C   UNL     1       8.514  -3.934  -3.397  1.00  0.00     0.074 A 
ATOM     53  C   UNL     1      10.228  -6.962   1.895  1.00  0.00     0.029 A 
ATOM     54  N   UNL     1       9.360  -5.536   0.426  1.00  0.00    -0.354 N 
ATOM     55  N   UNL     1       8.802  -4.509  -2.256  1.00  0.00    -0.248 NA
ATOM     56  C   UNL     1       9.216  -4.500  -4.557  1.00  0.00     0.031 C 
ATOM     57  C   UNL     1      10.742  -7.264   0.628  1.00  0.00     0.029 A 
ATOM     58  C   UNL     1      10.185  -6.387  -0.288  1.00  0.00     0.049 A 
ATOM     59  H   UNL     1       8.837  -4.798   0.037  1.00  0.00     0.167 HD
ATOM     60  C   UNL     1       9.739  -5.487  -2.554  1.00  0.00     0.074 A 
ATOM     61  C   UNL     1       9.941  -5.454  -3.989  1.00  0.00     0.031 C 
ATOM     62  C   UNL     1      10.390  -6.324  -1.710  1.00  0.00     0.031 A 
BRANCH  49  63
ATOM     63  C   UNL     1       8.747  -5.680   4.207  1.00  0.00    -0.014 A 
ATOM     64  C   UNL     1       7.742  -6.415   4.851  1.00  0.00     0.009 A 
ATOM     65  C   UNL     1       9.931  -5.387   4.905  1.00  0.00     0.009 A 
ATOM     66  C   UNL     1       7.909  -6.820   6.178  1.00  0.00     0.001 A 
ATOM     67  C   UNL     1      10.104  -5.813   6.223  1.00  0.00     0.001 A 
ATOM     68  C   UNL     1       9.088  -6.521   6.861  1.00  0.00     0.000 A 
ENDBRANCH  49  63
BRANCH  50  69
ATOM     69  C   UNL     1       7.394  -2.267  -5.045  1.00  0.00    -0.014 A 
ATOM     70  C   UNL     1       6.575  -2.974  -5.936  1.00  0.00     0.009 A 
ATOM     71  C   UNL     1       7.975  -1.060  -5.466  1.00  0.00     0.009 A 
ATOM     72  C   UNL     1       6.336  -2.477  -7.220  1.00  0.00     0.001 A 
ATOM     73  C   UNL     1       7.710  -0.551  -6.738  1.00  0.00     0.001 A 
ATOM     74  C   UNL     1       6.894  -1.261  -7.615  1.00  0.00     0.000 A 
ENDBRANCH  50  69
BRANCH  62  75
ATOM     75  C   UNL     1      11.381  -7.262  -2.327  1.00  0.00    -0.014 A 
ATOM     76  C   UNL     1      12.656  -6.810  -2.702  1.00  0.00     0.009 A 
ATOM     77  C   UNL     1      11.045  -8.609  -2.523  1.00  0.00     0.009 A 
ATOM     78  C   UNL     1      13.568  -7.688  -3.288  1.00  0.00     0.001 A 
ATOM     79  C   UNL     1      11.966  -9.488  -3.094  1.00  0.00     0.001 A 
ATOM     80  C   UNL     1      13.223  -9.026  -3.482  1.00  0.00     0.000 A 
ENDBRANCH  62  75
ENDBRANCH  36  37
ENDBRANCH  29  31
ENDBRANCH  28  29
ENDBRANCH  27  28
ENDBRANCH   1  27
TORSDOF 13
