REMARK SMILES O=C(OCCOC(=O)c1csc(C[NH2+][C@H]2CCSc3ccc(F)cc32)c1)c1ccc(-c2c3nc(c(-c4ccccc4)c4ccc([nH]4)c(-c4ccccc4)c4nc(c(-c5ccccc5)c5ccc2[nH]5)C=C4)C=C3)cc1
REMARK SMILES IDX 5 1 4 2 3 3 2 4 1 5 27 6 28 7 74 8 29 9 73 10 30 11 31 12
REMARK SMILES IDX 32 13 67 14 33 15 72 16 66 17 68 18 34 19 71 20 65 21 64 22
REMARK SMILES IDX 35 24 57 25 42 26 56 27 43 28 46 29 55 30 69 31 44 32 45 33
REMARK SMILES IDX 54 35 70 36 47 37 36 38 37 39 41 40 38 41 40 42 39 43 58 44
REMARK SMILES IDX 59 45 63 46 60 47 62 48 61 49 48 50 49 51 53 52 50 53 52 54
REMARK SMILES IDX 51 55 6 56 7 57 8 58 9 59 10 60 26 61 11 62 12 63 13 64
REMARK SMILES IDX 14 65 15 68 16 69 25 70 17 71 19 72 24 73 18 74 20 75 22 76
REMARK SMILES IDX 21 77 23 78
REMARK H PARENT 68 23 46 34 14 66 14 67
REMARK Flexibility Score: inf
ROOT
ATOM      1  C   UNL     1      -2.651 -10.911  -6.106  1.00  0.00     0.275 C 
ENDROOT
BRANCH   1   2
ATOM      2  C   UNL     1      -3.837 -11.440  -5.288  1.00  0.00     0.275 C 
BRANCH   2   3
ATOM      3  O   UNL     1      -4.254 -10.600  -4.199  1.00  0.00    -0.458 OA
BRANCH   3   4
ATOM      4  C   UNL     1      -3.924 -10.765  -2.893  1.00  0.00     0.338 C 
ATOM      5  O   UNL     1      -4.662 -10.351  -2.005  1.00  0.00    -0.246 OA
BRANCH   4   6
ATOM      6  C   UNL     1      -2.537 -11.172  -2.537  1.00  0.00     0.060 A 
ATOM      7  C   UNL     1      -1.875 -10.349  -1.620  1.00  0.00     0.016 A 
ATOM      8  C   UNL     1      -1.864 -12.287  -3.043  1.00  0.00     0.016 A 
ATOM      9  C   UNL     1      -0.525 -10.551  -1.338  1.00  0.00     0.010 A 
ATOM     10  C   UNL     1      -0.508 -12.493  -2.761  1.00  0.00     0.010 A 
ATOM     11  C   UNL     1       0.180 -11.606  -1.931  1.00  0.00    -0.014 A 
BRANCH  11  12
ATOM     12  C   UNL     1       1.568 -11.873  -1.495  1.00  0.00     0.031 A 
ATOM     13  C   UNL     1       2.759 -11.552  -2.342  1.00  0.00     0.074 A 
ATOM     14  C   UNL     1       1.722 -12.387  -0.263  1.00  0.00     0.049 A 
ATOM     15  N   UNL     1       4.020 -11.507  -1.995  1.00  0.00    -0.248 NA
ATOM     16  C   UNL     1       2.515 -11.248  -3.758  1.00  0.00     0.031 C 
ATOM     17  C   UNL     1       0.613 -12.751   0.620  1.00  0.00     0.029 A 
ATOM     18  N   UNL     1       2.845 -12.648   0.475  1.00  0.00    -0.354 N 
ATOM     19  C   UNL     1       4.717 -11.129  -3.135  1.00  0.00     0.074 A 
ATOM     20  C   UNL     1       3.742 -10.990  -4.197  1.00  0.00     0.031 C 
ATOM     21  C   UNL     1       1.107 -13.125   1.804  1.00  0.00     0.029 A 
ATOM     22  C   UNL     1       2.564 -13.053   1.758  1.00  0.00     0.049 A 
ATOM     23  H   UNL     1       3.760 -12.557   0.123  1.00  0.00     0.167 HD
ATOM     24  C   UNL     1       6.051 -10.934  -3.275  1.00  0.00     0.031 A 
ATOM     25  C   UNL     1       3.381 -13.297   2.799  1.00  0.00     0.031 A 
ATOM     26  C   UNL     1       7.012 -11.185  -2.229  1.00  0.00     0.049 A 
ATOM     27  C   UNL     1       4.853 -13.093   2.608  1.00  0.00     0.074 A 
ATOM     28  C   UNL     1       8.389 -11.049  -2.272  1.00  0.00     0.029 A 
ATOM     29  N   UNL     1       6.699 -11.660  -0.962  1.00  0.00    -0.354 N 
ATOM     30  N   UNL     1       5.492 -12.650   1.551  1.00  0.00    -0.248 NA
ATOM     31  C   UNL     1       5.717 -13.421   3.747  1.00  0.00     0.031 C 
ATOM     32  C   UNL     1       8.914 -11.532  -1.069  1.00  0.00     0.029 A 
ATOM     33  C   UNL     1       7.861 -11.886  -0.239  1.00  0.00     0.049 A 
ATOM     34  H   UNL     1       5.787 -11.813  -0.626  1.00  0.00     0.167 HD
ATOM     35  C   UNL     1       6.838 -12.675   1.885  1.00  0.00     0.074 A 
ATOM     36  C   UNL     1       6.914 -13.112   3.266  1.00  0.00     0.031 C 
ATOM     37  C   UNL     1       7.915 -12.388   1.112  1.00  0.00     0.031 A 
BRANCH  24  38
ATOM     38  C   UNL     1       6.569 -10.469  -4.612  1.00  0.00    -0.014 A 
ATOM     39  C   UNL     1       7.370 -11.321  -5.390  1.00  0.00     0.009 A 
ATOM     40  C   UNL     1       6.357  -9.153  -5.054  1.00  0.00     0.009 A 
ATOM     41  C   UNL     1       7.963 -10.863  -6.569  1.00  0.00     0.001 A 
ATOM     42  C   UNL     1       6.933  -8.704  -6.247  1.00  0.00     0.001 A 
ATOM     43  C   UNL     1       7.743  -9.556  -6.997  1.00  0.00     0.000 A 
ENDBRANCH  24  38
BRANCH  25  44
ATOM     44  C   UNL     1       2.782 -13.676   4.110  1.00  0.00    -0.014 A 
ATOM     45  C   UNL     1       2.017 -14.849   4.235  1.00  0.00     0.009 A 
ATOM     46  C   UNL     1       2.839 -12.793   5.199  1.00  0.00     0.009 A 
ATOM     47  C   UNL     1       1.258 -15.085   5.384  1.00  0.00     0.001 A 
ATOM     48  C   UNL     1       2.108 -13.049   6.361  1.00  0.00     0.001 A 
ATOM     49  C   UNL     1       1.300 -14.182   6.444  1.00  0.00     0.000 A 
ENDBRANCH  25  44
BRANCH  37  50
ATOM     50  C   UNL     1       9.269 -12.632   1.721  1.00  0.00    -0.014 A 
ATOM     51  C   UNL     1      10.136 -11.562   1.987  1.00  0.00     0.009 A 
ATOM     52  C   UNL     1       9.704 -13.941   1.985  1.00  0.00     0.009 A 
ATOM     53  C   UNL     1      11.410 -11.797   2.506  1.00  0.00     0.001 A 
ATOM     54  C   UNL     1      10.965 -14.171   2.538  1.00  0.00     0.001 A 
ATOM     55  C   UNL     1      11.819 -13.100   2.791  1.00  0.00     0.000 A 
ENDBRANCH  37  50
ENDBRANCH  11  12
ENDBRANCH   4   6
ENDBRANCH   3   4
ENDBRANCH   2   3
ENDBRANCH   1   2
BRANCH   1  56
ATOM     56  O   UNL     1      -1.654 -10.219  -5.341  1.00  0.00    -0.458 OA
BRANCH  56  57
ATOM     57  C   UNL     1      -1.908  -8.885  -5.133  1.00  0.00     0.339 C 
ATOM     58  O   UNL     1      -2.851  -8.280  -5.602  1.00  0.00    -0.246 OA
BRANCH  57  59
ATOM     59  C   UNL     1      -0.966  -8.290  -4.187  1.00  0.00     0.071 A 
ATOM     60  C   UNL     1       0.405  -8.430  -4.249  1.00  0.00     0.081 A 
ATOM     61  C   UNL     1      -1.341  -7.490  -3.053  1.00  0.00     0.037 A 
ATOM     62  S   UNL     1       1.207  -7.682  -2.934  1.00  0.00    -0.142 S 
ATOM     63  C   UNL     1      -0.272  -7.176  -2.231  1.00  0.00     0.060 A 
BRANCH  63  64
ATOM     64  C   UNL     1      -0.290  -6.454  -0.909  1.00  0.00     0.308 C 
BRANCH  64  65
ATOM     65  N   UNL     1      -0.282  -7.385   0.228  1.00  0.00    -0.336 N 
ATOM     66  H   UNL     1       0.490  -8.039   0.100  1.00  0.00     0.347 HD
ATOM     67  H   UNL     1      -1.194  -7.843   0.236  1.00  0.00     0.347 HD
BRANCH  65  68
ATOM     68  C   UNL     1      -0.124  -6.734   1.552  1.00  0.00     0.215 C 
ATOM     69  C   UNL     1      -1.083  -5.537   1.704  1.00  0.00     0.081 C 
ATOM     70  C   UNL     1      -0.226  -7.769   2.676  1.00  0.00     0.026 A 
ATOM     71  C   UNL     1      -1.132  -4.998   3.119  1.00  0.00     0.081 C 
ATOM     72  C   UNL     1      -1.060  -7.628   3.807  1.00  0.00     0.017 A 
ATOM     73  C   UNL     1       0.612  -8.900   2.624  1.00  0.00     0.050 A 
ATOM     74  S   UNL     1      -2.041  -6.177   4.139  1.00  0.00    -0.125 SA
ATOM     75  C   UNL     1      -1.118  -8.636   4.787  1.00  0.00     0.018 A 
ATOM     76  C   UNL     1       0.576  -9.856   3.634  1.00  0.00     0.123 A 
ATOM     77  C   UNL     1      -0.299  -9.754   4.700  1.00  0.00     0.040 A 
ATOM     78  F   UNL     1       1.427 -10.880   3.592  1.00  0.00    -0.207 F 
ENDBRANCH  65  68
ENDBRANCH  64  65
ENDBRANCH  63  64
ENDBRANCH  57  59
ENDBRANCH  56  57
ENDBRANCH   1  56
TORSDOF 14
