REMARK SMILES C=CC[N@@H+](CC(=O)OCCOC(=O)c1ccc(-c2c3nc(c(-c4ccccc4)c4ccc([nH]4)c(-c4ccccc4)c4nc(c(-c5ccccc5)c5ccc2[nH]5)C=C4)C=C3)cc1)[C@@H]1CC[N@@H+](C(C)C)C1
REMARK SMILES IDX 9 1 8 2 6 3 7 4 5 5 4 6 3 8 2 9 1 10 62 11 63 12 69 13 64 14
REMARK SMILES IDX 65 15 66 17 67 18 68 19 10 20 11 21 12 22 13 23 14 24 15 25
REMARK SMILES IDX 61 26 16 27 60 28 17 29 18 30 19 31 54 32 20 33 59 34 53 35
REMARK SMILES IDX 55 36 21 37 58 38 52 39 51 40 22 42 44 43 29 44 43 45 30 46
REMARK SMILES IDX 33 47 42 48 56 49 31 50 32 51 41 53 57 54 34 55 23 56 24 57
REMARK SMILES IDX 28 58 25 59 27 60 26 61 45 62 46 63 50 64 47 65 49 66 48 67
REMARK SMILES IDX 35 68 36 69 40 70 37 71 39 72 38 73
REMARK H PARENT 4 7 65 16 55 41 33 52
REMARK Flexibility Score: inf
ROOT
ATOM      1  C   UNL     1      -3.993  -0.299  -1.481  1.00  0.00     0.274 C 
ENDROOT
BRANCH   1   2
ATOM      2  O   UNL     1      -3.126  -0.556  -0.366  1.00  0.00    -0.458 OA
BRANCH   2   3
ATOM      3  C   UNL     1      -3.499  -0.163   0.875  1.00  0.00     0.361 C 
ATOM      4  O   UNL     1      -4.450   0.573   1.108  1.00  0.00    -0.245 OA
BRANCH   3   5
ATOM      5  C   UNL     1      -2.629  -0.805   1.976  1.00  0.00     0.387 C 
BRANCH   5   6
ATOM      6  N   UNL     1      -1.160  -0.875   1.747  1.00  0.00    -0.315 N 
ATOM      7  H   UNL     1      -0.783  -0.905   2.694  1.00  0.00     0.349 HD
BRANCH   6   8
ATOM      8  C   UNL     1      -0.649   0.340   1.108  1.00  0.00     0.291 C 
BRANCH   8   9
ATOM      9  C   UNL     1       0.838   0.493   1.236  1.00  0.00     0.025 C 
ATOM     10  C   UNL     1       1.667   0.520   0.183  1.00  0.00     0.010 C 
ENDBRANCH   8   9
ENDBRANCH   6   8
BRANCH   6  11
ATOM     11  C   UNL     1      -0.577  -2.145   1.253  1.00  0.00     0.246 C 
ATOM     12  C   UNL     1      -1.258  -2.885   0.113  1.00  0.00     0.132 C 
ATOM     13  C   UNL     1      -0.424  -3.249   2.348  1.00  0.00     0.328 C 
ATOM     14  C   UNL     1      -1.932  -4.055   0.783  1.00  0.00     0.269 C 
ATOM     15  N   UNL     1      -1.036  -4.490   1.844  1.00  0.00    -0.328 N 
ATOM     16  H   UNL     1      -1.495  -4.939   2.636  1.00  0.00     0.348 HD
BRANCH  15  17
ATOM     17  C   UNL     1      -0.188  -5.624   1.454  1.00  0.00     0.177 C 
ATOM     18  C   UNL     1       0.609  -5.484   0.153  1.00  0.00     0.075 C 
ATOM     19  C   UNL     1       0.722  -6.107   2.584  1.00  0.00     0.075 C 
ENDBRANCH  15  17
ENDBRANCH   6  11
ENDBRANCH   5   6
ENDBRANCH   3   5
ENDBRANCH   2   3
ENDBRANCH   1   2
BRANCH   1  20
ATOM     20  C   UNL     1      -3.932  -1.523  -2.415  1.00  0.00     0.275 C 
BRANCH  20  21
ATOM     21  O   UNL     1      -4.204  -2.825  -1.830  1.00  0.00    -0.458 OA
BRANCH  21  22
ATOM     22  C   UNL     1      -5.172  -2.944  -0.896  1.00  0.00     0.338 C 
ATOM     23  O   UNL     1      -5.926  -2.069  -0.504  1.00  0.00    -0.246 OA
BRANCH  22  24
ATOM     24  C   UNL     1      -5.098  -4.267  -0.238  1.00  0.00     0.060 A 
ATOM     25  C   UNL     1      -5.196  -4.270   1.156  1.00  0.00     0.016 A 
ATOM     26  C   UNL     1      -4.894  -5.472  -0.922  1.00  0.00     0.016 A 
ATOM     27  C   UNL     1      -5.018  -5.454   1.864  1.00  0.00     0.010 A 
ATOM     28  C   UNL     1      -4.846  -6.684  -0.206  1.00  0.00     0.010 A 
ATOM     29  C   UNL     1      -4.918  -6.688   1.197  1.00  0.00    -0.014 A 
BRANCH  29  30
ATOM     30  C   UNL     1      -5.048  -7.932   2.012  1.00  0.00     0.031 A 
ATOM     31  C   UNL     1      -3.952  -8.956   2.126  1.00  0.00     0.074 A 
ATOM     32  C   UNL     1      -6.177  -8.087   2.737  1.00  0.00     0.049 A 
ATOM     33  N   UNL     1      -3.914 -10.041   2.863  1.00  0.00    -0.248 NA
ATOM     34  C   UNL     1      -2.743  -8.741   1.321  1.00  0.00     0.031 C 
ATOM     35  C   UNL     1      -7.309  -7.152   2.738  1.00  0.00     0.029 A 
ATOM     36  N   UNL     1      -6.548  -9.048   3.643  1.00  0.00    -0.354 N 
ATOM     37  C   UNL     1      -2.678 -10.630   2.621  1.00  0.00     0.074 A 
ATOM     38  C   UNL     1      -2.002  -9.791   1.653  1.00  0.00     0.031 C 
ATOM     39  C   UNL     1      -8.201  -7.537   3.658  1.00  0.00     0.029 A 
ATOM     40  C   UNL     1      -7.768  -8.804   4.228  1.00  0.00     0.049 A 
ATOM     41  H   UNL     1      -5.995  -9.834   3.854  1.00  0.00     0.167 HD
ATOM     42  C   UNL     1      -2.163 -11.770   3.146  1.00  0.00     0.031 A 
ATOM     43  C   UNL     1      -8.493  -9.532   5.095  1.00  0.00     0.031 A 
ATOM     44  C   UNL     1      -2.863 -12.633   4.067  1.00  0.00     0.049 A 
ATOM     45  C   UNL     1      -7.948 -10.843   5.565  1.00  0.00     0.074 A 
ATOM     46  C   UNL     1      -2.438 -13.828   4.626  1.00  0.00     0.029 A 
ATOM     47  N   UNL     1      -4.144 -12.405   4.549  1.00  0.00    -0.354 N 
ATOM     48  N   UNL     1      -6.782 -11.387   5.315  1.00  0.00    -0.248 NA
ATOM     49  C   UNL     1      -8.824 -11.648   6.424  1.00  0.00     0.031 C 
ATOM     50  C   UNL     1      -3.488 -14.356   5.386  1.00  0.00     0.029 A 
ATOM     51  C   UNL     1      -4.541 -13.456   5.362  1.00  0.00     0.049 A 
ATOM     52  H   UNL     1      -4.691 -11.613   4.344  1.00  0.00     0.167 HD
ATOM     53  C   UNL     1      -6.779 -12.597   5.992  1.00  0.00     0.074 A 
ATOM     54  C   UNL     1      -8.048 -12.689   6.689  1.00  0.00     0.031 C 
ATOM     55  C   UNL     1      -5.815 -13.548   6.028  1.00  0.00     0.031 A 
BRANCH  42  56
ATOM     56  C   UNL     1      -0.793 -12.193   2.684  1.00  0.00    -0.014 A 
ATOM     57  C   UNL     1       0.366 -11.526   3.110  1.00  0.00     0.009 A 
ATOM     58  C   UNL     1      -0.659 -13.312   1.846  1.00  0.00     0.009 A 
ATOM     59  C   UNL     1       1.627 -11.955   2.683  1.00  0.00     0.001 A 
ATOM     60  C   UNL     1       0.602 -13.753   1.441  1.00  0.00     0.001 A 
ATOM     61  C   UNL     1       1.744 -13.070   1.853  1.00  0.00     0.000 A 
ENDBRANCH  42  56
BRANCH  43  62
ATOM     62  C   UNL     1      -9.845  -9.064   5.503  1.00  0.00    -0.014 A 
ATOM     63  C   UNL     1     -10.114  -8.689   6.827  1.00  0.00     0.009 A 
ATOM     64  C   UNL     1     -10.875  -8.974   4.551  1.00  0.00     0.009 A 
ATOM     65  C   UNL     1     -11.389  -8.246   7.189  1.00  0.00     0.001 A 
ATOM     66  C   UNL     1     -12.136  -8.496   4.906  1.00  0.00     0.001 A 
ATOM     67  C   UNL     1     -12.395  -8.141   6.228  1.00  0.00     0.000 A 
ENDBRANCH  43  62
BRANCH  55  68
ATOM     68  C   UNL     1      -6.102 -14.757   6.872  1.00  0.00    -0.014 A 
ATOM     69  C   UNL     1      -7.072 -15.699   6.494  1.00  0.00     0.009 A 
ATOM     70  C   UNL     1      -5.405 -14.944   8.076  1.00  0.00     0.009 A 
ATOM     71  C   UNL     1      -7.377 -16.774   7.331  1.00  0.00     0.001 A 
ATOM     72  C   UNL     1      -5.688 -16.038   8.894  1.00  0.00     0.001 A 
ATOM     73  C   UNL     1      -6.683 -16.943   8.529  1.00  0.00     0.000 A 
ENDBRANCH  55  68
ENDBRANCH  29  30
ENDBRANCH  22  24
ENDBRANCH  21  22
ENDBRANCH  20  21
ENDBRANCH   1  20
TORSDOF 16
