REMARK SMILES O=C(Cc1csc(NC(=O)[C@H]2CC(=O)N(C3CC3)C2)n1)OCCOC(=O)c1ccc(-c2c3nc(c(-c4ccccc4)c4ccc([nH]4)c(-c4ccccc4)c4nc(c(-c5ccccc5)c5ccc2[nH]5)C=C4)C=C3)cc1
REMARK SMILES IDX 22 1 21 2 2 3 1 4 3 5 4 6 5 7 20 8 6 9 7 10 8 11 9 12 10 14
REMARK SMILES IDX 11 15 12 16 19 17 13 18 15 19 14 20 16 21 17 22 18 23 23 24
REMARK SMILES IDX 24 25 25 26 26 27 27 28 28 29 74 30 29 31 73 32 30 33 31 34
REMARK SMILES IDX 32 35 67 36 33 37 72 38 66 39 68 40 34 41 71 42 65 43 64 44
REMARK SMILES IDX 35 46 57 47 42 48 56 49 43 50 46 51 55 52 69 53 44 54 45 55
REMARK SMILES IDX 54 57 70 58 47 59 36 60 37 61 41 62 38 63 40 64 39 65 58 66
REMARK SMILES IDX 59 67 63 68 60 69 62 70 61 71 48 72 49 73 53 74 50 75 52 76
REMARK SMILES IDX 51 77
REMARK H PARENT 8 13 68 45 46 56
REMARK Flexibility Score: inf
ROOT
ATOM      1  C   UNL     1       3.474   9.183   0.892  1.00  0.00     0.274 C 
ENDROOT
BRANCH   1   2
ATOM      2  O   UNL     1       4.695   9.887   1.209  1.00  0.00    -0.462 OA
BRANCH   2   3
ATOM      3  C   UNL     1       5.707  10.211   0.370  1.00  0.00     0.312 C 
ATOM      4  O   UNL     1       6.736  10.708   0.829  1.00  0.00    -0.252 OA
BRANCH   3   5
ATOM      5  C   UNL     1       5.527  10.079  -1.117  1.00  0.00     0.179 C 
BRANCH   5   6
ATOM      6  C   UNL     1       5.517   8.700  -1.654  1.00  0.00     0.065 A 
ATOM      7  C   UNL     1       4.510   8.156  -2.430  1.00  0.00     0.093 A 
ATOM      8  N   UNL     1       6.598   7.866  -1.447  1.00  0.00    -0.224 NA
ATOM      9  S   UNL     1       4.891   6.542  -2.796  1.00  0.00    -0.105 S 
ATOM     10  C   UNL     1       6.410   6.718  -2.054  1.00  0.00     0.189 A 
BRANCH  10  11
ATOM     11  N   UNL     1       7.379   5.753  -2.022  1.00  0.00    -0.302 N 
ATOM     12  C   UNL     1       7.517   4.533  -2.606  1.00  0.00     0.231 C 
ATOM     13  H   UNL     1       8.143   5.994  -1.451  1.00  0.00     0.172 HD
ATOM     14  O   UNL     1       8.505   3.861  -2.292  1.00  0.00    -0.274 OA
BRANCH  12  15
ATOM     15  C   UNL     1       6.541   4.012  -3.628  1.00  0.00     0.107 C 
ATOM     16  C   UNL     1       6.727   4.651  -5.003  1.00  0.00     0.115 C 
ATOM     17  C   UNL     1       6.722   2.539  -3.953  1.00  0.00     0.133 C 
ATOM     18  C   UNL     1       6.070   3.643  -5.911  1.00  0.00     0.223 C 
ATOM     19  N   UNL     1       6.047   2.426  -5.224  1.00  0.00    -0.339 N 
ATOM     20  O   UNL     1       5.660   3.898  -7.031  1.00  0.00    -0.275 OA
BRANCH  19  21
ATOM     21  C   UNL     1       5.454   1.196  -5.638  1.00  0.00     0.085 C 
ATOM     22  C   UNL     1       4.459   1.083  -6.761  1.00  0.00     0.027 C 
ATOM     23  C   UNL     1       5.849   0.536  -6.928  1.00  0.00     0.027 C 
ENDBRANCH  19  21
ENDBRANCH  12  15
ENDBRANCH  10  11
ENDBRANCH   5   6
ENDBRANCH   3   5
ENDBRANCH   2   3
ENDBRANCH   1   2
BRANCH   1  24
ATOM     24  C   UNL     1       2.275  10.128   0.811  1.00  0.00     0.275 C 
BRANCH  24  25
ATOM     25  O   UNL     1       2.309  10.858  -0.428  1.00  0.00    -0.458 OA
BRANCH  25  26
ATOM     26  C   UNL     1       2.747  12.140  -0.355  1.00  0.00     0.338 C 
ATOM     27  O   UNL     1       3.041  12.762   0.648  1.00  0.00    -0.246 OA
BRANCH  26  28
ATOM     28  C   UNL     1       3.042  12.601  -1.731  1.00  0.00     0.060 A 
ATOM     29  C   UNL     1       4.250  13.276  -1.953  1.00  0.00     0.016 A 
ATOM     30  C   UNL     1       2.197  12.291  -2.801  1.00  0.00     0.016 A 
ATOM     31  C   UNL     1       4.616  13.644  -3.249  1.00  0.00     0.010 A 
ATOM     32  C   UNL     1       2.554  12.678  -4.093  1.00  0.00     0.010 A 
ATOM     33  C   UNL     1       3.757  13.368  -4.320  1.00  0.00    -0.014 A 
BRANCH  33  34
ATOM     34  C   UNL     1       4.010  13.957  -5.654  1.00  0.00     0.031 A 
ATOM     35  C   UNL     1       3.398  15.292  -5.965  1.00  0.00     0.074 A 
ATOM     36  C   UNL     1       4.722  13.304  -6.588  1.00  0.00     0.049 A 
ATOM     37  N   UNL     1       3.414  15.971  -7.082  1.00  0.00    -0.248 NA
ATOM     38  C   UNL     1       2.660  15.941  -4.869  1.00  0.00     0.031 C 
ATOM     39  C   UNL     1       5.381  12.012  -6.408  1.00  0.00     0.029 A 
ATOM     40  N   UNL     1       4.985  13.640  -7.893  1.00  0.00    -0.354 N 
ATOM     41  C   UNL     1       2.687  17.125  -6.825  1.00  0.00     0.074 A 
ATOM     42  C   UNL     1       2.223  17.043  -5.457  1.00  0.00     0.031 C 
ATOM     43  C   UNL     1       5.952  11.651  -7.572  1.00  0.00     0.029 A 
ATOM     44  C   UNL     1       5.676  12.673  -8.581  1.00  0.00     0.049 A 
ATOM     45  H   UNL     1       4.704  14.492  -8.298  1.00  0.00     0.167 HD
ATOM     46  C   UNL     1       2.425  18.163  -7.652  1.00  0.00     0.031 A 
ATOM     47  C   UNL     1       6.023  12.611  -9.881  1.00  0.00     0.031 A 
ATOM     48  C   UNL     1       2.854  18.236  -9.020  1.00  0.00     0.049 A 
ATOM     49  C   UNL     1       5.659  13.745 -10.805  1.00  0.00     0.074 A 
ATOM     50  C   UNL     1       2.660  19.260  -9.930  1.00  0.00     0.029 A 
ATOM     51  N   UNL     1       3.545  17.233  -9.680  1.00  0.00    -0.354 N 
ATOM     52  N   UNL     1       5.026  14.861 -10.535  1.00  0.00    -0.248 NA
ATOM     53  C   UNL     1       6.062  13.610 -12.214  1.00  0.00     0.031 C 
ATOM     54  C   UNL     1       3.190  18.853 -11.159  1.00  0.00     0.029 A 
ATOM     55  C   UNL     1       3.756  17.598 -10.998  1.00  0.00     0.049 A 
ATOM     56  H   UNL     1       3.842  16.388  -9.273  1.00  0.00     0.167 HD
ATOM     57  C   UNL     1       4.979  15.570 -11.729  1.00  0.00     0.074 A 
ATOM     58  C   UNL     1       5.651  14.763 -12.725  1.00  0.00     0.031 C 
ATOM     59  C   UNL     1       4.431  16.785 -11.976  1.00  0.00     0.031 A 
BRANCH  46  60
ATOM     60  C   UNL     1       1.594  19.280  -7.094  1.00  0.00    -0.014 A 
ATOM     61  C   UNL     1       2.123  20.179  -6.155  1.00  0.00     0.009 A 
ATOM     62  C   UNL     1       0.262  19.428  -7.508  1.00  0.00     0.009 A 
ATOM     63  C   UNL     1       1.319  21.182  -5.611  1.00  0.00     0.001 A 
ATOM     64  C   UNL     1      -0.532  20.447  -6.981  1.00  0.00     0.001 A 
ATOM     65  C   UNL     1      -0.006  21.316  -6.025  1.00  0.00     0.000 A 
ENDBRANCH  46  60
BRANCH  47  66
ATOM     66  C   UNL     1       6.736  11.417 -10.402  1.00  0.00    -0.014 A 
ATOM     67  C   UNL     1       8.090  11.490 -10.760  1.00  0.00     0.009 A 
ATOM     68  C   UNL     1       6.057  10.197 -10.557  1.00  0.00     0.009 A 
ATOM     69  C   UNL     1       8.745  10.372 -11.283  1.00  0.00     0.001 A 
ATOM     70  C   UNL     1       6.721   9.075 -11.057  1.00  0.00     0.001 A 
ATOM     71  C   UNL     1       8.062   9.165 -11.427  1.00  0.00     0.000 A 
ENDBRANCH  47  66
BRANCH  59  72
ATOM     72  C   UNL     1       4.557  17.339 -13.367  1.00  0.00    -0.014 A 
ATOM     73  C   UNL     1       3.759  16.859 -14.416  1.00  0.00     0.009 A 
ATOM     74  C   UNL     1       5.429  18.412 -13.609  1.00  0.00     0.009 A 
ATOM     75  C   UNL     1       3.844  17.435 -15.685  1.00  0.00     0.001 A 
ATOM     76  C   UNL     1       5.495  19.001 -14.872  1.00  0.00     0.001 A 
ATOM     77  C   UNL     1       4.705  18.509 -15.910  1.00  0.00     0.000 A 
ENDBRANCH  59  72
ENDBRANCH  33  34
ENDBRANCH  26  28
ENDBRANCH  25  26
ENDBRANCH  24  25
ENDBRANCH   1  24
TORSDOF 15
