REMARK SMILES O=C(NCc1cccc(F)c1)NCc1ccc(C(=O)OCCOC(=O)c2ccc(-c3c4nc(c(-c5ccccc5)c5ccc([nH]5)c(-c5ccccc5)c5nc(c(-c6ccccc6)c6ccc3[nH]6)C=C5)C=C4)cc2)o1
REMARK SMILES IDX 21 1 20 2 18 3 19 4 17 5 14 6 15 7 74 8 16 9 13 10 12 11
REMARK SMILES IDX 1 12 2 13 3 14 4 17 5 18 6 19 11 20 7 21 9 22 8 23 10 24
REMARK SMILES IDX 22 25 23 26 24 27 25 28 26 29 27 30 73 31 28 32 72 33 29 34
REMARK SMILES IDX 30 35 31 36 66 37 32 38 71 39 65 40 67 41 33 42 70 43 64 44
REMARK SMILES IDX 63 45 34 47 56 48 41 49 55 50 42 51 45 52 54 53 68 54 43 55
REMARK SMILES IDX 44 56 53 58 69 59 46 60 35 61 36 62 40 63 37 64 39 65 38 66
REMARK SMILES IDX 57 67 58 68 62 69 59 70 61 71 60 72 47 73 48 74 52 75 49 76
REMARK SMILES IDX 51 77 50 78
REMARK H PARENT 3 15 12 16 67 46 45 57
REMARK Flexibility Score: inf
ROOT
ATOM      1  C   UNL     1       2.055  -8.704   2.017  1.00  0.00     0.275 C 
ENDROOT
BRANCH   1   2
ATOM      2  O   UNL     1       2.813  -7.484   1.915  1.00  0.00    -0.456 OA
BRANCH   2   3
ATOM      3  C   UNL     1       2.164  -6.433   1.329  1.00  0.00     0.374 C 
ATOM      4  O   UNL     1       1.075  -6.515   0.779  1.00  0.00    -0.242 OA
BRANCH   3   5
ATOM      5  C   UNL     1       2.897  -5.210   1.566  1.00  0.00     0.211 A 
ATOM      6  C   UNL     1       3.021  -3.020   1.831  1.00  0.00     0.124 A 
ATOM      7  C   UNL     1       4.243  -3.527   2.220  1.00  0.00     0.048 A 
ATOM      8  O   UNL     1       2.230  -4.029   1.374  1.00  0.00    -0.452 OA
ATOM      9  C   UNL     1       4.163  -4.934   2.052  1.00  0.00     0.058 A 
BRANCH   6  10
ATOM     10  C   UNL     1       2.398  -1.673   1.868  1.00  0.00     0.193 C 
BRANCH  10  11
ATOM     11  N   UNL     1       3.039  -0.830   0.891  1.00  0.00    -0.331 N 
ATOM     12  O   UNL     1       1.102   0.075   0.107  1.00  0.00    -0.249 OA
ATOM     13  C   UNL     1       2.325  -0.020   0.073  1.00  0.00     0.315 C 
ATOM     14  N   UNL     1       3.018   0.716  -0.824  1.00  0.00    -0.334 N 
ATOM     15  H   UNL     1       2.461   1.287  -1.402  1.00  0.00     0.165 HD
ATOM     16  H   UNL     1       4.020  -0.843   0.816  1.00  0.00     0.165 HD
BRANCH  14  17
ATOM     17  C   UNL     1       4.437   0.808  -1.079  1.00  0.00     0.153 C 
BRANCH  17  18
ATOM     18  C   UNL     1       4.815   0.097  -2.350  1.00  0.00    -0.026 A 
ATOM     19  C   UNL     1       5.341   0.815  -3.437  1.00  0.00     0.006 A 
ATOM     20  C   UNL     1       4.658  -1.292  -2.472  1.00  0.00     0.044 A 
ATOM     21  C   UNL     1       5.702   0.160  -4.618  1.00  0.00     0.003 A 
ATOM     22  C   UNL     1       5.022  -1.933  -3.652  1.00  0.00     0.123 A 
ATOM     23  C   UNL     1       5.542  -1.219  -4.725  1.00  0.00     0.039 A 
ATOM     24  F   UNL     1       4.872  -3.260  -3.755  1.00  0.00    -0.207 F 
ENDBRANCH  17  18
ENDBRANCH  14  17
ENDBRANCH  10  11
ENDBRANCH   6  10
ENDBRANCH   3   5
ENDBRANCH   2   3
ENDBRANCH   1   2
BRANCH   1  25
ATOM     25  C   UNL     1       1.399  -8.839   3.396  1.00  0.00     0.275 C 
BRANCH  25  26
ATOM     26  O   UNL     1       0.302  -7.920   3.570  1.00  0.00    -0.458 OA
BRANCH  26  27
ATOM     27  C   UNL     1       0.619  -6.738   4.152  1.00  0.00     0.338 C 
ATOM     28  O   UNL     1       1.718  -6.391   4.553  1.00  0.00    -0.246 OA
BRANCH  27  29
ATOM     29  C   UNL     1      -0.548  -5.836   4.131  1.00  0.00     0.060 A 
ATOM     30  C   UNL     1      -0.376  -4.562   3.583  1.00  0.00     0.016 A 
ATOM     31  C   UNL     1      -1.776  -6.200   4.690  1.00  0.00     0.016 A 
ATOM     32  C   UNL     1      -1.426  -3.648   3.579  1.00  0.00     0.010 A 
ATOM     33  C   UNL     1      -2.829  -5.277   4.697  1.00  0.00     0.010 A 
ATOM     34  C   UNL     1      -2.657  -3.994   4.147  1.00  0.00    -0.014 A 
BRANCH  34  35
ATOM     35  C   UNL     1      -3.743  -2.987   4.193  1.00  0.00     0.031 A 
ATOM     36  C   UNL     1      -4.015  -2.231   5.460  1.00  0.00     0.074 A 
ATOM     37  C   UNL     1      -4.455  -2.718   3.083  1.00  0.00     0.049 A 
ATOM     38  N   UNL     1      -4.915  -1.309   5.696  1.00  0.00    -0.248 NA
ATOM     39  C   UNL     1      -3.160  -2.550   6.614  1.00  0.00     0.031 C 
ATOM     40  C   UNL     1      -4.256  -3.349   1.778  1.00  0.00     0.029 A 
ATOM     41  N   UNL     1      -5.483  -1.833   2.878  1.00  0.00    -0.354 N 
ATOM     42  C   UNL     1      -4.740  -0.943   7.023  1.00  0.00     0.074 A 
ATOM     43  C   UNL     1      -3.663  -1.756   7.548  1.00  0.00     0.031 C 
ATOM     44  C   UNL     1      -5.129  -2.823   0.904  1.00  0.00     0.029 A 
ATOM     45  C   UNL     1      -5.965  -1.843   1.593  1.00  0.00     0.049 A 
ATOM     46  H   UNL     1      -5.840  -1.247   3.584  1.00  0.00     0.167 HD
ATOM     47  C   UNL     1      -5.415  -0.012   7.740  1.00  0.00     0.031 A 
ATOM     48  C   UNL     1      -6.975  -1.149   1.036  1.00  0.00     0.031 A 
ATOM     49  C   UNL     1      -6.489   0.794   7.226  1.00  0.00     0.049 A 
ATOM     50  C   UNL     1      -7.748  -0.168   1.869  1.00  0.00     0.074 A 
ATOM     51  C   UNL     1      -7.226   1.768   7.877  1.00  0.00     0.029 A 
ATOM     52  N   UNL     1      -6.984   0.716   5.933  1.00  0.00    -0.354 N 
ATOM     53  N   UNL     1      -7.571   0.171   3.123  1.00  0.00    -0.248 NA
ATOM     54  C   UNL     1      -8.863   0.527   1.208  1.00  0.00     0.031 C 
ATOM     55  C   UNL     1      -8.195   2.251   6.990  1.00  0.00     0.029 A 
ATOM     56  C   UNL     1      -8.033   1.606   5.775  1.00  0.00     0.049 A 
ATOM     57  H   UNL     1      -6.640   0.116   5.232  1.00  0.00     0.167 HD
ATOM     58  C   UNL     1      -8.540   1.127   3.397  1.00  0.00     0.074 A 
ATOM     59  C   UNL     1      -9.294   1.325   2.176  1.00  0.00     0.031 C 
ATOM     60  C   UNL     1      -8.781   1.783   4.558  1.00  0.00     0.031 A 
BRANCH  47  61
ATOM     61  C   UNL     1      -5.025   0.155   9.180  1.00  0.00    -0.014 A 
ATOM     62  C   UNL     1      -3.845   0.824   9.541  1.00  0.00     0.009 A 
ATOM     63  C   UNL     1      -5.861  -0.347  10.188  1.00  0.00     0.009 A 
ATOM     64  C   UNL     1      -3.496   0.960  10.886  1.00  0.00     0.001 A 
ATOM     65  C   UNL     1      -5.519  -0.192  11.533  1.00  0.00     0.001 A 
ATOM     66  C   UNL     1      -4.333   0.454  11.880  1.00  0.00     0.000 A 
ENDBRANCH  47  61
BRANCH  48  67
ATOM     67  C   UNL     1      -7.325  -1.374  -0.389  1.00  0.00    -0.014 A 
ATOM     68  C   UNL     1      -7.019  -0.411  -1.361  1.00  0.00     0.009 A 
ATOM     69  C   UNL     1      -7.965  -2.560  -0.781  1.00  0.00     0.009 A 
ATOM     70  C   UNL     1      -7.360  -0.626  -2.698  1.00  0.00     0.001 A 
ATOM     71  C   UNL     1      -8.285  -2.781  -2.122  1.00  0.00     0.001 A 
ATOM     72  C   UNL     1      -7.988  -1.812  -3.078  1.00  0.00     0.000 A 
ENDBRANCH  48  67
BRANCH  60  73
ATOM     73  C   UNL     1      -9.899   2.785   4.557  1.00  0.00    -0.014 A 
ATOM     74  C   UNL     1     -11.239   2.372   4.597  1.00  0.00     0.009 A 
ATOM     75  C   UNL     1      -9.606   4.157   4.550  1.00  0.00     0.009 A 
ATOM     76  C   UNL     1     -12.267   3.317   4.604  1.00  0.00     0.001 A 
ATOM     77  C   UNL     1     -10.636   5.099   4.577  1.00  0.00     0.001 A 
ATOM     78  C   UNL     1     -11.965   4.678   4.597  1.00  0.00     0.000 A 
ENDBRANCH  60  73
ENDBRANCH  34  35
ENDBRANCH  27  29
ENDBRANCH  26  27
ENDBRANCH  25  26
ENDBRANCH   1  25
TORSDOF 15
