REMARK SMILES C/C(=N/OCc1ccccc1Nc1c(Cl)cccc1Cl)C(=O)OCCOC(=O)c1ccc(-c2c3nc(c(-c4ccccc4)c4ccc([nH]4)c(-c4ccccc4)c4nc(c(-c5ccccc5)c5ccc2[nH]5)C=C4)C=C3)cc1
REMARK SMILES IDX 23 1 21 2 22 3 2 4 1 5 3 6 4 7 5 8 6 9 7 10 11 11 8 12 10 13
REMARK SMILES IDX 9 14 12 15 13 17 14 18 19 19 15 20 16 21 18 22 20 23 17 24
REMARK SMILES IDX 24 25 25 26 26 27 27 28 28 29 29 30 30 31 76 32 31 33 75 34
REMARK SMILES IDX 32 35 33 36 34 37 69 38 35 39 74 40 68 41 70 42 36 43 73 44
REMARK SMILES IDX 67 45 66 46 37 48 59 49 44 50 58 51 45 52 48 53 57 54 71 55
REMARK SMILES IDX 46 56 47 57 56 59 72 60 49 61 38 62 39 63 43 64 40 65 42 66
REMARK SMILES IDX 41 67 60 68 61 69 65 70 62 71 64 72 63 73 50 74 51 75 55 76
REMARK SMILES IDX 52 77 54 78 53 79
REMARK H PARENT 12 16 70 47 48 58
REMARK Flexibility Score: inf
ROOT
ATOM      1  O   UNL     1       0.312  -1.069  -3.368  1.00  0.00    -0.458 OA
ENDROOT
BRANCH   1   2
ATOM      2  C   UNL     1       1.095  -1.242  -2.288  1.00  0.00     0.355 C 
ATOM      3  O   UNL     1       2.311  -1.152  -2.238  1.00  0.00    -0.245 OA
BRANCH   2   4
ATOM      4  C   UNL     1       0.273  -1.482  -1.024  1.00  0.00     0.161 C 
ATOM      5  C   UNL     1       0.698  -0.748   0.218  1.00  0.00     0.079 C 
ATOM      6  N   UNL     1      -0.745  -2.281  -0.930  1.00  0.00    -0.084 NA
BRANCH   6   7
ATOM      7  O   UNL     1      -0.943  -3.020  -2.102  1.00  0.00    -0.390 OA
BRANCH   7   8
ATOM      8  C   UNL     1      -1.693  -4.192  -1.766  1.00  0.00     0.302 C 
BRANCH   8   9
ATOM      9  C   UNL     1      -0.885  -5.197  -0.962  1.00  0.00     0.016 A 
ATOM     10  C   UNL     1       0.521  -5.216  -1.080  1.00  0.00     0.009 A 
ATOM     11  C   UNL     1      -1.523  -6.130  -0.115  1.00  0.00     0.045 A 
ATOM     12  C   UNL     1       1.295  -6.100  -0.335  1.00  0.00     0.001 A 
ATOM     13  C   UNL     1      -0.719  -7.019   0.617  1.00  0.00     0.026 A 
ATOM     14  C   UNL     1       0.674  -7.002   0.517  1.00  0.00     0.002 A 
BRANCH  11  15
ATOM     15  N   UNL     1      -2.929  -6.125   0.013  1.00  0.00    -0.353 N 
ATOM     16  H   UNL     1      -3.393  -5.553  -0.640  1.00  0.00     0.167 HD
BRANCH  15  17
ATOM     17  C   UNL     1      -3.788  -6.798   0.913  1.00  0.00     0.076 A 
ATOM     18  C   UNL     1      -4.833  -7.587   0.383  1.00  0.00     0.066 A 
ATOM     19  C   UNL     1      -3.636  -6.785   2.313  1.00  0.00     0.066 A 
ATOM     20  Cl  UNL     1      -5.130  -7.622  -1.326  1.00  0.00    -0.082 Cl
ATOM     21  C   UNL     1      -5.659  -8.361   1.201  1.00  0.00     0.023 A 
ATOM     22  C   UNL     1      -4.463  -7.568   3.133  1.00  0.00     0.023 A 
ATOM     23  Cl  UNL     1      -2.521  -5.734   3.120  1.00  0.00    -0.082 Cl
ATOM     24  C   UNL     1      -5.463  -8.363   2.578  1.00  0.00     0.003 A 
ENDBRANCH  15  17
ENDBRANCH  11  15
ENDBRANCH   8   9
ENDBRANCH   7   8
ENDBRANCH   6   7
ENDBRANCH   2   4
ENDBRANCH   1   2
BRANCH   1  25
ATOM     25  C   UNL     1       0.955  -0.788  -4.625  1.00  0.00     0.275 C 
BRANCH  25  26
ATOM     26  C   UNL     1       0.489   0.568  -5.160  1.00  0.00     0.275 C 
BRANCH  26  27
ATOM     27  O   UNL     1       1.061   1.636  -4.380  1.00  0.00    -0.458 OA
BRANCH  27  28
ATOM     28  C   UNL     1       0.312   2.012  -3.321  1.00  0.00     0.338 C 
ATOM     29  O   UNL     1      -0.795   1.610  -3.008  1.00  0.00    -0.246 OA
BRANCH  28  30
ATOM     30  C   UNL     1       1.087   2.894  -2.444  1.00  0.00     0.060 A 
ATOM     31  C   UNL     1       1.572   2.337  -1.264  1.00  0.00     0.016 A 
ATOM     32  C   UNL     1       1.158   4.266  -2.662  1.00  0.00     0.016 A 
ATOM     33  C   UNL     1       2.011   3.155  -0.233  1.00  0.00     0.010 A 
ATOM     34  C   UNL     1       1.679   5.086  -1.653  1.00  0.00     0.010 A 
ATOM     35  C   UNL     1       2.054   4.543  -0.408  1.00  0.00    -0.014 A 
BRANCH  35  36
ATOM     36  C   UNL     1       2.393   5.412   0.750  1.00  0.00     0.031 A 
ATOM     37  C   UNL     1       1.364   6.365   1.302  1.00  0.00     0.074 A 
ATOM     38  C   UNL     1       3.592   5.302   1.355  1.00  0.00     0.049 A 
ATOM     39  N   UNL     1       1.488   7.258   2.251  1.00  0.00    -0.248 NA
ATOM     40  C   UNL     1       0.021   6.312   0.701  1.00  0.00     0.031 C 
ATOM     41  C   UNL     1       4.658   4.376   0.967  1.00  0.00     0.029 A 
ATOM     42  N   UNL     1       4.105   5.961   2.444  1.00  0.00    -0.354 N 
ATOM     43  C   UNL     1       0.260   7.906   2.325  1.00  0.00     0.074 A 
ATOM     44  C   UNL     1      -0.591   7.313   1.316  1.00  0.00     0.031 C 
ATOM     45  C   UNL     1       5.680   4.497   1.829  1.00  0.00     0.029 A 
ATOM     46  C   UNL     1       5.372   5.555   2.784  1.00  0.00     0.049 A 
ATOM     47  H   UNL     1       3.612   6.658   2.934  1.00  0.00     0.167 HD
ATOM     48  C   UNL     1      -0.127   8.903   3.157  1.00  0.00     0.031 A 
ATOM     49  C   UNL     1       6.205   6.001   3.742  1.00  0.00     0.031 A 
ATOM     50  C   UNL     1       0.704   9.467   4.187  1.00  0.00     0.049 A 
ATOM     51  C   UNL     1       5.763   7.125   4.634  1.00  0.00     0.074 A 
ATOM     52  C   UNL     1       0.403  10.480   5.082  1.00  0.00     0.029 A 
ATOM     53  N   UNL     1       1.995   9.053   4.472  1.00  0.00    -0.354 N 
ATOM     54  N   UNL     1       4.617   7.761   4.657  1.00  0.00    -0.248 NA
ATOM     55  C   UNL     1       6.735   7.595   5.631  1.00  0.00     0.031 C 
ATOM     56  C   UNL     1       1.528  10.704   5.884  1.00  0.00     0.029 A 
ATOM     57  C   UNL     1       2.509   9.795   5.523  1.00  0.00     0.049 A 
ATOM     58  H   UNL     1       2.476   8.336   3.998  1.00  0.00     0.167 HD
ATOM     59  C   UNL     1       4.724   8.694   5.680  1.00  0.00     0.074 A 
ATOM     60  C   UNL     1       6.036   8.522   6.269  1.00  0.00     0.031 C 
ATOM     61  C   UNL     1       3.818   9.614   6.093  1.00  0.00     0.031 A 
BRANCH  48  62
ATOM     62  C   UNL     1      -1.502   9.477   2.954  1.00  0.00    -0.014 A 
ATOM     63  C   UNL     1      -2.659   8.763   3.306  1.00  0.00     0.009 A 
ATOM     64  C   UNL     1      -1.639  10.766   2.413  1.00  0.00     0.009 A 
ATOM     65  C   UNL     1      -3.924   9.315   3.085  1.00  0.00     0.001 A 
ATOM     66  C   UNL     1      -2.903  11.325   2.221  1.00  0.00     0.001 A 
ATOM     67  C   UNL     1      -4.044  10.595   2.547  1.00  0.00     0.000 A 
ENDBRANCH  48  62
BRANCH  49  68
ATOM     68  C   UNL     1       7.558   5.403   3.889  1.00  0.00    -0.014 A 
ATOM     69  C   UNL     1       7.882   4.630   5.014  1.00  0.00     0.009 A 
ATOM     70  C   UNL     1       8.538   5.613   2.905  1.00  0.00     0.009 A 
ATOM     71  C   UNL     1       9.165   4.100   5.162  1.00  0.00     0.001 A 
ATOM     72  C   UNL     1       9.810   5.055   3.040  1.00  0.00     0.001 A 
ATOM     73  C   UNL     1      10.126   4.308   4.173  1.00  0.00     0.000 A 
ENDBRANCH  49  68
BRANCH  61  74
ATOM     74  C   UNL     1       4.210  10.475   7.260  1.00  0.00    -0.014 A 
ATOM     75  C   UNL     1       5.173  11.489   7.128  1.00  0.00     0.009 A 
ATOM     76  C   UNL     1       3.603  10.271   8.508  1.00  0.00     0.009 A 
ATOM     77  C   UNL     1       5.550  12.251   8.235  1.00  0.00     0.001 A 
ATOM     78  C   UNL     1       3.962  11.054   9.606  1.00  0.00     0.001 A 
ATOM     79  C   UNL     1       4.943  12.034   9.472  1.00  0.00     0.000 A 
ENDBRANCH  61  74
ENDBRANCH  35  36
ENDBRANCH  28  30
ENDBRANCH  27  28
ENDBRANCH  26  27
ENDBRANCH  25  26
ENDBRANCH   1  25
TORSDOF 16
