REMARK SMILES COc1ccc([C@H]2CC(c3ccc(S(C)(=O)=O)cc3)=NN2c2ccc(C(=O)OCCOC(=O)c3ccc(-c4c5nc(c(-c6ccccc6)c6ccc([nH]6)c(-c6ccccc6)c6nc(c(-c7ccccc7)c7ccc4[nH]7)C=C6)C=C5)cc3)cc2)cc1
REMARK SMILES IDX 29 1 28 2 26 3 27 4 25 5 22 6 23 7 83 8 24 9 82 10 21 11
REMARK SMILES IDX 7 12 8 13 9 14 20 15 6 16 3 17 4 18 85 19 5 20 84 21 2 22
REMARK SMILES IDX 1 23 10 24 11 25 19 26 12 27 18 28 13 29 14 30 15 31 16 32
REMARK SMILES IDX 17 33 30 34 31 35 32 36 33 37 34 38 35 39 81 40 36 41 80 42
REMARK SMILES IDX 37 43 38 44 39 45 74 46 40 47 79 48 73 49 75 50 41 51 78 52
REMARK SMILES IDX 72 53 71 54 42 56 64 57 49 58 63 59 50 60 53 61 62 62 76 63
REMARK SMILES IDX 51 64 52 65 61 67 77 68 54 69 43 70 44 71 48 72 45 73 47 74
REMARK SMILES IDX 46 75 65 76 66 77 70 78 67 79 69 80 68 81 55 82 56 83 60 84
REMARK SMILES IDX 57 85 59 86 58 87
REMARK H PARENT 75 55 53 66
REMARK Flexibility Score: inf
ROOT
ATOM      1  C   UNL     1       2.209  10.145  -4.853  1.00  0.00     0.275 C 
ENDROOT
BRANCH   1   2
ATOM      2  O   UNL     1       2.252   9.778  -3.457  1.00  0.00    -0.458 OA
BRANCH   2   3
ATOM      3  C   UNL     1       2.630   8.501  -3.210  1.00  0.00     0.338 C 
ATOM      4  O   UNL     1       2.936   7.659  -4.041  1.00  0.00    -0.246 OA
BRANCH   3   5
ATOM      5  C   UNL     1       2.703   8.232  -1.760  1.00  0.00     0.060 A 
ATOM      6  C   UNL     1       2.820   7.363   0.920  1.00  0.00     0.060 A 
ATOM      7  C   UNL     1       3.926   7.240   0.080  1.00  0.00     0.029 A 
ATOM      8  C   UNL     1       1.669   7.984   0.408  1.00  0.00     0.029 A 
ATOM      9  C   UNL     1       3.856   7.632  -1.251  1.00  0.00     0.018 A 
ATOM     10  C   UNL     1       1.611   8.439  -0.919  1.00  0.00     0.018 A 
BRANCH   6  11
ATOM     11  N   UNL     1       2.887   6.843   2.203  1.00  0.00    -0.257 N 
ATOM     12  C   UNL     1       1.874   5.982   2.810  1.00  0.00     0.144 C 
ATOM     13  C   UNL     1       2.515   5.603   4.153  1.00  0.00     0.091 C 
ATOM     14  C   UNL     1       3.824   6.332   4.041  1.00  0.00     0.071 C 
ATOM     15  N   UNL     1       4.016   6.995   2.947  1.00  0.00    -0.176 NA
BRANCH  12  16
ATOM     16  C   UNL     1       1.535   4.765   1.958  1.00  0.00    -0.023 A 
ATOM     17  C   UNL     1       0.817   2.481   0.456  1.00  0.00     0.118 A 
ATOM     18  C   UNL     1      -0.110   3.497   0.686  1.00  0.00     0.047 A 
ATOM     19  C   UNL     1       2.120   2.627   0.927  1.00  0.00     0.047 A 
ATOM     20  C   UNL     1       0.240   4.624   1.436  1.00  0.00     0.010 A 
ATOM     21  C   UNL     1       2.478   3.765   1.663  1.00  0.00     0.010 A 
BRANCH  17  22
ATOM     22  O   UNL     1       0.354   1.422  -0.276  1.00  0.00    -0.497 OA
ATOM     23  C   UNL     1       0.965   0.168   0.006  1.00  0.00     0.278 C 
ENDBRANCH  17  22
ENDBRANCH  12  16
BRANCH  14  24
ATOM     24  C   UNL     1       4.779   6.340   5.154  1.00  0.00    -0.002 A 
ATOM     25  C   UNL     1       5.170   7.577   5.680  1.00  0.00     0.011 A 
ATOM     26  C   UNL     1       5.253   5.146   5.701  1.00  0.00     0.011 A 
ATOM     27  C   UNL     1       6.013   7.622   6.790  1.00  0.00     0.021 A 
ATOM     28  C   UNL     1       6.120   5.189   6.796  1.00  0.00     0.021 A 
ATOM     29  C   UNL     1       6.486   6.426   7.340  1.00  0.00     0.067 A 
BRANCH  29  30
ATOM     30  S   UNL     1       7.511   6.489   8.792  1.00  0.00     0.175 S 
ATOM     31  C   UNL     1       8.957   7.375   8.277  1.00  0.00     0.163 C 
ATOM     32  O   UNL     1       6.801   7.295   9.766  1.00  0.00    -0.224 OA
ATOM     33  O   UNL     1       7.917   5.130   9.101  1.00  0.00    -0.224 OA
ENDBRANCH  29  30
ENDBRANCH  14  24
ENDBRANCH   6  11
ENDBRANCH   3   5
ENDBRANCH   2   3
ENDBRANCH   1   2
BRANCH   1  34
ATOM     34  C   UNL     1       3.467  10.901  -5.282  1.00  0.00     0.275 C 
BRANCH  34  35
ATOM     35  O   UNL     1       4.619  10.038  -5.239  1.00  0.00    -0.458 OA
BRANCH  35  36
ATOM     36  C   UNL     1       5.541  10.352  -4.303  1.00  0.00     0.338 C 
ATOM     37  O   UNL     1       5.528  11.297  -3.532  1.00  0.00    -0.246 OA
BRANCH  36  38
ATOM     38  C   UNL     1       6.615   9.346  -4.281  1.00  0.00     0.060 A 
ATOM     39  C   UNL     1       6.319   8.065  -3.837  1.00  0.00     0.016 A 
ATOM     40  C   UNL     1       7.940   9.719  -4.488  1.00  0.00     0.016 A 
ATOM     41  C   UNL     1       7.340   7.216  -3.422  1.00  0.00     0.010 A 
ATOM     42  C   UNL     1       8.964   8.799  -4.228  1.00  0.00     0.010 A 
ATOM     43  C   UNL     1       8.683   7.554  -3.634  1.00  0.00    -0.014 A 
BRANCH  43  44
ATOM     44  C   UNL     1       9.776   6.619  -3.228  1.00  0.00     0.031 A 
ATOM     45  C   UNL     1      10.912   7.090  -2.352  1.00  0.00     0.074 A 
ATOM     46  C   UNL     1       9.763   5.334  -3.643  1.00  0.00     0.049 A 
ATOM     47  N   UNL     1      12.035   6.483  -2.053  1.00  0.00    -0.248 NA
ATOM     48  C   UNL     1      10.781   8.428  -1.753  1.00  0.00     0.031 C 
ATOM     49  C   UNL     1       8.720   4.715  -4.465  1.00  0.00     0.029 A 
ATOM     50  N   UNL     1      10.657   4.313  -3.427  1.00  0.00    -0.354 N 
ATOM     51  C   UNL     1      12.772   7.391  -1.301  1.00  0.00     0.074 A 
ATOM     52  C   UNL     1      11.969   8.590  -1.188  1.00  0.00     0.031 C 
ATOM     53  C   UNL     1       9.006   3.419  -4.642  1.00  0.00     0.029 A 
ATOM     54  C   UNL     1      10.305   3.138  -4.047  1.00  0.00     0.049 A 
ATOM     55  H   UNL     1      11.470   4.413  -2.881  1.00  0.00     0.167 HD
ATOM     56  C   UNL     1      14.007   7.244  -0.760  1.00  0.00     0.031 A 
ATOM     57  C   UNL     1      10.968   1.974  -4.182  1.00  0.00     0.031 A 
ATOM     58  C   UNL     1      14.783   6.032  -0.827  1.00  0.00     0.049 A 
ATOM     59  C   UNL     1      12.338   1.836  -3.593  1.00  0.00     0.074 A 
ATOM     60  C   UNL     1      16.024   5.771  -0.270  1.00  0.00     0.029 A 
ATOM     61  N   UNL     1      14.391   4.876  -1.485  1.00  0.00    -0.354 N 
ATOM     62  N   UNL     1      13.032   2.714  -2.910  1.00  0.00    -0.248 NA
ATOM     63  C   UNL     1      13.022   0.554  -3.805  1.00  0.00     0.031 C 
ATOM     64  C   UNL     1      16.406   4.475  -0.637  1.00  0.00     0.029 A 
ATOM     65  C   UNL     1      15.377   3.909  -1.372  1.00  0.00     0.049 A 
ATOM     66  H   UNL     1      13.538   4.760  -1.963  1.00  0.00     0.167 HD
ATOM     67  C   UNL     1      14.233   2.089  -2.606  1.00  0.00     0.074 A 
ATOM     68  C   UNL     1      14.161   0.750  -3.155  1.00  0.00     0.031 C 
ATOM     69  C   UNL     1      15.301   2.585  -1.935  1.00  0.00     0.031 A 
BRANCH  56  70
ATOM     70  C   UNL     1      14.624   8.447  -0.095  1.00  0.00    -0.014 A 
ATOM     71  C   UNL     1      14.152   8.950   1.127  1.00  0.00     0.009 A 
ATOM     72  C   UNL     1      15.723   9.076  -0.705  1.00  0.00     0.009 A 
ATOM     73  C   UNL     1      14.736  10.084   1.698  1.00  0.00     0.001 A 
ATOM     74  C   UNL     1      16.325  10.189  -0.116  1.00  0.00     0.001 A 
ATOM     75  C   UNL     1      15.823  10.700   1.079  1.00  0.00     0.000 A 
ENDBRANCH  56  70
BRANCH  57  76
ATOM     76  C   UNL     1      10.354   0.874  -4.972  1.00  0.00    -0.014 A 
ATOM     77  C   UNL     1       9.885  -0.288  -4.343  1.00  0.00     0.009 A 
ATOM     78  C   UNL     1      10.190   1.008  -6.362  1.00  0.00     0.009 A 
ATOM     79  C   UNL     1       9.268  -1.294  -5.091  1.00  0.00     0.001 A 
ATOM     80  C   UNL     1       9.543   0.016  -7.100  1.00  0.00     0.001 A 
ATOM     81  C   UNL     1       9.088  -1.137  -6.465  1.00  0.00     0.000 A 
ENDBRANCH  57  76
BRANCH  69  82
ATOM     82  C   UNL     1      16.470   1.662  -1.738  1.00  0.00    -0.014 A 
ATOM     83  C   UNL     1      17.317   1.324  -2.805  1.00  0.00     0.009 A 
ATOM     84  C   UNL     1      16.738   1.142  -0.463  1.00  0.00     0.009 A 
ATOM     85  C   UNL     1      18.392   0.456  -2.603  1.00  0.00     0.001 A 
ATOM     86  C   UNL     1      17.830   0.297  -0.258  1.00  0.00     0.001 A 
ATOM     87  C   UNL     1      18.650  -0.053  -1.330  1.00  0.00     0.000 A 
ENDBRANCH  69  82
ENDBRANCH  43  44
ENDBRANCH  36  38
ENDBRANCH  35  36
ENDBRANCH  34  35
ENDBRANCH   1  34
TORSDOF 16
