REMARK SMILES O=C(OCCOC(=O)c1nn(Cc2ccc(F)cc2)c2c1CN(C(=O)[C@H]1CC1(F)F)CC2)c1ccc(-c2c3nc(c(-c4ccccc4)c4ccc([nH]4)c(-c4ccccc4)c4nc(c(-c5ccccc5)c5ccc2[nH]5)C=C4)C=C3)cc1
REMARK SMILES IDX 4 1 3 2 2 3 1 4 33 5 34 6 80 7 35 8 79 9 36 10 37 11 38 12
REMARK SMILES IDX 73 13 39 14 78 15 72 16 74 17 40 18 77 19 71 20 70 21 41 23
REMARK SMILES IDX 63 24 48 25 62 26 49 27 52 28 61 29 75 30 50 31 51 32 60 34
REMARK SMILES IDX 76 35 53 36 42 37 43 38 47 39 44 40 46 41 45 42 64 43 65 44
REMARK SMILES IDX 69 45 66 46 68 47 67 48 54 49 55 50 59 51 56 52 58 53 57 54
REMARK SMILES IDX 5 55 6 56 7 57 8 58 9 59 10 60 21 61 11 62 20 63 22 64 32 65
REMARK SMILES IDX 23 66 31 67 12 68 13 69 14 70 19 71 15 72 18 73 16 74 17 75
REMARK SMILES IDX 24 76 25 77 26 78 27 79 28 80 29 81 30 82
REMARK H PARENT 74 22 52 33
REMARK Flexibility Score: inf
ROOT
ATOM      1  C   UNL     1      -5.503  -3.092   3.685  1.00  0.00     0.275 C 
ENDROOT
BRANCH   1   2
ATOM      2  O   UNL     1      -4.267  -2.439   4.030  1.00  0.00    -0.458 OA
BRANCH   2   3
ATOM      3  C   UNL     1      -4.157  -1.116   3.819  1.00  0.00     0.338 C 
ATOM      4  O   UNL     1      -4.738  -0.242   4.444  1.00  0.00    -0.246 OA
BRANCH   3   5
ATOM      5  C   UNL     1      -3.194  -0.864   2.726  1.00  0.00     0.060 A 
ATOM      6  C   UNL     1      -2.912  -1.844   1.764  1.00  0.00     0.016 A 
ATOM      7  C   UNL     1      -2.621   0.401   2.622  1.00  0.00     0.016 A 
ATOM      8  C   UNL     1      -2.026  -1.575   0.729  1.00  0.00     0.010 A 
ATOM      9  C   UNL     1      -1.772   0.682   1.556  1.00  0.00     0.010 A 
ATOM     10  C   UNL     1      -1.435  -0.314   0.625  1.00  0.00    -0.014 A 
BRANCH  10  11
ATOM     11  C   UNL     1      -0.504  -0.063  -0.487  1.00  0.00     0.031 A 
ATOM     12  C   UNL     1      -0.958  -0.341  -1.898  1.00  0.00     0.074 A 
ATOM     13  C   UNL     1       0.678   0.566  -0.301  1.00  0.00     0.049 A 
ATOM     14  N   UNL     1      -0.256  -0.775  -2.900  1.00  0.00    -0.248 NA
ATOM     15  C   UNL     1      -2.354  -0.054  -2.262  1.00  0.00     0.031 C 
ATOM     16  C   UNL     1       1.218   1.140   0.937  1.00  0.00     0.029 A 
ATOM     17  N   UNL     1       1.603   0.932  -1.237  1.00  0.00    -0.354 N 
ATOM     18  C   UNL     1      -1.065  -0.673  -4.032  1.00  0.00     0.074 A 
ATOM     19  C   UNL     1      -2.340  -0.171  -3.591  1.00  0.00     0.031 C 
ATOM     20  C   UNL     1       2.230   1.980   0.635  1.00  0.00     0.029 A 
ATOM     21  C   UNL     1       2.510   1.877  -0.785  1.00  0.00     0.049 A 
ATOM     22  H   UNL     1       1.624   0.559  -2.148  1.00  0.00     0.167 HD
ATOM     23  C   UNL     1      -0.636  -0.961  -5.290  1.00  0.00     0.031 A 
ATOM     24  C   UNL     1       3.424   2.558  -1.510  1.00  0.00     0.031 A 
ATOM     25  C   UNL     1       0.427  -1.919  -5.295  1.00  0.00     0.049 A 
ATOM     26  C   UNL     1       3.655   1.825  -2.769  1.00  0.00     0.074 A 
ATOM     27  C   UNL     1       0.551  -3.215  -4.834  1.00  0.00     0.029 A 
ATOM     28  N   UNL     1       1.704  -1.503  -5.566  1.00  0.00    -0.354 N 
ATOM     29  N   UNL     1       4.260   0.676  -2.836  1.00  0.00    -0.248 NA
ATOM     30  C   UNL     1       2.912   2.211  -3.956  1.00  0.00     0.031 C 
ATOM     31  C   UNL     1       1.889  -3.301  -4.356  1.00  0.00     0.029 A 
ATOM     32  C   UNL     1       2.489  -2.062  -4.591  1.00  0.00     0.049 A 
ATOM     33  H   UNL     1       1.997  -0.924  -6.306  1.00  0.00     0.167 HD
ATOM     34  C   UNL     1       3.640   0.011  -3.880  1.00  0.00     0.074 A 
ATOM     35  C   UNL     1       2.930   1.052  -4.618  1.00  0.00     0.031 C 
ATOM     36  C   UNL     1       3.530  -1.351  -3.886  1.00  0.00     0.031 A 
BRANCH  23  37
ATOM     37  C   UNL     1      -1.015  -0.170  -6.510  1.00  0.00    -0.014 A 
ATOM     38  C   UNL     1      -0.620  -0.630  -7.781  1.00  0.00     0.009 A 
ATOM     39  C   UNL     1      -1.474   1.158  -6.423  1.00  0.00     0.009 A 
ATOM     40  C   UNL     1      -0.620   0.215  -8.896  1.00  0.00     0.001 A 
ATOM     41  C   UNL     1      -1.503   1.996  -7.545  1.00  0.00     0.001 A 
ATOM     42  C   UNL     1      -1.052   1.532  -8.775  1.00  0.00     0.000 A 
ENDBRANCH  23  37
BRANCH  24  43
ATOM     43  C   UNL     1       4.017   3.880  -1.240  1.00  0.00    -0.014 A 
ATOM     44  C   UNL     1       5.252   4.244  -1.793  1.00  0.00     0.009 A 
ATOM     45  C   UNL     1       3.254   4.881  -0.609  1.00  0.00     0.009 A 
ATOM     46  C   UNL     1       5.699   5.569  -1.734  1.00  0.00     0.001 A 
ATOM     47  C   UNL     1       3.703   6.202  -0.546  1.00  0.00     0.001 A 
ATOM     48  C   UNL     1       4.921   6.548  -1.120  1.00  0.00     0.000 A 
ENDBRANCH  24  43
BRANCH  36  49
ATOM     49  C   UNL     1       4.282  -2.138  -2.838  1.00  0.00    -0.014 A 
ATOM     50  C   UNL     1       4.100  -1.923  -1.460  1.00  0.00     0.009 A 
ATOM     51  C   UNL     1       5.052  -3.241  -3.237  1.00  0.00     0.009 A 
ATOM     52  C   UNL     1       4.698  -2.759  -0.512  1.00  0.00     0.001 A 
ATOM     53  C   UNL     1       5.628  -4.093  -2.291  1.00  0.00     0.001 A 
ATOM     54  C   UNL     1       5.457  -3.848  -0.930  1.00  0.00     0.000 A 
ENDBRANCH  36  49
ENDBRANCH  10  11
ENDBRANCH   3   5
ENDBRANCH   2   3
ENDBRANCH   1   2
BRANCH   1  55
ATOM     55  C   UNL     1      -6.688  -2.227   3.237  1.00  0.00     0.275 C 
BRANCH  55  56
ATOM     56  O   UNL     1      -6.419  -1.583   1.976  1.00  0.00    -0.457 OA
BRANCH  56  57
ATOM     57  C   UNL     1      -6.790  -0.268   1.861  1.00  0.00     0.359 C 
ATOM     58  O   UNL     1      -7.215   0.429   2.778  1.00  0.00    -0.244 OA
BRANCH  57  59
ATOM     59  C   UNL     1      -6.654   0.237   0.490  1.00  0.00     0.175 A 
ATOM     60  N   UNL     1      -7.312  -0.363  -0.525  1.00  0.00    -0.165 NA
ATOM     61  C   UNL     1      -5.949   1.385   0.021  1.00  0.00     0.028 A 
ATOM     62  N   UNL     1      -7.075   0.412  -1.604  1.00  0.00    -0.264 N 
ATOM     63  C   UNL     1      -6.169   1.393  -1.337  1.00  0.00     0.046 A 
ATOM     64  C   UNL     1      -5.118   2.402   0.727  1.00  0.00     0.159 C 
ATOM     65  C   UNL     1      -5.583   2.368  -2.274  1.00  0.00     0.078 C 
ATOM     66  N   UNL     1      -4.415   3.306  -0.226  1.00  0.00    -0.337 N 
ATOM     67  C   UNL     1      -4.299   2.927  -1.645  1.00  0.00     0.126 C 
BRANCH  62  68
ATOM     68  C   UNL     1      -7.926   0.303  -2.784  1.00  0.00     0.180 C 
BRANCH  68  69
ATOM     69  C   UNL     1      -7.774  -1.006  -3.514  1.00  0.00    -0.026 A 
ATOM     70  C   UNL     1      -8.396  -2.164  -3.015  1.00  0.00     0.008 A 
ATOM     71  C   UNL     1      -7.050  -1.082  -4.714  1.00  0.00     0.008 A 
ATOM     72  C   UNL     1      -8.309  -3.369  -3.709  1.00  0.00     0.039 A 
ATOM     73  C   UNL     1      -6.967  -2.290  -5.407  1.00  0.00     0.039 A 
ATOM     74  C   UNL     1      -7.600  -3.420  -4.901  1.00  0.00     0.123 A 
ATOM     75  F   UNL     1      -7.529  -4.574  -5.577  1.00  0.00    -0.207 F 
ENDBRANCH  68  69
ENDBRANCH  62  68
BRANCH  66  76
ATOM     76  C   UNL     1      -3.611   4.296   0.344  1.00  0.00     0.232 C 
ATOM     77  O   UNL     1      -3.568   4.507   1.550  1.00  0.00    -0.274 OA
BRANCH  76  78
ATOM     78  C   UNL     1      -2.681   5.026  -0.548  1.00  0.00     0.154 C 
ATOM     79  C   UNL     1      -3.174   5.968  -1.635  1.00  0.00     0.097 C 
ATOM     80  C   UNL     1      -2.528   6.495  -0.413  1.00  0.00     0.260 C 
ATOM     81  F   UNL     1      -3.281   7.264   0.440  1.00  0.00    -0.206 F 
ATOM     82  F   UNL     1      -1.294   7.095  -0.531  1.00  0.00    -0.206 F 
ENDBRANCH  76  78
ENDBRANCH  66  76
ENDBRANCH  57  59
ENDBRANCH  56  57
ENDBRANCH  55  56
ENDBRANCH   1  55
TORSDOF 15
