REMARK SMILES CC(C)CCc1cc2c(cc1Cl)C=C(C(=O)OCCOC(=O)c1ccc(-c3c4nc(c(-c5ccccc5)c5ccc([nH]5)c(-c5ccccc5)c5nc(c(-c6ccccc6)c6ccc3[nH]6)C=C5)C=C4)cc1)[C@@H](C(F)(F)F)O2
REMARK SMILES IDX 18 1 17 2 15 3 16 4 14 5 6 6 7 7 11 8 8 9 10 10 12 11 9 12
REMARK SMILES IDX 76 13 13 14 71 15 5 16 4 17 2 18 1 19 3 20 72 21 73 22 74 23
REMARK SMILES IDX 75 24 19 25 20 26 21 27 22 28 23 29 24 30 70 31 25 32 69 33
REMARK SMILES IDX 26 34 27 35 28 36 63 37 29 38 68 39 62 40 64 41 30 42 67 43
REMARK SMILES IDX 61 44 60 45 31 47 53 48 38 49 52 50 39 51 42 52 51 53 65 54
REMARK SMILES IDX 40 55 41 56 50 58 66 59 43 60 32 61 33 62 37 63 34 64 36 65
REMARK SMILES IDX 35 66 54 67 55 68 59 69 56 70 58 71 57 72 44 73 45 74 49 75
REMARK SMILES IDX 46 76 48 77 47 78
REMARK H PARENT 64 46 42 57
REMARK Flexibility Score: inf
ROOT
ATOM      1  C   UNL     1      -0.095   8.276   7.596  1.00  0.00     0.275 C 
ENDROOT
BRANCH   1   2
ATOM      2  O   UNL     1      -0.515   7.405   6.522  1.00  0.00    -0.459 OA
BRANCH   2   3
ATOM      3  C   UNL     1       0.406   6.511   6.091  1.00  0.00     0.338 C 
ATOM      4  O   UNL     1       1.542   6.372   6.517  1.00  0.00    -0.246 OA
BRANCH   3   5
ATOM      5  C   UNL     1      -0.172   5.644   5.045  1.00  0.00     0.087 C 
ATOM      6  C   UNL     1      -1.305   1.760   2.046  1.00  0.00    -0.026 A 
ATOM      7  C   UNL     1      -1.550   3.150   1.999  1.00  0.00     0.052 A 
ATOM      8  C   UNL     1      -0.705   1.229   3.198  1.00  0.00     0.045 A 
ATOM      9  C   UNL     1      -1.134   3.995   3.028  1.00  0.00     0.128 A 
ATOM     10  C   UNL     1      -0.288   2.073   4.226  1.00  0.00     0.032 A 
ATOM     11  Cl  UNL     1      -0.432  -0.462   3.423  1.00  0.00    -0.084 Cl
ATOM     12  C   UNL     1      -0.477   3.454   4.124  1.00  0.00     0.019 A 
ATOM     13  O   UNL     1      -1.404   5.327   2.890  1.00  0.00    -0.475 OA
ATOM     14  C   UNL     1       0.030   4.327   5.157  1.00  0.00     0.027 C 
ATOM     15  C   UNL     1      -0.848   6.268   3.857  1.00  0.00     0.316 C 
BRANCH   6  16
ATOM     16  C   UNL     1      -1.669   0.912   0.847  1.00  0.00     0.037 C 
BRANCH  16  17
ATOM     17  C   UNL     1      -0.962   1.341  -0.450  1.00  0.00     0.008 C 
BRANCH  17  18
ATOM     18  C   UNL     1       0.581   1.339  -0.399  1.00  0.00    -0.017 C 
ATOM     19  C   UNL     1       1.158  -0.066  -0.236  1.00  0.00     0.007 C 
ATOM     20  C   UNL     1       1.138   1.980  -1.673  1.00  0.00     0.007 C 
ENDBRANCH  17  18
ENDBRANCH  16  17
ENDBRANCH   6  16
BRANCH  15  21
ATOM     21  C   UNL     1       0.117   7.213   3.121  1.00  0.00     0.430 C 
ATOM     22  F   UNL     1      -0.463   7.764   2.029  1.00  0.00    -0.167 F 
ATOM     23  F   UNL     1       0.506   8.242   3.913  1.00  0.00    -0.167 F 
ATOM     24  F   UNL     1       1.237   6.576   2.709  1.00  0.00    -0.167 F 
ENDBRANCH  15  21
ENDBRANCH   3   5
ENDBRANCH   2   3
ENDBRANCH   1   2
BRANCH   1  25
ATOM     25  C   UNL     1      -0.721   7.861   8.928  1.00  0.00     0.275 C 
BRANCH  25  26
ATOM     26  O   UNL     1      -0.161   6.613   9.377  1.00  0.00    -0.458 OA
BRANCH  26  27
ATOM     27  C   UNL     1      -0.980   5.542   9.282  1.00  0.00     0.338 C 
ATOM     28  O   UNL     1      -2.136   5.517   8.899  1.00  0.00    -0.246 OA
BRANCH  27  29
ATOM     29  C   UNL     1      -0.228   4.323   9.610  1.00  0.00     0.060 A 
ATOM     30  C   UNL     1      -0.483   3.592  10.762  1.00  0.00     0.016 A 
ATOM     31  C   UNL     1       0.631   3.816   8.644  1.00  0.00     0.016 A 
ATOM     32  C   UNL     1       0.143   2.350  10.930  1.00  0.00     0.010 A 
ATOM     33  C   UNL     1       1.119   2.517   8.736  1.00  0.00     0.010 A 
ATOM     34  C   UNL     1       0.914   1.771   9.898  1.00  0.00    -0.014 A 
BRANCH  34  35
ATOM     35  C   UNL     1       1.482   0.396  10.029  1.00  0.00     0.031 A 
ATOM     36  C   UNL     1       2.958   0.125   9.834  1.00  0.00     0.074 A 
ATOM     37  C   UNL     1       0.656  -0.637  10.299  1.00  0.00     0.049 A 
ATOM     38  N   UNL     1       3.614  -0.999   9.996  1.00  0.00    -0.248 NA
ATOM     39  C   UNL     1       3.803   1.233   9.357  1.00  0.00     0.031 C 
ATOM     40  C   UNL     1      -0.804  -0.550  10.391  1.00  0.00     0.029 A 
ATOM     41  N   UNL     1       0.923  -1.956  10.577  1.00  0.00    -0.354 N 
ATOM     42  C   UNL     1       4.927  -0.734   9.622  1.00  0.00     0.074 A 
ATOM     43  C   UNL     1       4.964   0.630   9.151  1.00  0.00     0.031 C 
ATOM     44  C   UNL     1      -1.291  -1.729  10.804  1.00  0.00     0.029 A 
ATOM     45  C   UNL     1      -0.188  -2.671  10.961  1.00  0.00     0.049 A 
ATOM     46  H   UNL     1       1.822  -2.351  10.509  1.00  0.00     0.167 HD
ATOM     47  C   UNL     1       6.017  -1.533   9.706  1.00  0.00     0.031 A 
ATOM     48  C   UNL     1      -0.311  -3.932  11.419  1.00  0.00     0.031 A 
ATOM     49  C   UNL     1       5.995  -2.872  10.228  1.00  0.00     0.049 A 
ATOM     50  C   UNL     1       0.919  -4.780  11.577  1.00  0.00     0.074 A 
ATOM     51  C   UNL     1       7.062  -3.724  10.450  1.00  0.00     0.029 A 
ATOM     52  N   UNL     1       4.851  -3.549  10.617  1.00  0.00    -0.354 N 
ATOM     53  N   UNL     1       2.168  -4.472  11.325  1.00  0.00    -0.248 NA
ATOM     54  C   UNL     1       0.728  -6.143  12.094  1.00  0.00     0.031 C 
ATOM     55  C   UNL     1       6.559  -4.936  10.926  1.00  0.00     0.029 A 
ATOM     56  C   UNL     1       5.185  -4.817  11.059  1.00  0.00     0.049 A 
ATOM     57  H   UNL     1       3.938  -3.183  10.585  1.00  0.00     0.167 HD
ATOM     58  C   UNL     1       2.911  -5.597  11.658  1.00  0.00     0.074 A 
ATOM     59  C   UNL     1       1.978  -6.583  12.161  1.00  0.00     0.031 C 
ATOM     60  C   UNL     1       4.247  -5.793  11.549  1.00  0.00     0.031 A 
BRANCH  47  61
ATOM     61  C   UNL     1       7.346  -0.972   9.270  1.00  0.00    -0.014 A 
ATOM     62  C   UNL     1       8.019  -1.530   8.171  1.00  0.00     0.009 A 
ATOM     63  C   UNL     1       7.978   0.046  10.003  1.00  0.00     0.009 A 
ATOM     64  C   UNL     1       9.297  -1.086   7.821  1.00  0.00     0.001 A 
ATOM     65  C   UNL     1       9.241   0.511   9.631  1.00  0.00     0.001 A 
ATOM     66  C   UNL     1       9.903  -0.063   8.547  1.00  0.00     0.000 A 
ENDBRANCH  47  61
BRANCH  48  67
ATOM     67  C   UNL     1      -1.650  -4.429  11.836  1.00  0.00    -0.014 A 
ATOM     68  C   UNL     1      -2.658  -4.667  10.889  1.00  0.00     0.009 A 
ATOM     69  C   UNL     1      -1.946  -4.606  13.197  1.00  0.00     0.009 A 
ATOM     70  C   UNL     1      -3.940  -5.043  11.296  1.00  0.00     0.001 A 
ATOM     71  C   UNL     1      -3.220  -5.012  13.599  1.00  0.00     0.001 A 
ATOM     72  C   UNL     1      -4.219  -5.219  12.650  1.00  0.00     0.000 A 
ENDBRANCH  48  67
BRANCH  60  73
ATOM     73  C   UNL     1       4.799  -7.126  11.970  1.00  0.00    -0.014 A 
ATOM     74  C   UNL     1       5.628  -7.215  13.100  1.00  0.00     0.009 A 
ATOM     75  C   UNL     1       4.593  -8.270  11.185  1.00  0.00     0.009 A 
ATOM     76  C   UNL     1       6.254  -8.418  13.425  1.00  0.00     0.001 A 
ATOM     77  C   UNL     1       5.197  -9.480  11.530  1.00  0.00     0.001 A 
ATOM     78  C   UNL     1       6.035  -9.551  12.643  1.00  0.00     0.000 A 
ENDBRANCH  60  73
ENDBRANCH  34  35
ENDBRANCH  27  29
ENDBRANCH  26  27
ENDBRANCH  25  26
ENDBRANCH   1  25
TORSDOF 15
