REMARK SMILES N#Cc1ccc(/C=C/C(=O)N2C[C@@H](O)C[C@H]2C(=O)OCCOC(=O)c2ccc(-c3c4nc(c(-c5ccccc5)c5ccc([nH]5)c(-c5ccccc5)c5nc(c(-c6ccccc6)c6ccc3[nH]6)C=C5)C=C4)cc2)cc1
REMARK SMILES IDX 20 1 19 2 17 3 18 4 16 5 11 6 12 7 13 8 15 9 9 10 10 11 8 12
REMARK SMILES IDX 7 13 6 14 3 15 4 16 74 17 5 18 73 19 2 20 1 21 14 22 21 24
REMARK SMILES IDX 22 25 23 26 24 27 25 28 26 29 72 30 27 31 71 32 28 33 29 34
REMARK SMILES IDX 30 35 65 36 31 37 70 38 64 39 66 40 32 41 69 42 63 43 62 44
REMARK SMILES IDX 33 46 55 47 40 48 54 49 41 50 44 51 53 52 67 53 42 54 43 55
REMARK SMILES IDX 52 57 68 58 45 59 34 60 35 61 39 62 36 63 38 64 37 65 56 66
REMARK SMILES IDX 57 67 61 68 58 69 60 70 59 71 46 72 47 73 51 74 48 75 50 76
REMARK SMILES IDX 49 77
REMARK H PARENT 14 23 66 45 44 56
REMARK Flexibility Score: inf
ROOT
ATOM      1  C   UNL     1      10.777   1.133  -0.355  1.00  0.00     0.274 C 
ENDROOT
BRANCH   1   2
ATOM      2  O   UNL     1       9.462   0.542  -0.234  1.00  0.00    -0.461 OA
BRANCH   2   3
ATOM      3  C   UNL     1       9.257  -0.168   0.907  1.00  0.00     0.329 C 
ATOM      4  O   UNL     1      10.125  -0.388   1.749  1.00  0.00    -0.250 OA
BRANCH   3   5
ATOM      5  C   UNL     1       7.863  -0.800   1.025  1.00  0.00     0.198 C 
ATOM      6  N   UNL     1       6.775  -0.401   0.127  1.00  0.00    -0.323 N 
ATOM      7  C   UNL     1       6.493  -1.465  -0.815  1.00  0.00     0.152 C 
ATOM      8  C   UNL     1       6.782  -2.710   0.019  1.00  0.00     0.136 C 
ATOM      9  C   UNL     1       8.023  -2.309   0.810  1.00  0.00     0.071 C 
BRANCH   6  10
ATOM     10  C   UNL     1       5.947   0.629   0.510  1.00  0.00     0.247 C 
ATOM     11  O   UNL     1       6.225   1.399   1.425  1.00  0.00    -0.270 OA
BRANCH  10  12
ATOM     12  C   UNL     1       4.599   0.742  -0.096  1.00  0.00     0.072 C 
ATOM     13  C   UNL     1       3.673  -0.155   0.284  1.00  0.00     0.014 C 
BRANCH  13  14
ATOM     14  C   UNL     1       2.225  -0.073   0.043  1.00  0.00    -0.025 A 
ATOM     15  C   UNL     1      -0.592  -0.020  -0.086  1.00  0.00     0.052 A 
ATOM     16  C   UNL     1       0.136   1.173  -0.056  1.00  0.00     0.020 A 
ATOM     17  C   UNL     1       0.088  -1.240  -0.070  1.00  0.00     0.020 A 
ATOM     18  C   UNL     1       1.535   1.146   0.011  1.00  0.00     0.009 A 
ATOM     19  C   UNL     1       1.485  -1.264  -0.002  1.00  0.00     0.009 A 
BRANCH  15  20
ATOM     20  C   UNL     1      -2.024   0.005  -0.106  1.00  0.00     0.099 C 
ATOM     21  N   UNL     1      -3.187   0.022  -0.114  1.00  0.00    -0.192 NA
ENDBRANCH  15  20
ENDBRANCH  13  14
ENDBRANCH  10  12
ENDBRANCH   6  10
BRANCH   8  22
ATOM     22  O   UNL     1       7.005  -3.870  -0.755  1.00  0.00    -0.391 OA
ATOM     23  H   UNL     1       7.753  -3.721  -1.354  1.00  0.00     0.211 HD
ENDBRANCH   8  22
ENDBRANCH   3   5
ENDBRANCH   2   3
ENDBRANCH   1   2
BRANCH   1  24
ATOM     24  C   UNL     1      10.776   2.596   0.090  1.00  0.00     0.275 C 
BRANCH  24  25
ATOM     25  O   UNL     1      10.338   2.707   1.456  1.00  0.00    -0.458 OA
BRANCH  25  26
ATOM     26  C   UNL     1       9.042   3.079   1.594  1.00  0.00     0.338 C 
ATOM     27  O   UNL     1       8.277   3.402   0.702  1.00  0.00    -0.246 OA
BRANCH  26  28
ATOM     28  C   UNL     1       8.664   3.067   3.016  1.00  0.00     0.060 A 
ATOM     29  C   UNL     1       8.262   1.879   3.625  1.00  0.00     0.016 A 
ATOM     30  C   UNL     1       8.554   4.273   3.700  1.00  0.00     0.016 A 
ATOM     31  C   UNL     1       7.655   1.898   4.876  1.00  0.00     0.010 A 
ATOM     32  C   UNL     1       8.034   4.280   4.998  1.00  0.00     0.010 A 
ATOM     33  C   UNL     1       7.549   3.098   5.587  1.00  0.00    -0.014 A 
BRANCH  33  34
ATOM     34  C   UNL     1       6.936   3.117   6.940  1.00  0.00     0.031 A 
ATOM     35  C   UNL     1       5.702   3.934   7.210  1.00  0.00     0.074 A 
ATOM     36  C   UNL     1       7.502   2.407   7.936  1.00  0.00     0.049 A 
ATOM     37  N   UNL     1       5.108   4.182   8.351  1.00  0.00    -0.248 NA
ATOM     38  C   UNL     1       5.056   4.565   6.048  1.00  0.00     0.031 C 
ATOM     39  C   UNL     1       8.672   1.536   7.801  1.00  0.00     0.029 A 
ATOM     40  N   UNL     1       7.170   2.309   9.264  1.00  0.00    -0.354 N 
ATOM     41  C   UNL     1       4.041   5.020   8.050  1.00  0.00     0.074 A 
ATOM     42  C   UNL     1       4.086   5.262   6.624  1.00  0.00     0.031 C 
ATOM     43  C   UNL     1       8.947   0.979   8.989  1.00  0.00     0.029 A 
ATOM     44  C   UNL     1       8.026   1.513   9.985  1.00  0.00     0.049 A 
ATOM     45  H   UNL     1       6.393   2.765   9.662  1.00  0.00     0.167 HD
ATOM     46  C   UNL     1       3.108   5.537   8.886  1.00  0.00     0.031 A 
ATOM     47  C   UNL     1       8.094   1.269  11.307  1.00  0.00     0.031 A 
ATOM     48  C   UNL     1       3.069   5.294  10.306  1.00  0.00     0.049 A 
ATOM     49  C   UNL     1       7.103   1.931  12.223  1.00  0.00     0.074 A 
ATOM     50  C   UNL     1       2.158   5.764  11.237  1.00  0.00     0.029 A 
ATOM     51  N   UNL     1       3.982   4.516  11.002  1.00  0.00    -0.354 N 
ATOM     52  N   UNL     1       6.100   2.720  11.926  1.00  0.00    -0.248 NA
ATOM     53  C   UNL     1       7.255   1.663  13.659  1.00  0.00     0.031 C 
ATOM     54  C   UNL     1       2.558   5.327  12.503  1.00  0.00     0.029 A 
ATOM     55  C   UNL     1       3.672   4.517  12.353  1.00  0.00     0.049 A 
ATOM     56  H   UNL     1       4.738   4.033  10.596  1.00  0.00     0.167 HD
ATOM     57  C   UNL     1       5.480   3.014  13.133  1.00  0.00     0.074 A 
ATOM     58  C   UNL     1       6.209   2.302  14.162  1.00  0.00     0.031 C 
ATOM     59  C   UNL     1       4.403   3.802  13.368  1.00  0.00     0.031 A 
BRANCH  46  60
ATOM     60  C   UNL     1       2.068   6.450   8.292  1.00  0.00    -0.014 A 
ATOM     61  C   UNL     1       1.073   5.968   7.427  1.00  0.00     0.009 A 
ATOM     62  C   UNL     1       2.058   7.811   8.640  1.00  0.00     0.009 A 
ATOM     63  C   UNL     1       0.115   6.835   6.894  1.00  0.00     0.001 A 
ATOM     64  C   UNL     1       1.079   8.669   8.133  1.00  0.00     0.001 A 
ATOM     65  C   UNL     1       0.116   8.182   7.252  1.00  0.00     0.000 A 
ENDBRANCH  46  60
BRANCH  47  66
ATOM     66  C   UNL     1       9.157   0.383  11.853  1.00  0.00    -0.014 A 
ATOM     67  C   UNL     1       8.825  -0.840  12.456  1.00  0.00     0.009 A 
ATOM     68  C   UNL     1      10.507   0.766  11.797  1.00  0.00     0.009 A 
ATOM     69  C   UNL     1       9.818  -1.641  13.025  1.00  0.00     0.001 A 
ATOM     70  C   UNL     1      11.501  -0.055  12.331  1.00  0.00     0.001 A 
ATOM     71  C   UNL     1      11.155  -1.251  12.958  1.00  0.00     0.000 A 
ENDBRANCH  47  66
BRANCH  59  72
ATOM     72  C   UNL     1       3.913   3.889  14.789  1.00  0.00    -0.014 A 
ATOM     73  C   UNL     1       4.653   4.543  15.786  1.00  0.00     0.009 A 
ATOM     74  C   UNL     1       2.672   3.324  15.126  1.00  0.00     0.009 A 
ATOM     75  C   UNL     1       4.181   4.590  17.100  1.00  0.00     0.001 A 
ATOM     76  C   UNL     1       2.185   3.405  16.431  1.00  0.00     0.001 A 
ATOM     77  C   UNL     1       2.946   4.027  17.419  1.00  0.00     0.000 A 
ENDBRANCH  59  72
ENDBRANCH  33  34
ENDBRANCH  26  28
ENDBRANCH  25  26
ENDBRANCH  24  25
ENDBRANCH   1  24
TORSDOF 16
