REMARK SMILES C[C@H]1CCCN(C(=O)c2cn(C)nc2C(=O)OCCOC(=O)c2ccc(-c3c4nc(c(-c5ccccc5)c5ccc([nH]5)c(-c5ccccc5)c5nc(c(-c6ccccc6)c6ccc3[nH]6)C=C5)C=C4)cc2)C1
REMARK SMILES IDX 18 1 17 2 15 3 16 4 14 5 9 6 10 7 11 8 13 9 12 10 7 11 8 12
REMARK SMILES IDX 6 13 1 14 2 15 3 16 71 17 4 18 5 19 19 20 20 21 21 22 22 23
REMARK SMILES IDX 23 24 24 25 70 26 25 27 69 28 26 29 27 30 28 31 63 32 29 33
REMARK SMILES IDX 68 34 62 35 64 36 30 37 67 38 61 39 60 40 31 42 53 43 38 44
REMARK SMILES IDX 52 45 39 46 42 47 51 48 65 49 40 50 41 51 50 53 66 54 43 55
REMARK SMILES IDX 32 56 33 57 37 58 34 59 36 60 35 61 54 62 55 63 59 64 56 65
REMARK SMILES IDX 58 66 57 67 44 68 45 69 49 70 46 71 48 72 47 73
REMARK H PARENT 64 41 42 52
REMARK Flexibility Score: inf
ROOT
ATOM      1  C   UNL     1      -2.950   5.747   0.058  1.00  0.00     0.275 C 
ENDROOT
BRANCH   1   2
ATOM      2  O   UNL     1      -2.621   4.525   0.740  1.00  0.00    -0.457 OA
BRANCH   2   3
ATOM      3  C   UNL     1      -2.942   4.461   2.071  1.00  0.00     0.359 C 
ATOM      4  O   UNL     1      -3.432   5.389   2.695  1.00  0.00    -0.244 OA
BRANCH   3   5
ATOM      5  C   UNL     1      -2.753   3.107   2.628  1.00  0.00     0.183 A 
ATOM      6  C   UNL     1      -1.892   2.065   2.166  1.00  0.00     0.092 A 
ATOM      7  C   UNL     1      -2.164   0.991   2.996  1.00  0.00     0.123 A 
ATOM      8  N   UNL     1      -3.161   1.396   3.826  1.00  0.00    -0.274 N 
ATOM      9  N   UNL     1      -3.488   2.685   3.680  1.00  0.00    -0.165 NA
ATOM     10  C   UNL     1      -3.904   0.585   4.761  1.00  0.00     0.173 C 
BRANCH   6  11
ATOM     11  C   UNL     1      -0.876   2.168   1.133  1.00  0.00     0.257 C 
ATOM     12  O   UNL     1      -0.130   3.146   1.123  1.00  0.00    -0.269 OA
BRANCH  11  13
ATOM     13  N   UNL     1      -0.750   1.138   0.201  1.00  0.00    -0.338 N 
ATOM     14  C   UNL     1       2.012  -0.054   0.821  1.00  0.00     0.009 C 
ATOM     15  C   UNL     1       1.246  -0.117  -0.504  1.00  0.00     0.005 C 
ATOM     16  C   UNL     1       0.371  -1.382  -0.595  1.00  0.00     0.007 C 
ATOM     17  C   UNL     1       0.393   1.145  -0.706  1.00  0.00     0.123 C 
ATOM     18  C   UNL     1      -0.892  -1.301   0.271  1.00  0.00     0.022 C 
ATOM     19  C   UNL     1      -1.650   0.002   0.020  1.00  0.00     0.120 C 
ENDBRANCH  11  13
ENDBRANCH   6  11
ENDBRANCH   3   5
ENDBRANCH   2   3
ENDBRANCH   1   2
BRANCH   1  20
ATOM     20  C   UNL     1      -4.196   5.564  -0.813  1.00  0.00     0.275 C 
BRANCH  20  21
ATOM     21  O   UNL     1      -5.387   5.412  -0.016  1.00  0.00    -0.458 OA
BRANCH  21  22
ATOM     22  C   UNL     1      -5.722   4.136   0.289  1.00  0.00     0.338 C 
ATOM     23  O   UNL     1      -5.157   3.118  -0.076  1.00  0.00    -0.246 OA
BRANCH  22  24
ATOM     24  C   UNL     1      -6.829   4.132   1.263  1.00  0.00     0.060 A 
ATOM     25  C   UNL     1      -6.641   3.420   2.449  1.00  0.00     0.016 A 
ATOM     26  C   UNL     1      -8.049   4.763   1.008  1.00  0.00     0.016 A 
ATOM     27  C   UNL     1      -7.658   3.341   3.395  1.00  0.00     0.010 A 
ATOM     28  C   UNL     1      -9.080   4.671   1.953  1.00  0.00     0.010 A 
ATOM     29  C   UNL     1      -8.891   3.955   3.148  1.00  0.00    -0.014 A 
BRANCH  29  30
ATOM     30  C   UNL     1      -9.986   3.793   4.132  1.00  0.00     0.031 A 
ATOM     31  C   UNL     1     -11.071   2.786   3.886  1.00  0.00     0.074 A 
ATOM     32  C   UNL     1      -9.981   4.516   5.267  1.00  0.00     0.049 A 
ATOM     33  N   UNL     1     -12.115   2.502   4.623  1.00  0.00    -0.248 NA
ATOM     34  C   UNL     1     -10.967   1.991   2.652  1.00  0.00     0.031 C 
ATOM     35  C   UNL     1      -8.961   5.496   5.642  1.00  0.00     0.029 A 
ATOM     36  N   UNL     1     -10.865   4.532   6.316  1.00  0.00    -0.354 N 
ATOM     37  C   UNL     1     -12.803   1.511   3.935  1.00  0.00     0.074 A 
ATOM     38  C   UNL     1     -12.062   1.245   2.720  1.00  0.00     0.031 C 
ATOM     39  C   UNL     1      -9.279   6.019   6.838  1.00  0.00     0.029 A 
ATOM     40  C   UNL     1     -10.536   5.434   7.297  1.00  0.00     0.049 A 
ATOM     41  H   UNL     1     -11.659   3.952   6.361  1.00  0.00     0.167 HD
ATOM     42  C   UNL     1     -13.949   0.881   4.284  1.00  0.00     0.031 A 
ATOM     43  C   UNL     1     -11.184   5.764   8.430  1.00  0.00     0.031 A 
ATOM     44  C   UNL     1     -14.683   1.132   5.494  1.00  0.00     0.049 A 
ATOM     45  C   UNL     1     -12.475   5.075   8.773  1.00  0.00     0.074 A 
ATOM     46  C   UNL     1     -15.843   0.521   5.941  1.00  0.00     0.029 A 
ATOM     47  N   UNL     1     -14.332   2.072   6.449  1.00  0.00    -0.354 N 
ATOM     48  N   UNL     1     -13.102   4.125   8.123  1.00  0.00    -0.248 NA
ATOM     49  C   UNL     1     -13.147   5.505  10.008  1.00  0.00     0.031 C 
ATOM     50  C   UNL     1     -16.213   1.118   7.151  1.00  0.00     0.029 A 
ATOM     51  C   UNL     1     -15.264   2.075   7.472  1.00  0.00     0.049 A 
ATOM     52  H   UNL     1     -13.537   2.652   6.406  1.00  0.00     0.167 HD
ATOM     53  C   UNL     1     -14.232   3.835   8.875  1.00  0.00     0.074 A 
ATOM     54  C   UNL     1     -14.197   4.696  10.039  1.00  0.00     0.031 C 
ATOM     55  C   UNL     1     -15.214   2.938   8.621  1.00  0.00     0.031 A 
BRANCH  42  56
ATOM     56  C   UNL     1     -14.503  -0.125   3.321  1.00  0.00    -0.014 A 
ATOM     57  C   UNL     1     -13.968  -1.418   3.233  1.00  0.00     0.009 A 
ATOM     58  C   UNL     1     -15.609   0.214   2.526  1.00  0.00     0.009 A 
ATOM     59  C   UNL     1     -14.520  -2.349   2.350  1.00  0.00     0.001 A 
ATOM     60  C   UNL     1     -16.169  -0.724   1.658  1.00  0.00     0.001 A 
ATOM     61  C   UNL     1     -15.622  -2.003   1.567  1.00  0.00     0.000 A 
ENDBRANCH  42  56
BRANCH  43  62
ATOM     62  C   UNL     1     -10.643   6.829   9.312  1.00  0.00    -0.014 A 
ATOM     63  C   UNL     1     -10.080   6.512  10.556  1.00  0.00     0.009 A 
ATOM     64  C   UNL     1     -10.711   8.174   8.916  1.00  0.00     0.009 A 
ATOM     65  C   UNL     1      -9.616   7.526  11.398  1.00  0.00     0.001 A 
ATOM     66  C   UNL     1     -10.226   9.182   9.749  1.00  0.00     0.001 A 
ATOM     67  C   UNL     1      -9.687   8.859  10.993  1.00  0.00     0.000 A 
ENDBRANCH  43  62
BRANCH  55  68
ATOM     68  C   UNL     1     -16.319   2.831   9.630  1.00  0.00    -0.014 A 
ATOM     69  C   UNL     1     -17.337   3.795   9.689  1.00  0.00     0.009 A 
ATOM     70  C   UNL     1     -16.362   1.735  10.505  1.00  0.00     0.009 A 
ATOM     71  C   UNL     1     -18.366   3.676  10.625  1.00  0.00     0.001 A 
ATOM     72  C   UNL     1     -17.402   1.609  11.427  1.00  0.00     0.001 A 
ATOM     73  C   UNL     1     -18.399   2.582  11.491  1.00  0.00     0.000 A 
ENDBRANCH  55  68
ENDBRANCH  29  30
ENDBRANCH  22  24
ENDBRANCH  21  22
ENDBRANCH  20  21
ENDBRANCH   1  20
TORSDOF 13
