REMARK SMILES O=C(OCCOC(=O)[C@@H](Cc1c[nH]c2ccccc12)NC(=O)c1ccc(F)cc1F)c1ccc(-c2c3nc(c(-c4ccccc4)c4ccc([nH]4)c(-c4ccccc4)c4nc(c(-c5ccccc5)c5ccc2[nH]5)C=C4)C=C3)cc1
REMARK SMILES IDX 4 1 3 2 2 3 1 4 31 5 32 6 78 7 33 8 77 9 34 10 35 11 36 12
REMARK SMILES IDX 71 13 37 14 76 15 70 16 72 17 38 18 75 19 69 20 68 21 39 23
REMARK SMILES IDX 61 24 46 25 60 26 47 27 50 28 59 29 73 30 48 31 49 32 58 34
REMARK SMILES IDX 74 35 51 36 40 37 41 38 45 39 42 40 44 41 43 42 62 43 63 44
REMARK SMILES IDX 67 45 64 46 66 47 65 48 52 49 53 50 57 51 54 52 56 53 55 54
REMARK SMILES IDX 5 55 6 56 7 57 8 58 9 59 10 60 11 61 12 62 19 63 13 64 14 65
REMARK SMILES IDX 18 66 15 68 17 69 16 70 20 71 21 72 22 74 23 75 24 76 29 77
REMARK SMILES IDX 25 78 28 79 30 80 26 81 27 82
REMARK H PARENT 72 22 50 33 13 67 20 73
REMARK Flexibility Score: inf
ROOT
ATOM      1  C   UNL     1       4.577   0.638   1.822  1.00  0.00     0.275 C 
ENDROOT
BRANCH   1   2
ATOM      2  O   UNL     1       3.618   1.372   1.073  1.00  0.00    -0.458 OA
BRANCH   2   3
ATOM      3  C   UNL     1       3.316   1.124  -0.206  1.00  0.00     0.338 C 
ATOM      4  O   UNL     1       2.449   1.794  -0.766  1.00  0.00    -0.246 OA
BRANCH   3   5
ATOM      5  C   UNL     1       3.884  -0.009  -0.996  1.00  0.00     0.060 A 
ATOM      6  C   UNL     1       4.448  -1.650  -0.412  1.00  0.00     0.016 A 
ATOM      7  C   UNL     1       3.365   0.183  -2.725  1.00  0.00     0.016 A 
ATOM      8  C   UNL     1       4.297  -3.100  -1.543  1.00  0.00     0.010 A 
ATOM      9  C   UNL     1       3.346  -1.200  -3.828  1.00  0.00     0.010 A 
ATOM     10  C   UNL     1       3.864  -2.828  -3.316  1.00  0.00    -0.014 A 
BRANCH  10  11
ATOM     11  C   UNL     1       4.340  -3.737  -4.419  1.00  0.00     0.031 A 
ATOM     12  C   UNL     1       5.345  -3.241  -5.472  1.00  0.00     0.074 A 
ATOM     13  C   UNL     1       4.135  -5.049  -4.230  1.00  0.00     0.049 A 
ATOM     14  N   UNL     1       6.104  -3.946  -6.283  1.00  0.00    -0.248 NA
ATOM     15  C   UNL     1       5.558  -1.792  -5.643  1.00  0.00     0.031 C 
ATOM     16  C   UNL     1       3.286  -5.595  -3.180  1.00  0.00     0.029 A 
ATOM     17  N   UNL     1       4.761  -6.143  -4.765  1.00  0.00    -0.354 N 
ATOM     18  C   UNL     1       6.837  -3.023  -7.037  1.00  0.00     0.074 A 
ATOM     19  C   UNL     1       6.466  -1.712  -6.598  1.00  0.00     0.031 C 
ATOM     20  C   UNL     1       3.599  -6.882  -2.996  1.00  0.00     0.029 A 
ATOM     21  C   UNL     1       4.538  -7.290  -4.035  1.00  0.00     0.049 A 
ATOM     22  H   UNL     1       5.310  -6.113  -5.582  1.00  0.00     0.167 HD
ATOM     23  C   UNL     1       7.724  -3.236  -8.035  1.00  0.00     0.031 A 
ATOM     24  C   UNL     1       5.021  -8.535  -4.199  1.00  0.00     0.031 A 
ATOM     25  C   UNL     1       8.091  -4.548  -8.472  1.00  0.00     0.049 A 
ATOM     26  C   UNL     1       5.938  -8.761  -5.366  1.00  0.00     0.074 A 
ATOM     27  C   UNL     1       8.869  -4.915  -9.552  1.00  0.00     0.029 A 
ATOM     28  N   UNL     1       7.685  -5.709  -7.838  1.00  0.00    -0.354 N 
ATOM     29  N   UNL     1       6.550  -7.877  -6.120  1.00  0.00    -0.248 NA
ATOM     30  C   UNL     1       6.171 -10.155  -5.755  1.00  0.00     0.031 C 
ATOM     31  C   UNL     1       8.850  -6.310  -9.629  1.00  0.00     0.029 A 
ATOM     32  C   UNL     1       8.130  -6.803  -8.549  1.00  0.00     0.049 A 
ATOM     33  H   UNL     1       7.159  -5.748  -7.006  1.00  0.00     0.167 HD
ATOM     34  C   UNL     1       7.190  -8.606  -7.111  1.00  0.00     0.074 A 
ATOM     35  C   UNL     1       6.966 -10.006  -6.806  1.00  0.00     0.031 C 
ATOM     36  C   UNL     1       7.857  -8.171  -8.207  1.00  0.00     0.031 A 
BRANCH  23  37
ATOM     37  C   UNL     1       8.225  -2.051  -8.821  1.00  0.00    -0.014 A 
ATOM     38  C   UNL     1       9.237  -1.196  -8.358  1.00  0.00     0.009 A 
ATOM     39  C   UNL     1       7.681  -1.821 -10.097  1.00  0.00     0.009 A 
ATOM     40  C   UNL     1       9.686  -0.136  -9.157  1.00  0.00     0.001 A 
ATOM     41  C   UNL     1       8.145  -0.778 -10.900  1.00  0.00     0.001 A 
ATOM     42  C   UNL     1       9.147   0.066 -10.428  1.00  0.00     0.000 A 
ENDBRANCH  23  37
BRANCH  24  43
ATOM     43  C   UNL     1       4.529  -9.656  -3.344  1.00  0.00    -0.014 A 
ATOM     44  C   UNL     1       5.402 -10.502  -2.645  1.00  0.00     0.009 A 
ATOM     45  C   UNL     1       3.145  -9.895  -3.233  1.00  0.00     0.009 A 
ATOM     46  C   UNL     1       4.900 -11.549  -1.861  1.00  0.00     0.001 A 
ATOM     47  C   UNL     1       2.645 -10.897  -2.404  1.00  0.00     0.001 A 
ATOM     48  C   UNL     1       3.524 -11.733  -1.727  1.00  0.00     0.000 A 
ENDBRANCH  24  43
BRANCH  36  49
ATOM     49  C   UNL     1       8.332  -9.218  -9.165  1.00  0.00    -0.014 A 
ATOM     50  C   UNL     1       7.415  -9.895  -9.983  1.00  0.00     0.009 A 
ATOM     51  C   UNL     1       9.702  -9.478  -9.299  1.00  0.00     0.009 A 
ATOM     52  C   UNL     1       7.863 -10.845 -10.898  1.00  0.00     0.001 A 
ATOM     53  C   UNL     1      10.149 -10.405 -10.238  1.00  0.00     0.001 A 
ATOM     54  C   UNL     1       9.229 -11.095 -11.028  1.00  0.00     0.000 A 
ENDBRANCH  36  49
ENDBRANCH  10  11
ENDBRANCH   3   5
ENDBRANCH   2   3
ENDBRANCH   1   2
BRANCH   1  55
ATOM     55  C   UNL     1       3.906  -0.472   2.654  1.00  0.00     0.274 C 
BRANCH  55  56
ATOM     56  O   UNL     1       3.326  -1.556   1.876  1.00  0.00    -0.461 OA
BRANCH  56  57
ATOM     57  C   UNL     1       2.201  -1.322   1.133  1.00  0.00     0.329 C 
ATOM     58  O   UNL     1       1.401  -0.433   1.386  1.00  0.00    -0.250 OA
BRANCH  57  59
ATOM     59  C   UNL     1       2.141  -2.219  -0.174  1.00  0.00     0.197 C 
BRANCH  59  60
ATOM     60  C   UNL     1       2.915  -1.673  -1.766  1.00  0.00     0.074 C 
BRANCH  60  61
ATOM     61  C   UNL     1       4.981  -1.312  -2.343  1.00  0.00    -0.020 A 
ATOM     62  C   UNL     1       5.798  -0.124  -2.604  1.00  0.00     0.087 A 
ATOM     63  C   UNL     1       6.381  -2.374  -2.452  1.00  0.00     0.003 A 
ATOM     64  N   UNL     1       7.154  -0.332  -2.737  1.00  0.00    -0.361 N 
ATOM     65  C   UNL     1       7.538  -1.628  -2.628  1.00  0.00     0.046 A 
ATOM     66  C   UNL     1       6.667  -3.809  -2.401  1.00  0.00     0.010 A 
ATOM     67  H   UNL     1       7.792   0.401  -2.897  1.00  0.00     0.166 HD
ATOM     68  C   UNL     1       8.840  -2.183  -2.693  1.00  0.00     0.026 A 
ATOM     69  C   UNL     1       7.936  -4.384  -2.463  1.00  0.00     0.001 A 
ATOM     70  C   UNL     1       9.025  -3.565  -2.598  1.00  0.00     0.002 A 
ENDBRANCH  60  61
ENDBRANCH  59  60
BRANCH  59  71
ATOM     71  N   UNL     1       2.336  -3.650   0.155  1.00  0.00    -0.338 N 
ATOM     72  C   UNL     1       1.549  -4.749  -0.056  1.00  0.00     0.254 C 
ATOM     73  H   UNL     1       3.188  -3.846   0.607  1.00  0.00     0.164 HD
ATOM     74  O   UNL     1       2.015  -5.870   0.128  1.00  0.00    -0.269 OA
BRANCH  72  75
ATOM     75  C   UNL     1       0.142  -4.606  -0.456  1.00  0.00     0.075 A 
ATOM     76  C   UNL     1      -0.256  -3.974  -1.640  1.00  0.00     0.020 A 
ATOM     77  C   UNL     1      -0.820  -5.141   0.404  1.00  0.00     0.138 A 
ATOM     78  C   UNL     1      -1.617  -3.806  -1.903  1.00  0.00     0.040 A 
ATOM     79  C   UNL     1      -2.174  -4.992   0.135  1.00  0.00     0.079 A 
ATOM     80  F   UNL     1      -0.459  -5.781   1.525  1.00  0.00    -0.206 F 
ATOM     81  C   UNL     1      -2.560  -4.306  -1.008  1.00  0.00     0.126 A 
ATOM     82  F   UNL     1      -3.863  -4.120  -1.255  1.00  0.00    -0.207 F 
ENDBRANCH  72  75
ENDBRANCH  59  71
ENDBRANCH  57  59
ENDBRANCH  56  57
ENDBRANCH  55  56
ENDBRANCH   1  55
TORSDOF 15
