REMARK SMILES O=C(CN(Cc1ccccc1Cl)S(=O)(=O)c1ccc(Cl)cc1)OCCOC(=O)c1ccc(-c2c3nc(c(-c4ccccc4)c4ccc([nH]4)c(-c4ccccc4)c4nc(c(-c5ccccc5)c5ccc2[nH]5)C=C4)C=C3)cc1
REMARK SMILES IDX 24 1 23 2 2 3 1 4 3 5 4 6 5 7 6 8 7 9 11 10 8 11 10 12 12 13
REMARK SMILES IDX 9 14 13 15 14 16 15 17 16 18 17 19 22 20 18 21 21 22 19 23
REMARK SMILES IDX 20 24 25 25 26 26 27 27 28 28 29 29 30 30 76 31 31 32 75 33
REMARK SMILES IDX 32 34 33 35 34 36 69 37 35 38 74 39 68 40 70 41 36 42 73 43
REMARK SMILES IDX 67 44 66 45 37 47 59 48 44 49 58 50 45 51 48 52 57 53 71 54
REMARK SMILES IDX 46 55 47 56 56 58 72 59 49 60 38 61 39 62 43 63 40 64 42 65
REMARK SMILES IDX 41 66 60 67 61 68 65 69 62 70 64 71 63 72 50 73 51 74 55 75
REMARK SMILES IDX 52 76 54 77 53 78
REMARK H PARENT 70 46 48 57
REMARK Flexibility Score: inf
ROOT
ATOM      1  C   UNL     1       4.414  -0.013  -0.766  1.00  0.00     0.274 C 
ENDROOT
BRANCH   1   2
ATOM      2  O   UNL     1       3.043  -0.454  -0.688  1.00  0.00    -0.461 OA
BRANCH   2   3
ATOM      3  C   UNL     1       2.245  -0.340   0.401  1.00  0.00     0.321 C 
ATOM      4  O   UNL     1       1.044  -0.595   0.312  1.00  0.00    -0.251 OA
BRANCH   3   5
ATOM      5  C   UNL     1       2.830   0.193   1.694  1.00  0.00     0.225 C 
BRANCH   5   6
ATOM      6  N   UNL     1       3.776  -0.650   2.497  1.00  0.00    -0.182 NA
BRANCH   6   7
ATOM      7  C   UNL     1       4.555   0.181   3.434  1.00  0.00     0.140 C 
BRANCH   7   8
ATOM      8  C   UNL     1       3.932   1.122   4.448  1.00  0.00    -0.014 A 
ATOM      9  C   UNL     1       4.143   2.507   4.249  1.00  0.00     0.006 A 
ATOM     10  C   UNL     1       3.323   0.746   5.657  1.00  0.00     0.045 A 
ATOM     11  C   UNL     1       3.774   3.459   5.204  1.00  0.00     0.000 A 
ATOM     12  C   UNL     1       2.933   1.707   6.601  1.00  0.00     0.021 A 
ATOM     13  Cl  UNL     1       3.091  -0.879   6.157  1.00  0.00    -0.084 Cl
ATOM     14  C   UNL     1       3.165   3.059   6.382  1.00  0.00     0.002 A 
ENDBRANCH   7   8
ENDBRANCH   6   7
BRANCH   6  15
ATOM     15  S   UNL     1       3.096  -2.166   2.834  1.00  0.00     0.243 S 
ATOM     16  O   UNL     1       1.893  -1.941   3.604  1.00  0.00    -0.207 OA
ATOM     17  O   UNL     1       3.009  -2.805   1.534  1.00  0.00    -0.207 OA
BRANCH  15  18
ATOM     18  C   UNL     1       4.136  -3.264   3.786  1.00  0.00     0.082 A 
ATOM     19  C   UNL     1       3.811  -4.630   3.697  1.00  0.00     0.023 A 
ATOM     20  C   UNL     1       5.163  -2.885   4.647  1.00  0.00     0.023 A 
ATOM     21  C   UNL     1       4.486  -5.582   4.469  1.00  0.00     0.022 A 
ATOM     22  C   UNL     1       5.842  -3.835   5.419  1.00  0.00     0.022 A 
ATOM     23  C   UNL     1       5.498  -5.178   5.332  1.00  0.00     0.041 A 
ATOM     24  Cl  UNL     1       6.311  -6.329   6.316  1.00  0.00    -0.084 Cl
ENDBRANCH  15  18
ENDBRANCH   6  15
ENDBRANCH   5   6
ENDBRANCH   3   5
ENDBRANCH   2   3
ENDBRANCH   1   2
BRANCH   1  25
ATOM     25  C   UNL     1       4.504   1.381  -1.393  1.00  0.00     0.275 C 
BRANCH  25  26
ATOM     26  O   UNL     1       3.932   2.356  -0.498  1.00  0.00    -0.458 OA
BRANCH  26  27
ATOM     27  C   UNL     1       2.674   2.771  -0.800  1.00  0.00     0.338 C 
ATOM     28  O   UNL     1       2.049   2.536  -1.819  1.00  0.00    -0.246 OA
BRANCH  27  29
ATOM     29  C   UNL     1       2.080   3.396   0.405  1.00  0.00     0.060 A 
ATOM     30  C   UNL     1       0.759   3.070   0.738  1.00  0.00     0.016 A 
ATOM     31  C   UNL     1       2.817   4.250   1.228  1.00  0.00     0.016 A 
ATOM     32  C   UNL     1       0.165   3.615   1.881  1.00  0.00     0.010 A 
ATOM     33  C   UNL     1       2.220   4.791   2.372  1.00  0.00     0.010 A 
ATOM     34  C   UNL     1       0.883   4.496   2.700  1.00  0.00    -0.014 A 
BRANCH  34  35
ATOM     35  C   UNL     1       0.212   5.213   3.820  1.00  0.00     0.031 A 
ATOM     36  C   UNL     1      -0.083   6.683   3.676  1.00  0.00     0.074 A 
ATOM     37  C   UNL     1      -0.143   4.590   4.960  1.00  0.00     0.049 A 
ATOM     38  N   UNL     1      -0.670   7.494   4.521  1.00  0.00    -0.248 NA
ATOM     39  C   UNL     1       0.322   7.319   2.413  1.00  0.00     0.031 C 
ATOM     40  C   UNL     1       0.033   3.169   5.252  1.00  0.00     0.029 A 
ATOM     41  N   UNL     1      -0.696   5.100   6.112  1.00  0.00    -0.354 N 
ATOM     42  C   UNL     1      -0.774   8.709   3.860  1.00  0.00     0.074 A 
ATOM     43  C   UNL     1      -0.081   8.567   2.598  1.00  0.00     0.031 C 
ATOM     44  C   UNL     1      -0.322   2.939   6.530  1.00  0.00     0.029 A 
ATOM     45  C   UNL     1      -0.753   4.192   7.141  1.00  0.00     0.049 A 
ATOM     46  H   UNL     1      -1.018   6.027   6.192  1.00  0.00     0.167 HD
ATOM     47  C   UNL     1      -1.443   9.826   4.230  1.00  0.00     0.031 A 
ATOM     48  C   UNL     1      -1.088   4.354   8.436  1.00  0.00     0.031 A 
ATOM     49  C   UNL     1      -2.112  10.003   5.490  1.00  0.00     0.049 A 
ATOM     50  C   UNL     1      -1.647   5.667   8.909  1.00  0.00     0.074 A 
ATOM     51  C   UNL     1      -2.859  11.083   5.927  1.00  0.00     0.029 A 
ATOM     52  N   UNL     1      -2.096   9.083   6.524  1.00  0.00    -0.354 N 
ATOM     53  N   UNL     1      -1.827   6.777   8.238  1.00  0.00    -0.248 NA
ATOM     54  C   UNL     1      -2.105   5.728  10.306  1.00  0.00     0.031 C 
ATOM     55  C   UNL     1      -3.253  10.838   7.248  1.00  0.00     0.029 A 
ATOM     56  C   UNL     1      -2.793   9.584   7.612  1.00  0.00     0.049 A 
ATOM     57  H   UNL     1      -1.656   8.203   6.491  1.00  0.00     0.167 HD
ATOM     58  C   UNL     1      -2.492   7.638   9.103  1.00  0.00     0.074 A 
ATOM     59  C   UNL     1      -2.654   6.933  10.357  1.00  0.00     0.031 C 
ATOM     60  C   UNL     1      -2.959   8.887   8.861  1.00  0.00     0.031 A 
BRANCH  47  61
ATOM     61  C   UNL     1      -1.519  10.932   3.218  1.00  0.00    -0.014 A 
ATOM     62  C   UNL     1      -2.315  10.784   2.068  1.00  0.00     0.009 A 
ATOM     63  C   UNL     1      -0.820  12.129   3.415  1.00  0.00     0.009 A 
ATOM     64  C   UNL     1      -2.379  11.803   1.117  1.00  0.00     0.001 A 
ATOM     65  C   UNL     1      -0.907  13.157   2.474  1.00  0.00     0.001 A 
ATOM     66  C   UNL     1      -1.678  12.989   1.323  1.00  0.00     0.000 A 
ENDBRANCH  47  61
BRANCH  48  67
ATOM     67  C   UNL     1      -0.890   3.243   9.402  1.00  0.00    -0.014 A 
ATOM     68  C   UNL     1      -1.975   2.511   9.903  1.00  0.00     0.009 A 
ATOM     69  C   UNL     1       0.402   2.958   9.874  1.00  0.00     0.009 A 
ATOM     70  C   UNL     1      -1.774   1.537  10.884  1.00  0.00     0.001 A 
ATOM     71  C   UNL     1       0.602   1.969  10.839  1.00  0.00     0.001 A 
ATOM     72  C   UNL     1      -0.488   1.267  11.351  1.00  0.00     0.000 A 
ENDBRANCH  48  67
BRANCH  60  73
ATOM     73  C   UNL     1      -3.765   9.545   9.945  1.00  0.00    -0.014 A 
ATOM     74  C   UNL     1      -3.171  10.019  11.125  1.00  0.00     0.009 A 
ATOM     75  C   UNL     1      -5.151   9.698   9.774  1.00  0.00     0.009 A 
ATOM     76  C   UNL     1      -3.956  10.596  12.127  1.00  0.00     0.001 A 
ATOM     77  C   UNL     1      -5.928  10.301  10.764  1.00  0.00     0.001 A 
ATOM     78  C   UNL     1      -5.332  10.739  11.945  1.00  0.00     0.000 A 
ENDBRANCH  60  73
ENDBRANCH  34  35
ENDBRANCH  27  29
ENDBRANCH  26  27
ENDBRANCH  25  26
ENDBRANCH   1  25
TORSDOF 16
