REMARK SMILES O=C(CC1(CC(=O)OCCOC(=O)c2ccc(-c3c4nc(c(-c5ccccc5)c5ccc([nH]5)c(-c5ccccc5)c5nc(c(-c6ccccc6)c6ccc3[nH]6)C=C5)C=C4)cc2)CCCC1)NNc1ccc([N+](=O)[O-])cc1
REMARK SMILES IDX 6 1 7 2 5 3 4 4 62 5 65 6 63 7 64 8 3 9 2 10 1 11 66 12
REMARK SMILES IDX 67 14 68 16 69 17 76 18 70 19 75 20 71 21 72 22 73 23 74 24
REMARK SMILES IDX 8 25 9 26 10 27 11 28 12 29 13 30 14 31 15 32 61 33 16 34
REMARK SMILES IDX 60 35 17 36 18 37 19 38 54 39 20 40 59 41 53 42 55 43 21 44
REMARK SMILES IDX 58 45 52 46 51 47 22 49 44 50 29 51 43 52 30 53 33 54 42 55
REMARK SMILES IDX 56 56 31 57 32 58 41 60 57 61 34 62 23 63 24 64 28 65 25 66
REMARK SMILES IDX 27 67 26 68 45 69 46 70 50 71 47 72 49 73 48 74 35 75 36 76
REMARK SMILES IDX 40 77 37 78 39 79 38 80
REMARK H PARENT 66 13 67 15 55 48 33 59
REMARK Flexibility Score: inf
ROOT
ATOM      1  C   UNL     1       2.286   2.160   2.095  1.00  0.00     0.306 C 
ATOM      2  O   UNL     1       1.755   1.652   3.077  1.00  0.00    -0.252 OA
ENDROOT
BRANCH   1   3
ATOM      3  C   UNL     1       3.738   1.886   1.765  1.00  0.00     0.130 C 
BRANCH   3   4
ATOM      4  C   UNL     1       4.284   2.011   0.318  1.00  0.00    -0.010 C 
ATOM      5  C   UNL     1       5.820   1.802   0.347  1.00  0.00     0.008 C 
ATOM      6  C   UNL     1       4.254   3.464  -0.227  1.00  0.00     0.008 C 
ATOM      7  C   UNL     1       6.421   3.137   0.795  1.00  0.00     0.001 C 
ATOM      8  C   UNL     1       5.369   4.199   0.502  1.00  0.00     0.001 C 
BRANCH   4   9
ATOM      9  C   UNL     1       3.579   1.086  -0.700  1.00  0.00     0.109 C 
BRANCH   9  10
ATOM     10  C   UNL     1       3.434  -0.420  -0.508  1.00  0.00     0.238 C 
ATOM     11  O   UNL     1       2.565  -1.038  -1.132  1.00  0.00    -0.273 OA
ATOM     12  N   UNL     1       4.348  -1.082   0.279  1.00  0.00    -0.270 N 
ATOM     13  H   UNL     1       5.021  -0.600   0.812  1.00  0.00     0.191 HD
BRANCH  12  14
ATOM     14  N   UNL     1       4.270  -2.474   0.280  1.00  0.00    -0.299 N 
ATOM     15  H   UNL     1       4.088  -2.955  -0.559  1.00  0.00     0.188 HD
BRANCH  14  16
ATOM     16  C   UNL     1       4.449  -3.193   1.471  1.00  0.00     0.055 A 
ATOM     17  C   UNL     1       4.203  -4.578   1.450  1.00  0.00     0.034 A 
ATOM     18  C   UNL     1       4.946  -2.635   2.655  1.00  0.00     0.034 A 
ATOM     19  C   UNL     1       4.391  -5.379   2.582  1.00  0.00     0.088 A 
ATOM     20  C   UNL     1       5.155  -3.425   3.795  1.00  0.00     0.088 A 
ATOM     21  C   UNL     1       4.872  -4.796   3.754  1.00  0.00     0.269 A 
BRANCH  21  22
ATOM     22  N   UNL     1       5.110  -5.626   4.941  1.00  0.00     0.062 N 
ATOM     23  O   UNL     1       4.725  -6.803   4.917  1.00  0.00    -0.258 OA
ATOM     24  O   UNL     1       5.697  -5.101   5.900  1.00  0.00    -0.258 OA
ENDBRANCH  21  22
ENDBRANCH  14  16
ENDBRANCH  12  14
ENDBRANCH   9  10
ENDBRANCH   4   9
ENDBRANCH   3   4
ENDBRANCH   1   3
BRANCH   1  25
ATOM     25  O   UNL     1       1.706   3.082   1.295  1.00  0.00    -0.462 OA
BRANCH  25  26
ATOM     26  C   UNL     1       0.379   3.506   1.672  1.00  0.00     0.274 C 
BRANCH  26  27
ATOM     27  C   UNL     1      -0.675   2.781   0.845  1.00  0.00     0.275 C 
BRANCH  27  28
ATOM     28  O   UNL     1      -0.564   1.368   1.076  1.00  0.00    -0.458 OA
BRANCH  28  29
ATOM     29  C   UNL     1      -0.565   0.586  -0.028  1.00  0.00     0.338 C 
ATOM     30  O   UNL     1      -0.729   0.948  -1.181  1.00  0.00    -0.246 OA
BRANCH  29  31
ATOM     31  C   UNL     1      -0.362  -0.824   0.367  1.00  0.00     0.060 A 
ATOM     32  C   UNL     1       0.580  -1.170   1.336  1.00  0.00     0.016 A 
ATOM     33  C   UNL     1      -1.064  -1.823  -0.310  1.00  0.00     0.016 A 
ATOM     34  C   UNL     1       0.874  -2.513   1.568  1.00  0.00     0.010 A 
ATOM     35  C   UNL     1      -0.822  -3.170  -0.016  1.00  0.00     0.010 A 
ATOM     36  C   UNL     1       0.180  -3.533   0.898  1.00  0.00    -0.014 A 
BRANCH  36  37
ATOM     37  C   UNL     1       0.550  -4.962   1.115  1.00  0.00     0.031 A 
ATOM     38  C   UNL     1       1.030  -5.815  -0.034  1.00  0.00     0.074 A 
ATOM     39  C   UNL     1       0.538  -5.492   2.355  1.00  0.00     0.049 A 
ATOM     40  N   UNL     1       1.325  -7.093  -0.044  1.00  0.00    -0.248 NA
ATOM     41  C   UNL     1       1.224  -5.149  -1.333  1.00  0.00     0.031 C 
ATOM     42  C   UNL     1       0.172  -4.778   3.580  1.00  0.00     0.029 A 
ATOM     43  N   UNL     1       0.888  -6.745   2.796  1.00  0.00    -0.354 N 
ATOM     44  C   UNL     1       1.669  -7.396  -1.356  1.00  0.00     0.074 A 
ATOM     45  C   UNL     1       1.574  -6.165  -2.111  1.00  0.00     0.031 C 
ATOM     46  C   UNL     1       0.405  -5.572   4.637  1.00  0.00     0.029 A 
ATOM     47  C   UNL     1       0.843  -6.880   4.163  1.00  0.00     0.049 A 
ATOM     48  H   UNL     1       1.147  -7.477   2.191  1.00  0.00     0.167 HD
ATOM     49  C   UNL     1       2.022  -8.591  -1.889  1.00  0.00     0.031 A 
ATOM     50  C   UNL     1       1.102  -7.939   4.953  1.00  0.00     0.031 A 
ATOM     51  C   UNL     1       2.154  -9.817  -1.148  1.00  0.00     0.049 A 
ATOM     52  C   UNL     1       1.457  -9.258   4.333  1.00  0.00     0.074 A 
ATOM     53  C   UNL     1       2.470 -11.081  -1.621  1.00  0.00     0.029 A 
ATOM     54  N   UNL     1       2.000  -9.933   0.222  1.00  0.00    -0.354 N 
ATOM     55  N   UNL     1       1.660  -9.551   3.072  1.00  0.00    -0.248 NA
ATOM     56  C   UNL     1       1.575 -10.405   5.247  1.00  0.00     0.031 C 
ATOM     57  C   UNL     1       2.480 -11.967  -0.539  1.00  0.00     0.029 A 
ATOM     58  C   UNL     1       2.210 -11.245   0.611  1.00  0.00     0.049 A 
ATOM     59  H   UNL     1       1.774  -9.192   0.830  1.00  0.00     0.167 HD
ATOM     60  C   UNL     1       1.917 -10.916   3.042  1.00  0.00     0.074 A 
ATOM     61  C   UNL     1       1.880 -11.386   4.410  1.00  0.00     0.031 C 
ATOM     62  C   UNL     1       2.145 -11.711   1.970  1.00  0.00     0.031 A 
BRANCH  49  63
ATOM     63  C   UNL     1       2.250  -8.649  -3.372  1.00  0.00    -0.014 A 
ATOM     64  C   UNL     1       3.450  -8.204  -3.945  1.00  0.00     0.009 A 
ATOM     65  C   UNL     1       1.271  -9.227  -4.196  1.00  0.00     0.009 A 
ATOM     66  C   UNL     1       3.657  -8.323  -5.321  1.00  0.00     0.001 A 
ATOM     67  C   UNL     1       1.489  -9.362  -5.568  1.00  0.00     0.001 A 
ATOM     68  C   UNL     1       2.681  -8.906  -6.130  1.00  0.00     0.000 A 
ENDBRANCH  49  63
BRANCH  50  69
ATOM     69  C   UNL     1       0.998  -7.809   6.429  1.00  0.00    -0.014 A 
ATOM     70  C   UNL     1       2.153  -7.859   7.224  1.00  0.00     0.009 A 
ATOM     71  C   UNL     1      -0.249  -7.644   7.051  1.00  0.00     0.009 A 
ATOM     72  C   UNL     1       2.060  -7.753   8.613  1.00  0.00     0.001 A 
ATOM     73  C   UNL     1      -0.337  -7.512   8.438  1.00  0.00     0.001 A 
ATOM     74  C   UNL     1       0.817  -7.572   9.218  1.00  0.00     0.000 A 
ENDBRANCH  50  69
BRANCH  62  75
ATOM     75  C   UNL     1       2.353 -13.173   2.235  1.00  0.00    -0.014 A 
ATOM     76  C   UNL     1       1.268 -14.006   2.547  1.00  0.00     0.009 A 
ATOM     77  C   UNL     1       3.639 -13.728   2.150  1.00  0.00     0.009 A 
ATOM     78  C   UNL     1       1.470 -15.364   2.798  1.00  0.00     0.001 A 
ATOM     79  C   UNL     1       3.835 -15.091   2.382  1.00  0.00     0.001 A 
ATOM     80  C   UNL     1       2.752 -15.906   2.713  1.00  0.00     0.000 A 
ENDBRANCH  62  75
ENDBRANCH  36  37
ENDBRANCH  29  31
ENDBRANCH  28  29
ENDBRANCH  27  28
ENDBRANCH  26  27
ENDBRANCH  25  26
ENDBRANCH   1  25
TORSDOF 17
