REMARK SMILES CS(=O)(=O)c1ccc(C2=NN(c3ccc(C(=O)OCCOC(=O)c4ccc(-c5c6nc(c(-c7ccccc7)c7ccc([nH]7)c(-c7ccccc7)c7nc(c(-c8ccccc8)c8ccc5[nH]8)C=C7)C=C6)cc4)cc3)[C@H](c3ccccc3)C2)cc1
REMARK SMILES IDX 19 1 18 2 16 3 17 4 15 5 12 6 13 7 73 8 14 9 72 10 11 11
REMARK SMILES IDX 9 12 10 13 81 14 74 15 8 16 5 17 6 18 83 19 7 20 82 21 2 22
REMARK SMILES IDX 1 23 3 24 4 25 75 26 76 27 80 28 77 29 79 30 78 31 20 32
REMARK SMILES IDX 21 33 22 34 23 35 24 36 25 37 71 38 26 39 70 40 27 41 28 42
REMARK SMILES IDX 29 43 64 44 30 45 69 46 63 47 65 48 31 49 68 50 62 51 61 52
REMARK SMILES IDX 32 54 54 55 39 56 53 57 40 58 43 59 52 60 66 61 41 62 42 63
REMARK SMILES IDX 51 65 67 66 44 67 33 68 34 69 38 70 35 71 37 72 36 73 55 74
REMARK SMILES IDX 56 75 60 76 57 77 59 78 58 79 45 80 46 81 50 82 47 83 49 84
REMARK SMILES IDX 48 85
REMARK H PARENT 65 53 43 64
REMARK Flexibility Score: inf
ROOT
ATOM      1  C   UNL     1       9.164   1.050  12.986  1.00  0.00     0.275 C 
ENDROOT
BRANCH   1   2
ATOM      2  O   UNL     1       7.958   1.067  12.198  1.00  0.00    -0.458 OA
BRANCH   2   3
ATOM      3  C   UNL     1       7.686   2.229  11.559  1.00  0.00     0.338 C 
ATOM      4  O   UNL     1       8.336   3.262  11.629  1.00  0.00    -0.246 OA
BRANCH   3   5
ATOM      5  C   UNL     1       6.506   2.087  10.670  1.00  0.00     0.060 A 
ATOM      6  C   UNL     1       4.253   1.985   8.992  1.00  0.00     0.060 A 
ATOM      7  C   UNL     1       5.244   2.948   8.784  1.00  0.00     0.029 A 
ATOM      8  C   UNL     1       4.428   1.043  10.015  1.00  0.00     0.029 A 
ATOM      9  C   UNL     1       6.345   3.019   9.635  1.00  0.00     0.018 A 
ATOM     10  C   UNL     1       5.550   1.084  10.849  1.00  0.00     0.018 A 
BRANCH   6  11
ATOM     11  N   UNL     1       3.042   2.037   8.293  1.00  0.00    -0.257 N 
ATOM     12  C   UNL     1       2.088   2.418   6.422  1.00  0.00     0.071 C 
ATOM     13  N   UNL     1       3.043   1.732   6.968  1.00  0.00    -0.176 NA
ATOM     14  C   UNL     1       1.357   3.368   7.329  1.00  0.00     0.091 C 
ATOM     15  C   UNL     1       2.103   3.116   8.644  1.00  0.00     0.144 C 
BRANCH  12  16
ATOM     16  C   UNL     1       1.708   2.257   5.007  1.00  0.00    -0.002 A 
ATOM     17  C   UNL     1       0.937   1.835   2.362  1.00  0.00     0.067 A 
ATOM     18  C   UNL     1       1.338   0.749   3.142  1.00  0.00     0.021 A 
ATOM     19  C   UNL     1       0.937   3.133   2.893  1.00  0.00     0.021 A 
ATOM     20  C   UNL     1       1.736   0.967   4.463  1.00  0.00     0.011 A 
ATOM     21  C   UNL     1       1.312   3.344   4.223  1.00  0.00     0.011 A 
BRANCH  17  22
ATOM     22  S   UNL     1       0.419   1.624   0.674  1.00  0.00     0.175 S 
ATOM     23  C   UNL     1       1.129   0.107   0.099  1.00  0.00     0.163 C 
ATOM     24  O   UNL     1       1.034   2.697  -0.084  1.00  0.00    -0.224 OA
ATOM     25  O   UNL     1      -1.021   1.460   0.711  1.00  0.00    -0.224 OA
ENDBRANCH  17  22
ENDBRANCH  12  16
BRANCH  15  26
ATOM     26  C   UNL     1       1.301   2.723   9.875  1.00  0.00    -0.023 A 
ATOM     27  C   UNL     1       0.089   2.023   9.819  1.00  0.00     0.006 A 
ATOM     28  C   UNL     1       1.857   2.982  11.145  1.00  0.00     0.006 A 
ATOM     29  C   UNL     1      -0.548   1.605  10.992  1.00  0.00     0.000 A 
ATOM     30  C   UNL     1       1.235   2.541  12.313  1.00  0.00     0.000 A 
ATOM     31  C   UNL     1       0.028   1.855  12.236  1.00  0.00     0.000 A 
ENDBRANCH  15  26
ENDBRANCH   6  11
ENDBRANCH   3   5
ENDBRANCH   2   3
ENDBRANCH   1   2
BRANCH   1  32
ATOM     32  C   UNL     1      10.299   0.366  12.226  1.00  0.00     0.275 C 
BRANCH  32  33
ATOM     33  O   UNL     1      10.697   1.158  11.092  1.00  0.00    -0.458 OA
BRANCH  33  34
ATOM     34  C   UNL     1      10.318   0.681   9.885  1.00  0.00     0.338 C 
ATOM     35  O   UNL     1       9.723  -0.353   9.640  1.00  0.00    -0.246 OA
BRANCH  34  36
ATOM     36  C   UNL     1      10.729   1.631   8.842  1.00  0.00     0.060 A 
ATOM     37  C   UNL     1       9.935   2.748   8.589  1.00  0.00     0.016 A 
ATOM     38  C   UNL     1      11.835   1.357   8.042  1.00  0.00     0.016 A 
ATOM     39  C   UNL     1      10.207   3.574   7.502  1.00  0.00     0.010 A 
ATOM     40  C   UNL     1      12.147   2.223   6.989  1.00  0.00     0.010 A 
ATOM     41  C   UNL     1      11.323   3.326   6.694  1.00  0.00    -0.014 A 
BRANCH  41  42
ATOM     42  C   UNL     1      11.623   4.181   5.514  1.00  0.00     0.031 A 
ATOM     43  C   UNL     1      11.637   3.571   4.139  1.00  0.00     0.074 A 
ATOM     44  C   UNL     1      11.915   5.487   5.667  1.00  0.00     0.049 A 
ATOM     45  N   UNL     1      12.117   4.056   3.023  1.00  0.00    -0.248 NA
ATOM     46  C   UNL     1      11.042   2.231   4.006  1.00  0.00     0.031 C 
ATOM     47  C   UNL     1      11.869   6.232   6.926  1.00  0.00     0.029 A 
ATOM     48  N   UNL     1      12.325   6.420   4.745  1.00  0.00    -0.354 N 
ATOM     49  C   UNL     1      11.946   3.057   2.073  1.00  0.00     0.074 A 
ATOM     50  C   UNL     1      11.303   1.944   2.738  1.00  0.00     0.031 C 
ATOM     51  C   UNL     1      12.225   7.506   6.697  1.00  0.00     0.029 A 
ATOM     52  C   UNL     1      12.608   7.647   5.297  1.00  0.00     0.049 A 
ATOM     53  H   UNL     1      12.408   6.229   3.783  1.00  0.00     0.167 HD
ATOM     54  C   UNL     1      12.307   3.064   0.768  1.00  0.00     0.031 A 
ATOM     55  C   UNL     1      13.168   8.745   4.753  1.00  0.00     0.031 A 
ATOM     56  C   UNL     1      12.900   4.191   0.100  1.00  0.00     0.049 A 
ATOM     57  C   UNL     1      13.611   8.709   3.317  1.00  0.00     0.074 A 
ATOM     58  C   UNL     1      13.278   4.305  -1.227  1.00  0.00     0.029 A 
ATOM     59  N   UNL     1      13.189   5.403   0.705  1.00  0.00    -0.354 N 
ATOM     60  N   UNL     1      13.491   7.743   2.440  1.00  0.00    -0.248 NA
ATOM     61  C   UNL     1      14.287   9.910   2.803  1.00  0.00     0.031 C 
ATOM     62  C   UNL     1      13.832   5.574  -1.416  1.00  0.00     0.029 A 
ATOM     63  C   UNL     1      13.757   6.265  -0.217  1.00  0.00     0.049 A 
ATOM     64  H   UNL     1      13.016   5.619   1.650  1.00  0.00     0.167 HD
ATOM     65  C   UNL     1      14.053   8.227   1.266  1.00  0.00     0.074 A 
ATOM     66  C   UNL     1      14.507   9.575   1.539  1.00  0.00     0.031 C 
ATOM     67  C   UNL     1      14.183   7.608   0.069  1.00  0.00     0.031 A 
BRANCH  54  68
ATOM     68  C   UNL     1      12.119   1.799  -0.018  1.00  0.00    -0.014 A 
ATOM     69  C   UNL     1      10.854   1.386  -0.461  1.00  0.00     0.009 A 
ATOM     70  C   UNL     1      13.246   1.040  -0.372  1.00  0.00     0.009 A 
ATOM     71  C   UNL     1      10.721   0.223  -1.224  1.00  0.00     0.001 A 
ATOM     72  C   UNL     1      13.113  -0.108  -1.155  1.00  0.00     0.001 A 
ATOM     73  C   UNL     1      11.850  -0.518  -1.575  1.00  0.00     0.000 A 
ENDBRANCH  54  68
BRANCH  55  74
ATOM     74  C   UNL     1      13.404   9.953   5.586  1.00  0.00    -0.014 A 
ATOM     75  C   UNL     1      12.676  11.130   5.357  1.00  0.00     0.009 A 
ATOM     76  C   UNL     1      14.371   9.941   6.604  1.00  0.00     0.009 A 
ATOM     77  C   UNL     1      12.925  12.275   6.118  1.00  0.00     0.001 A 
ATOM     78  C   UNL     1      14.596  11.077   7.384  1.00  0.00     0.001 A 
ATOM     79  C   UNL     1      13.879  12.245   7.134  1.00  0.00     0.000 A 
ENDBRANCH  55  74
BRANCH  67  80
ATOM     80  C   UNL     1      14.789   8.399  -1.053  1.00  0.00    -0.014 A 
ATOM     81  C   UNL     1      16.173   8.613  -1.126  1.00  0.00     0.009 A 
ATOM     82  C   UNL     1      13.965   8.884  -2.080  1.00  0.00     0.009 A 
ATOM     83  C   UNL     1      16.719   9.319  -2.200  1.00  0.00     0.001 A 
ATOM     84  C   UNL     1      14.516   9.569  -3.163  1.00  0.00     0.001 A 
ATOM     85  C   UNL     1      15.891   9.790  -3.220  1.00  0.00     0.000 A 
ENDBRANCH  67  80
ENDBRANCH  41  42
ENDBRANCH  34  36
ENDBRANCH  33  34
ENDBRANCH  32  33
ENDBRANCH   1  32
TORSDOF 15
