REMARK SMILES COCCN(CC(=O)OCCOC(=O)c1ccc(-c2c3nc(c(-c4ccccc4)c4ccc([nH]4)c(-c4ccccc4)c4nc(c(-c5ccccc5)c5ccc2[nH]5)C=C4)C=C3)cc1)C(=O)c1cccc(N)c1
REMARK SMILES IDX 10 1 9 2 7 3 8 4 6 5 5 6 4 7 3 8 2 9 1 10 63 11 64 12 65 13
REMARK SMILES IDX 66 14 71 15 67 16 69 17 68 18 70 19 11 22 12 23 13 24 14 25
REMARK SMILES IDX 15 26 16 27 62 28 17 29 61 30 18 31 19 32 20 33 55 34 21 35
REMARK SMILES IDX 60 36 54 37 56 38 22 39 59 40 53 41 52 42 23 44 45 45 30 46
REMARK SMILES IDX 44 47 31 48 34 49 43 50 57 51 32 52 33 53 42 55 58 56 35 57
REMARK SMILES IDX 24 58 25 59 29 60 26 61 28 62 27 63 46 64 47 65 51 66 48 67
REMARK SMILES IDX 50 68 49 69 36 70 37 71 41 72 38 73 40 74 39 75
REMARK H PARENT 70 20 70 21 56 43 34 54
REMARK Flexibility Score: inf
ROOT
ATOM      1  C   UNL     1      -0.128  -1.598   6.018  1.00  0.00     0.274 C 
ENDROOT
BRANCH   1   2
ATOM      2  O   UNL     1      -0.139  -0.947   4.721  1.00  0.00    -0.461 OA
BRANCH   2   3
ATOM      3  C   UNL     1       1.042  -0.400   4.324  1.00  0.00     0.325 C 
ATOM      4  O   UNL     1       2.026  -0.300   5.057  1.00  0.00    -0.250 OA
BRANCH   3   5
ATOM      5  C   UNL     1       1.151  -0.097   2.817  1.00  0.00     0.242 C 
BRANCH   5   6
ATOM      6  N   UNL     1      -0.030   0.165   1.982  1.00  0.00    -0.325 N 
BRANCH   6   7
ATOM      7  C   UNL     1      -0.454   1.569   1.887  1.00  0.00     0.149 C 
BRANCH   7   8
ATOM      8  C   UNL     1       0.460   2.431   0.988  1.00  0.00     0.181 C 
BRANCH   8   9
ATOM      9  O   UNL     1       0.380   2.035  -0.382  1.00  0.00    -0.383 OA
ATOM     10  C   UNL     1       1.496   1.276  -0.818  1.00  0.00     0.194 C 
ENDBRANCH   8   9
ENDBRANCH   7   8
ENDBRANCH   6   7
BRANCH   6  11
ATOM     11  C   UNL     1      -0.743  -0.779   1.229  1.00  0.00     0.254 C 
ATOM     12  O   UNL     1      -1.808  -0.526   0.668  1.00  0.00    -0.269 OA
BRANCH  11  13
ATOM     13  C   UNL     1      -0.229  -2.152   1.032  1.00  0.00     0.042 A 
ATOM     14  C   UNL     1       0.886  -2.391   0.223  1.00  0.00     0.014 A 
ATOM     15  C   UNL     1      -0.934  -3.228   1.589  1.00  0.00     0.039 A 
ATOM     16  C   UNL     1       1.331  -3.698   0.028  1.00  0.00     0.003 A 
ATOM     17  C   UNL     1      -0.437  -4.532   1.471  1.00  0.00     0.032 A 
ATOM     18  C   UNL     1       0.675  -4.761   0.655  1.00  0.00     0.025 A 
BRANCH  17  19
ATOM     19  N   UNL     1      -1.074  -5.591   2.102  1.00  0.00    -0.399 N 
ATOM     20  H   UNL     1      -0.716  -6.504   2.013  1.00  0.00     0.156 HD
ATOM     21  H   UNL     1      -1.883  -5.430   2.639  1.00  0.00     0.156 HD
ENDBRANCH  17  19
ENDBRANCH  11  13
ENDBRANCH   6  11
ENDBRANCH   5   6
ENDBRANCH   3   5
ENDBRANCH   2   3
ENDBRANCH   1   2
BRANCH   1  22
ATOM     22  C   UNL     1       0.068  -3.131   5.943  1.00  0.00     0.275 C 
BRANCH  22  23
ATOM     23  O   UNL     1       1.418  -3.558   5.633  1.00  0.00    -0.458 OA
BRANCH  23  24
ATOM     24  C   UNL     1       1.690  -3.449   4.321  1.00  0.00     0.338 C 
ATOM     25  O   UNL     1       0.943  -2.958   3.493  1.00  0.00    -0.246 OA
BRANCH  24  26
ATOM     26  C   UNL     1       2.995  -3.884   3.852  1.00  0.00     0.060 A 
ATOM     27  C   UNL     1       3.840  -2.893   3.337  1.00  0.00     0.016 A 
ATOM     28  C   UNL     1       3.219  -5.234   3.580  1.00  0.00     0.016 A 
ATOM     29  C   UNL     1       4.923  -3.251   2.547  1.00  0.00     0.010 A 
ATOM     30  C   UNL     1       4.327  -5.595   2.812  1.00  0.00     0.010 A 
ATOM     31  C   UNL     1       5.182  -4.606   2.296  1.00  0.00    -0.014 A 
BRANCH  31  32
ATOM     32  C   UNL     1       6.470  -4.983   1.683  1.00  0.00     0.031 A 
ATOM     33  C   UNL     1       6.602  -5.357   0.242  1.00  0.00     0.074 A 
ATOM     34  C   UNL     1       7.537  -4.976   2.500  1.00  0.00     0.049 A 
ATOM     35  N   UNL     1       7.673  -5.740  -0.404  1.00  0.00    -0.248 NA
ATOM     36  C   UNL     1       5.390  -5.287  -0.585  1.00  0.00     0.031 C 
ATOM     37  C   UNL     1       7.505  -4.595   3.916  1.00  0.00     0.029 A 
ATOM     38  N   UNL     1       8.844  -5.303   2.269  1.00  0.00    -0.354 N 
ATOM     39  C   UNL     1       7.271  -5.955  -1.715  1.00  0.00     0.074 A 
ATOM     40  C   UNL     1       5.851  -5.669  -1.771  1.00  0.00     0.031 C 
ATOM     41  C   UNL     1       8.733  -4.725   4.431  1.00  0.00     0.029 A 
ATOM     42  C   UNL     1       9.622  -5.233   3.395  1.00  0.00     0.049 A 
ATOM     43  H   UNL     1       9.191  -5.562   1.384  1.00  0.00     0.167 HD
ATOM     44  C   UNL     1       8.025  -6.357  -2.766  1.00  0.00     0.031 A 
ATOM     45  C   UNL     1      10.906  -5.576   3.586  1.00  0.00     0.031 A 
ATOM     46  C   UNL     1       9.432  -6.664  -2.683  1.00  0.00     0.049 A 
ATOM     47  C   UNL     1      11.694  -6.091   2.427  1.00  0.00     0.074 A 
ATOM     48  C   UNL     1      10.292  -7.058  -3.694  1.00  0.00     0.029 A 
ATOM     49  N   UNL     1      10.180  -6.624  -1.516  1.00  0.00    -0.354 N 
ATOM     50  N   UNL     1      11.305  -6.271   1.188  1.00  0.00    -0.248 NA
ATOM     51  C   UNL     1      13.092  -6.447   2.688  1.00  0.00     0.031 C 
ATOM     52  C   UNL     1      11.551  -7.298  -3.130  1.00  0.00     0.029 A 
ATOM     53  C   UNL     1      11.484  -7.016  -1.775  1.00  0.00     0.049 A 
ATOM     54  H   UNL     1       9.836  -6.357  -0.633  1.00  0.00     0.167 HD
ATOM     55  C   UNL     1      12.414  -6.754   0.514  1.00  0.00     0.074 A 
ATOM     56  C   UNL     1      13.493  -6.826   1.482  1.00  0.00     0.031 C 
ATOM     57  C   UNL     1      12.530  -7.103  -0.790  1.00  0.00     0.031 A 
BRANCH  44  58
ATOM     58  C   UNL     1       7.346  -6.519  -4.096  1.00  0.00    -0.014 A 
ATOM     59  C   UNL     1       7.035  -5.406  -4.892  1.00  0.00     0.009 A 
ATOM     60  C   UNL     1       7.081  -7.805  -4.592  1.00  0.00     0.009 A 
ATOM     61  C   UNL     1       6.458  -5.578  -6.153  1.00  0.00     0.001 A 
ATOM     62  C   UNL     1       6.517  -7.974  -5.859  1.00  0.00     0.001 A 
ATOM     63  C   UNL     1       6.203  -6.861  -6.637  1.00  0.00     0.000 A 
ENDBRANCH  44  58
BRANCH  45  64
ATOM     64  C   UNL     1      11.482  -5.460   4.945  1.00  0.00    -0.014 A 
ATOM     65  C   UNL     1      12.329  -4.395   5.272  1.00  0.00     0.009 A 
ATOM     66  C   UNL     1      11.104  -6.370   5.946  1.00  0.00     0.009 A 
ATOM     67  C   UNL     1      12.791  -4.243   6.581  1.00  0.00     0.001 A 
ATOM     68  C   UNL     1      11.550  -6.203   7.257  1.00  0.00     0.001 A 
ATOM     69  C   UNL     1      12.395  -5.141   7.573  1.00  0.00     0.000 A 
ENDBRANCH  45  64
BRANCH  57  70
ATOM     70  C   UNL     1      13.878  -7.587  -1.227  1.00  0.00    -0.014 A 
ATOM     71  C   UNL     1      14.305  -8.890  -0.928  1.00  0.00     0.009 A 
ATOM     72  C   UNL     1      14.732  -6.730  -1.936  1.00  0.00     0.009 A 
ATOM     73  C   UNL     1      15.579  -9.315  -1.305  1.00  0.00     0.001 A 
ATOM     74  C   UNL     1      15.998  -7.165  -2.327  1.00  0.00     0.001 A 
ATOM     75  C   UNL     1      16.424  -8.453  -2.004  1.00  0.00     0.000 A 
ENDBRANCH  57  70
ENDBRANCH  31  32
ENDBRANCH  24  26
ENDBRANCH  23  24
ENDBRANCH  22  23
ENDBRANCH   1  22
TORSDOF 18
