REMARK SMILES CC(C)c1ccc(NC(=O)C[C@H]2SC[C@@H](C(=O)OCCOC(=O)c3ccc(-c4c5nc(c(-c6ccccc6)c6ccc([nH]6)c(-c6ccccc6)c6nc(c(-c7ccccc7)c7ccc4[nH]7)C=C6)C=C5)cc3)NC2=O)cc1
REMARK SMILES IDX 19 1 18 2 16 3 17 4 15 5 12 6 13 7 73 8 14 9 72 10 74 11
REMARK SMILES IDX 11 13 9 14 8 15 10 17 7 18 4 19 5 20 76 21 6 22 75 23 2 24
REMARK SMILES IDX 1 25 3 26 20 27 21 28 22 29 23 30 24 31 25 32 71 33 26 34
REMARK SMILES IDX 70 35 27 36 28 37 29 38 64 39 30 40 69 41 63 42 65 43 31 44
REMARK SMILES IDX 68 45 62 46 61 47 32 49 54 50 39 51 53 52 40 53 43 54 52 55
REMARK SMILES IDX 66 56 41 57 42 58 51 60 67 61 44 62 33 63 34 64 38 65 35 66
REMARK SMILES IDX 37 67 36 68 55 69 56 70 60 71 57 72 59 73 58 74 45 75 46 76
REMARK SMILES IDX 50 77 47 78 49 79 48 80
REMARK H PARENT 72 12 8 16 65 48 43 59
REMARK Flexibility Score: inf
ROOT
ATOM      1  C   UNL     1       1.091   2.529   1.649  1.00  0.00     0.274 C 
ENDROOT
BRANCH   1   2
ATOM      2  O   UNL     1       0.498   2.567   0.336  1.00  0.00    -0.461 OA
BRANCH   2   3
ATOM      3  C   UNL     1      -0.850   2.384   0.312  1.00  0.00     0.329 C 
ATOM      4  O   UNL     1      -1.567   2.385   1.303  1.00  0.00    -0.250 OA
BRANCH   3   5
ATOM      5  C   UNL     1      -1.343   2.033  -1.091  1.00  0.00     0.202 C 
ATOM      6  C   UNL     1      -4.259   1.686  -0.366  1.00  0.00     0.145 C 
ATOM      7  S   UNL     1      -3.981   3.097  -1.523  1.00  0.00    -0.145 SA
ATOM      8  C   UNL     1      -3.241   0.553  -0.454  1.00  0.00     0.234 C 
ATOM      9  C   UNL     1      -2.168   3.135  -1.728  1.00  0.00     0.107 C 
ATOM     10  N   UNL     1      -2.012   0.752  -1.001  1.00  0.00    -0.341 N 
ATOM     11  O   UNL     1      -3.485  -0.591  -0.069  1.00  0.00    -0.274 OA
ATOM     12  H   UNL     1      -1.542  -0.034  -1.363  1.00  0.00     0.164 HD
BRANCH   6  13
ATOM     13  C   UNL     1      -4.655   2.206   1.019  1.00  0.00     0.124 C 
BRANCH  13  14
ATOM     14  C   UNL     1      -4.754   1.254   2.201  1.00  0.00     0.226 C 
ATOM     15  N   UNL     1      -5.586   0.175   2.229  1.00  0.00    -0.326 N 
ATOM     16  H   UNL     1      -5.662  -0.285   3.096  1.00  0.00     0.169 HD
ATOM     17  O   UNL     1      -4.090   1.470   3.222  1.00  0.00    -0.275 OA
BRANCH  15  18
ATOM     18  C   UNL     1      -6.344  -0.362   1.188  1.00  0.00     0.041 A 
ATOM     19  C   UNL     1      -7.183  -1.403  -1.256  1.00  0.00    -0.045 A 
ATOM     20  C   UNL     1      -7.573  -0.113  -0.866  1.00  0.00     0.006 A 
ATOM     21  C   UNL     1      -6.523  -2.219  -0.328  1.00  0.00     0.006 A 
ATOM     22  C   UNL     1      -7.159   0.406   0.362  1.00  0.00     0.026 A 
ATOM     23  C   UNL     1      -6.132  -1.710   0.906  1.00  0.00     0.026 A 
BRANCH  19  24
ATOM     24  C   UNL     1      -7.396  -1.862  -2.686  1.00  0.00     0.013 C 
ATOM     25  C   UNL     1      -6.052  -2.132  -3.378  1.00  0.00     0.012 C 
ATOM     26  C   UNL     1      -8.302  -3.088  -2.747  1.00  0.00     0.012 C 
ENDBRANCH  19  24
ENDBRANCH  15  18
ENDBRANCH  13  14
ENDBRANCH   6  13
ENDBRANCH   3   5
ENDBRANCH   2   3
ENDBRANCH   1   2
BRANCH   1  27
ATOM     27  C   UNL     1       1.267   3.915   2.277  1.00  0.00     0.275 C 
BRANCH  27  28
ATOM     28  O   UNL     1       0.019   4.483   2.722  1.00  0.00    -0.458 OA
BRANCH  28  29
ATOM     29  C   UNL     1      -0.611   5.267   1.817  1.00  0.00     0.338 C 
ATOM     30  O   UNL     1      -0.186   5.574   0.709  1.00  0.00    -0.246 OA
BRANCH  29  31
ATOM     31  C   UNL     1      -1.996   5.565   2.243  1.00  0.00     0.060 A 
ATOM     32  C   UNL     1      -2.972   5.514   1.245  1.00  0.00     0.016 A 
ATOM     33  C   UNL     1      -2.368   5.873   3.555  1.00  0.00     0.016 A 
ATOM     34  C   UNL     1      -4.316   5.688   1.553  1.00  0.00     0.010 A 
ATOM     35  C   UNL     1      -3.722   6.104   3.859  1.00  0.00     0.010 A 
ATOM     36  C   UNL     1      -4.704   5.993   2.861  1.00  0.00    -0.014 A 
BRANCH  36  37
ATOM     37  C   UNL     1      -6.145   6.242   3.110  1.00  0.00     0.031 A 
ATOM     38  C   UNL     1      -6.766   7.518   2.620  1.00  0.00     0.074 A 
ATOM     39  C   UNL     1      -6.933   5.272   3.610  1.00  0.00     0.049 A 
ATOM     40  N   UNL     1      -8.015   7.905   2.673  1.00  0.00    -0.248 NA
ATOM     41  C   UNL     1      -5.865   8.472   1.954  1.00  0.00     0.031 C 
ATOM     42  C   UNL     1      -6.487   3.933   3.987  1.00  0.00     0.029 A 
ATOM     43  N   UNL     1      -8.287   5.251   3.840  1.00  0.00    -0.354 N 
ATOM     44  C   UNL     1      -8.051   9.140   2.043  1.00  0.00     0.074 A 
ATOM     45  C   UNL     1      -6.705   9.432   1.599  1.00  0.00     0.031 C 
ATOM     46  C   UNL     1      -7.554   3.207   4.364  1.00  0.00     0.029 A 
ATOM     47  C   UNL     1      -8.749   4.048   4.317  1.00  0.00     0.049 A 
ATOM     48  H   UNL     1      -8.873   6.026   3.678  1.00  0.00     0.167 HD
ATOM     49  C   UNL     1      -9.103   9.976   1.873  1.00  0.00     0.031 A 
ATOM     50  C   UNL     1      -9.988   3.678   4.696  1.00  0.00     0.031 A 
ATOM     51  C   UNL     1     -10.425   9.733   2.380  1.00  0.00     0.049 A 
ATOM     52  C   UNL     1     -11.108   4.685   4.641  1.00  0.00     0.074 A 
ATOM     53  C   UNL     1     -11.519  10.581   2.381  1.00  0.00     0.029 A 
ATOM     54  N   UNL     1     -10.828   8.556   2.988  1.00  0.00    -0.354 N 
ATOM     55  N   UNL     1     -11.113   5.894   4.133  1.00  0.00    -0.248 NA
ATOM     56  C   UNL     1     -12.391   4.284   5.242  1.00  0.00     0.031 C 
ATOM     57  C   UNL     1     -12.572   9.932   3.035  1.00  0.00     0.029 A 
ATOM     58  C   UNL     1     -12.149   8.661   3.388  1.00  0.00     0.049 A 
ATOM     59  H   UNL     1     -10.259   7.762   3.118  1.00  0.00     0.167 HD
ATOM     60  C   UNL     1     -12.392   6.394   4.350  1.00  0.00     0.074 A 
ATOM     61  C   UNL     1     -13.147   5.347   5.006  1.00  0.00     0.031 C 
ATOM     62  C   UNL     1     -12.890   7.616   4.045  1.00  0.00     0.031 A 
BRANCH  49  63
ATOM     63  C   UNL     1      -8.817  11.283   1.198  1.00  0.00    -0.014 A 
ATOM     64  C   UNL     1      -8.647  11.366  -0.192  1.00  0.00     0.009 A 
ATOM     65  C   UNL     1      -8.689  12.444   1.975  1.00  0.00     0.009 A 
ATOM     66  C   UNL     1      -8.322  12.587  -0.787  1.00  0.00     0.001 A 
ATOM     67  C   UNL     1      -8.384  13.666   1.375  1.00  0.00     0.001 A 
ATOM     68  C   UNL     1      -8.192  13.734  -0.004  1.00  0.00     0.000 A 
ENDBRANCH  49  63
BRANCH  50  69
ATOM     69  C   UNL     1     -10.241   2.316   5.241  1.00  0.00    -0.014 A 
ATOM     70  C   UNL     1     -11.090   1.419   4.573  1.00  0.00     0.009 A 
ATOM     71  C   UNL     1      -9.685   1.929   6.471  1.00  0.00     0.009 A 
ATOM     72  C   UNL     1     -11.397   0.178   5.139  1.00  0.00     0.001 A 
ATOM     73  C   UNL     1      -9.969   0.677   7.019  1.00  0.00     0.001 A 
ATOM     74  C   UNL     1     -10.834  -0.193   6.359  1.00  0.00     0.000 A 
ENDBRANCH  50  69
BRANCH  62  75
ATOM     75  C   UNL     1     -14.323   7.893   4.406  1.00  0.00    -0.014 A 
ATOM     76  C   UNL     1     -14.708   8.104   5.739  1.00  0.00     0.009 A 
ATOM     77  C   UNL     1     -15.288   8.005   3.393  1.00  0.00     0.009 A 
ATOM     78  C   UNL     1     -16.038   8.398   6.052  1.00  0.00     0.001 A 
ATOM     79  C   UNL     1     -16.611   8.323   3.707  1.00  0.00     0.001 A 
ATOM     80  C   UNL     1     -16.986   8.514   5.036  1.00  0.00     0.000 A 
ENDBRANCH  62  75
ENDBRANCH  36  37
ENDBRANCH  29  31
ENDBRANCH  28  29
ENDBRANCH  27  28
ENDBRANCH   1  27
TORSDOF 15
