REMARK SMILES COc1ccc2c(C)cc(SCC(=O)OCCOC(=O)c3ccc(-c4c5nc(c(-c6ccccc6)c6ccc([nH]6)c(-c6ccccc6)c6nc(c(-c7ccccc7)c7ccc4[nH]7)C=C6)C=C5)cc3)nc2c1
REMARK SMILES IDX 16 1 15 2 13 3 14 4 12 5 11 6 10 7 3 8 4 9 71 10 5 11 70 12
REMARK SMILES IDX 6 13 69 14 7 15 8 16 9 17 2 18 1 19 17 20 18 21 19 22 20 23
REMARK SMILES IDX 21 24 22 25 68 26 23 27 67 28 24 29 25 30 26 31 61 32 27 33
REMARK SMILES IDX 66 34 60 35 62 36 28 37 65 38 59 39 58 40 29 42 51 43 36 44
REMARK SMILES IDX 50 45 37 46 40 47 49 48 63 49 38 50 39 51 48 53 64 54 41 55
REMARK SMILES IDX 30 56 31 57 35 58 32 59 34 60 33 61 52 62 53 63 57 64 54 65
REMARK SMILES IDX 56 66 55 67 42 68 43 69 47 70 44 71 46 72 45 73
REMARK H PARENT 62 41 40 52
REMARK Flexibility Score: inf
ROOT
ATOM      1  C   UNL     1      -1.180   3.961   9.193  1.00  0.00     0.274 C 
ENDROOT
BRANCH   1   2
ATOM      2  O   UNL     1      -1.538   4.370   7.858  1.00  0.00    -0.461 OA
BRANCH   2   3
ATOM      3  C   UNL     1      -1.605   5.708   7.639  1.00  0.00     0.316 C 
ATOM      4  O   UNL     1      -1.312   6.558   8.478  1.00  0.00    -0.251 OA
BRANCH   3   5
ATOM      5  C   UNL     1      -2.070   6.112   6.258  1.00  0.00     0.199 C 
BRANCH   5   6
ATOM      6  S   UNL     1      -2.563   4.760   5.155  1.00  0.00    -0.095 SA
BRANCH   6   7
ATOM      7  C   UNL     1      -1.089   4.350   4.243  1.00  0.00     0.098 A 
ATOM      8  C   UNL     1       0.436   1.668   0.622  1.00  0.00     0.121 A 
ATOM      9  C   UNL     1       1.761   1.991   0.876  1.00  0.00     0.047 A 
ATOM     10  C   UNL     1      -0.581   2.245   1.383  1.00  0.00     0.075 A 
ATOM     11  C   UNL     1       2.060   2.868   1.915  1.00  0.00     0.014 A 
ATOM     12  C   UNL     1      -0.306   3.099   2.440  1.00  0.00     0.075 A 
ATOM     13  C   UNL     1       1.036   3.432   2.709  1.00  0.00     0.003 A 
ATOM     14  N   UNL     1      -1.332   3.558   3.177  1.00  0.00    -0.241 NA
ATOM     15  C   UNL     1       1.276   4.317   3.779  1.00  0.00    -0.039 A 
ATOM     16  C   UNL     1       2.664   4.757   4.141  1.00  0.00     0.045 C 
ATOM     17  C   UNL     1       0.196   4.752   4.563  1.00  0.00     0.039 A 
BRANCH   8  18
ATOM     18  O   UNL     1       0.046   0.825  -0.382  1.00  0.00    -0.497 OA
ATOM     19  C   UNL     1       0.798  -0.387  -0.418  1.00  0.00     0.278 C 
ENDBRANCH   8  18
ENDBRANCH   6   7
ENDBRANCH   5   6
ENDBRANCH   3   5
ENDBRANCH   2   3
ENDBRANCH   1   2
BRANCH   1  20
ATOM     20  C   UNL     1       0.304   3.622   9.285  1.00  0.00     0.275 C 
BRANCH  20  21
ATOM     21  O   UNL     1       1.094   4.762   8.903  1.00  0.00    -0.458 OA
BRANCH  21  22
ATOM     22  C   UNL     1       2.012   4.525   7.942  1.00  0.00     0.338 C 
ATOM     23  O   UNL     1       2.262   3.458   7.407  1.00  0.00    -0.246 OA
BRANCH  22  24
ATOM     24  C   UNL     1       2.729   5.760   7.573  1.00  0.00     0.060 A 
ATOM     25  C   UNL     1       2.051   6.947   7.277  1.00  0.00     0.016 A 
ATOM     26  C   UNL     1       4.106   5.661   7.347  1.00  0.00     0.016 A 
ATOM     27  C   UNL     1       2.742   8.012   6.688  1.00  0.00     0.010 A 
ATOM     28  C   UNL     1       4.801   6.739   6.803  1.00  0.00     0.010 A 
ATOM     29  C   UNL     1       4.121   7.912   6.442  1.00  0.00    -0.014 A 
BRANCH  29  30
ATOM     30  C   UNL     1       4.889   9.033   5.852  1.00  0.00     0.031 A 
ATOM     31  C   UNL     1       5.449   8.944   4.460  1.00  0.00     0.074 A 
ATOM     32  C   UNL     1       5.155  10.108   6.613  1.00  0.00     0.049 A 
ATOM     33  N   UNL     1       6.317   9.721   3.863  1.00  0.00    -0.248 NA
ATOM     34  C   UNL     1       4.969   7.833   3.628  1.00  0.00     0.031 C 
ATOM     35  C   UNL     1       4.654  10.327   7.970  1.00  0.00     0.029 A 
ATOM     36  N   UNL     1       5.944  11.200   6.362  1.00  0.00    -0.354 N 
ATOM     37  C   UNL     1       6.495   9.186   2.592  1.00  0.00     0.074 A 
ATOM     38  C   UNL     1       5.654   8.012   2.506  1.00  0.00     0.031 C 
ATOM     39  C   UNL     1       5.170  11.470   8.445  1.00  0.00     0.029 A 
ATOM     40  C   UNL     1       6.075  12.030   7.446  1.00  0.00     0.049 A 
ATOM     41  H   UNL     1       6.374  11.370   5.493  1.00  0.00     0.167 HD
ATOM     42  C   UNL     1       7.287   9.634   1.589  1.00  0.00     0.031 A 
ATOM     43  C   UNL     1       6.873  13.095   7.637  1.00  0.00     0.031 A 
ATOM     44  C   UNL     1       8.127  10.799   1.677  1.00  0.00     0.049 A 
ATOM     45  C   UNL     1       7.797  13.533   6.542  1.00  0.00     0.074 A 
ATOM     46  C   UNL     1       8.966  11.335   0.715  1.00  0.00     0.029 A 
ATOM     47  N   UNL     1       8.231  11.609   2.796  1.00  0.00    -0.354 N 
ATOM     48  N   UNL     1       7.979  13.003   5.357  1.00  0.00    -0.248 NA
ATOM     49  C   UNL     1       8.627  14.714   6.813  1.00  0.00     0.031 C 
ATOM     50  C   UNL     1       9.600  12.456   1.263  1.00  0.00     0.029 A 
ATOM     51  C   UNL     1       9.128  12.635   2.553  1.00  0.00     0.049 A 
ATOM     52  H   UNL     1       7.740  11.475   3.638  1.00  0.00     0.167 HD
ATOM     53  C   UNL     1       8.934  13.793   4.735  1.00  0.00     0.074 A 
ATOM     54  C   UNL     1       9.287  14.843   5.670  1.00  0.00     0.031 C 
ATOM     55  C   UNL     1       9.471  13.662   3.498  1.00  0.00     0.031 A 
BRANCH  42  56
ATOM     56  C   UNL     1       7.300   8.854   0.306  1.00  0.00    -0.014 A 
ATOM     57  C   UNL     1       6.255   8.975  -0.623  1.00  0.00     0.009 A 
ATOM     58  C   UNL     1       8.402   8.044  -0.009  1.00  0.00     0.009 A 
ATOM     59  C   UNL     1       6.309   8.287  -1.837  1.00  0.00     0.001 A 
ATOM     60  C   UNL     1       8.460   7.371  -1.230  1.00  0.00     0.001 A 
ATOM     61  C   UNL     1       7.412   7.490  -2.142  1.00  0.00     0.000 A 
ENDBRANCH  42  56
BRANCH  43  62
ATOM     62  C   UNL     1       6.858  13.780   8.951  1.00  0.00    -0.014 A 
ATOM     63  C   UNL     1       6.204  15.009   9.106  1.00  0.00     0.009 A 
ATOM     64  C   UNL     1       7.460  13.177  10.066  1.00  0.00     0.009 A 
ATOM     65  C   UNL     1       6.158  15.626  10.357  1.00  0.00     0.001 A 
ATOM     66  C   UNL     1       7.394  13.786  11.319  1.00  0.00     0.001 A 
ATOM     67  C   UNL     1       6.747  15.012  11.463  1.00  0.00     0.000 A 
ENDBRANCH  43  62
BRANCH  55  68
ATOM     68  C   UNL     1      10.473  14.696   3.083  1.00  0.00    -0.014 A 
ATOM     69  C   UNL     1      11.799  14.637   3.537  1.00  0.00     0.009 A 
ATOM     70  C   UNL     1      10.090  15.727   2.212  1.00  0.00     0.009 A 
ATOM     71  C   UNL     1      12.719  15.611   3.147  1.00  0.00     0.001 A 
ATOM     72  C   UNL     1      11.016  16.690   1.811  1.00  0.00     0.001 A 
ATOM     73  C   UNL     1      12.327  16.635   2.284  1.00  0.00     0.000 A 
ENDBRANCH  55  68
ENDBRANCH  29  30
ENDBRANCH  22  24
ENDBRANCH  21  22
ENDBRANCH  20  21
ENDBRANCH   1  20
TORSDOF 14
