REMARK SMILES O=C(OCCOC(=O)[C@@H]1[C@@H](C(=O)N2CC[NH+](C/C=C/c3ccccc3)CC2)[C@@H]2C=C[C@H]1C2)c1ccc(-c2c3nc(c(-c4ccccc4)c4ccc([nH]4)c(-c4ccccc4)c4nc(c(-c5ccccc5)c5ccc2[nH]5)C=C4)C=C3)cc1
REMARK SMILES IDX 5 1 4 2 3 3 2 4 1 5 33 6 34 7 80 8 35 9 79 10 36 11 37 12
REMARK SMILES IDX 38 13 73 14 39 15 78 16 72 17 74 18 40 19 77 20 71 21 70 22
REMARK SMILES IDX 41 24 63 25 48 26 62 27 49 28 52 29 61 30 75 31 50 32 51 33
REMARK SMILES IDX 60 35 76 36 53 37 42 38 43 39 47 40 44 41 46 42 45 43 64 44
REMARK SMILES IDX 65 45 69 46 66 47 68 48 67 49 54 50 55 51 59 52 56 53 58 54
REMARK SMILES IDX 57 55 6 56 7 57 8 58 9 59 10 60 31 61 28 62 30 63 32 64
REMARK SMILES IDX 29 65 11 66 12 67 13 68 14 69 27 70 15 71 26 72 16 73 17 75
REMARK SMILES IDX 18 76 19 77 20 78 21 79 25 80 22 81 24 82 23 83
REMARK H PARENT 74 23 52 34 16 74
REMARK Flexibility Score: inf
ROOT
ATOM      1  C   UNL     1       4.268  -2.081   0.181  1.00  0.00     0.274 C 
ENDROOT
BRANCH   1   2
ATOM      2  C   UNL     1       4.333  -0.738   0.958  1.00  0.00     0.275 C 
BRANCH   2   3
ATOM      3  O   UNL     1       3.098   0.020   0.876  1.00  0.00    -0.458 OA
BRANCH   3   4
ATOM      4  C   UNL     1       3.027   1.371   1.120  1.00  0.00     0.338 C 
ATOM      5  O   UNL     1       2.371   1.812   2.056  1.00  0.00    -0.246 OA
BRANCH   4   6
ATOM      6  C   UNL     1       3.374   2.277  -0.042  1.00  0.00     0.060 A 
ATOM      7  C   UNL     1       4.629   2.335  -0.619  1.00  0.00     0.016 A 
ATOM      8  C   UNL     1       2.389   3.107  -0.615  1.00  0.00     0.016 A 
ATOM      9  C   UNL     1       4.800   3.018  -1.854  1.00  0.00     0.010 A 
ATOM     10  C   UNL     1       2.542   3.691  -1.917  1.00  0.00     0.010 A 
ATOM     11  C   UNL     1       3.716   3.514  -2.657  1.00  0.00    -0.014 A 
BRANCH  11  12
ATOM     12  C   UNL     1       3.913   3.945  -4.243  1.00  0.00     0.031 A 
ATOM     13  C   UNL     1       4.747   5.244  -4.235  1.00  0.00     0.074 A 
ATOM     14  C   UNL     1       3.745   3.260  -5.481  1.00  0.00     0.049 A 
ATOM     15  N   UNL     1       5.543   5.796  -5.121  1.00  0.00    -0.248 NA
ATOM     16  C   UNL     1       4.750   5.937  -2.932  1.00  0.00     0.031 C 
ATOM     17  C   UNL     1       3.236   1.928  -5.957  1.00  0.00     0.029 A 
ATOM     18  N   UNL     1       4.242   3.643  -6.714  1.00  0.00    -0.354 N 
ATOM     19  C   UNL     1       6.217   6.813  -4.441  1.00  0.00     0.074 A 
ATOM     20  C   UNL     1       5.747   6.782  -3.074  1.00  0.00     0.031 C 
ATOM     21  C   UNL     1       3.783   1.522  -7.121  1.00  0.00     0.029 A 
ATOM     22  C   UNL     1       4.521   2.615  -7.717  1.00  0.00     0.049 A 
ATOM     23  H   UNL     1       4.406   4.593  -6.914  1.00  0.00     0.167 HD
ATOM     24  C   UNL     1       7.115   7.748  -4.841  1.00  0.00     0.031 A 
ATOM     25  C   UNL     1       5.333   2.565  -8.962  1.00  0.00     0.031 A 
ATOM     26  C   UNL     1       7.572   8.023  -6.176  1.00  0.00     0.049 A 
ATOM     27  C   UNL     1       6.715   3.982  -9.877  1.00  0.00     0.074 A 
ATOM     28  C   UNL     1       8.292   9.131  -6.595  1.00  0.00     0.029 A 
ATOM     29  N   UNL     1       7.353   7.255  -7.309  1.00  0.00    -0.354 N 
ATOM     30  N   UNL     1       7.495   5.002  -9.316  1.00  0.00    -0.248 NA
ATOM     31  C   UNL     1       7.055   4.399 -11.493  1.00  0.00     0.031 C 
ATOM     32  C   UNL     1       8.455   9.059  -7.980  1.00  0.00     0.029 A 
ATOM     33  C   UNL     1       7.925   7.859  -8.422  1.00  0.00     0.049 A 
ATOM     34  H   UNL     1       6.861   6.402  -7.323  1.00  0.00     0.167 HD
ATOM     35  C   UNL     1       7.734   6.059 -10.145  1.00  0.00     0.074 A 
ATOM     36  C   UNL     1       7.621   5.595 -11.482  1.00  0.00     0.031 C 
ATOM     37  C   UNL     1       7.897   7.352  -9.772  1.00  0.00     0.031 A 
BRANCH  24  38
ATOM     38  C   UNL     1       7.524   8.712  -3.748  1.00  0.00    -0.014 A 
ATOM     39  C   UNL     1       8.467   8.369  -2.764  1.00  0.00     0.009 A 
ATOM     40  C   UNL     1       6.819   9.921  -3.630  1.00  0.00     0.009 A 
ATOM     41  C   UNL     1       8.660   9.204  -1.660  1.00  0.00     0.001 A 
ATOM     42  C   UNL     1       7.032  10.761  -2.540  1.00  0.00     0.001 A 
ATOM     43  C   UNL     1       7.941  10.396  -1.548  1.00  0.00     0.000 A 
ENDBRANCH  24  38
BRANCH  25  44
ATOM     44  C   UNL     1       4.639   1.110  -9.690  1.00  0.00    -0.014 A 
ATOM     45  C   UNL     1       5.341  -0.075 -10.059  1.00  0.00     0.009 A 
ATOM     46  C   UNL     1       3.278   1.161 -10.103  1.00  0.00     0.009 A 
ATOM     47  C   UNL     1       4.795  -1.009 -10.962  1.00  0.00     0.001 A 
ATOM     48  C   UNL     1       2.707   0.169 -10.918  1.00  0.00     0.001 A 
ATOM     49  C   UNL     1       3.482  -0.883 -11.396  1.00  0.00     0.000 A 
ENDBRANCH  25  44
BRANCH  37  50
ATOM     50  C   UNL     1       8.203   8.281 -10.893  1.00  0.00    -0.014 A 
ATOM     51  C   UNL     1       7.206   8.844 -11.701  1.00  0.00     0.009 A 
ATOM     52  C   UNL     1       9.555   8.495 -11.191  1.00  0.00     0.009 A 
ATOM     53  C   UNL     1       7.574   9.571 -12.834  1.00  0.00     0.001 A 
ATOM     54  C   UNL     1       9.915   9.230 -12.312  1.00  0.00     0.001 A 
ATOM     55  C   UNL     1       8.925   9.754 -13.140  1.00  0.00     0.000 A 
ENDBRANCH  37  50
ENDBRANCH  11  12
ENDBRANCH   4   6
ENDBRANCH   3   4
ENDBRANCH   2   3
ENDBRANCH   1   2
BRANCH   1  56
ATOM     56  O   UNL     1       3.735  -1.910  -1.133  1.00  0.00    -0.462 OA
BRANCH  56  57
ATOM     57  C   UNL     1       2.424  -2.252  -1.345  1.00  0.00     0.310 C 
ATOM     58  O   UNL     1       1.779  -3.047  -0.685  1.00  0.00    -0.252 OA
BRANCH  57  59
ATOM     59  C   UNL     1       1.928  -1.466  -2.532  1.00  0.00     0.119 C 
ATOM     60  C   UNL     1       2.482  -0.059  -2.338  1.00  0.00     0.100 C 
ATOM     61  C   UNL     1       0.380  -1.234  -2.607  1.00  0.00     0.027 C 
ATOM     62  C   UNL     1       1.141   0.832  -2.508  1.00  0.00     0.025 C 
ATOM     63  C   UNL     1      -0.183  -0.604  -1.345  1.00  0.00    -0.027 C 
ATOM     64  C   UNL     1       0.325   0.013  -3.496  1.00  0.00     0.017 C 
ATOM     65  C   UNL     1       0.265   0.654  -1.294  1.00  0.00    -0.027 C 
BRANCH  60  66
ATOM     66  C   UNL     1       3.612   0.441  -3.208  1.00  0.00     0.227 C 
ATOM     67  O   UNL     1       3.199   1.483  -3.687  1.00  0.00    -0.275 OA
ATOM     68  N   UNL     1       4.946   0.152  -3.430  1.00  0.00    -0.331 N 
ATOM     69  C   UNL     1       5.776   1.202  -4.083  1.00  0.00     0.181 C 
ATOM     70  C   UNL     1       5.526  -1.136  -3.774  1.00  0.00     0.181 C 
ATOM     71  C   UNL     1       7.231   1.253  -3.623  1.00  0.00     0.284 C 
ATOM     72  C   UNL     1       7.114  -1.144  -3.732  1.00  0.00     0.284 C 
ATOM     73  N   UNL     1       7.899   0.060  -4.099  1.00  0.00    -0.329 N 
ATOM     74  H   UNL     1       8.767  -0.141  -3.602  1.00  0.00     0.348 HD
BRANCH  73  75
ATOM     75  C   UNL     1       8.552   0.230  -5.411  1.00  0.00     0.291 C 
BRANCH  75  76
ATOM     76  C   UNL     1       7.832   0.919  -6.573  1.00  0.00     0.034 C 
ATOM     77  C   UNL     1       8.174   2.095  -7.160  1.00  0.00     0.009 C 
BRANCH  77  78
ATOM     78  C   UNL     1       7.391   2.722  -8.258  1.00  0.00    -0.026 A 
ATOM     79  C   UNL     1       7.260   1.972  -9.864  1.00  0.00     0.008 A 
ATOM     80  C   UNL     1       6.315   4.104  -7.848  1.00  0.00     0.008 A 
ATOM     81  C   UNL     1       5.955   2.450 -11.035  1.00  0.00     0.001 A 
ATOM     82  C   UNL     1       5.010   4.681  -9.043  1.00  0.00     0.001 A 
ATOM     83  C   UNL     1       4.794   3.800 -10.613  1.00  0.00     0.000 A 
ENDBRANCH  77  78
ENDBRANCH  75  76
ENDBRANCH  73  75
ENDBRANCH  60  66
ENDBRANCH  57  59
ENDBRANCH  56  57
ENDBRANCH   1  56
TORSDOF 15
