REMARK SMILES Cc1c(CC(=O)N[C@H](CO)C(=O)OCCOC(=O)c2ccc(-c3c4nc(c(-c5ccccc5)c5ccc([nH]5)c(-c5ccccc5)c5nc(c(-c6ccccc6)c6ccc3[nH]6)C=C5)C=C4)cc2)cc(-c2ccc(S(C)(=O)=O)cc2)n1-c1cccc(F)c1
REMARK SMILES IDX 13 1 11 2 12 3 8 4 7 5 5 6 6 7 4 9 3 10 1 11 2 12 79 13
REMARK SMILES IDX 67 14 68 15 80 16 81 17 86 18 82 19 84 20 83 21 85 22 69 23
REMARK SMILES IDX 70 24 78 25 71 26 77 27 72 28 73 29 74 30 75 31 76 32 9 33
REMARK SMILES IDX 10 34 14 36 15 37 16 38 17 39 18 40 19 41 20 42 66 43 21 44
REMARK SMILES IDX 65 45 22 46 23 47 24 48 59 49 25 50 64 51 58 52 60 53 26 54
REMARK SMILES IDX 63 55 57 56 56 57 27 59 49 60 34 61 48 62 35 63 38 64 47 65
REMARK SMILES IDX 61 66 36 67 37 68 46 70 62 71 39 72 28 73 29 74 33 75 30 76
REMARK SMILES IDX 32 77 31 78 50 79 51 80 55 81 52 82 54 83 53 84 40 85 41 86
REMARK SMILES IDX 45 87 42 88 44 89 43 90
REMARK H PARENT 7 8 10 35 60 58 38 69
REMARK Flexibility Score: inf
ROOT
ATOM      1  O   UNL     1       4.381  -5.567  -1.265  1.00  0.00    -0.460 OA
ENDROOT
BRANCH   1   2
ATOM      2  C   UNL     1       3.478  -5.069  -2.147  1.00  0.00     0.331 C 
ATOM      3  O   UNL     1       3.018  -5.707  -3.089  1.00  0.00    -0.250 OA
BRANCH   2   4
ATOM      4  C   UNL     1       3.160  -3.577  -1.918  1.00  0.00     0.218 C 
BRANCH   4   5
ATOM      5  N   UNL     1       3.435  -2.719  -3.091  1.00  0.00    -0.341 N 
ATOM      6  C   UNL     1       4.612  -2.350  -3.675  1.00  0.00     0.225 C 
ATOM      7  O   UNL     1       4.582  -1.391  -4.452  1.00  0.00    -0.275 OA
ATOM      8  H   UNL     1       2.631  -2.350  -3.524  1.00  0.00     0.164 HD
BRANCH   6   9
ATOM      9  C   UNL     1       5.893  -3.137  -3.459  1.00  0.00     0.137 C 
BRANCH   9  10
ATOM     10  C   UNL     1       6.669  -2.776  -2.228  1.00  0.00    -0.017 A 
ATOM     11  C   UNL     1       7.507  -0.402  -2.814  1.00  0.00     0.065 C 
ATOM     12  C   UNL     1       7.340  -1.594  -1.925  1.00  0.00     0.024 A 
ATOM     13  N   UNL     1       7.957  -1.741  -0.679  1.00  0.00    -0.313 N 
ATOM     14  C   UNL     1       6.950  -3.668  -1.171  1.00  0.00     0.033 A 
ATOM     15  C   UNL     1       7.672  -3.015  -0.197  1.00  0.00     0.053 A 
BRANCH  13  16
ATOM     16  C   UNL     1       8.772  -0.791  -0.008  1.00  0.00     0.049 A 
ATOM     17  C   UNL     1      10.019  -1.191   0.500  1.00  0.00     0.027 A 
ATOM     18  C   UNL     1       8.302   0.504   0.213  1.00  0.00     0.065 A 
ATOM     19  C   UNL     1      10.793  -0.295   1.239  1.00  0.00     0.005 A 
ATOM     20  C   UNL     1       9.077   1.375   0.971  1.00  0.00     0.125 A 
ATOM     21  C   UNL     1      10.313   0.989   1.485  1.00  0.00     0.039 A 
ATOM     22  F   UNL     1       8.615   2.605   1.235  1.00  0.00    -0.207 F 
ENDBRANCH  13  16
BRANCH  15  23
ATOM     23  C   UNL     1       7.986  -3.547   1.133  1.00  0.00    -0.001 A 
ATOM     24  C   UNL     1       7.488  -2.933   2.291  1.00  0.00     0.011 A 
ATOM     25  C   UNL     1       8.698  -4.749   1.245  1.00  0.00     0.011 A 
ATOM     26  C   UNL     1       7.706  -3.508   3.546  1.00  0.00     0.021 A 
ATOM     27  C   UNL     1       8.925  -5.326   2.494  1.00  0.00     0.021 A 
ATOM     28  C   UNL     1       8.433  -4.699   3.639  1.00  0.00     0.067 A 
BRANCH  28  29
ATOM     29  S   UNL     1       8.686  -5.434   5.237  1.00  0.00     0.175 S 
ATOM     30  C   UNL     1       9.768  -4.294   6.058  1.00  0.00     0.163 C 
ATOM     31  O   UNL     1       7.421  -5.443   5.917  1.00  0.00    -0.224 OA
ATOM     32  O   UNL     1       9.440  -6.672   5.032  1.00  0.00    -0.224 OA
ENDBRANCH  28  29
ENDBRANCH  15  23
ENDBRANCH   9  10
ENDBRANCH   6   9
ENDBRANCH   4   5
BRANCH   4  33
ATOM     33  C   UNL     1       3.635  -2.927  -0.607  1.00  0.00     0.193 C 
BRANCH  33  34
ATOM     34  O   UNL     1       2.521  -2.385   0.118  1.00  0.00    -0.394 OA
ATOM     35  H   UNL     1       2.082  -1.708  -0.422  1.00  0.00     0.210 HD
ENDBRANCH  33  34
ENDBRANCH   4  33
ENDBRANCH   2   4
ENDBRANCH   1   2
BRANCH   1  36
ATOM     36  C   UNL     1       4.945  -6.868  -1.557  1.00  0.00     0.274 C 
BRANCH  36  37
ATOM     37  C   UNL     1       5.428  -7.528  -0.256  1.00  0.00     0.275 C 
BRANCH  37  38
ATOM     38  O   UNL     1       4.634  -8.678   0.145  1.00  0.00    -0.458 OA
BRANCH  38  39
ATOM     39  C   UNL     1       3.779  -8.504   1.191  1.00  0.00     0.338 C 
ATOM     40  O   UNL     1       3.462  -7.433   1.676  1.00  0.00    -0.246 OA
BRANCH  39  41
ATOM     41  C   UNL     1       3.283  -9.833   1.686  1.00  0.00     0.060 A 
ATOM     42  C   UNL     1       2.213 -10.439   1.048  1.00  0.00     0.016 A 
ATOM     43  C   UNL     1       3.777 -10.453   2.850  1.00  0.00     0.016 A 
ATOM     44  C   UNL     1       1.689 -11.659   1.548  1.00  0.00     0.010 A 
ATOM     45  C   UNL     1       3.198 -11.663   3.387  1.00  0.00     0.010 A 
ATOM     46  C   UNL     1       2.124 -12.310   2.755  1.00  0.00    -0.014 A 
BRANCH  46  47
ATOM     47  C   UNL     1       1.097 -13.295   3.425  1.00  0.00     0.031 A 
ATOM     48  C   UNL     1      -0.191 -12.547   3.393  1.00  0.00     0.074 A 
ATOM     49  C   UNL     1       1.041 -14.498   4.105  1.00  0.00     0.049 A 
ATOM     50  N   UNL     1      -0.285 -11.396   3.992  1.00  0.00    -0.248 NA
ATOM     51  C   UNL     1      -1.249 -12.831   2.423  1.00  0.00     0.031 C 
ATOM     52  C   UNL     1       2.158 -15.360   4.513  1.00  0.00     0.029 A 
ATOM     53  N   UNL     1      -0.058 -15.259   4.588  1.00  0.00    -0.354 N 
ATOM     54  C   UNL     1      -1.524 -10.896   3.672  1.00  0.00     0.074 A 
ATOM     55  C   UNL     1      -1.973 -11.715   2.553  1.00  0.00     0.031 C 
ATOM     56  C   UNL     1       1.710 -16.543   5.024  1.00  0.00     0.029 A 
ATOM     57  C   UNL     1       0.250 -16.573   5.061  1.00  0.00     0.049 A 
ATOM     58  H   UNL     1      -0.975 -14.902   4.598  1.00  0.00     0.167 HD
ATOM     59  C   UNL     1      -2.271 -10.413   4.705  1.00  0.00     0.031 A 
ATOM     60  C   UNL     1      -0.579 -17.591   5.500  1.00  0.00     0.031 A 
ATOM     61  C   UNL     1      -3.253 -11.372   5.136  1.00  0.00     0.049 A 
ATOM     62  C   UNL     1      -1.837 -16.970   5.934  1.00  0.00     0.074 A 
ATOM     63  C   UNL     1      -4.180 -12.134   4.452  1.00  0.00     0.029 A 
ATOM     64  N   UNL     1      -3.031 -12.004   6.343  1.00  0.00    -0.354 N 
ATOM     65  N   UNL     1      -1.942 -16.391   7.091  1.00  0.00    -0.248 NA
ATOM     66  C   UNL     1      -3.070 -17.056   5.161  1.00  0.00     0.031 C 
ATOM     67  C   UNL     1      -4.092 -13.419   5.034  1.00  0.00     0.029 A 
ATOM     68  C   UNL     1      -3.413 -13.328   6.242  1.00  0.00     0.049 A 
ATOM     69  H   UNL     1      -2.660 -11.577   7.149  1.00  0.00     0.167 HD
ATOM     70  C   UNL     1      -3.033 -15.593   6.926  1.00  0.00     0.074 A 
ATOM     71  C   UNL     1      -3.827 -16.243   5.901  1.00  0.00     0.031 C 
ATOM     72  C   UNL     1      -2.885 -14.273   7.200  1.00  0.00     0.031 A 
BRANCH  59  73
ATOM     73  C   UNL     1      -1.528  -9.488   5.627  1.00  0.00    -0.014 A 
ATOM     74  C   UNL     1      -1.853  -8.127   5.625  1.00  0.00     0.009 A 
ATOM     75  C   UNL     1      -0.409  -9.907   6.374  1.00  0.00     0.009 A 
ATOM     76  C   UNL     1      -1.038  -7.205   6.292  1.00  0.00     0.001 A 
ATOM     77  C   UNL     1       0.422  -8.984   7.007  1.00  0.00     0.001 A 
ATOM     78  C   UNL     1       0.112  -7.630   6.957  1.00  0.00     0.000 A 
ENDBRANCH  59  73
BRANCH  60  79
ATOM     79  C   UNL     1      -0.594 -19.080   5.854  1.00  0.00    -0.014 A 
ATOM     80  C   UNL     1      -1.516 -19.554   6.843  1.00  0.00     0.009 A 
ATOM     81  C   UNL     1      -0.054 -20.067   5.024  1.00  0.00     0.009 A 
ATOM     82  C   UNL     1      -1.967 -20.883   6.915  1.00  0.00     0.001 A 
ATOM     83  C   UNL     1      -0.481 -21.417   5.119  1.00  0.00     0.001 A 
ATOM     84  C   UNL     1      -1.460 -21.817   6.032  1.00  0.00     0.000 A 
ENDBRANCH  60  79
BRANCH  72  85
ATOM     85  C   UNL     1      -1.987 -13.906   8.373  1.00  0.00    -0.014 A 
ATOM     86  C   UNL     1      -0.698 -14.436   8.608  1.00  0.00     0.009 A 
ATOM     87  C   UNL     1      -2.497 -13.027   9.338  1.00  0.00     0.009 A 
ATOM     88  C   UNL     1       0.006 -14.171   9.789  1.00  0.00     0.001 A 
ATOM     89  C   UNL     1      -1.773 -12.720  10.497  1.00  0.00     0.001 A 
ATOM     90  C   UNL     1      -0.534 -13.310  10.734  1.00  0.00     0.000 A 
ENDBRANCH  72  85
ENDBRANCH  46  47
ENDBRANCH  39  41
ENDBRANCH  38  39
ENDBRANCH  37  38
ENDBRANCH  36  37
ENDBRANCH   1  36
TORSDOF 19
