REMARK SMILES C[C@@H]1CC[C@H](C)[N@H+]1Cc1cc2c(cc1Cl)C=C(C(=O)OCCOC(=O)c1ccc(-c3c4nc(c(-c5ccccc5)c5ccc([nH]5)c(-c5ccccc5)c5nc(c(-c6ccccc6)c6ccc3[nH]6)C=C5)C=C4)cc1)[C@@H](C(F)(F)F)O2
REMARK SMILES IDX 21 1 20 2 18 3 19 4 17 5 9 6 10 7 14 8 11 9 13 10 15 11
REMARK SMILES IDX 12 12 79 13 16 14 74 15 8 16 7 17 6 18 5 19 4 20 3 21 2 22
REMARK SMILES IDX 1 24 75 25 76 26 77 27 78 28 22 29 23 30 24 31 25 32 26 33
REMARK SMILES IDX 27 34 73 35 28 36 72 37 29 38 30 39 31 40 66 41 32 42 71 43
REMARK SMILES IDX 65 44 67 45 33 46 70 47 64 48 63 49 34 51 56 52 41 53 55 54
REMARK SMILES IDX 42 55 45 56 54 57 68 58 43 59 44 60 53 62 69 63 46 64 35 65
REMARK SMILES IDX 36 66 40 67 37 68 39 69 38 70 57 71 58 72 62 73 59 74 61 75
REMARK SMILES IDX 60 76 47 77 48 78 52 79 49 80 51 81 50 82
REMARK H PARENT 7 23 67 50 45 61
REMARK Flexibility Score: inf
ROOT
ATOM      1  C   UNL     1      -9.446   1.620   2.666  1.00  0.00     0.275 C 
ENDROOT
BRANCH   1   2
ATOM      2  O   UNL     1      -8.164   1.335   2.063  1.00  0.00    -0.459 OA
BRANCH   2   3
ATOM      3  C   UNL     1      -7.675   2.330   1.291  1.00  0.00     0.338 C 
ATOM      4  O   UNL     1      -8.221   3.401   1.065  1.00  0.00    -0.246 OA
BRANCH   3   5
ATOM      5  C   UNL     1      -6.334   2.015   0.770  1.00  0.00     0.087 C 
ATOM      6  C   UNL     1      -1.726   2.630  -1.162  1.00  0.00     0.029 A 
ATOM      7  C   UNL     1      -2.565   1.500  -0.967  1.00  0.00     0.058 A 
ATOM      8  C   UNL     1      -2.242   3.896  -0.852  1.00  0.00     0.050 A 
ATOM      9  C   UNL     1      -3.827   1.631  -0.387  1.00  0.00     0.128 A 
ATOM     10  C   UNL     1      -3.447   4.011  -0.172  1.00  0.00     0.033 A 
ATOM     11  Cl  UNL     1      -1.518   5.380  -1.361  1.00  0.00    -0.084 Cl
ATOM     12  C   UNL     1      -4.219   2.878   0.077  1.00  0.00     0.019 A 
ATOM     13  O   UNL     1      -4.620   0.519  -0.256  1.00  0.00    -0.475 OA
ATOM     14  C   UNL     1      -5.461   3.025   0.790  1.00  0.00     0.027 C 
ATOM     15  C   UNL     1      -6.045   0.736   0.039  1.00  0.00     0.316 C 
BRANCH   6  16
ATOM     16  C   UNL     1      -0.299   2.426  -1.641  1.00  0.00     0.301 C 
BRANCH  16  17
ATOM     17  N   UNL     1       0.736   2.320  -0.598  1.00  0.00    -0.327 N 
ATOM     18  C   UNL     1       1.096  -0.059  -0.023  1.00  0.00     0.075 C 
ATOM     19  C   UNL     1       0.537   1.283   0.424  1.00  0.00     0.181 C 
ATOM     20  C   UNL     1       1.261   1.814   1.659  1.00  0.00     0.071 C 
ATOM     21  C   UNL     1       1.034   3.307   1.555  1.00  0.00     0.071 C 
ATOM     22  C   UNL     1       1.135   3.573   0.057  1.00  0.00     0.181 C 
ATOM     23  H   UNL     1       1.510   2.020  -1.190  1.00  0.00     0.348 HD
ATOM     24  C   UNL     1       2.560   3.932  -0.365  1.00  0.00     0.075 C 
ENDBRANCH  16  17
ENDBRANCH   6  16
BRANCH  15  25
ATOM     25  C   UNL     1      -6.881   0.665  -1.251  1.00  0.00     0.430 C 
ATOM     26  F   UNL     1      -6.640  -0.472  -1.943  1.00  0.00    -0.167 F 
ATOM     27  F   UNL     1      -8.209   0.676  -0.972  1.00  0.00    -0.167 F 
ATOM     28  F   UNL     1      -6.638   1.706  -2.079  1.00  0.00    -0.167 F 
ENDBRANCH  15  25
ENDBRANCH   3   5
ENDBRANCH   2   3
ENDBRANCH   1   2
BRANCH   1  29
ATOM     29  C   UNL     1      -9.305   2.093   4.115  1.00  0.00     0.275 C 
BRANCH  29  30
ATOM     30  O   UNL     1      -8.666   3.382   4.183  1.00  0.00    -0.458 OA
BRANCH  30  31
ATOM     31  C   UNL     1      -7.407   3.379   4.676  1.00  0.00     0.338 C 
ATOM     32  O   UNL     1      -6.760   2.418   5.054  1.00  0.00    -0.246 OA
BRANCH  31  33
ATOM     33  C   UNL     1      -6.845   4.739   4.646  1.00  0.00     0.060 A 
ATOM     34  C   UNL     1      -6.508   5.404   5.819  1.00  0.00     0.016 A 
ATOM     35  C   UNL     1      -6.477   5.276   3.419  1.00  0.00     0.016 A 
ATOM     36  C   UNL     1      -5.806   6.614   5.742  1.00  0.00     0.010 A 
ATOM     37  C   UNL     1      -5.630   6.380   3.355  1.00  0.00     0.010 A 
ATOM     38  C   UNL     1      -5.311   7.097   4.513  1.00  0.00    -0.014 A 
BRANCH  38  39
ATOM     39  C   UNL     1      -4.492   8.347   4.434  1.00  0.00     0.031 A 
ATOM     40  C   UNL     1      -4.881   9.480   3.507  1.00  0.00     0.074 A 
ATOM     41  C   UNL     1      -3.375   8.470   5.183  1.00  0.00     0.049 A 
ATOM     42  N   UNL     1      -4.299  10.644   3.338  1.00  0.00    -0.248 NA
ATOM     43  C   UNL     1      -6.043   9.274   2.625  1.00  0.00     0.031 C 
ATOM     44  C   UNL     1      -2.816   7.432   6.053  1.00  0.00     0.029 A 
ATOM     45  N   UNL     1      -2.521   9.535   5.359  1.00  0.00    -0.354 N 
ATOM     46  C   UNL     1      -5.001  11.278   2.319  1.00  0.00     0.074 A 
ATOM     47  C   UNL     1      -6.003  10.350   1.854  1.00  0.00     0.031 C 
ATOM     48  C   UNL     1      -1.781   7.939   6.739  1.00  0.00     0.029 A 
ATOM     49  C   UNL     1      -1.566   9.322   6.326  1.00  0.00     0.049 A 
ATOM     50  H   UNL     1      -2.588  10.370   4.841  1.00  0.00     0.167 HD
ATOM     51  C   UNL     1      -4.866  12.538   1.841  1.00  0.00     0.031 A 
ATOM     52  C   UNL     1      -0.637  10.149   6.846  1.00  0.00     0.031 A 
ATOM     53  C   UNL     1      -3.923  13.496   2.346  1.00  0.00     0.049 A 
ATOM     54  C   UNL     1      -0.546  11.565   6.350  1.00  0.00     0.074 A 
ATOM     55  C   UNL     1      -3.769  14.823   1.983  1.00  0.00     0.029 A 
ATOM     56  N   UNL     1      -2.991  13.238   3.337  1.00  0.00    -0.354 N 
ATOM     57  N   UNL     1      -1.272  12.166   5.440  1.00  0.00    -0.248 NA
ATOM     58  C   UNL     1       0.483  12.421   6.960  1.00  0.00     0.031 C 
ATOM     59  C   UNL     1      -2.718  15.359   2.729  1.00  0.00     0.029 A 
ATOM     60  C   UNL     1      -2.254  14.380   3.593  1.00  0.00     0.049 A 
ATOM     61  H   UNL     1      -2.871  12.373   3.791  1.00  0.00     0.167 HD
ATOM     62  C   UNL     1      -0.802  13.472   5.380  1.00  0.00     0.074 A 
ATOM     63  C   UNL     1       0.257  13.583   6.361  1.00  0.00     0.031 C 
ATOM     64  C   UNL     1      -1.211  14.483   4.579  1.00  0.00     0.031 A 
BRANCH  51  65
ATOM     65  C   UNL     1      -5.795  12.983   0.742  1.00  0.00    -0.014 A 
ATOM     66  C   UNL     1      -5.287  13.277  -0.533  1.00  0.00     0.009 A 
ATOM     67  C   UNL     1      -7.160  13.196   0.994  1.00  0.00     0.009 A 
ATOM     68  C   UNL     1      -6.125  13.782  -1.530  1.00  0.00     0.001 A 
ATOM     69  C   UNL     1      -8.002  13.669  -0.014  1.00  0.00     0.001 A 
ATOM     70  C   UNL     1      -7.482  13.971  -1.272  1.00  0.00     0.000 A 
ENDBRANCH  51  65
BRANCH  52  71
ATOM     71  C   UNL     1       0.233   9.674   7.957  1.00  0.00    -0.014 A 
ATOM     72  C   UNL     1       1.233   8.714   7.733  1.00  0.00     0.009 A 
ATOM     73  C   UNL     1       0.036  10.154   9.261  1.00  0.00     0.009 A 
ATOM     74  C   UNL     1       2.004   8.234   8.794  1.00  0.00     0.001 A 
ATOM     75  C   UNL     1       0.829   9.693  10.315  1.00  0.00     0.001 A 
ATOM     76  C   UNL     1       1.805   8.727  10.083  1.00  0.00     0.000 A 
ENDBRANCH  52  71
BRANCH  64  77
ATOM     77  C   UNL     1      -0.535  15.816   4.721  1.00  0.00    -0.014 A 
ATOM     78  C   UNL     1      -1.247  16.904   5.251  1.00  0.00     0.009 A 
ATOM     79  C   UNL     1       0.758  16.026   4.219  1.00  0.00     0.009 A 
ATOM     80  C   UNL     1      -0.685  18.181   5.260  1.00  0.00     0.001 A 
ATOM     81  C   UNL     1       1.328  17.300   4.254  1.00  0.00     0.001 A 
ATOM     82  C   UNL     1       0.603  18.377   4.763  1.00  0.00     0.000 A 
ENDBRANCH  64  77
ENDBRANCH  38  39
ENDBRANCH  31  33
ENDBRANCH  30  31
ENDBRANCH  29  30
ENDBRANCH   1  29
TORSDOF 14
