REMARK SMILES Cc1cc(C)c2c(c1)C=C(C(=O)OCCOC(=O)c1ccc(-c3c4nc(c(-c5ccccc5)c5ccc([nH]5)c(-c5ccccc5)c5nc(c(-c6ccccc6)c6ccc3[nH]6)C=C5)C=C4)cc1)[C@@H](C(F)(F)F)O2
REMARK SMILES IDX 15 1 14 2 13 3 11 4 12 5 10 6 1 7 2 8 3 9 8 10 4 11 7 12
REMARK SMILES IDX 5 13 6 14 9 15 72 16 67 17 68 18 69 19 70 20 71 21 16 22
REMARK SMILES IDX 17 23 18 24 19 25 20 26 66 27 21 28 65 29 22 30 23 31 24 32
REMARK SMILES IDX 59 33 25 34 64 35 58 36 60 37 26 38 63 39 57 40 56 41 27 43
REMARK SMILES IDX 49 44 34 45 48 46 35 47 38 48 47 49 61 50 36 51 37 52 46 54
REMARK SMILES IDX 62 55 39 56 28 57 29 58 33 59 30 60 32 61 31 62 50 63 51 64
REMARK SMILES IDX 55 65 52 66 54 67 53 68 40 69 41 70 45 71 42 72 44 73 43 74
REMARK H PARENT 60 42 38 53
REMARK Flexibility Score: inf
ROOT
ATOM      1  C   UNL     1      -3.737   3.231  -8.179  1.00  0.00     0.275 C 
ENDROOT
BRANCH   1   2
ATOM      2  C   UNL     1      -2.626   2.297  -8.659  1.00  0.00     0.275 C 
BRANCH   2   3
ATOM      3  O   UNL     1      -2.300   1.315  -7.651  1.00  0.00    -0.459 OA
BRANCH   3   4
ATOM      4  C   UNL     1      -1.174   1.563  -6.944  1.00  0.00     0.338 C 
ATOM      5  O   UNL     1      -0.414   2.509  -7.087  1.00  0.00    -0.246 OA
BRANCH   4   6
ATOM      6  C   UNL     1      -0.970   0.527  -5.917  1.00  0.00     0.087 C 
ATOM      7  C   UNL     1       0.850  -0.120  -0.070  1.00  0.00     0.044 C 
ATOM      8  C   UNL     1       0.409  -0.571  -1.432  1.00  0.00    -0.050 A 
ATOM      9  C   UNL     1       0.482  -1.921  -1.795  1.00  0.00     0.010 A 
ATOM     10  C   UNL     1      -0.014   0.360  -2.383  1.00  0.00     0.015 A 
ATOM     11  C   UNL     1       0.115  -2.349  -3.083  1.00  0.00    -0.008 A 
ATOM     12  C   UNL     1      -0.368  -0.053  -3.674  1.00  0.00     0.018 A 
ATOM     13  C   UNL     1       0.209  -3.803  -3.446  1.00  0.00     0.048 C 
ATOM     14  C   UNL     1      -0.313  -1.402  -4.025  1.00  0.00     0.130 A 
ATOM     15  C   UNL     1      -0.748   0.934  -4.663  1.00  0.00     0.027 C 
ATOM     16  O   UNL     1      -0.675  -1.861  -5.264  1.00  0.00    -0.475 OA
ATOM     17  C   UNL     1      -0.867  -0.907  -6.344  1.00  0.00     0.316 C 
BRANCH  17  18
ATOM     18  C   UNL     1       0.244  -1.101  -7.388  1.00  0.00     0.430 C 
ATOM     19  F   UNL     1       0.355  -2.400  -7.757  1.00  0.00    -0.167 F 
ATOM     20  F   UNL     1      -0.013  -0.401  -8.520  1.00  0.00    -0.167 F 
ATOM     21  F   UNL     1       1.453  -0.703  -6.933  1.00  0.00    -0.167 F 
ENDBRANCH  17  18
ENDBRANCH   4   6
ENDBRANCH   3   4
ENDBRANCH   2   3
ENDBRANCH   1   2
BRANCH   1  22
ATOM     22  O   UNL     1      -3.264   4.037  -7.084  1.00  0.00    -0.458 OA
BRANCH  22  23
ATOM     23  C   UNL     1      -3.826   3.779  -5.882  1.00  0.00     0.338 C 
ATOM     24  O   UNL     1      -4.717   2.986  -5.632  1.00  0.00    -0.246 OA
BRANCH  23  25
ATOM     25  C   UNL     1      -3.162   4.573  -4.835  1.00  0.00     0.060 A 
ATOM     26  C   UNL     1      -1.808   4.371  -4.594  1.00  0.00     0.016 A 
ATOM     27  C   UNL     1      -3.909   5.374  -3.974  1.00  0.00     0.016 A 
ATOM     28  C   UNL     1      -1.236   4.825  -3.410  1.00  0.00     0.010 A 
ATOM     29  C   UNL     1      -3.289   5.958  -2.862  1.00  0.00     0.010 A 
ATOM     30  C   UNL     1      -1.959   5.643  -2.530  1.00  0.00    -0.014 A 
BRANCH  30  31
ATOM     31  C   UNL     1      -1.329   6.118  -1.261  1.00  0.00     0.031 A 
ATOM     32  C   UNL     1      -1.981   5.841   0.073  1.00  0.00     0.074 A 
ATOM     33  C   UNL     1      -0.136   6.751  -1.290  1.00  0.00     0.049 A 
ATOM     34  N   UNL     1      -1.636   6.265   1.264  1.00  0.00    -0.248 NA
ATOM     35  C   UNL     1      -3.182   4.989   0.073  1.00  0.00     0.031 C 
ATOM     36  C   UNL     1       0.642   7.045  -2.496  1.00  0.00     0.029 A 
ATOM     37  N   UNL     1       0.652   7.231  -0.271  1.00  0.00    -0.354 N 
ATOM     38  C   UNL     1      -2.603   5.780   2.139  1.00  0.00     0.074 A 
ATOM     39  C   UNL     1      -3.558   5.042   1.343  1.00  0.00     0.031 C 
ATOM     40  C   UNL     1       1.826   7.567  -2.144  1.00  0.00     0.029 A 
ATOM     41  C   UNL     1       1.851   7.752  -0.698  1.00  0.00     0.049 A 
ATOM     42  H   UNL     1       0.383   7.205   0.676  1.00  0.00     0.167 HD
ATOM     43  C   UNL     1      -2.685   5.928   3.483  1.00  0.00     0.031 A 
ATOM     44  C   UNL     1       2.851   8.345  -0.018  1.00  0.00     0.031 A 
ATOM     45  C   UNL     1      -1.709   6.614   4.285  1.00  0.00     0.049 A 
ATOM     46  C   UNL     1       2.707   8.549   1.462  1.00  0.00     0.074 A 
ATOM     47  C   UNL     1      -1.705   6.808   5.656  1.00  0.00     0.029 A 
ATOM     48  N   UNL     1      -0.554   7.200   3.794  1.00  0.00    -0.354 N 
ATOM     49  N   UNL     1       1.754   8.135   2.261  1.00  0.00    -0.248 NA
ATOM     50  C   UNL     1       3.760   9.329   2.129  1.00  0.00     0.031 C 
ATOM     51  C   UNL     1      -0.567   7.548   5.989  1.00  0.00     0.029 A 
ATOM     52  C   UNL     1       0.161   7.772   4.832  1.00  0.00     0.049 A 
ATOM     53  H   UNL     1      -0.281   7.207   2.848  1.00  0.00     0.167 HD
ATOM     54  C   UNL     1       2.092   8.603   3.523  1.00  0.00     0.074 A 
ATOM     55  C   UNL     1       3.350   9.307   3.390  1.00  0.00     0.031 C 
ATOM     56  C   UNL     1       1.411   8.470   4.685  1.00  0.00     0.031 A 
BRANCH  43  57
ATOM     57  C   UNL     1      -3.886   5.351   4.181  1.00  0.00    -0.014 A 
ATOM     58  C   UNL     1      -4.027   3.969   4.375  1.00  0.00     0.009 A 
ATOM     59  C   UNL     1      -4.859   6.214   4.713  1.00  0.00     0.009 A 
ATOM     60  C   UNL     1      -5.130   3.461   5.065  1.00  0.00     0.001 A 
ATOM     61  C   UNL     1      -5.947   5.705   5.425  1.00  0.00     0.001 A 
ATOM     62  C   UNL     1      -6.085   4.329   5.595  1.00  0.00     0.000 A 
ENDBRANCH  43  57
BRANCH  44  63
ATOM     63  C   UNL     1       4.059   8.825  -0.740  1.00  0.00    -0.014 A 
ATOM     64  C   UNL     1       5.301   8.205  -0.538  1.00  0.00     0.009 A 
ATOM     65  C   UNL     1       3.976   9.893  -1.649  1.00  0.00     0.009 A 
ATOM     66  C   UNL     1       6.434   8.649  -1.226  1.00  0.00     0.001 A 
ATOM     67  C   UNL     1       5.102  10.313  -2.358  1.00  0.00     0.001 A 
ATOM     68  C   UNL     1       6.332   9.695  -2.142  1.00  0.00     0.000 A 
ENDBRANCH  44  63
BRANCH  56  69
ATOM     69  C   UNL     1       2.008   9.088   5.915  1.00  0.00    -0.014 A 
ATOM     70  C   UNL     1       1.940  10.473   6.126  1.00  0.00     0.009 A 
ATOM     71  C   UNL     1       2.565   8.270   6.909  1.00  0.00     0.009 A 
ATOM     72  C   UNL     1       2.429  11.030   7.309  1.00  0.00     0.001 A 
ATOM     73  C   UNL     1       3.032   8.827   8.101  1.00  0.00     0.001 A 
ATOM     74  C   UNL     1       2.966  10.206   8.298  1.00  0.00     0.000 A 
ENDBRANCH  56  69
ENDBRANCH  30  31
ENDBRANCH  23  25
ENDBRANCH  22  23
ENDBRANCH   1  22
TORSDOF 12
