REMARK SMILES C#CC[N@H+](CC(=O)OCCOC(=O)c1ccc(-c2c3nc(c(-c4ccccc4)c4ccc([nH]4)c(-c4ccccc4)c4nc(c(-c5ccccc5)c5ccc2[nH]5)C=C4)C=C3)cc1)[C@H](C)c1ccccc1[N+](=O)[O-]
REMARK SMILES IDX 9 1 8 2 6 3 7 4 5 5 4 6 3 8 2 9 1 10 62 11 63 12 64 13 65 14
REMARK SMILES IDX 69 15 66 16 68 17 67 18 70 19 71 20 72 21 10 22 11 23 12 24
REMARK SMILES IDX 13 25 14 26 15 27 61 28 16 29 60 30 17 31 18 32 19 33 54 34
REMARK SMILES IDX 20 35 59 36 53 37 55 38 21 39 58 40 52 41 51 42 22 44 44 45
REMARK SMILES IDX 29 46 43 47 30 48 33 49 42 50 56 51 31 52 32 53 41 55 57 56
REMARK SMILES IDX 34 57 23 58 24 59 28 60 25 61 27 62 26 63 45 64 46 65 50 66
REMARK SMILES IDX 47 67 49 68 48 69 35 70 36 71 40 72 37 73 39 74 38 75
REMARK H PARENT 4 7 55 43 33 54
REMARK Flexibility Score: inf
ROOT
ATOM      1  C   UNL     1      -4.828   1.863   4.785  1.00  0.00     0.274 C 
ENDROOT
BRANCH   1   2
ATOM      2  O   UNL     1      -4.260   1.534   3.504  1.00  0.00    -0.458 OA
BRANCH   2   3
ATOM      3  C   UNL     1      -4.830   2.098   2.407  1.00  0.00     0.361 C 
ATOM      4  O   UNL     1      -5.898   2.700   2.424  1.00  0.00    -0.245 OA
BRANCH   3   5
ATOM      5  C   UNL     1      -4.070   1.795   1.111  1.00  0.00     0.387 C 
BRANCH   5   6
ATOM      6  N   UNL     1      -2.605   2.161   1.054  1.00  0.00    -0.309 N 
ATOM      7  H   UNL     1      -2.402   3.125   1.316  1.00  0.00     0.349 HD
BRANCH   6   8
ATOM      8  C   UNL     1      -1.904   1.345   2.058  1.00  0.00     0.354 C 
BRANCH   8   9
ATOM      9  C   UNL     1      -0.384   1.346   2.058  1.00  0.00    -0.047 C 
ATOM     10  C   UNL     1       0.920   1.347   2.057  1.00  0.00     0.010 C 
ENDBRANCH   8   9
ENDBRANCH   6   8
BRANCH   6  11
ATOM     11  C   UNL     1      -2.130   2.096  -0.371  1.00  0.00     0.220 C 
ATOM     12  C   UNL     1      -2.590   0.834  -1.140  1.00  0.00     0.081 C 
BRANCH  11  13
ATOM     13  C   UNL     1      -0.640   2.421  -0.611  1.00  0.00     0.087 A 
ATOM     14  C   UNL     1       0.241   1.395  -1.044  1.00  0.00     0.017 A 
ATOM     15  C   UNL     1      -0.045   3.681  -0.359  1.00  0.00     0.278 A 
ATOM     16  C   UNL     1       1.623   1.590  -1.170  1.00  0.00     0.001 A 
ATOM     17  C   UNL     1       1.352   3.873  -0.480  1.00  0.00     0.086 A 
ATOM     18  C   UNL     1       2.181   2.824  -0.872  1.00  0.00     0.007 A 
BRANCH  15  19
ATOM     19  N   UNL     1      -0.828   4.865   0.019  1.00  0.00     0.063 N 
ATOM     20  O   UNL     1      -0.293   5.682   0.784  1.00  0.00    -0.258 OA
ATOM     21  O   UNL     1      -1.919   5.042  -0.539  1.00  0.00    -0.258 OA
ENDBRANCH  15  19
ENDBRANCH  11  13
ENDBRANCH   6  11
ENDBRANCH   5   6
ENDBRANCH   3   5
ENDBRANCH   2   3
ENDBRANCH   1   2
BRANCH   1  22
ATOM     22  C   UNL     1      -4.170   3.110   5.386  1.00  0.00     0.275 C 
BRANCH  22  23
ATOM     23  O   UNL     1      -4.551   4.294   4.662  1.00  0.00    -0.458 OA
BRANCH  23  24
ATOM     24  C   UNL     1      -3.632   4.781   3.791  1.00  0.00     0.338 C 
ATOM     25  O   UNL     1      -2.498   4.381   3.615  1.00  0.00    -0.246 OA
BRANCH  24  26
ATOM     26  C   UNL     1      -4.286   5.811   2.967  1.00  0.00     0.060 A 
ATOM     27  C   UNL     1      -4.571   5.517   1.632  1.00  0.00     0.016 A 
ATOM     28  C   UNL     1      -4.628   7.050   3.508  1.00  0.00     0.016 A 
ATOM     29  C   UNL     1      -5.253   6.437   0.841  1.00  0.00     0.010 A 
ATOM     30  C   UNL     1      -5.298   7.981   2.709  1.00  0.00     0.010 A 
ATOM     31  C   UNL     1      -5.630   7.672   1.378  1.00  0.00    -0.014 A 
BRANCH  31  32
ATOM     32  C   UNL     1      -6.377   8.642   0.547  1.00  0.00     0.031 A 
ATOM     33  C   UNL     1      -5.679   9.844  -0.012  1.00  0.00     0.074 A 
ATOM     34  C   UNL     1      -7.685   8.439   0.305  1.00  0.00     0.049 A 
ATOM     35  N   UNL     1      -6.183  10.860  -0.664  1.00  0.00    -0.248 NA
ATOM     36  C   UNL     1      -4.224   9.913   0.193  1.00  0.00     0.031 C 
ATOM     37  C   UNL     1      -8.456   7.277   0.750  1.00  0.00     0.029 A 
ATOM     38  N   UNL     1      -8.598   9.211  -0.367  1.00  0.00    -0.354 N 
ATOM     39  C   UNL     1      -5.111  11.700  -0.935  1.00  0.00     0.074 A 
ATOM     40  C   UNL     1      -3.933  11.083  -0.361  1.00  0.00     0.031 C 
ATOM     41  C   UNL     1      -9.728   7.416   0.342  1.00  0.00     0.029 A 
ATOM     42  C   UNL     1      -9.872   8.698  -0.342  1.00  0.00     0.049 A 
ATOM     43  H   UNL     1      -8.363  10.052  -0.823  1.00  0.00     0.167 HD
ATOM     44  C   UNL     1      -5.114  12.879  -1.601  1.00  0.00     0.031 A 
ATOM     45  C   UNL     1     -11.030   9.221  -0.786  1.00  0.00     0.031 A 
ATOM     46  C   UNL     1      -6.292  13.490  -2.160  1.00  0.00     0.049 A 
ATOM     47  C   UNL     1     -11.020  10.578  -1.433  1.00  0.00     0.074 A 
ATOM     48  C   UNL     1      -6.396  14.675  -2.868  1.00  0.00     0.029 A 
ATOM     49  N   UNL     1      -7.572  12.966  -2.067  1.00  0.00    -0.354 N 
ATOM     50  N   UNL     1     -10.002  11.362  -1.691  1.00  0.00    -0.248 NA
ATOM     51  C   UNL     1     -12.322  11.126  -1.841  1.00  0.00     0.031 C 
ATOM     52  C   UNL     1      -7.748  14.899  -3.149  1.00  0.00     0.029 A 
ATOM     53  C   UNL     1      -8.479  13.824  -2.669  1.00  0.00     0.049 A 
ATOM     54  H   UNL     1      -7.803  12.111  -1.636  1.00  0.00     0.167 HD
ATOM     55  C   UNL     1     -10.536  12.488  -2.303  1.00  0.00     0.074 A 
ATOM     56  C   UNL     1     -11.966  12.274  -2.399  1.00  0.00     0.031 C 
ATOM     57  C   UNL     1      -9.900  13.602  -2.743  1.00  0.00     0.031 A 
BRANCH  44  58
ATOM     58  C   UNL     1      -3.807  13.611  -1.719  1.00  0.00    -0.014 A 
ATOM     59  C   UNL     1      -2.783  13.153  -2.562  1.00  0.00     0.009 A 
ATOM     60  C   UNL     1      -3.612  14.801  -0.999  1.00  0.00     0.009 A 
ATOM     61  C   UNL     1      -1.579  13.855  -2.658  1.00  0.00     0.001 A 
ATOM     62  C   UNL     1      -2.419  15.515  -1.117  1.00  0.00     0.001 A 
ATOM     63  C   UNL     1      -1.400  15.038  -1.940  1.00  0.00     0.000 A 
ENDBRANCH  44  58
BRANCH  45  64
ATOM     64  C   UNL     1     -12.305   8.482  -0.587  1.00  0.00    -0.014 A 
ATOM     65  C   UNL     1     -13.005   7.953  -1.681  1.00  0.00     0.009 A 
ATOM     66  C   UNL     1     -12.832   8.309   0.703  1.00  0.00     0.009 A 
ATOM     67  C   UNL     1     -14.217   7.284  -1.489  1.00  0.00     0.001 A 
ATOM     68  C   UNL     1     -14.028   7.614   0.895  1.00  0.00     0.001 A 
ATOM     69  C   UNL     1     -14.723   7.110  -0.202  1.00  0.00     0.000 A 
ENDBRANCH  45  64
BRANCH  57  70
ATOM     70  C   UNL     1     -10.748  14.667  -3.379  1.00  0.00    -0.014 A 
ATOM     71  C   UNL     1     -11.596  15.476  -2.606  1.00  0.00     0.009 A 
ATOM     72  C   UNL     1     -10.670  14.887  -4.763  1.00  0.00     0.009 A 
ATOM     73  C   UNL     1     -12.371  16.466  -3.213  1.00  0.00     0.001 A 
ATOM     74  C   UNL     1     -11.425  15.897  -5.362  1.00  0.00     0.001 A 
ATOM     75  C   UNL     1     -12.281  16.679  -4.588  1.00  0.00     0.000 A 
ENDBRANCH  57  70
ENDBRANCH  31  32
ENDBRANCH  24  26
ENDBRANCH  23  24
ENDBRANCH  22  23
ENDBRANCH   1  22
TORSDOF 17
