REMARK SMILES C[C@H]1CN([C@@H](C(=O)OCCOC(=O)c2ccc(-c3c4nc(c(-c5ccccc5)c5ccc([nH]5)c(-c5ccccc5)c5nc(c(-c6ccccc6)c6ccc3[nH]6)C=C5)C=C4)cc2)C(C)(C)C)S(=O)(=O)C1
REMARK SMILES IDX 10 1 9 2 8 3 6 4 7 5 5 6 4 7 1 8 2 9 3 10 69 11 66 12 67 13
REMARK SMILES IDX 68 14 62 15 63 16 64 17 65 18 11 19 12 20 13 21 14 22 15 23
REMARK SMILES IDX 61 24 16 25 60 26 17 27 18 28 19 29 54 30 20 31 59 32 53 33
REMARK SMILES IDX 55 34 21 35 58 36 52 37 51 38 22 40 44 41 29 42 43 43 30 44
REMARK SMILES IDX 33 45 42 46 56 47 31 48 32 49 41 51 57 52 34 53 23 54 24 55
REMARK SMILES IDX 28 56 25 57 27 58 26 59 45 60 46 61 50 62 47 63 49 64 48 65
REMARK SMILES IDX 35 66 36 67 40 68 37 69 39 70 38 71
REMARK H PARENT 55 39 33 50
REMARK Flexibility Score: inf
ROOT
ATOM      1  C   UNL     1       1.680   0.370  -5.612  1.00  0.00     0.275 C 
ENDROOT
BRANCH   1   2
ATOM      2  C   UNL     1       0.433   1.019  -5.024  1.00  0.00     0.274 C 
BRANCH   2   3
ATOM      3  O   UNL     1      -0.184   0.145  -4.051  1.00  0.00    -0.461 OA
BRANCH   3   4
ATOM      4  C   UNL     1      -1.318  -0.505  -4.442  1.00  0.00     0.325 C 
ATOM      5  O   UNL     1      -1.797  -0.366  -5.562  1.00  0.00    -0.250 OA
BRANCH   4   6
ATOM      6  C   UNL     1      -2.030  -1.235  -3.276  1.00  0.00     0.188 C 
BRANCH   6   7
ATOM      7  N   UNL     1      -1.203  -1.418  -2.042  1.00  0.00    -0.187 NA
ATOM      8  C   UNL     1       1.613   0.080  -1.573  1.00  0.00     0.010 C 
ATOM      9  C   UNL     1       0.519  -0.439  -0.640  1.00  0.00     0.017 C 
ATOM     10  C   UNL     1      -0.907  -0.250  -1.194  1.00  0.00     0.107 C 
ATOM     11  C   UNL     1       0.699  -1.932  -0.385  1.00  0.00     0.159 C 
ATOM     12  S   UNL     1      -0.297  -2.759  -1.611  1.00  0.00     0.215 S 
ATOM     13  O   UNL     1      -1.156  -3.687  -0.920  1.00  0.00    -0.212 OA
ATOM     14  O   UNL     1       0.532  -3.140  -2.733  1.00  0.00    -0.212 OA
ENDBRANCH   6   7
BRANCH   6  15
ATOM     15  C   UNL     1      -2.948  -2.468  -3.681  1.00  0.00    -0.011 C 
ATOM     16  C   UNL     1      -3.987  -2.714  -2.563  1.00  0.00     0.013 C 
ATOM     17  C   UNL     1      -3.781  -2.179  -4.959  1.00  0.00     0.013 C 
ATOM     18  C   UNL     1      -2.204  -3.786  -3.954  1.00  0.00     0.013 C 
ENDBRANCH   6  15
ENDBRANCH   4   6
ENDBRANCH   3   4
ENDBRANCH   2   3
ENDBRANCH   1   2
BRANCH   1  19
ATOM     19  O   UNL     1       1.292  -0.853  -6.251  1.00  0.00    -0.458 OA
BRANCH  19  20
ATOM     20  C   UNL     1       1.909  -1.976  -5.814  1.00  0.00     0.338 C 
ATOM     21  O   UNL     1       2.872  -2.036  -5.068  1.00  0.00    -0.246 OA
BRANCH  20  22
ATOM     22  C   UNL     1       1.247  -3.157  -6.413  1.00  0.00     0.060 A 
ATOM     23  C   UNL     1      -0.117  -3.154  -6.712  1.00  0.00     0.016 A 
ATOM     24  C   UNL     1       1.992  -4.315  -6.623  1.00  0.00     0.016 A 
ATOM     25  C   UNL     1      -0.751  -4.324  -7.131  1.00  0.00     0.010 A 
ATOM     26  C   UNL     1       1.375  -5.452  -7.155  1.00  0.00     0.010 A 
ATOM     27  C   UNL     1      -0.011  -5.481  -7.396  1.00  0.00    -0.014 A 
BRANCH  27  28
ATOM     28  C   UNL     1      -0.647  -6.726  -7.918  1.00  0.00     0.031 A 
ATOM     29  C   UNL     1      -0.372  -8.047  -7.249  1.00  0.00     0.074 A 
ATOM     30  C   UNL     1      -1.426  -6.708  -9.019  1.00  0.00     0.049 A 
ATOM     31  N   UNL     1      -0.484  -9.259  -7.730  1.00  0.00    -0.248 NA
ATOM     32  C   UNL     1       0.116  -7.991  -5.862  1.00  0.00     0.031 C 
ATOM     33  C   UNL     1      -1.877  -5.516  -9.738  1.00  0.00     0.029 A 
ATOM     34  N   UNL     1      -1.966  -7.748  -9.738  1.00  0.00    -0.354 N 
ATOM     35  C   UNL     1       0.003 -10.104  -6.739  1.00  0.00     0.074 A 
ATOM     36  C   UNL     1       0.391  -9.267  -5.623  1.00  0.00     0.031 C 
ATOM     37  C   UNL     1      -2.650  -5.886 -10.768  1.00  0.00     0.029 A 
ATOM     38  C   UNL     1      -2.640  -7.339 -10.863  1.00  0.00     0.049 A 
ATOM     39  H   UNL     1      -1.879  -8.692  -9.474  1.00  0.00     0.167 HD
ATOM     40  C   UNL     1       0.132 -11.453  -6.771  1.00  0.00     0.031 A 
ATOM     41  C   UNL     1      -3.129  -8.037 -11.905  1.00  0.00     0.031 A 
ATOM     42  C   UNL     1      -0.305 -12.282  -7.865  1.00  0.00     0.049 A 
ATOM     43  C   UNL     1      -2.911  -9.519 -11.965  1.00  0.00     0.074 A 
ATOM     44  C   UNL     1      -0.219 -13.657  -7.998  1.00  0.00     0.029 A 
ATOM     45  N   UNL     1      -0.936 -11.810  -9.006  1.00  0.00    -0.354 N 
ATOM     46  N   UNL     1      -2.330 -10.302 -11.090  1.00  0.00    -0.248 NA
ATOM     47  C   UNL     1      -3.384 -10.206 -13.174  1.00  0.00     0.031 C 
ATOM     48  C   UNL     1      -0.766 -14.014  -9.236  1.00  0.00     0.029 A 
ATOM     49  C   UNL     1      -1.237 -12.865  -9.851  1.00  0.00     0.049 A 
ATOM     50  H   UNL     1      -1.141 -10.865  -9.189  1.00  0.00     0.167 HD
ATOM     51  C   UNL     1      -2.381 -11.577 -11.633  1.00  0.00     0.074 A 
ATOM     52  C   UNL     1      -3.057 -11.464 -12.910  1.00  0.00     0.031 C 
ATOM     53  C   UNL     1      -1.910 -12.738 -11.118  1.00  0.00     0.031 A 
BRANCH  40  54
ATOM     54  C   UNL     1       0.834 -12.111  -5.615  1.00  0.00    -0.014 A 
ATOM     55  C   UNL     1       0.234 -12.234  -4.354  1.00  0.00     0.009 A 
ATOM     56  C   UNL     1       2.119 -12.645  -5.809  1.00  0.00     0.009 A 
ATOM     57  C   UNL     1       0.923 -12.843  -3.300  1.00  0.00     0.001 A 
ATOM     58  C   UNL     1       2.793 -13.278  -4.764  1.00  0.00     0.001 A 
ATOM     59  C   UNL     1       2.199 -13.367  -3.507  1.00  0.00     0.000 A 
ENDBRANCH  40  54
BRANCH  41  60
ATOM     60  C   UNL     1      -3.805  -7.315 -13.014  1.00  0.00    -0.014 A 
ATOM     61  C   UNL     1      -5.194  -7.412 -13.178  1.00  0.00     0.009 A 
ATOM     62  C   UNL     1      -3.073  -6.485 -13.880  1.00  0.00     0.009 A 
ATOM     63  C   UNL     1      -5.837  -6.686 -14.183  1.00  0.00     0.001 A 
ATOM     64  C   UNL     1      -3.722  -5.739 -14.864  1.00  0.00     0.001 A 
ATOM     65  C   UNL     1      -5.104  -5.843 -15.016  1.00  0.00     0.000 A 
ENDBRANCH  41  60
BRANCH  53  66
ATOM     66  C   UNL     1      -2.157 -13.986 -11.913  1.00  0.00    -0.014 A 
ATOM     67  C   UNL     1      -1.399 -14.286 -13.054  1.00  0.00     0.009 A 
ATOM     68  C   UNL     1      -3.148 -14.887 -11.493  1.00  0.00     0.009 A 
ATOM     69  C   UNL     1      -1.648 -15.455 -13.777  1.00  0.00     0.001 A 
ATOM     70  C   UNL     1      -3.380 -16.064 -12.205  1.00  0.00     0.001 A 
ATOM     71  C   UNL     1      -2.635 -16.343 -13.350  1.00  0.00     0.000 A 
ENDBRANCH  53  66
ENDBRANCH  27  28
ENDBRANCH  20  22
ENDBRANCH  19  20
ENDBRANCH   1  19
TORSDOF 13
