REMARK SMILES O=C(CSc1nc(O)cc(=O)[nH]1)Nc1cccc(C(=O)OCCOC(=O)c2ccc(-c3c4nc(c(-c5ccccc5)c5ccc([nH]5)c(-c5ccccc5)c5nc(c(-c6ccccc6)c6ccc3[nH]6)C=C5)C=C4)cc2)c1
REMARK SMILES IDX 21 1 19 2 20 3 18 4 14 5 15 6 75 7 16 8 17 9 13 10 1 11 2 12
REMARK SMILES IDX 3 14 4 15 5 16 6 17 12 18 7 19 10 20 9 22 11 23 8 24 22 26
REMARK SMILES IDX 23 27 24 28 25 29 26 30 27 31 28 32 74 33 29 34 73 35 30 36
REMARK SMILES IDX 31 37 32 38 67 39 33 40 72 41 66 42 68 43 34 44 71 45 65 46
REMARK SMILES IDX 64 47 35 49 57 50 42 51 56 52 43 53 46 54 55 55 69 56 44 57
REMARK SMILES IDX 45 58 54 60 70 61 47 62 36 63 37 64 41 65 38 66 40 67 39 68
REMARK SMILES IDX 58 69 59 70 63 71 60 72 62 73 61 74 48 75 49 76 53 77 50 78
REMARK SMILES IDX 52 79 51 80
REMARK H PARENT 13 13 12 21 8 25 68 48 46 59
REMARK Flexibility Score: inf
ROOT
ATOM      1  O   UNL     1      -0.711   2.613   2.868  1.00  0.00    -0.458 OA
ENDROOT
BRANCH   1   2
ATOM      2  C   UNL     1      -0.732   3.427   1.784  1.00  0.00     0.338 C 
ATOM      3  O   UNL     1      -1.599   4.234   1.492  1.00  0.00    -0.246 OA
BRANCH   2   4
ATOM      4  C   UNL     1       0.537   3.298   1.028  1.00  0.00     0.062 A 
ATOM      5  C   UNL     1       2.379   1.978   0.182  1.00  0.00     0.042 A 
ATOM      6  C   UNL     1       2.966   3.142  -0.330  1.00  0.00     0.026 A 
ATOM      7  C   UNL     1       1.183   2.065   0.899  1.00  0.00     0.041 A 
ATOM      8  C   UNL     1       2.309   4.366  -0.230  1.00  0.00     0.003 A 
ATOM      9  C   UNL     1       1.078   4.435   0.415  1.00  0.00     0.016 A 
BRANCH   5  10
ATOM     10  N   UNL     1       3.028   0.762  -0.097  1.00  0.00    -0.325 N 
ATOM     11  O   UNL     1       1.304  -0.758   0.260  1.00  0.00    -0.274 OA
ATOM     12  C   UNL     1       2.461  -0.497  -0.063  1.00  0.00     0.234 C 
ATOM     13  H   UNL     1       3.981   0.813  -0.341  1.00  0.00     0.169 HD
BRANCH  12  14
ATOM     14  C   UNL     1       3.412  -1.623  -0.429  1.00  0.00     0.178 C 
BRANCH  14  15
ATOM     15  S   UNL     1       4.505  -1.243  -1.827  1.00  0.00    -0.078 SA
BRANCH  15  16
ATOM     16  C   UNL     1       3.329  -0.821  -3.031  1.00  0.00     0.172 A 
ATOM     17  N   UNL     1       3.105   0.415  -3.325  1.00  0.00    -0.189 NA
ATOM     18  N   UNL     1       2.732  -1.884  -3.626  1.00  0.00    -0.301 N 
ATOM     19  C   UNL     1       2.188   0.633  -4.314  1.00  0.00     0.218 A 
ATOM     20  C   UNL     1       1.816  -1.716  -4.618  1.00  0.00     0.255 A 
ATOM     21  H   UNL     1       2.967  -2.795  -3.335  1.00  0.00     0.172 HD
ATOM     22  C   UNL     1       1.532  -0.322  -4.976  1.00  0.00     0.139 A 
ATOM     23  O   UNL     1       1.270  -2.654  -5.184  1.00  0.00    -0.269 OA
BRANCH  19  24
ATOM     24  O   UNL     1       1.960   1.946  -4.629  1.00  0.00    -0.493 OA
ATOM     25  H   UNL     1       2.415   2.624  -4.169  1.00  0.00     0.295 HD
ENDBRANCH  19  24
ENDBRANCH  15  16
ENDBRANCH  14  15
ENDBRANCH  12  14
ENDBRANCH   5  10
ENDBRANCH   2   4
ENDBRANCH   1   2
BRANCH   1  26
ATOM     26  C   UNL     1      -1.838   2.703   3.763  1.00  0.00     0.275 C 
BRANCH  26  27
ATOM     27  C   UNL     1      -1.485   3.530   4.998  1.00  0.00     0.275 C 
BRANCH  27  28
ATOM     28  O   UNL     1      -1.323   4.908   4.622  1.00  0.00    -0.458 OA
BRANCH  28  29
ATOM     29  C   UNL     1      -0.119   5.460   4.883  1.00  0.00     0.338 C 
ATOM     30  O   UNL     1       0.831   4.960   5.462  1.00  0.00    -0.246 OA
BRANCH  29  31
ATOM     31  C   UNL     1      -0.092   6.819   4.325  1.00  0.00     0.060 A 
ATOM     32  C   UNL     1      -0.054   6.979   2.942  1.00  0.00     0.016 A 
ATOM     33  C   UNL     1       0.002   7.927   5.164  1.00  0.00     0.016 A 
ATOM     34  C   UNL     1       0.144   8.238   2.382  1.00  0.00     0.010 A 
ATOM     35  C   UNL     1       0.125   9.201   4.601  1.00  0.00     0.010 A 
ATOM     36  C   UNL     1       0.229   9.367   3.206  1.00  0.00    -0.014 A 
BRANCH  36  37
ATOM     37  C   UNL     1       0.485  10.712   2.626  1.00  0.00     0.031 A 
ATOM     38  C   UNL     1       1.736  11.459   3.003  1.00  0.00     0.074 A 
ATOM     39  C   UNL     1      -0.385  11.272   1.764  1.00  0.00     0.049 A 
ATOM     40  N   UNL     1       2.046  12.713   2.793  1.00  0.00    -0.248 NA
ATOM     41  C   UNL     1       2.769  10.695   3.721  1.00  0.00     0.031 C 
ATOM     42  C   UNL     1      -1.602  10.642   1.248  1.00  0.00     0.029 A 
ATOM     43  N   UNL     1      -0.374  12.510   1.168  1.00  0.00    -0.354 N 
ATOM     44  C   UNL     1       3.277  12.905   3.409  1.00  0.00     0.074 A 
ATOM     45  C   UNL     1       3.663  11.636   3.988  1.00  0.00     0.031 C 
ATOM     46  C   UNL     1      -2.206  11.486   0.397  1.00  0.00     0.029 A 
ATOM     47  C   UNL     1      -1.467  12.743   0.370  1.00  0.00     0.049 A 
ATOM     48  H   UNL     1       0.347  13.166   1.301  1.00  0.00     0.167 HD
ATOM     49  C   UNL     1       4.013  14.038   3.493  1.00  0.00     0.031 A 
ATOM     50  C   UNL     1      -1.859  13.858  -0.276  1.00  0.00     0.031 A 
ATOM     51  C   UNL     1       3.651  15.289   2.882  1.00  0.00     0.049 A 
ATOM     52  C   UNL     1      -1.046  15.114  -0.141  1.00  0.00     0.074 A 
ATOM     53  C   UNL     1       4.326  16.497   2.920  1.00  0.00     0.029 A 
ATOM     54  N   UNL     1       2.522  15.485   2.104  1.00  0.00    -0.354 N 
ATOM     55  N   UNL     1       0.072  15.306   0.515  1.00  0.00    -0.248 NA
ATOM     56  C   UNL     1      -1.563  16.312  -0.818  1.00  0.00     0.031 C 
ATOM     57  C   UNL     1       3.591  17.432   2.183  1.00  0.00     0.029 A 
ATOM     58  C   UNL     1       2.479  16.794   1.657  1.00  0.00     0.049 A 
ATOM     59  H   UNL     1       1.850  14.796   1.898  1.00  0.00     0.167 HD
ATOM     60  C   UNL     1       0.397  16.642   0.323  1.00  0.00     0.074 A 
ATOM     61  C   UNL     1      -0.631  17.209  -0.525  1.00  0.00     0.031 C 
ATOM     62  C   UNL     1       1.451  17.339   0.812  1.00  0.00     0.031 A 
BRANCH  49  63
ATOM     63  C   UNL     1       5.263  13.987   4.322  1.00  0.00    -0.014 A 
ATOM     64  C   UNL     1       6.430  13.365   3.855  1.00  0.00     0.009 A 
ATOM     65  C   UNL     1       5.275  14.598   5.586  1.00  0.00     0.009 A 
ATOM     66  C   UNL     1       7.577  13.331   4.652  1.00  0.00     0.001 A 
ATOM     67  C   UNL     1       6.429  14.582   6.370  1.00  0.00     0.001 A 
ATOM     68  C   UNL     1       7.577  13.942   5.906  1.00  0.00     0.000 A 
ENDBRANCH  49  63
BRANCH  50  69
ATOM     69  C   UNL     1      -3.117  13.852  -1.065  1.00  0.00    -0.014 A 
ATOM     70  C   UNL     1      -3.080  13.898  -2.466  1.00  0.00     0.009 A 
ATOM     71  C   UNL     1      -4.362  13.796  -0.418  1.00  0.00     0.009 A 
ATOM     72  C   UNL     1      -4.266  13.900  -3.203  1.00  0.00     0.001 A 
ATOM     73  C   UNL     1      -5.545  13.771  -1.159  1.00  0.00     0.001 A 
ATOM     74  C   UNL     1      -5.496  13.830  -2.550  1.00  0.00     0.000 A 
ENDBRANCH  50  69
BRANCH  62  75
ATOM     75  C   UNL     1       1.560  18.780   0.413  1.00  0.00    -0.014 A 
ATOM     76  C   UNL     1       0.758  19.760   1.017  1.00  0.00     0.009 A 
ATOM     77  C   UNL     1       2.501  19.165  -0.553  1.00  0.00     0.009 A 
ATOM     78  C   UNL     1       0.881  21.099   0.641  1.00  0.00     0.001 A 
ATOM     79  C   UNL     1       2.635  20.506  -0.913  1.00  0.00     0.001 A 
ATOM     80  C   UNL     1       1.821  21.471  -0.321  1.00  0.00     0.000 A 
ENDBRANCH  62  75
ENDBRANCH  36  37
ENDBRANCH  29  31
ENDBRANCH  28  29
ENDBRANCH  27  28
ENDBRANCH  26  27
ENDBRANCH   1  26
TORSDOF 16
