REMARK SMILES CC(=O)N1CCc2cc(S(=O)(=O)N[C@@H](C(=O)OCCOC(=O)c3ccc(-c4c5nc(c(-c6ccccc6)c6ccc([nH]6)c(-c6ccccc6)c6nc(c(-c7ccccc7)c7ccc4[nH]7)C=C6)C=C5)cc3)C(C)C)ccc21
REMARK SMILES IDX 18 1 17 2 15 3 16 4 14 5 13 6 10 8 11 9 12 10 9 11 4 12 5 13
REMARK SMILES IDX 76 14 6 15 7 16 75 17 8 18 74 19 2 20 1 21 3 22 71 23 72 24
REMARK SMILES IDX 73 25 19 26 20 27 21 28 22 29 23 30 24 31 70 32 25 33 69 34
REMARK SMILES IDX 26 35 27 36 28 37 63 38 29 39 68 40 62 41 64 42 30 43 67 44
REMARK SMILES IDX 61 45 60 46 31 48 53 49 38 50 52 51 39 52 42 53 51 54 65 55
REMARK SMILES IDX 40 56 41 57 50 59 66 60 43 61 32 62 33 63 37 64 34 65 36 66
REMARK SMILES IDX 35 67 54 68 55 69 59 70 56 71 58 72 57 73 44 74 45 75 49 76
REMARK SMILES IDX 46 77 48 78 47 79
REMARK H PARENT 13 7 64 47 42 58
REMARK Flexibility Score: inf
ROOT
ATOM      1  C   UNL     1       8.000  -4.277   4.650  1.00  0.00     0.274 C 
ENDROOT
BRANCH   1   2
ATOM      2  O   UNL     1       7.466  -3.947   3.354  1.00  0.00    -0.461 OA
BRANCH   2   3
ATOM      3  C   UNL     1       7.602  -2.679   2.896  1.00  0.00     0.324 C 
ATOM      4  O   UNL     1       8.055  -1.765   3.573  1.00  0.00    -0.250 OA
BRANCH   3   5
ATOM      5  C   UNL     1       7.088  -2.535   1.447  1.00  0.00     0.182 C 
BRANCH   5   6
ATOM      6  N   UNL     1       7.130  -3.829   0.682  1.00  0.00    -0.197 NA
ATOM      7  H   UNL     1       7.233  -3.573  -0.300  1.00  0.00     0.142 HD
BRANCH   6   8
ATOM      8  S   UNL     1       5.885  -4.971   0.737  1.00  0.00     0.241 S 
ATOM      9  O   UNL     1       6.036  -5.718   1.965  1.00  0.00    -0.207 OA
ATOM     10  O   UNL     1       5.885  -5.647  -0.541  1.00  0.00    -0.207 OA
BRANCH   8  11
ATOM     11  C   UNL     1       4.354  -4.082   0.846  1.00  0.00     0.082 A 
ATOM     12  N   UNL     1       0.759  -2.055   1.452  1.00  0.00    -0.312 N 
ATOM     13  C   UNL     1       0.059  -2.988   2.349  1.00  0.00     0.130 C 
ATOM     14  C   UNL     1       2.006  -2.609   1.111  1.00  0.00     0.047 A 
ATOM     15  C   UNL     1       1.009  -4.143   2.662  1.00  0.00     0.059 C 
ATOM     16  C   UNL     1       2.193  -3.804   1.816  1.00  0.00    -0.021 A 
ATOM     17  C   UNL     1       2.987  -2.163   0.241  1.00  0.00     0.028 A 
ATOM     18  C   UNL     1       3.366  -4.541   1.717  1.00  0.00     0.027 A 
ATOM     19  C   UNL     1       4.147  -2.931   0.076  1.00  0.00     0.024 A 
BRANCH  12  20
ATOM     20  C   UNL     1       0.133  -0.880   1.098  1.00  0.00     0.223 C 
ATOM     21  C   UNL     1       0.791   0.053   0.123  1.00  0.00     0.115 C 
ATOM     22  O   UNL     1      -0.967  -0.573   1.571  1.00  0.00    -0.275 OA
ENDBRANCH  12  20
ENDBRANCH   8  11
ENDBRANCH   6   8
ENDBRANCH   5   6
BRANCH   5  23
ATOM     23  C   UNL     1       7.911  -1.522   0.572  1.00  0.00     0.012 C 
ATOM     24  C   UNL     1       7.374  -1.381  -0.863  1.00  0.00     0.009 C 
ATOM     25  C   UNL     1       8.014  -0.104   1.150  1.00  0.00     0.009 C 
ENDBRANCH   5  23
ENDBRANCH   3   5
ENDBRANCH   2   3
ENDBRANCH   1   2
BRANCH   1  26
ATOM     26  C   UNL     1       9.215  -5.198   4.497  1.00  0.00     0.275 C 
BRANCH  26  27
ATOM     27  O   UNL     1      10.378  -4.471   4.046  1.00  0.00    -0.458 OA
BRANCH  27  28
ATOM     28  C   UNL     1      10.481  -4.337   2.707  1.00  0.00     0.338 C 
ATOM     29  O   UNL     1       9.718  -4.765   1.853  1.00  0.00    -0.246 OA
BRANCH  28  30
ATOM     30  C   UNL     1      11.540  -3.375   2.373  1.00  0.00     0.060 A 
ATOM     31  C   UNL     1      11.107  -2.127   1.942  1.00  0.00     0.016 A 
ATOM     32  C   UNL     1      12.887  -3.709   2.294  1.00  0.00     0.016 A 
ATOM     33  C   UNL     1      11.967  -1.262   1.286  1.00  0.00     0.010 A 
ATOM     34  C   UNL     1      13.785  -2.780   1.742  1.00  0.00     0.010 A 
ATOM     35  C   UNL     1      13.327  -1.563   1.194  1.00  0.00    -0.014 A 
BRANCH  35  36
ATOM     36  C   UNL     1      14.240  -0.621   0.487  1.00  0.00     0.031 A 
ATOM     37  C   UNL     1      15.033  -1.092  -0.703  1.00  0.00     0.074 A 
ATOM     38  C   UNL     1      14.320   0.672   0.865  1.00  0.00     0.049 A 
ATOM     39  N   UNL     1      16.021  -0.501  -1.325  1.00  0.00    -0.248 NA
ATOM     40  C   UNL     1      14.666  -2.401  -1.269  1.00  0.00     0.031 C 
ATOM     41  C   UNL     1      13.535   1.305   1.929  1.00  0.00     0.029 A 
ATOM     42  N   UNL     1      15.100   1.697   0.384  1.00  0.00    -0.354 N 
ATOM     43  C   UNL     1      16.426  -1.383  -2.320  1.00  0.00     0.074 A 
ATOM     44  C   UNL     1      15.580  -2.553  -2.218  1.00  0.00     0.031 C 
ATOM     45  C   UNL     1      13.847   2.607   1.996  1.00  0.00     0.029 A 
ATOM     46  C   UNL     1      14.931   2.881   1.062  1.00  0.00     0.049 A 
ATOM     47  H   UNL     1      15.720   1.593  -0.374  1.00  0.00     0.167 HD
ATOM     48  C   UNL     1      17.415  -1.232  -3.232  1.00  0.00     0.031 A 
ATOM     49  C   UNL     1      15.611   4.040   0.992  1.00  0.00     0.031 A 
ATOM     50  C   UNL     1      18.237  -0.057  -3.347  1.00  0.00     0.049 A 
ATOM     51  C   UNL     1      16.774   4.144   0.045  1.00  0.00     0.074 A 
ATOM     52  C   UNL     1      19.301   0.175  -4.201  1.00  0.00     0.029 A 
ATOM     53  N   UNL     1      18.068   1.096  -2.597  1.00  0.00    -0.354 N 
ATOM     54  N   UNL     1      17.216   3.264  -0.819  1.00  0.00    -0.248 NA
ATOM     55  C   UNL     1      17.544   5.395   0.081  1.00  0.00     0.031 C 
ATOM     56  C   UNL     1      19.798   1.456  -3.944  1.00  0.00     0.029 A 
ATOM     57  C   UNL     1      19.009   2.041  -2.966  1.00  0.00     0.049 A 
ATOM     58  H   UNL     1      17.380   1.224  -1.904  1.00  0.00     0.167 HD
ATOM     59  C   UNL     1      18.298   3.865  -1.448  1.00  0.00     0.074 A 
ATOM     60  C   UNL     1      18.434   5.189  -0.880  1.00  0.00     0.031 C 
ATOM     61  C   UNL     1      19.112   3.362  -2.407  1.00  0.00     0.031 A 
BRANCH  48  62
ATOM     62  C   UNL     1      17.695  -2.385  -4.155  1.00  0.00    -0.014 A 
ATOM     63  C   UNL     1      16.836  -2.696  -5.220  1.00  0.00     0.009 A 
ATOM     64  C   UNL     1      18.864  -3.144  -3.980  1.00  0.00     0.009 A 
ATOM     65  C   UNL     1      17.130  -3.761  -6.075  1.00  0.00     0.001 A 
ATOM     66  C   UNL     1      19.168  -4.190  -4.852  1.00  0.00     0.001 A 
ATOM     67  C   UNL     1      18.298  -4.503  -5.894  1.00  0.00     0.000 A 
ENDBRANCH  48  62
BRANCH  49  68
ATOM     68  C   UNL     1      15.280   5.169   1.905  1.00  0.00    -0.014 A 
ATOM     69  C   UNL     1      14.801   6.387   1.400  1.00  0.00     0.009 A 
ATOM     70  C   UNL     1      15.487   5.046   3.289  1.00  0.00     0.009 A 
ATOM     71  C   UNL     1      14.571   7.467   2.257  1.00  0.00     0.001 A 
ATOM     72  C   UNL     1      15.220   6.114   4.147  1.00  0.00     0.001 A 
ATOM     73  C   UNL     1      14.777   7.328   3.628  1.00  0.00     0.000 A 
ENDBRANCH  49  68
BRANCH  61  74
ATOM     74  C   UNL     1      20.176   4.272  -2.948  1.00  0.00    -0.014 A 
ATOM     75  C   UNL     1      21.321   4.584  -2.200  1.00  0.00     0.009 A 
ATOM     76  C   UNL     1      20.043   4.793  -4.244  1.00  0.00     0.009 A 
ATOM     77  C   UNL     1      22.299   5.427  -2.731  1.00  0.00     0.001 A 
ATOM     78  C   UNL     1      21.036   5.613  -4.782  1.00  0.00     0.001 A 
ATOM     79  C   UNL     1      22.158   5.936  -4.022  1.00  0.00     0.000 A 
ENDBRANCH  61  74
ENDBRANCH  35  36
ENDBRANCH  28  30
ENDBRANCH  27  28
ENDBRANCH  26  27
ENDBRANCH   1  26
TORSDOF 16
