REMARK SMILES CC(C)(C)OC(=O)[C@@H]1[NH2+][C@H](C(=O)OCCOC(=O)c2ccc(-c3c4nc(c(-c5ccccc5)c5ccc([nH]5)c(-c5ccccc5)c5nc(c(-c6ccccc6)c6ccc3[nH]6)C=C5)C=C4)cc2)C(C)(C)S1
REMARK SMILES IDX 14 1 13 2 11 3 12 4 10 5 8 6 9 7 70 8 67 11 68 12 69 13 6 14
REMARK SMILES IDX 7 15 5 16 2 17 1 18 3 19 4 20 15 21 16 22 17 23 18 24 19 25
REMARK SMILES IDX 20 26 66 27 21 28 65 29 22 30 23 31 24 32 59 33 25 34 64 35
REMARK SMILES IDX 58 36 60 37 26 38 63 39 57 40 56 41 27 43 49 44 34 45 48 46
REMARK SMILES IDX 35 47 38 48 47 49 61 50 36 51 37 52 46 54 62 55 39 56 28 57
REMARK SMILES IDX 29 58 33 59 30 60 32 61 31 62 50 63 51 64 55 65 52 66 54 67
REMARK SMILES IDX 53 68 40 69 41 70 45 71 42 72 44 73 43 74
REMARK H PARENT 9 9 9 10 60 42 38 53
REMARK Flexibility Score: inf
ROOT
ATOM      1  C   UNL     1       4.664   5.884  -5.374  1.00  0.00     0.274 C 
ENDROOT
BRANCH   1   2
ATOM      2  O   UNL     1       3.926   5.985  -4.123  1.00  0.00    -0.458 OA
BRANCH   2   3
ATOM      3  C   UNL     1       3.100   7.062  -3.960  1.00  0.00     0.366 C 
ATOM      4  O   UNL     1       3.078   8.025  -4.722  1.00  0.00    -0.245 OA
BRANCH   3   5
ATOM      5  C   UNL     1       2.095   6.924  -2.764  1.00  0.00     0.310 C 
ATOM      6  C   UNL     1       0.576   5.317  -3.686  1.00  0.00     0.354 C 
ATOM      7  N   UNL     1       0.685   6.728  -3.271  1.00  0.00    -0.313 N 
ATOM      8  S   UNL     1       1.549   4.364  -2.421  1.00  0.00    -0.074 SA
ATOM      9  H   UNL     1       0.013   6.930  -2.531  1.00  0.00     0.348 HD
ATOM     10  H   UNL     1       0.485   7.356  -4.050  1.00  0.00     0.348 HD
ATOM     11  C   UNL     1       2.353   5.845  -1.687  1.00  0.00     0.079 C 
ATOM     12  C   UNL     1       1.610   6.168  -0.366  1.00  0.00     0.030 C 
ATOM     13  C   UNL     1       3.831   5.649  -1.327  1.00  0.00     0.030 C 
BRANCH   6  14
ATOM     14  C   UNL     1       1.115   5.143  -5.122  1.00  0.00     0.376 C 
ATOM     15  O   UNL     1       2.186   4.633  -5.363  1.00  0.00    -0.244 OA
BRANCH  14  16
ATOM     16  O   UNL     1       0.323   5.660  -6.088  1.00  0.00    -0.455 OA
BRANCH  16  17
ATOM     17  C   UNL     1       0.772   5.837  -7.476  1.00  0.00     0.104 C 
ATOM     18  C   UNL     1       1.593   7.119  -7.627  1.00  0.00     0.056 C 
ATOM     19  C   UNL     1      -0.548   5.991  -8.226  1.00  0.00     0.056 C 
ATOM     20  C   UNL     1       1.521   4.685  -8.159  1.00  0.00     0.056 C 
ENDBRANCH  16  17
ENDBRANCH  14  16
ENDBRANCH   6  14
ENDBRANCH   3   5
ENDBRANCH   2   3
ENDBRANCH   1   2
BRANCH   1  21
ATOM     21  C   UNL     1       5.104   4.419  -5.709  1.00  0.00     0.275 C 
BRANCH  21  22
ATOM     22  O   UNL     1       4.079   3.650  -6.411  1.00  0.00    -0.458 OA
BRANCH  22  23
ATOM     23  C   UNL     1       3.929   2.319  -6.162  1.00  0.00     0.338 C 
ATOM     24  O   UNL     1       4.759   1.591  -5.643  1.00  0.00    -0.246 OA
BRANCH  23  25
ATOM     25  C   UNL     1       2.546   1.848  -6.536  1.00  0.00     0.060 A 
ATOM     26  C   UNL     1       1.500   1.998  -5.612  1.00  0.00     0.016 A 
ATOM     27  C   UNL     1       2.249   1.241  -7.759  1.00  0.00     0.016 A 
ATOM     28  C   UNL     1       0.161   1.712  -5.944  1.00  0.00     0.010 A 
ATOM     29  C   UNL     1       0.913   0.874  -8.068  1.00  0.00     0.010 A 
ATOM     30  C   UNL     1      -0.154   1.132  -7.178  1.00  0.00    -0.014 A 
BRANCH  30  31
ATOM     31  C   UNL     1      -1.513   0.529  -7.400  1.00  0.00     0.031 A 
ATOM     32  C   UNL     1      -1.679  -0.912  -7.016  1.00  0.00     0.074 A 
ATOM     33  C   UNL     1      -2.609   1.188  -7.836  1.00  0.00     0.049 A 
ATOM     34  N   UNL     1      -2.632  -1.755  -7.313  1.00  0.00    -0.248 NA
ATOM     35  C   UNL     1      -0.616  -1.468  -6.166  1.00  0.00     0.031 C 
ATOM     36  C   UNL     1      -2.701   2.625  -8.036  1.00  0.00     0.029 A 
ATOM     37  N   UNL     1      -3.869   0.737  -8.176  1.00  0.00    -0.354 N 
ATOM     38  C   UNL     1      -2.243  -2.961  -6.747  1.00  0.00     0.074 A 
ATOM     39  C   UNL     1      -0.995  -2.729  -6.056  1.00  0.00     0.031 C 
ATOM     40  C   UNL     1      -3.929   2.945  -8.486  1.00  0.00     0.029 A 
ATOM     41  C   UNL     1      -4.710   1.721  -8.655  1.00  0.00     0.049 A 
ATOM     42  H   UNL     1      -4.144  -0.204  -8.085  1.00  0.00     0.167 HD
ATOM     43  C   UNL     1      -2.852  -4.166  -6.826  1.00  0.00     0.031 A 
ATOM     44  C   UNL     1      -5.946   1.640  -9.198  1.00  0.00     0.031 A 
ATOM     45  C   UNL     1      -4.099  -4.391  -7.498  1.00  0.00     0.049 A 
ATOM     46  C   UNL     1      -6.583   0.279  -9.358  1.00  0.00     0.074 A 
ATOM     47  C   UNL     1      -4.760  -5.584  -7.726  1.00  0.00     0.029 A 
ATOM     48  N   UNL     1      -4.888  -3.383  -8.031  1.00  0.00    -0.354 N 
ATOM     49  N   UNL     1      -6.134  -0.890  -8.967  1.00  0.00    -0.248 NA
ATOM     50  C   UNL     1      -7.883   0.218 -10.049  1.00  0.00     0.031 C 
ATOM     51  C   UNL     1      -5.941  -5.298  -8.420  1.00  0.00     0.029 A 
ATOM     52  C   UNL     1      -6.034  -3.924  -8.582  1.00  0.00     0.049 A 
ATOM     53  H   UNL     1      -4.665  -2.424  -8.018  1.00  0.00     0.167 HD
ATOM     54  C   UNL     1      -7.097  -1.817  -9.348  1.00  0.00     0.074 A 
ATOM     55  C   UNL     1      -8.165  -1.077  -9.985  1.00  0.00     0.031 C 
ATOM     56  C   UNL     1      -7.092  -3.163  -9.193  1.00  0.00     0.031 A 
BRANCH  43  57
ATOM     57  C   UNL     1      -2.087  -5.330  -6.269  1.00  0.00    -0.014 A 
ATOM     58  C   UNL     1      -1.928  -5.522  -4.888  1.00  0.00     0.009 A 
ATOM     59  C   UNL     1      -1.434  -6.197  -7.159  1.00  0.00     0.009 A 
ATOM     60  C   UNL     1      -1.081  -6.525  -4.412  1.00  0.00     0.001 A 
ATOM     61  C   UNL     1      -0.614  -7.218  -6.679  1.00  0.00     0.001 A 
ATOM     62  C   UNL     1      -0.424  -7.370  -5.307  1.00  0.00     0.000 A 
ENDBRANCH  43  57
BRANCH  44  63
ATOM     63  C   UNL     1      -6.655   2.855  -9.709  1.00  0.00    -0.014 A 
ATOM     64  C   UNL     1      -7.856   3.296  -9.127  1.00  0.00     0.009 A 
ATOM     65  C   UNL     1      -6.168   3.547 -10.830  1.00  0.00     0.009 A 
ATOM     66  C   UNL     1      -8.557   4.383  -9.665  1.00  0.00     0.001 A 
ATOM     67  C   UNL     1      -6.854   4.651 -11.348  1.00  0.00     0.001 A 
ATOM     68  C   UNL     1      -8.053   5.063 -10.771  1.00  0.00     0.000 A 
ENDBRANCH  44  63
BRANCH  56  69
ATOM     69  C   UNL     1      -8.292  -3.924  -9.675  1.00  0.00    -0.014 A 
ATOM     70  C   UNL     1      -8.483  -4.190 -11.039  1.00  0.00     0.009 A 
ATOM     71  C   UNL     1      -9.194  -4.455  -8.740  1.00  0.00     0.009 A 
ATOM     72  C   UNL     1      -9.566  -4.965 -11.457  1.00  0.00     0.001 A 
ATOM     73  C   UNL     1     -10.262  -5.247  -9.160  1.00  0.00     0.001 A 
ATOM     74  C   UNL     1     -10.450  -5.498 -10.518  1.00  0.00     0.000 A 
ENDBRANCH  56  69
ENDBRANCH  30  31
ENDBRANCH  23  25
ENDBRANCH  22  23
ENDBRANCH  21  22
ENDBRANCH   1  21
TORSDOF 14
