REMARK SMILES CC[C@@]1(C(=O)OCCOC(=O)c2ccc(-c3c4nc(c(-c5ccccc5)c5ccc([nH]5)c(-c5ccccc5)c5nc(c(-c6ccccc6)c6ccc3[nH]6)C=C5)C=C4)cc2)CCC[N@@H+](Cc2ccc(C3CC3)cc2)C1
REMARK SMILES IDX 7 1 6 2 4 3 5 4 3 5 60 6 74 7 61 8 63 9 62 10 2 12 1 13
REMARK SMILES IDX 64 14 65 15 66 16 73 17 67 18 72 19 68 20 69 21 70 22 71 23
REMARK SMILES IDX 8 24 9 25 10 26 11 27 12 28 13 29 59 30 14 31 58 32 15 33
REMARK SMILES IDX 16 34 17 35 52 36 18 37 57 38 51 39 53 40 19 41 56 42 50 43
REMARK SMILES IDX 49 44 20 46 42 47 27 48 41 49 28 50 31 51 40 52 54 53 29 54
REMARK SMILES IDX 30 55 39 57 55 58 32 59 21 60 22 61 26 62 23 63 25 64 24 65
REMARK SMILES IDX 43 66 44 67 48 68 45 69 47 70 46 71 33 72 34 73 38 74 35 75
REMARK SMILES IDX 37 76 36 77
REMARK H PARENT 63 11 53 45 31 56
REMARK Flexibility Score: inf
ROOT
ATOM      1  C   UNL     1      -0.217  -0.760   1.500  1.00  0.00     0.274 C 
ENDROOT
BRANCH   1   2
ATOM      2  O   UNL     1       0.748   0.309   1.422  1.00  0.00    -0.461 OA
BRANCH   2   3
ATOM      3  C   UNL     1       0.494   1.298   0.521  1.00  0.00     0.317 C 
ATOM      4  O   UNL     1      -0.507   1.335  -0.188  1.00  0.00    -0.251 OA
BRANCH   3   5
ATOM      5  C   UNL     1       1.665   2.279   0.350  1.00  0.00     0.117 C 
ATOM      6  C   UNL     1       2.838   2.018   1.321  1.00  0.00     0.030 C 
ATOM      7  C   UNL     1       1.173   3.741   0.547  1.00  0.00     0.281 C 
ATOM      8  C   UNL     1       2.527   2.467   2.751  1.00  0.00     0.063 C 
ATOM      9  N   UNL     1       0.955   4.169   1.937  1.00  0.00    -0.330 N 
ATOM     10  C   UNL     1       2.118   3.937   2.791  1.00  0.00     0.262 C 
ATOM     11  H   UNL     1       0.209   3.565   2.281  1.00  0.00     0.348 HD
BRANCH   5  12
ATOM     12  C   UNL     1       2.054   2.097  -1.163  1.00  0.00     0.021 C 
ATOM     13  C   UNL     1       3.530   2.144  -1.518  1.00  0.00     0.005 C 
ENDBRANCH   5  12
BRANCH   9  14
ATOM     14  C   UNL     1       0.447   5.552   2.061  1.00  0.00     0.299 C 
BRANCH  14  15
ATOM     15  C   UNL     1       1.331   6.694   1.615  1.00  0.00     0.006 A 
ATOM     16  C   UNL     1       1.936   7.544   2.544  1.00  0.00     0.010 A 
ATOM     17  C   UNL     1       1.517   6.965   0.256  1.00  0.00     0.010 A 
ATOM     18  C   UNL     1       2.768   8.587   2.116  1.00  0.00     0.004 A 
ATOM     19  C   UNL     1       2.371   7.987  -0.162  1.00  0.00     0.004 A 
ATOM     20  C   UNL     1       3.039   8.812   0.754  1.00  0.00    -0.045 A 
BRANCH  20  21
ATOM     21  C   UNL     1       4.027   9.885   0.338  1.00  0.00     0.019 C 
ATOM     22  C   UNL     1       5.033   9.589  -0.752  1.00  0.00     0.009 C 
ATOM     23  C   UNL     1       3.941  10.592  -0.992  1.00  0.00     0.009 C 
ENDBRANCH  20  21
ENDBRANCH  14  15
ENDBRANCH   9  14
ENDBRANCH   3   5
ENDBRANCH   2   3
ENDBRANCH   1   2
BRANCH   1  24
ATOM     24  C   UNL     1      -1.196  -0.531   2.650  1.00  0.00     0.275 C 
BRANCH  24  25
ATOM     25  O   UNL     1      -1.959   0.656   2.383  1.00  0.00    -0.458 OA
BRANCH  25  26
ATOM     26  C   UNL     1      -2.199   1.468   3.439  1.00  0.00     0.338 C 
ATOM     27  O   UNL     1      -1.977   1.218   4.612  1.00  0.00    -0.246 OA
BRANCH  26  28
ATOM     28  C   UNL     1      -2.736   2.772   2.970  1.00  0.00     0.060 A 
ATOM     29  C   UNL     1      -2.483   3.232   1.682  1.00  0.00     0.016 A 
ATOM     30  C   UNL     1      -3.391   3.617   3.867  1.00  0.00     0.016 A 
ATOM     31  C   UNL     1      -2.734   4.562   1.344  1.00  0.00     0.010 A 
ATOM     32  C   UNL     1      -3.730   4.927   3.488  1.00  0.00     0.010 A 
ATOM     33  C   UNL     1      -3.326   5.454   2.248  1.00  0.00    -0.014 A 
BRANCH  33  34
ATOM     34  C   UNL     1      -3.389   6.932   1.969  1.00  0.00     0.031 A 
ATOM     35  C   UNL     1      -2.933   7.928   3.023  1.00  0.00     0.074 A 
ATOM     36  C   UNL     1      -3.759   7.438   0.772  1.00  0.00     0.049 A 
ATOM     37  N   UNL     1      -3.155   9.219   3.099  1.00  0.00    -0.248 NA
ATOM     38  C   UNL     1      -2.131   7.403   4.141  1.00  0.00     0.031 C 
ATOM     39  C   UNL     1      -4.120   6.668  -0.419  1.00  0.00     0.029 A 
ATOM     40  N   UNL     1      -3.869   8.747   0.353  1.00  0.00    -0.354 N 
ATOM     41  C   UNL     1      -2.604   9.633   4.308  1.00  0.00     0.074 A 
ATOM     42  C   UNL     1      -2.014   8.466   4.924  1.00  0.00     0.031 C 
ATOM     43  C   UNL     1      -4.324   7.506  -1.445  1.00  0.00     0.029 A 
ATOM     44  C   UNL     1      -4.265   8.878  -0.956  1.00  0.00     0.049 A 
ATOM     45  H   UNL     1      -3.680   9.516   0.938  1.00  0.00     0.167 HD
ATOM     46  C   UNL     1      -2.601  10.868   4.869  1.00  0.00     0.031 A 
ATOM     47  C   UNL     1      -4.621   9.959  -1.678  1.00  0.00     0.031 A 
ATOM     48  C   UNL     1      -3.113  12.056   4.240  1.00  0.00     0.049 A 
ATOM     49  C   UNL     1      -4.687  11.307  -1.022  1.00  0.00     0.074 A 
ATOM     50  C   UNL     1      -3.188  13.341   4.751  1.00  0.00     0.029 A 
ATOM     51  N   UNL     1      -3.598  12.113   2.946  1.00  0.00    -0.354 N 
ATOM     52  N   UNL     1      -4.344  11.653   0.193  1.00  0.00    -0.248 NA
ATOM     53  C   UNL     1      -5.241  12.405  -1.828  1.00  0.00     0.031 C 
ATOM     54  C   UNL     1      -3.748  14.171   3.774  1.00  0.00     0.029 A 
ATOM     55  C   UNL     1      -3.979  13.409   2.642  1.00  0.00     0.049 A 
ATOM     56  H   UNL     1      -3.663  11.346   2.332  1.00  0.00     0.167 HD
ATOM     57  C   UNL     1      -4.644  13.005   0.299  1.00  0.00     0.074 A 
ATOM     58  C   UNL     1      -5.169  13.424  -0.983  1.00  0.00     0.031 C 
ATOM     59  C   UNL     1      -4.509  13.821   1.371  1.00  0.00     0.031 A 
BRANCH  46  60
ATOM     60  C   UNL     1      -2.082  10.992   6.274  1.00  0.00    -0.014 A 
ATOM     61  C   UNL     1      -0.710  10.989   6.562  1.00  0.00     0.009 A 
ATOM     62  C   UNL     1      -2.999  11.169   7.324  1.00  0.00     0.009 A 
ATOM     63  C   UNL     1      -0.269  11.138   7.879  1.00  0.00     0.001 A 
ATOM     64  C   UNL     1      -2.554  11.343   8.634  1.00  0.00     0.001 A 
ATOM     65  C   UNL     1      -1.189  11.321   8.912  1.00  0.00     0.000 A 
ENDBRANCH  46  60
BRANCH  47  66
ATOM     66  C   UNL     1      -5.066   9.791  -3.088  1.00  0.00    -0.014 A 
ATOM     67  C   UNL     1      -4.300  10.300  -4.147  1.00  0.00     0.009 A 
ATOM     68  C   UNL     1      -6.267   9.123  -3.376  1.00  0.00     0.009 A 
ATOM     69  C   UNL     1      -4.733  10.143  -5.467  1.00  0.00     0.001 A 
ATOM     70  C   UNL     1      -6.677   8.937  -4.696  1.00  0.00     0.001 A 
ATOM     71  C   UNL     1      -5.913   9.453  -5.740  1.00  0.00     0.000 A 
ENDBRANCH  47  66
BRANCH  59  72
ATOM     72  C   UNL     1      -4.912  15.256   1.194  1.00  0.00    -0.014 A 
ATOM     73  C   UNL     1      -6.264  15.628   1.151  1.00  0.00     0.009 A 
ATOM     74  C   UNL     1      -3.926  16.248   1.079  1.00  0.00     0.009 A 
ATOM     75  C   UNL     1      -6.622  16.964   0.961  1.00  0.00     0.001 A 
ATOM     76  C   UNL     1      -4.287  17.586   0.912  1.00  0.00     0.001 A 
ATOM     77  C   UNL     1      -5.633  17.942   0.843  1.00  0.00     0.000 A 
ENDBRANCH  59  72
ENDBRANCH  33  34
ENDBRANCH  26  28
ENDBRANCH  25  26
ENDBRANCH  24  25
ENDBRANCH   1  24
TORSDOF 15
