REMARK SMILES O=C(OCCOC(=O)c1cnc(-c2ccccc2Cl)nc1)c1ccc(-c2c3nc(c(-c4ccccc4)c4ccc([nH]4)c(-c4ccccc4)c4nc(c(-c5ccccc5)c5ccc2[nH]5)C=C4)C=C3)cc1
REMARK SMILES IDX 4 1 3 2 2 3 1 4 22 5 23 6 69 7 24 8 68 9 25 10 26 11 27 12
REMARK SMILES IDX 62 13 28 14 67 15 61 16 63 17 29 18 66 19 60 20 59 21 30 23
REMARK SMILES IDX 52 24 37 25 51 26 38 27 41 28 50 29 64 30 39 31 40 32 49 34
REMARK SMILES IDX 65 35 42 36 31 37 32 38 36 39 33 40 35 41 34 42 53 43 54 44
REMARK SMILES IDX 58 45 55 46 57 47 56 48 43 49 44 50 48 51 45 52 47 53 46 54
REMARK SMILES IDX 5 55 6 56 7 57 8 58 9 59 10 60 21 61 11 62 20 63 12 64 13 65
REMARK SMILES IDX 14 66 18 67 15 68 17 69 19 70 16 71
REMARK H PARENT 63 22 41 33
REMARK Flexibility Score: inf
ROOT
ATOM      1  C   UNL     1       3.851   1.712   0.011  1.00  0.00     0.275 C 
ENDROOT
BRANCH   1   2
ATOM      2  O   UNL     1       2.896   0.939  -0.736  1.00  0.00    -0.458 OA
BRANCH   2   3
ATOM      3  C   UNL     1       2.861  -0.385  -1.010  1.00  0.00     0.338 C 
ATOM      4  O   UNL     1       2.010  -0.802  -1.794  1.00  0.00    -0.246 OA
BRANCH   3   5
ATOM      5  C   UNL     1       3.697  -1.401  -0.296  1.00  0.00     0.060 A 
ATOM      6  C   UNL     1       4.976  -1.201   0.229  1.00  0.00     0.016 A 
ATOM      7  C   UNL     1       3.125  -2.676  -0.151  1.00  0.00     0.016 A 
ATOM      8  C   UNL     1       5.623  -2.203   0.963  1.00  0.00     0.010 A 
ATOM      9  C   UNL     1       3.769  -3.676   0.580  1.00  0.00     0.010 A 
ATOM     10  C   UNL     1       5.017  -3.445   1.157  1.00  0.00    -0.014 A 
BRANCH  10  11
ATOM     11  C   UNL     1       5.726  -4.519   1.889  1.00  0.00     0.031 A 
ATOM     12  C   UNL     1       6.296  -5.675   1.123  1.00  0.00     0.074 A 
ATOM     13  C   UNL     1       5.883  -4.443   3.224  1.00  0.00     0.049 A 
ATOM     14  N   UNL     1       7.051  -6.652   1.554  1.00  0.00    -0.248 NA
ATOM     15  C   UNL     1       5.999  -5.731  -0.318  1.00  0.00     0.031 C 
ATOM     16  C   UNL     1       5.376  -3.365   4.070  1.00  0.00     0.029 A 
ATOM     17  N   UNL     1       6.512  -5.283   4.107  1.00  0.00    -0.354 N 
ATOM     18  C   UNL     1       7.356  -7.408   0.431  1.00  0.00     0.074 A 
ATOM     19  C   UNL     1       6.639  -6.830  -0.683  1.00  0.00     0.031 C 
ATOM     20  C   UNL     1       5.688  -3.617   5.352  1.00  0.00     0.029 A 
ATOM     21  C   UNL     1       6.434  -4.868   5.415  1.00  0.00     0.049 A 
ATOM     22  H   UNL     1       6.976  -6.106   3.830  1.00  0.00     0.167 HD
ATOM     23  C   UNL     1       8.195  -8.464   0.328  1.00  0.00     0.031 A 
ATOM     24  C   UNL     1       6.924  -5.428   6.537  1.00  0.00     0.031 A 
ATOM     25  C   UNL     1       8.870  -9.063   1.445  1.00  0.00     0.049 A 
ATOM     26  C   UNL     1       7.769  -6.665   6.410  1.00  0.00     0.074 A 
ATOM     27  C   UNL     1       9.734 -10.142   1.456  1.00  0.00     0.029 A 
ATOM     28  N   UNL     1       8.739  -8.636   2.758  1.00  0.00    -0.354 N 
ATOM     29  N   UNL     1       8.121  -7.316   5.327  1.00  0.00    -0.248 NA
ATOM     30  C   UNL     1       8.320  -7.220   7.653  1.00  0.00     0.031 C 
ATOM     31  C   UNL     1      10.092 -10.395   2.785  1.00  0.00     0.029 A 
ATOM     32  C   UNL     1       9.490  -9.443   3.593  1.00  0.00     0.049 A 
ATOM     33  H   UNL     1       8.191  -7.872   3.052  1.00  0.00     0.167 HD
ATOM     34  C   UNL     1       8.965  -8.332   5.752  1.00  0.00     0.074 A 
ATOM     35  C   UNL     1       9.084  -8.200   7.191  1.00  0.00     0.031 C 
ATOM     36  C   UNL     1       9.591  -9.286   5.021  1.00  0.00     0.031 A 
BRANCH  23  37
ATOM     37  C   UNL     1       8.419  -9.014  -1.050  1.00  0.00    -0.014 A 
ATOM     38  C   UNL     1       9.168  -8.290  -1.994  1.00  0.00     0.009 A 
ATOM     39  C   UNL     1       7.867 -10.247  -1.420  1.00  0.00     0.009 A 
ATOM     40  C   UNL     1       9.326  -8.773  -3.294  1.00  0.00     0.001 A 
ATOM     41  C   UNL     1       8.047 -10.739  -2.715  1.00  0.00     0.001 A 
ATOM     42  C   UNL     1       8.767  -9.998  -3.652  1.00  0.00     0.000 A 
ENDBRANCH  23  37
BRANCH  24  43
ATOM     43  C   UNL     1       6.660  -4.819   7.870  1.00  0.00    -0.014 A 
ATOM     44  C   UNL     1       7.696  -4.232   8.614  1.00  0.00     0.009 A 
ATOM     45  C   UNL     1       5.372  -4.863   8.425  1.00  0.00     0.009 A 
ATOM     46  C   UNL     1       7.456  -3.744   9.901  1.00  0.00     0.001 A 
ATOM     47  C   UNL     1       5.129  -4.350   9.702  1.00  0.00     0.001 A 
ATOM     48  C   UNL     1       6.174  -3.803  10.445  1.00  0.00     0.000 A 
ENDBRANCH  24  43
BRANCH  36  49
ATOM     49  C   UNL     1      10.483 -10.235   5.768  1.00  0.00    -0.014 A 
ATOM     50  C   UNL     1       9.951 -11.225   6.609  1.00  0.00     0.009 A 
ATOM     51  C   UNL     1      11.874 -10.152   5.604  1.00  0.00     0.009 A 
ATOM     52  C   UNL     1      10.800 -12.090   7.300  1.00  0.00     0.001 A 
ATOM     53  C   UNL     1      12.718 -11.039   6.272  1.00  0.00     0.001 A 
ATOM     54  C   UNL     1      12.181 -11.999   7.128  1.00  0.00     0.000 A 
ENDBRANCH  36  49
ENDBRANCH  10  11
ENDBRANCH   3   5
ENDBRANCH   2   3
ENDBRANCH   1   2
BRANCH   1  55
ATOM     55  C   UNL     1       3.601   1.765   1.521  1.00  0.00     0.275 C 
BRANCH  55  56
ATOM     56  O   UNL     1       3.212   0.505   2.095  1.00  0.00    -0.458 OA
BRANCH  56  57
ATOM     57  C   UNL     1       1.872   0.308   2.197  1.00  0.00     0.341 C 
ATOM     58  O   UNL     1       0.990   1.088   1.883  1.00  0.00    -0.246 OA
BRANCH  57  59
ATOM     59  C   UNL     1       1.607  -1.056   2.650  1.00  0.00     0.096 A 
ATOM     60  C   UNL     1       2.218  -1.621   3.739  1.00  0.00     0.131 A 
ATOM     61  C   UNL     1       0.711  -1.861   1.986  1.00  0.00     0.131 A 
ATOM     62  N   UNL     1       2.004  -2.899   4.130  1.00  0.00    -0.236 NA
ATOM     63  N   UNL     1       0.476  -3.153   2.321  1.00  0.00    -0.236 NA
ATOM     64  C   UNL     1       1.157  -3.639   3.376  1.00  0.00     0.160 A 
BRANCH  64  65
ATOM     65  C   UNL     1       0.928  -5.030   3.800  1.00  0.00     0.038 A 
ATOM     66  C   UNL     1       0.740  -5.295   5.175  1.00  0.00     0.013 A 
ATOM     67  C   UNL     1       0.902  -6.138   2.931  1.00  0.00     0.052 A 
ATOM     68  C   UNL     1       0.549  -6.592   5.662  1.00  0.00     0.001 A 
ATOM     69  C   UNL     1       0.749  -7.444   3.426  1.00  0.00     0.021 A 
ATOM     70  Cl  UNL     1       1.054  -6.011   1.213  1.00  0.00    -0.084 Cl
ATOM     71  C   UNL     1       0.570  -7.670   4.787  1.00  0.00     0.002 A 
ENDBRANCH  64  65
ENDBRANCH  57  59
ENDBRANCH  56  57
ENDBRANCH  55  56
ENDBRANCH   1  55
TORSDOF 12
