REMARK SMILES Cc1ccc(NC(=O)c2cnn3c2NC2=C(C(=O)CCC2)[C@H]3c2ccc(C(=O)OCCOC(=O)c3ccc(-c4c5nc(c(-c6ccccc6)c6ccc([nH]6)c(-c6ccccc6)c6nc(c(-c7ccccc7)c7ccc4[nH]7)C=C6)C=C5)cc3)cc2)cc1
REMARK SMILES IDX 30 1 29 2 27 3 28 4 26 5 23 6 24 7 84 8 25 9 83 10 22 11
REMARK SMILES IDX 9 12 10 13 13 14 11 15 12 16 14 17 15 18 16 20 21 21 17 22
REMARK SMILES IDX 20 23 18 24 19 25 7 26 6 27 8 29 5 30 1 31 2 32 3 33 86 34
REMARK SMILES IDX 4 35 85 36 31 37 32 38 33 39 34 40 35 41 36 42 82 43 37 44
REMARK SMILES IDX 81 45 38 46 39 47 40 48 75 49 41 50 80 51 74 52 76 53 42 54
REMARK SMILES IDX 79 55 73 56 72 57 43 59 65 60 50 61 64 62 51 63 54 64 63 65
REMARK SMILES IDX 77 66 52 67 53 68 62 70 78 71 55 72 44 73 45 74 49 75 46 76
REMARK SMILES IDX 48 77 47 78 66 79 67 80 71 81 68 82 70 83 69 84 56 85 57 86
REMARK SMILES IDX 61 87 58 88 60 89 59 90
REMARK H PARENT 14 19 6 28 76 58 54 69
REMARK Flexibility Score: inf
ROOT
ATOM      1  C   UNL     1       0.460  -3.477  -7.558  1.00  0.00     0.275 C 
ENDROOT
BRANCH   1   2
ATOM      2  O   UNL     1      -0.164  -4.067  -6.413  1.00  0.00    -0.458 OA
BRANCH   2   3
ATOM      3  C   UNL     1       0.590  -4.793  -5.553  1.00  0.00     0.338 C 
ATOM      4  O   UNL     1       1.752  -5.091  -5.666  1.00  0.00    -0.246 OA
BRANCH   3   5
ATOM      5  C   UNL     1      -0.248  -5.139  -4.386  1.00  0.00     0.060 A 
ATOM      6  C   UNL     1      -1.629  -5.679  -1.961  1.00  0.00    -0.019 A 
ATOM      7  C   UNL     1      -1.013  -6.714  -2.688  1.00  0.00     0.007 A 
ATOM      8  C   UNL     1      -1.570  -4.390  -2.537  1.00  0.00     0.007 A 
ATOM      9  C   UNL     1      -0.319  -6.444  -3.888  1.00  0.00     0.016 A 
ATOM     10  C   UNL     1      -0.897  -4.112  -3.722  1.00  0.00     0.016 A 
BRANCH   6  11
ATOM     11  C   UNL     1      -2.389  -5.968  -0.620  1.00  0.00     0.175 C 
ATOM     12  C   UNL     1      -3.720  -2.749  -0.022  1.00  0.00     0.102 A 
ATOM     13  C   UNL     1      -2.924  -2.983   1.138  1.00  0.00     0.151 A 
ATOM     14  C   UNL     1      -3.919  -4.018  -0.532  1.00  0.00     0.142 A 
ATOM     15  N   UNL     1      -2.365  -4.198   1.141  1.00  0.00    -0.178 NA
ATOM     16  N   UNL     1      -2.852  -4.725   0.008  1.00  0.00    -0.237 N 
ATOM     17  N   UNL     1      -4.700  -4.672  -1.456  1.00  0.00    -0.343 N 
ATOM     18  C   UNL     1      -4.680  -6.083  -1.502  1.00  0.00     0.026 C 
ATOM     19  H   UNL     1      -5.267  -4.162  -2.078  1.00  0.00     0.168 HD
ATOM     20  C   UNL     1      -3.673  -6.724  -0.856  1.00  0.00     0.044 C 
ATOM     21  C   UNL     1      -5.922  -6.869  -1.825  1.00  0.00     0.055 C 
ATOM     22  C   UNL     1      -4.209  -7.476   0.332  1.00  0.00     0.163 C 
ATOM     23  C   UNL     1      -6.538  -7.483  -0.564  1.00  0.00     0.014 C 
ATOM     24  O   UNL     1      -3.451  -8.097   1.071  1.00  0.00    -0.294 OA
ATOM     25  C   UNL     1      -5.680  -7.245   0.674  1.00  0.00     0.081 C 
BRANCH  12  26
ATOM     26  C   UNL     1      -4.186  -1.489  -0.539  1.00  0.00     0.261 C 
ATOM     27  N   UNL     1      -3.339  -0.390  -0.507  1.00  0.00    -0.322 N 
ATOM     28  H   UNL     1      -3.811   0.468  -0.604  1.00  0.00     0.170 HD
ATOM     29  O   UNL     1      -5.318  -1.358  -1.003  1.00  0.00    -0.269 OA
BRANCH  27  30
ATOM     30  C   UNL     1      -1.934  -0.244  -0.365  1.00  0.00     0.041 A 
ATOM     31  C   UNL     1       2.334   0.443   0.066  1.00  0.00     0.044 C 
ATOM     32  C   UNL     1       0.858   0.230  -0.094  1.00  0.00    -0.051 A 
ATOM     33  C   UNL     1       0.373  -1.054  -0.316  1.00  0.00     0.005 A 
ATOM     34  C   UNL     1      -0.058   1.282  -0.018  1.00  0.00     0.005 A 
ATOM     35  C   UNL     1      -1.000  -1.276  -0.463  1.00  0.00     0.026 A 
ATOM     36  C   UNL     1      -1.437   1.047  -0.161  1.00  0.00     0.026 A 
ENDBRANCH  27  30
ENDBRANCH  12  26
ENDBRANCH   6  11
ENDBRANCH   3   5
ENDBRANCH   2   3
ENDBRANCH   1   2
BRANCH   1  37
ATOM     37  C   UNL     1       1.488  -4.279  -8.384  1.00  0.00     0.275 C 
BRANCH  37  38
ATOM     38  O   UNL     1       1.517  -5.738  -8.456  1.00  0.00    -0.458 OA
BRANCH  38  39
ATOM     39  C   UNL     1       0.573  -6.680  -8.250  1.00  0.00     0.338 C 
ATOM     40  O   UNL     1       0.832  -7.856  -8.028  1.00  0.00    -0.246 OA
BRANCH  39  41
ATOM     41  C   UNL     1      -0.817  -6.238  -8.302  1.00  0.00     0.060 A 
ATOM     42  C   UNL     1      -1.728  -6.686  -7.330  1.00  0.00     0.016 A 
ATOM     43  C   UNL     1      -1.178  -5.331  -9.289  1.00  0.00     0.016 A 
ATOM     44  C   UNL     1      -3.009  -6.150  -7.298  1.00  0.00     0.010 A 
ATOM     45  C   UNL     1      -2.396  -4.714  -9.187  1.00  0.00     0.010 A 
ATOM     46  C   UNL     1      -3.325  -5.164  -8.233  1.00  0.00    -0.014 A 
BRANCH  46  47
ATOM     47  C   UNL     1      -4.687  -4.828  -8.599  1.00  0.00     0.031 A 
ATOM     48  C   UNL     1      -5.481  -3.795  -7.931  1.00  0.00     0.074 A 
ATOM     49  C   UNL     1      -5.052  -5.421  -9.757  1.00  0.00     0.049 A 
ATOM     50  N   UNL     1      -6.769  -3.781  -7.948  1.00  0.00    -0.248 NA
ATOM     51  C   UNL     1      -4.902  -2.695  -7.163  1.00  0.00     0.031 C 
ATOM     52  C   UNL     1      -6.117  -5.090 -10.681  1.00  0.00     0.029 A 
ATOM     53  N   UNL     1      -4.500  -6.598 -10.283  1.00  0.00    -0.354 N 
ATOM     54  C   UNL     1      -7.159  -2.528  -7.531  1.00  0.00     0.074 A 
ATOM     55  C   UNL     1      -5.987  -1.946  -6.918  1.00  0.00     0.031 C 
ATOM     56  C   UNL     1      -6.335  -6.160 -11.470  1.00  0.00     0.029 A 
ATOM     57  C   UNL     1      -5.523  -7.258 -10.951  1.00  0.00     0.049 A 
ATOM     58  H   UNL     1      -3.567  -6.899 -10.195  1.00  0.00     0.167 HD
ATOM     59  C   UNL     1      -8.362  -2.036  -7.942  1.00  0.00     0.031 A 
ATOM     60  C   UNL     1      -5.981  -8.467 -10.514  1.00  0.00     0.031 A 
ATOM     61  C   UNL     1      -9.023  -2.973  -8.847  1.00  0.00     0.049 A 
ATOM     62  C   UNL     1      -7.432  -8.348 -10.120  1.00  0.00     0.074 A 
ATOM     63  C   UNL     1      -9.068  -3.023 -10.231  1.00  0.00     0.029 A 
ATOM     64  N   UNL     1      -9.443  -4.213  -8.386  1.00  0.00    -0.354 N 
ATOM     65  N   UNL     1      -7.967  -7.251  -9.656  1.00  0.00    -0.248 NA
ATOM     66  C   UNL     1      -8.388  -9.440 -10.241  1.00  0.00     0.031 C 
ATOM     67  C   UNL     1      -9.454  -4.332 -10.606  1.00  0.00     0.029 A 
ATOM     68  C   UNL     1      -9.666  -5.064  -9.451  1.00  0.00     0.049 A 
ATOM     69  H   UNL     1      -9.563  -4.452  -7.439  1.00  0.00     0.167 HD
ATOM     70  C   UNL     1      -9.318  -7.432  -9.540  1.00  0.00     0.074 A 
ATOM     71  C   UNL     1      -9.527  -8.832  -9.866  1.00  0.00     0.031 C 
ATOM     72  C   UNL     1     -10.168  -6.411  -9.233  1.00  0.00     0.031 A 
BRANCH  59  73
ATOM     73  C   UNL     1      -8.784  -0.590  -7.830  1.00  0.00    -0.014 A 
ATOM     74  C   UNL     1      -9.667  -0.055  -8.791  1.00  0.00     0.009 A 
ATOM     75  C   UNL     1      -8.355   0.293  -6.827  1.00  0.00     0.009 A 
ATOM     76  C   UNL     1     -10.035   1.295  -8.804  1.00  0.00     0.001 A 
ATOM     77  C   UNL     1      -8.705   1.654  -6.844  1.00  0.00     0.001 A 
ATOM     78  C   UNL     1      -9.536   2.157  -7.839  1.00  0.00     0.000 A 
ENDBRANCH  59  73
BRANCH  60  79
ATOM     79  C   UNL     1      -4.978  -9.308  -9.787  1.00  0.00    -0.014 A 
ATOM     80  C   UNL     1      -3.835  -9.753 -10.486  1.00  0.00     0.009 A 
ATOM     81  C   UNL     1      -4.967  -9.396  -8.386  1.00  0.00     0.009 A 
ATOM     82  C   UNL     1      -2.693 -10.192  -9.806  1.00  0.00     0.001 A 
ATOM     83  C   UNL     1      -3.824  -9.849  -7.708  1.00  0.00     0.001 A 
ATOM     84  C   UNL     1      -2.682 -10.223  -8.415  1.00  0.00     0.000 A 
ENDBRANCH  60  79
BRANCH  72  85
ATOM     85  C   UNL     1     -11.603  -6.555  -8.807  1.00  0.00    -0.014 A 
ATOM     86  C   UNL     1     -12.138  -7.725  -8.259  1.00  0.00     0.009 A 
ATOM     87  C   UNL     1     -12.429  -5.407  -8.796  1.00  0.00     0.009 A 
ATOM     88  C   UNL     1     -13.445  -7.756  -7.758  1.00  0.00     0.001 A 
ATOM     89  C   UNL     1     -13.711  -5.420  -8.250  1.00  0.00     0.001 A 
ATOM     90  C   UNL     1     -14.224  -6.602  -7.740  1.00  0.00     0.000 A 
ENDBRANCH  72  85
ENDBRANCH  46  47
ENDBRANCH  39  41
ENDBRANCH  38  39
ENDBRANCH  37  38
ENDBRANCH   1  37
TORSDOF 14
