REMARK SMILES Cc1ccccc1-n1c(S[C@@H](C)C(=O)OCCOC(=O)c2ccc(-c3c4nc(c(-c5ccccc5)c5ccc([nH]5)c(-c5ccccc5)c5nc(c(-c6ccccc6)c6ccc3[nH]6)C=C5)C=C4)cc2)nc2sc3c(c2c1=O)C[C@@H](C(C)C)OC3
REMARK SMILES IDX 16 1 15 2 13 3 14 4 11 5 12 6 10 7 9 8 8 9 75 10 69 11 74 12
REMARK SMILES IDX 76 13 70 14 73 15 71 16 72 17 77 18 83 19 78 20 82 21 7 22
REMARK SMILES IDX 1 23 2 24 3 25 4 26 6 27 5 28 79 29 80 30 81 31 17 32 18 33
REMARK SMILES IDX 19 34 20 35 21 36 22 37 68 38 23 39 67 40 24 41 25 42 26 43
REMARK SMILES IDX 61 44 27 45 66 46 60 47 62 48 28 49 65 50 59 51 58 52 29 54
REMARK SMILES IDX 51 55 36 56 50 57 37 58 40 59 49 60 63 61 38 62 39 63 48 65
REMARK SMILES IDX 64 66 41 67 30 68 31 69 35 70 32 71 34 72 33 73 52 74 53 75
REMARK SMILES IDX 57 76 54 77 56 78 55 79 42 80 43 81 47 82 44 83 46 84 45 85
REMARK H PARENT 62 53 40 64
REMARK Flexibility Score: inf
ROOT
ATOM      1  C   UNL     1      -1.036   2.794  -2.267  1.00  0.00     0.274 C 
ENDROOT
BRANCH   1   2
ATOM      2  O   UNL     1       0.307   2.198  -2.191  1.00  0.00    -0.461 OA
BRANCH   2   3
ATOM      3  C   UNL     1       0.919   1.235  -2.915  1.00  0.00     0.319 C 
ATOM      4  O   UNL     1       0.453   0.738  -3.929  1.00  0.00    -0.251 OA
BRANCH   3   5
ATOM      5  C   UNL     1       2.318   0.840  -2.449  1.00  0.00     0.161 C 
ATOM      6  C   UNL     1       2.627  -0.672  -2.430  1.00  0.00     0.032 C 
BRANCH   5   7
ATOM      7  S   UNL     1       2.922   1.386  -0.862  1.00  0.00    -0.072 SA
BRANCH   7   8
ATOM      8  C   UNL     1       1.798   2.515  -0.192  1.00  0.00     0.177 A 
ATOM      9  N   UNL     1       0.742   2.223   0.748  1.00  0.00    -0.255 N 
ATOM     10  C   UNL     1       0.280   3.331   1.491  1.00  0.00     0.267 A 
ATOM     11  N   UNL     1       2.223   3.690  -0.558  1.00  0.00    -0.212 NA
ATOM     12  C   UNL     1       0.997   4.601   1.272  1.00  0.00     0.081 A 
ATOM     13  O   UNL     1      -0.618   3.281   2.326  1.00  0.00    -0.268 OA
ATOM     14  C   UNL     1       1.845   4.711   0.209  1.00  0.00     0.132 A 
ATOM     15  C   UNL     1       1.101   5.769   2.086  1.00  0.00    -0.014 A 
ATOM     16  S   UNL     1       2.623   6.230   0.086  1.00  0.00    -0.117 S 
ATOM     17  C   UNL     1       1.967   6.721   1.572  1.00  0.00     0.037 A 
ATOM     18  C   UNL     1       0.488   5.986   3.419  1.00  0.00     0.070 C 
ATOM     19  C   UNL     1       2.394   7.977   2.273  1.00  0.00     0.207 C 
ATOM     20  C   UNL     1       1.361   6.957   4.239  1.00  0.00     0.125 C 
ATOM     21  O   UNL     1       1.590   8.158   3.459  1.00  0.00    -0.372 OA
BRANCH   9  22
ATOM     22  C   UNL     1      -0.042   0.853   0.919  1.00  0.00     0.054 A 
ATOM     23  C   UNL     1       2.058  -0.763   1.040  1.00  0.00     0.046 C 
ATOM     24  C   UNL     1       0.745  -0.578   0.280  1.00  0.00    -0.027 A 
ATOM     25  C   UNL     1      -0.221  -1.887  -0.575  1.00  0.00     0.005 A 
ATOM     26  C   UNL     1      -2.237  -1.700  -0.588  1.00  0.00     0.000 A 
ATOM     27  C   UNL     1      -1.821   0.933   0.997  1.00  0.00     0.027 A 
ATOM     28  C   UNL     1      -2.925  -0.260   0.263  1.00  0.00     0.002 A 
ENDBRANCH   9  22
BRANCH  20  29
ATOM     29  C   UNL     1       2.693   6.370   4.789  1.00  0.00     0.012 C 
ATOM     30  C   UNL     1       3.377   7.414   5.678  1.00  0.00     0.010 C 
ATOM     31  C   UNL     1       2.507   5.066   5.565  1.00  0.00     0.010 C 
ENDBRANCH  20  29
ENDBRANCH   7   8
ENDBRANCH   5   7
ENDBRANCH   3   5
ENDBRANCH   2   3
ENDBRANCH   1   2
BRANCH   1  32
ATOM     32  C   UNL     1      -2.093   2.247  -3.228  1.00  0.00     0.275 C 
BRANCH  32  33
ATOM     33  O   UNL     1      -2.467   0.925  -2.803  1.00  0.00    -0.458 OA
BRANCH  33  34
ATOM     34  C   UNL     1      -1.877  -0.135  -3.420  1.00  0.00     0.338 C 
ATOM     35  O   UNL     1      -1.935  -0.381  -4.609  1.00  0.00    -0.246 OA
BRANCH  34  36
ATOM     36  C   UNL     1      -1.259  -0.989  -2.343  1.00  0.00     0.060 A 
ATOM     37  C   UNL     1      -1.366  -2.710  -2.423  1.00  0.00     0.016 A 
ATOM     38  C   UNL     1      -1.093  -0.243  -0.738  1.00  0.00     0.016 A 
ATOM     39  C   UNL     1      -1.458  -3.770  -1.003  1.00  0.00     0.010 A 
ATOM     40  C   UNL     1      -1.204  -1.378   0.935  1.00  0.00     0.010 A 
ATOM     41  C   UNL     1      -1.465  -3.210   0.677  1.00  0.00    -0.014 A 
BRANCH  41  42
ATOM     42  C   UNL     1      -1.532  -4.457   1.735  1.00  0.00     0.031 A 
ATOM     43  C   UNL     1      -0.676  -3.838   2.817  1.00  0.00     0.074 A 
ATOM     44  C   UNL     1      -2.471  -5.424   2.293  1.00  0.00     0.049 A 
ATOM     45  N   UNL     1      -1.357  -2.994   3.504  1.00  0.00    -0.248 NA
ATOM     46  C   UNL     1       0.741  -3.502   2.969  1.00  0.00     0.031 C 
ATOM     47  C   UNL     1      -2.056  -6.691   2.996  1.00  0.00     0.029 A 
ATOM     48  N   UNL     1      -3.913  -5.660   2.473  1.00  0.00    -0.354 N 
ATOM     49  C   UNL     1      -0.630  -2.339   4.437  1.00  0.00     0.074 A 
ATOM     50  C   UNL     1       0.716  -2.561   3.960  1.00  0.00     0.031 C 
ATOM     51  C   UNL     1      -3.044  -7.217   3.779  1.00  0.00     0.029 A 
ATOM     52  C   UNL     1      -4.253  -6.408   3.696  1.00  0.00     0.049 A 
ATOM     53  H   UNL     1      -4.591  -5.346   1.831  1.00  0.00     0.167 HD
ATOM     54  C   UNL     1      -1.386  -1.814   5.451  1.00  0.00     0.031 A 
ATOM     55  C   UNL     1      -5.285  -6.418   4.661  1.00  0.00     0.031 A 
ATOM     56  C   UNL     1      -2.795  -2.199   5.295  1.00  0.00     0.049 A 
ATOM     57  C   UNL     1      -6.312  -5.319   4.540  1.00  0.00     0.074 A 
ATOM     58  C   UNL     1      -3.227  -3.483   5.011  1.00  0.00     0.029 A 
ATOM     59  N   UNL     1      -3.911  -1.382   5.065  1.00  0.00    -0.354 N 
ATOM     60  N   UNL     1      -6.100  -4.154   5.067  1.00  0.00    -0.248 NA
ATOM     61  C   UNL     1      -7.638  -5.371   3.925  1.00  0.00     0.031 C 
ATOM     62  C   UNL     1      -3.962  -3.140   3.878  1.00  0.00     0.029 A 
ATOM     63  C   UNL     1      -4.789  -2.152   4.319  1.00  0.00     0.049 A 
ATOM     64  H   UNL     1      -4.043  -0.455   5.370  1.00  0.00     0.167 HD
ATOM     65  C   UNL     1      -6.808  -3.259   4.301  1.00  0.00     0.074 A 
ATOM     66  C   UNL     1      -7.918  -4.054   3.815  1.00  0.00     0.031 C 
ATOM     67  C   UNL     1      -6.179  -2.092   3.921  1.00  0.00     0.031 A 
BRANCH  54  68
ATOM     68  C   UNL     1      -0.984  -1.293   6.768  1.00  0.00    -0.014 A 
ATOM     69  C   UNL     1      -1.819  -1.697   7.839  1.00  0.00     0.009 A 
ATOM     70  C   UNL     1       0.041  -0.393   7.027  1.00  0.00     0.009 A 
ATOM     71  C   UNL     1      -1.703  -1.168   9.110  1.00  0.00     0.001 A 
ATOM     72  C   UNL     1       0.181   0.119   8.326  1.00  0.00     0.001 A 
ATOM     73  C   UNL     1      -0.699  -0.251   9.353  1.00  0.00     0.000 A 
ENDBRANCH  54  68
BRANCH  55  74
ATOM     74  C   UNL     1      -5.177  -6.878   6.170  1.00  0.00    -0.014 A 
ATOM     75  C   UNL     1      -5.506  -8.125   6.740  1.00  0.00     0.009 A 
ATOM     76  C   UNL     1      -4.894  -5.868   7.134  1.00  0.00     0.009 A 
ATOM     77  C   UNL     1      -5.442  -8.347   8.155  1.00  0.00     0.001 A 
ATOM     78  C   UNL     1      -4.858  -6.071   8.528  1.00  0.00     0.001 A 
ATOM     79  C   UNL     1      -5.097  -7.328   9.044  1.00  0.00     0.000 A 
ENDBRANCH  55  74
BRANCH  67  80
ATOM     80  C   UNL     1      -6.593  -1.201   2.801  1.00  0.00    -0.014 A 
ATOM     81  C   UNL     1      -7.871  -1.169   2.244  1.00  0.00     0.009 A 
ATOM     82  C   UNL     1      -5.644  -0.308   2.272  1.00  0.00     0.009 A 
ATOM     83  C   UNL     1      -8.211  -0.234   1.262  1.00  0.00     0.001 A 
ATOM     84  C   UNL     1      -5.998   0.672   1.346  1.00  0.00     0.001 A 
ATOM     85  C   UNL     1      -7.283   0.707   0.836  1.00  0.00     0.000 A 
ENDBRANCH  67  80
ENDBRANCH  41  42
ENDBRANCH  34  36
ENDBRANCH  33  34
ENDBRANCH  32  33
ENDBRANCH   1  32
TORSDOF 15
