REMARK SMILES O=C(OCCOC(=O)c1ccc(-c2c3nc(c(-c4ccccc4)c4ccc([nH]4)c(-c4ccccc4)c4nc(c(-c5ccccc5)c5ccc2[nH]5)C=C4)C=C3)cc1)c1ccc(-c2ccc(S(=O)(=O)[O-])cc2)cc1
REMARK SMILES IDX 4 1 3 2 2 3 1 4 57 5 58 6 72 7 59 8 71 9 60 10 61 11 62 12
REMARK SMILES IDX 70 13 63 14 69 15 64 16 65 17 66 18 67 19 68 20 5 21 6 22
REMARK SMILES IDX 7 23 8 24 9 25 10 26 56 27 11 28 55 29 12 30 13 31 14 32
REMARK SMILES IDX 49 33 15 34 54 35 48 36 50 37 16 38 53 39 47 40 46 41 17 43
REMARK SMILES IDX 39 44 24 45 38 46 25 47 28 48 37 49 51 50 26 51 27 52 36 54
REMARK SMILES IDX 52 55 29 56 18 57 19 58 23 59 20 60 22 61 21 62 40 63 41 64
REMARK SMILES IDX 45 65 42 66 44 67 43 68 30 69 31 70 35 71 32 72 34 73 33 74
REMARK H PARENT 50 42 28 53
REMARK Flexibility Score: inf
ROOT
ATOM      1  C   UNL     1       4.150  -1.256  -0.708  1.00  0.00     0.275 C 
ENDROOT
BRANCH   1   2
ATOM      2  O   UNL     1       3.040  -0.930   0.147  1.00  0.00    -0.458 OA
BRANCH   2   3
ATOM      3  C   UNL     1       2.841   0.117   0.980  1.00  0.00     0.338 C 
ATOM      4  O   UNL     1       1.863   0.076   1.727  1.00  0.00    -0.246 OA
BRANCH   3   5
ATOM      5  C   UNL     1       3.671   1.373   1.007  1.00  0.00     0.060 A 
ATOM      6  C   UNL     1       4.845   1.617   0.295  1.00  0.00     0.016 A 
ATOM      7  C   UNL     1       3.173   2.434   1.789  1.00  0.00     0.016 A 
ATOM      8  C   UNL     1       5.438   2.884   0.275  1.00  0.00     0.009 A 
ATOM      9  C   UNL     1       3.793   3.692   1.806  1.00  0.00     0.009 A 
ATOM     10  C   UNL     1       4.908   3.948   1.006  1.00  0.00    -0.018 A 
BRANCH  10  11
ATOM     11  C   UNL     1       5.530   5.272   0.917  1.00  0.00    -0.018 A 
ATOM     12  C   UNL     1       5.673   5.910  -0.329  1.00  0.00     0.010 A 
ATOM     13  C   UNL     1       6.066   5.892   2.054  1.00  0.00     0.010 A 
ATOM     14  C   UNL     1       6.362   7.116  -0.447  1.00  0.00     0.020 A 
ATOM     15  C   UNL     1       6.770   7.094   1.946  1.00  0.00     0.020 A 
ATOM     16  C   UNL     1       6.924   7.690   0.693  1.00  0.00     0.054 A 
BRANCH  16  17
ATOM     17  S   UNL     1       7.904   9.147   0.501  1.00  0.00     0.124 S 
ATOM     18  O   UNL     1       9.035   8.808  -0.332  1.00  0.00    -0.237 OA
ATOM     19  O   UNL     1       7.018  10.243   0.176  1.00  0.00    -0.237 OA
ATOM     20  O   UNL     1       8.489   9.479   1.969  1.00  0.00    -0.744 OA
ENDBRANCH  16  17
ENDBRANCH  10  11
ENDBRANCH   3   5
ENDBRANCH   2   3
ENDBRANCH   1   2
BRANCH   1  21
ATOM     21  C   UNL     1       3.990  -0.717  -2.136  1.00  0.00     0.275 C 
BRANCH  21  22
ATOM     22  O   UNL     1       3.638   0.681  -2.171  1.00  0.00    -0.458 OA
BRANCH  22  23
ATOM     23  C   UNL     1       2.307   0.945  -2.243  1.00  0.00     0.338 C 
ATOM     24  O   UNL     1       1.419   0.125  -2.408  1.00  0.00    -0.246 OA
BRANCH  23  25
ATOM     25  C   UNL     1       2.040   2.378  -1.956  1.00  0.00     0.060 A 
ATOM     26  C   UNL     1       0.896   2.698  -1.215  1.00  0.00     0.016 A 
ATOM     27  C   UNL     1       2.875   3.404  -2.407  1.00  0.00     0.016 A 
ATOM     28  C   UNL     1       0.572   4.035  -0.944  1.00  0.00     0.010 A 
ATOM     29  C   UNL     1       2.550   4.742  -2.128  1.00  0.00     0.010 A 
ATOM     30  C   UNL     1       1.386   5.076  -1.411  1.00  0.00    -0.014 A 
BRANCH  30  31
ATOM     31  C   UNL     1       0.976   6.503  -1.241  1.00  0.00     0.031 A 
ATOM     32  C   UNL     1       0.507   7.293  -2.435  1.00  0.00     0.074 A 
ATOM     33  C   UNL     1       1.002   7.116  -0.041  1.00  0.00     0.049 A 
ATOM     34  N   UNL     1       0.087   8.534  -2.494  1.00  0.00    -0.248 NA
ATOM     35  C   UNL     1       0.509   6.596  -3.730  1.00  0.00     0.031 C 
ATOM     36  C   UNL     1       1.393   6.492   1.218  1.00  0.00     0.029 A 
ATOM     37  N   UNL     1       0.697   8.411   0.315  1.00  0.00    -0.354 N 
ATOM     38  C   UNL     1      -0.235   8.761  -3.826  1.00  0.00     0.074 A 
ATOM     39  C   UNL     1       0.096   7.551  -4.550  1.00  0.00     0.031 C 
ATOM     40  C   UNL     1       1.331   7.402   2.204  1.00  0.00     0.029 A 
ATOM     41  C   UNL     1       0.892   8.681   1.649  1.00  0.00     0.049 A 
ATOM     42  H   UNL     1       0.370   9.082  -0.327  1.00  0.00     0.167 HD
ATOM     43  C   UNL     1      -0.782   9.860  -4.399  1.00  0.00     0.031 A 
ATOM     44  C   UNL     1       0.731   9.820   2.353  1.00  0.00     0.031 A 
ATOM     45  C   UNL     1      -1.110  11.077  -3.705  1.00  0.00     0.049 A 
ATOM     46  C   UNL     1       0.208  11.061   1.676  1.00  0.00     0.074 A 
ATOM     47  C   UNL     1      -1.704  12.221  -4.213  1.00  0.00     0.029 A 
ATOM     48  N   UNL     1      -0.861  11.319  -2.365  1.00  0.00    -0.354 N 
ATOM     49  N   UNL     1      -0.168  11.229   0.432  1.00  0.00    -0.248 NA
ATOM     50  C   UNL     1       0.059  12.263   2.513  1.00  0.00     0.031 C 
ATOM     51  C   UNL     1      -1.758  13.178  -3.195  1.00  0.00     0.029 A 
ATOM     52  C   UNL     1      -1.258  12.606  -2.037  1.00  0.00     0.049 A 
ATOM     53  H   UNL     1      -0.462  10.673  -1.738  1.00  0.00     0.167 HD
ATOM     54  C   UNL     1      -0.636  12.536   0.350  1.00  0.00     0.074 A 
ATOM     55  C   UNL     1      -0.505  13.116   1.669  1.00  0.00     0.031 C 
ATOM     56  C   UNL     1      -1.138  13.189  -0.726  1.00  0.00     0.031 A 
BRANCH  43  57
ATOM     57  C   UNL     1      -1.052   9.796  -5.875  1.00  0.00    -0.014 A 
ATOM     58  C   UNL     1      -2.079   8.989  -6.390  1.00  0.00     0.009 A 
ATOM     59  C   UNL     1      -0.293  10.579  -6.758  1.00  0.00     0.009 A 
ATOM     60  C   UNL     1      -2.314   8.937  -7.765  1.00  0.00     0.001 A 
ATOM     61  C   UNL     1      -0.551  10.548  -8.129  1.00  0.00     0.001 A 
ATOM     62  C   UNL     1      -1.553   9.720  -8.632  1.00  0.00     0.000 A 
ENDBRANCH  43  57
BRANCH  44  63
ATOM     63  C   UNL     1       1.054   9.857   3.806  1.00  0.00    -0.014 A 
ATOM     64  C   UNL     1       0.035   9.991   4.762  1.00  0.00     0.009 A 
ATOM     65  C   UNL     1       2.389   9.816   4.238  1.00  0.00     0.009 A 
ATOM     66  C   UNL     1       0.348  10.121   6.118  1.00  0.00     0.001 A 
ATOM     67  C   UNL     1       2.697   9.917   5.597  1.00  0.00     0.001 A 
ATOM     68  C   UNL     1       1.678  10.081   6.534  1.00  0.00     0.000 A 
ENDBRANCH  44  63
BRANCH  56  69
ATOM     69  C   UNL     1      -1.637  14.595  -0.526  1.00  0.00    -0.014 A 
ATOM     70  C   UNL     1      -0.756  15.663  -0.295  1.00  0.00     0.009 A 
ATOM     71  C   UNL     1      -3.012  14.864  -0.625  1.00  0.00     0.009 A 
ATOM     72  C   UNL     1      -1.245  16.963  -0.138  1.00  0.00     0.001 A 
ATOM     73  C   UNL     1      -3.495  16.168  -0.498  1.00  0.00     0.001 A 
ATOM     74  C   UNL     1      -2.612  17.215  -0.246  1.00  0.00     0.000 A 
ENDBRANCH  56  69
ENDBRANCH  30  31
ENDBRANCH  23  25
ENDBRANCH  22  23
ENDBRANCH  21  22
ENDBRANCH   1  21
TORSDOF 13
