REMARK SMILES C[N@@H+]1CCN(C(=O)c2ccc3[nH]c4c(c3c2)CSCC4)C[C@H]1C(=O)OCCOC(=O)c1ccc(-c2c3nc(c(-c4ccccc4)c4ccc([nH]4)c(-c4ccccc4)c4nc(c(-c5ccccc5)c5ccc2[nH]5)C=C4)C=C3)cc1
REMARK SMILES IDX 26 1 25 2 23 3 24 4 22 5 1 6 2 7 3 8 4 10 21 11 5 12 6 13
REMARK SMILES IDX 7 14 8 15 9 16 16 17 10 18 15 19 11 20 14 21 12 22 13 23
REMARK SMILES IDX 17 24 20 26 18 27 19 28 27 29 28 30 29 31 30 32 31 33 32 34
REMARK SMILES IDX 78 35 33 36 77 37 34 38 35 39 36 40 71 41 37 42 76 43 70 44
REMARK SMILES IDX 72 45 38 46 75 47 69 48 68 49 39 51 61 52 46 53 60 54 47 55
REMARK SMILES IDX 50 56 59 57 73 58 48 59 49 60 58 62 74 63 51 64 40 65 41 66
REMARK SMILES IDX 45 67 42 68 44 69 43 70 62 71 63 72 67 73 64 74 66 75 65 76
REMARK SMILES IDX 52 77 53 78 57 79 54 80 56 81 55 82
REMARK H PARENT 2 9 12 25 72 50 50 61
REMARK Flexibility Score: inf
ROOT
ATOM      1  C   UNL     1       2.683  -3.640  -2.132  1.00  0.00     0.274 C 
ENDROOT
BRANCH   1   2
ATOM      2  O   UNL     1       2.245  -2.265  -2.010  1.00  0.00    -0.458 OA
BRANCH   2   3
ATOM      3  C   UNL     1       1.163  -2.148  -1.219  1.00  0.00     0.366 C 
ATOM      4  O   UNL     1       0.622  -3.126  -0.699  1.00  0.00    -0.245 OA
BRANCH   3   5
ATOM      5  C   UNL     1       0.542  -0.793  -1.031  1.00  0.00     0.314 C 
ATOM      6  C   UNL     1       2.583   0.546  -0.487  1.00  0.00     0.333 C 
ATOM      7  N   UNL     1       1.258   0.507  -1.081  1.00  0.00    -0.323 N 
ATOM      8  C   UNL     1       0.336   1.493  -0.415  1.00  0.00     0.284 C 
ATOM      9  H   UNL     1       1.459   0.721  -2.058  1.00  0.00     0.348 HD
ATOM     10  C   UNL     1      -1.159   1.470  -0.921  1.00  0.00     0.181 C 
ATOM     11  C   UNL     1      -0.603  -0.650  -2.031  1.00  0.00     0.197 C 
ATOM     12  N   UNL     1      -1.624   0.136  -1.360  1.00  0.00    -0.326 N 
BRANCH  12  13
ATOM     13  C   UNL     1      -2.916  -0.306  -1.118  1.00  0.00     0.254 C 
ATOM     14  O   UNL     1      -3.783   0.453  -0.684  1.00  0.00    -0.269 OA
BRANCH  13  15
ATOM     15  C   UNL     1      -3.272  -1.764  -1.276  1.00  0.00     0.040 A 
ATOM     16  C   UNL     1      -2.448  -2.780  -0.764  1.00  0.00     0.016 A 
ATOM     17  C   UNL     1      -4.587  -2.076  -1.620  1.00  0.00     0.024 A 
ATOM     18  C   UNL     1      -2.897  -4.078  -0.503  1.00  0.00     0.027 A 
ATOM     19  C   UNL     1      -5.098  -3.345  -1.273  1.00  0.00     0.004 A 
ATOM     20  C   UNL     1      -4.257  -4.291  -0.686  1.00  0.00     0.046 A 
ATOM     21  C   UNL     1      -6.408  -3.897  -1.282  1.00  0.00    -0.009 A 
ATOM     22  N   UNL     1      -5.044  -5.338  -0.267  1.00  0.00    -0.358 N 
ATOM     23  C   UNL     1      -6.354  -5.056  -0.529  1.00  0.00     0.021 A 
ATOM     24  C   UNL     1      -7.636  -3.258  -1.829  1.00  0.00     0.107 C 
ATOM     25  H   UNL     1      -4.715  -6.163   0.157  1.00  0.00     0.166 HD
ATOM     26  C   UNL     1      -7.492  -5.871  -0.023  1.00  0.00     0.065 C 
ATOM     27  S   UNL     1      -9.082  -4.376  -1.789  1.00  0.00    -0.157 SA
ATOM     28  C   UNL     1      -8.811  -5.093  -0.123  1.00  0.00     0.076 C 
ENDBRANCH  13  15
ENDBRANCH  12  13
ENDBRANCH   3   5
ENDBRANCH   2   3
ENDBRANCH   1   2
BRANCH   1  29
ATOM     29  C   UNL     1       3.658  -4.036  -1.010  1.00  0.00     0.275 C 
BRANCH  29  30
ATOM     30  O   UNL     1       2.987  -4.146   0.263  1.00  0.00    -0.458 OA
BRANCH  30  31
ATOM     31  C   UNL     1       3.164  -3.127   1.135  1.00  0.00     0.338 C 
ATOM     32  O   UNL     1       4.015  -2.243   1.066  1.00  0.00    -0.246 OA
BRANCH  31  33
ATOM     33  C   UNL     1       1.973  -3.031   2.006  1.00  0.00     0.060 A 
ATOM     34  C   UNL     1       1.264  -4.151   2.441  1.00  0.00     0.016 A 
ATOM     35  C   UNL     1       1.461  -1.745   2.228  1.00  0.00     0.016 A 
ATOM     36  C   UNL     1       0.010  -3.970   3.018  1.00  0.00     0.010 A 
ATOM     37  C   UNL     1       0.184  -1.565   2.733  1.00  0.00     0.010 A 
ATOM     38  C   UNL     1      -0.544  -2.682   3.119  1.00  0.00    -0.014 A 
BRANCH  38  39
ATOM     39  C   UNL     1      -1.789  -2.524   3.854  1.00  0.00     0.031 A 
ATOM     40  C   UNL     1      -1.615  -2.477   5.305  1.00  0.00     0.074 A 
ATOM     41  C   UNL     1      -3.010  -2.265   3.365  1.00  0.00     0.049 A 
ATOM     42  N   UNL     1      -1.751  -3.453   6.133  1.00  0.00    -0.248 NA
ATOM     43  C   UNL     1      -1.093  -1.233   5.882  1.00  0.00     0.031 C 
ATOM     44  C   UNL     1      -3.292  -1.748   2.050  1.00  0.00     0.029 A 
ATOM     45  N   UNL     1      -4.240  -2.340   3.950  1.00  0.00    -0.354 N 
ATOM     46  C   UNL     1      -1.582  -2.878   7.380  1.00  0.00     0.074 A 
ATOM     47  C   UNL     1      -0.949  -1.601   7.154  1.00  0.00     0.031 C 
ATOM     48  C   UNL     1      -4.606  -1.495   1.922  1.00  0.00     0.029 A 
ATOM     49  C   UNL     1      -5.270  -1.871   3.148  1.00  0.00     0.049 A 
ATOM     50  H   UNL     1      -4.383  -2.693   4.858  1.00  0.00     0.167 HD
ATOM     51  C   UNL     1      -2.271  -3.353   8.452  1.00  0.00     0.031 A 
ATOM     52  C   UNL     1      -6.588  -1.724   3.429  1.00  0.00     0.031 A 
ATOM     53  C   UNL     1      -2.815  -4.668   8.195  1.00  0.00     0.049 A 
ATOM     54  C   UNL     1      -6.887  -2.597   4.588  1.00  0.00     0.074 A 
ATOM     55  C   UNL     1      -2.281  -5.874   7.779  1.00  0.00     0.029 A 
ATOM     56  N   UNL     1      -4.169  -4.769   7.965  1.00  0.00    -0.354 N 
ATOM     57  N   UNL     1      -6.780  -3.902   4.546  1.00  0.00    -0.248 NA
ATOM     58  C   UNL     1      -6.771  -2.011   5.915  1.00  0.00     0.031 C 
ATOM     59  C   UNL     1      -3.257  -6.434   6.903  1.00  0.00     0.029 A 
ATOM     60  C   UNL     1      -4.350  -5.563   6.862  1.00  0.00     0.049 A 
ATOM     61  H   UNL     1      -4.880  -4.346   8.498  1.00  0.00     0.167 HD
ATOM     62  C   UNL     1      -6.166  -4.252   5.745  1.00  0.00     0.074 A 
ATOM     63  C   UNL     1      -6.260  -3.054   6.577  1.00  0.00     0.031 C 
ATOM     64  C   UNL     1      -5.385  -5.369   5.862  1.00  0.00     0.031 A 
BRANCH  51  65
ATOM     65  C   UNL     1      -2.789  -2.452   9.545  1.00  0.00    -0.014 A 
ATOM     66  C   UNL     1      -2.847  -1.046   9.452  1.00  0.00     0.009 A 
ATOM     67  C   UNL     1      -3.473  -3.035  10.623  1.00  0.00     0.009 A 
ATOM     68  C   UNL     1      -3.546  -0.263  10.372  1.00  0.00     0.001 A 
ATOM     69  C   UNL     1      -4.218  -2.259  11.518  1.00  0.00     0.001 A 
ATOM     70  C   UNL     1      -4.255  -0.874  11.392  1.00  0.00     0.000 A 
ENDBRANCH  51  65
BRANCH  52  71
ATOM     71  C   UNL     1      -7.410  -0.623   2.859  1.00  0.00    -0.014 A 
ATOM     72  C   UNL     1      -6.777   0.614   2.582  1.00  0.00     0.009 A 
ATOM     73  C   UNL     1      -8.784  -0.696   2.611  1.00  0.00     0.009 A 
ATOM     74  C   UNL     1      -7.446   1.691   1.998  1.00  0.00     0.001 A 
ATOM     75  C   UNL     1      -9.468   0.399   2.042  1.00  0.00     0.001 A 
ATOM     76  C   UNL     1      -8.797   1.581   1.721  1.00  0.00     0.000 A 
ENDBRANCH  52  71
BRANCH  64  77
ATOM     77  C   UNL     1      -5.363  -6.373   4.733  1.00  0.00    -0.014 A 
ATOM     78  C   UNL     1      -5.933  -7.636   4.951  1.00  0.00     0.009 A 
ATOM     79  C   UNL     1      -4.525  -6.200   3.614  1.00  0.00     0.009 A 
ATOM     80  C   UNL     1      -5.649  -8.707   4.098  1.00  0.00     0.001 A 
ATOM     81  C   UNL     1      -4.232  -7.280   2.770  1.00  0.00     0.001 A 
ATOM     82  C   UNL     1      -4.790  -8.533   3.015  1.00  0.00     0.000 A 
ENDBRANCH  64  77
ENDBRANCH  38  39
ENDBRANCH  31  33
ENDBRANCH  30  31
ENDBRANCH  29  30
ENDBRANCH   1  29
TORSDOF 13
