REMARK SMILES C[C@@]1(CN2C(=O)c3ccc(C(=O)OCCOC(=O)c4ccc(-c5c6nc(c(-c7ccccc7)c7ccc([nH]7)c(-c7ccccc7)c7nc(c(-c8ccccc8)c8ccc5[nH]8)C=C7)C=C6)cc4)cc3C2=O)CCCO1
REMARK SMILES IDX 14 1 13 2 11 3 12 4 10 5 4 6 5 7 69 8 6 9 7 10 68 11 70 12
REMARK SMILES IDX 8 13 67 14 9 15 3 16 2 17 1 18 71 19 74 20 72 21 73 22 15 23
REMARK SMILES IDX 16 24 17 25 18 26 19 27 20 28 66 29 21 30 65 31 22 32 23 33
REMARK SMILES IDX 24 34 59 35 25 36 64 37 58 38 60 39 26 40 63 41 57 42 56 43
REMARK SMILES IDX 27 45 49 46 34 47 48 48 35 49 38 50 47 51 61 52 36 53 37 54
REMARK SMILES IDX 46 56 62 57 39 58 28 59 29 60 33 61 30 62 32 63 31 64 50 65
REMARK SMILES IDX 51 66 55 67 52 68 54 69 53 70 40 71 41 72 45 73 42 74 44 75
REMARK SMILES IDX 43 76
REMARK H PARENT 60 44 38 55
REMARK Flexibility Score: inf
ROOT
ATOM      1  C   UNL     1      -7.154   3.969  -4.608  1.00  0.00     0.275 C 
ENDROOT
BRANCH   1   2
ATOM      2  O   UNL     1      -6.039   3.145  -4.200  1.00  0.00    -0.458 OA
BRANCH   2   3
ATOM      3  C   UNL     1      -5.242   3.658  -3.231  1.00  0.00     0.338 C 
ATOM      4  O   UNL     1      -5.371   4.740  -2.683  1.00  0.00    -0.246 OA
BRANCH   3   5
ATOM      5  C   UNL     1      -4.220   2.667  -2.803  1.00  0.00     0.060 A 
ATOM      6  N   UNL     1      -1.547   0.377   0.159  1.00  0.00    -0.271 N 
ATOM      7  C   UNL     1      -1.498  -0.068  -1.136  1.00  0.00     0.261 C 
ATOM      8  C   UNL     1      -2.448   1.395   0.305  1.00  0.00     0.261 C 
ATOM      9  O   UNL     1      -0.878  -1.003  -1.609  1.00  0.00    -0.269 OA
ATOM     10  C   UNL     1      -2.385   0.796  -1.915  1.00  0.00     0.053 A 
ATOM     11  C   UNL     1      -2.946   1.696  -1.036  1.00  0.00     0.054 A 
ATOM     12  O   UNL     1      -2.864   1.937   1.310  1.00  0.00    -0.269 OA
ATOM     13  C   UNL     1      -2.691   0.812  -3.264  1.00  0.00     0.015 A 
ATOM     14  C   UNL     1      -3.832   2.665  -1.453  1.00  0.00     0.030 A 
ATOM     15  C   UNL     1      -3.636   1.752  -3.707  1.00  0.00     0.016 A 
BRANCH   6  16
ATOM     16  C   UNL     1      -0.801  -0.211   1.264  1.00  0.00     0.164 C 
BRANCH  16  17
ATOM     17  C   UNL     1       0.665   0.296   1.386  1.00  0.00     0.084 C 
ATOM     18  C   UNL     1       1.482   0.050   0.118  1.00  0.00     0.044 C 
ATOM     19  C   UNL     1       1.359  -0.340   2.598  1.00  0.00     0.039 C 
ATOM     20  O   UNL     1       0.654   1.718   1.642  1.00  0.00    -0.373 OA
ATOM     21  C   UNL     1       1.081   0.640   3.710  1.00  0.00     0.031 C 
ATOM     22  C   UNL     1       1.102   1.964   2.982  1.00  0.00     0.161 C 
ENDBRANCH  16  17
ENDBRANCH   6  16
ENDBRANCH   3   5
ENDBRANCH   2   3
ENDBRANCH   1   2
BRANCH   1  23
ATOM     23  C   UNL     1      -8.482   3.450  -4.047  1.00  0.00     0.275 C 
BRANCH  23  24
ATOM     24  O   UNL     1      -8.550   3.630  -2.620  1.00  0.00    -0.458 OA
BRANCH  24  25
ATOM     25  C   UNL     1      -8.287   2.520  -1.896  1.00  0.00     0.338 C 
ATOM     26  O   UNL     1      -8.027   1.404  -2.314  1.00  0.00    -0.246 OA
BRANCH  25  27
ATOM     27  C   UNL     1      -8.221   2.843  -0.466  1.00  0.00     0.060 A 
ATOM     28  C   UNL     1      -6.995   3.269   0.026  1.00  0.00     0.016 A 
ATOM     29  C   UNL     1      -9.251   2.521   0.412  1.00  0.00     0.016 A 
ATOM     30  C   UNL     1      -6.732   3.239   1.389  1.00  0.00     0.010 A 
ATOM     31  C   UNL     1      -9.028   2.627   1.793  1.00  0.00     0.010 A 
ATOM     32  C   UNL     1      -7.752   2.942   2.301  1.00  0.00    -0.014 A 
BRANCH  32  33
ATOM     33  C   UNL     1      -7.468   2.943   3.767  1.00  0.00     0.031 A 
ATOM     34  C   UNL     1      -7.760   1.724   4.607  1.00  0.00     0.074 A 
ATOM     35  C   UNL     1      -6.930   4.032   4.355  1.00  0.00     0.049 A 
ATOM     36  N   UNL     1      -7.738   1.589   5.911  1.00  0.00    -0.248 NA
ATOM     37  C   UNL     1      -8.146   0.498   3.890  1.00  0.00     0.031 C 
ATOM     38  C   UNL     1      -6.537   5.266   3.668  1.00  0.00     0.029 A 
ATOM     39  N   UNL     1      -6.608   4.276   5.669  1.00  0.00    -0.354 N 
ATOM     40  C   UNL     1      -8.158   0.289   6.169  1.00  0.00     0.074 A 
ATOM     41  C   UNL     1      -8.447  -0.320   4.888  1.00  0.00     0.031 C 
ATOM     42  C   UNL     1      -5.984   6.109   4.551  1.00  0.00     0.029 A 
ATOM     43  C   UNL     1      -6.081   5.528   5.883  1.00  0.00     0.049 A 
ATOM     44  H   UNL     1      -6.741   3.617   6.388  1.00  0.00     0.167 HD
ATOM     45  C   UNL     1      -8.291  -0.340   7.362  1.00  0.00     0.031 A 
ATOM     46  C   UNL     1      -5.758   6.168   7.022  1.00  0.00     0.031 A 
ATOM     47  C   UNL     1      -7.970   0.259   8.633  1.00  0.00     0.049 A 
ATOM     48  C   UNL     1      -5.982   5.476   8.335  1.00  0.00     0.074 A 
ATOM     49  C   UNL     1      -8.058  -0.301   9.897  1.00  0.00     0.029 A 
ATOM     50  N   UNL     1      -7.490   1.548   8.802  1.00  0.00    -0.354 N 
ATOM     51  N   UNL     1      -6.420   4.263   8.565  1.00  0.00    -0.248 NA
ATOM     52  C   UNL     1      -5.679   6.250   9.546  1.00  0.00     0.031 C 
ATOM     53  C   UNL     1      -7.691   0.670  10.833  1.00  0.00     0.029 A 
ATOM     54  C   UNL     1      -7.303   1.811  10.150  1.00  0.00     0.049 A 
ATOM     55  H   UNL     1      -7.309   2.184   8.072  1.00  0.00     0.167 HD
ATOM     56  C   UNL     1      -6.421   4.117   9.945  1.00  0.00     0.074 A 
ATOM     57  C   UNL     1      -5.920   5.359  10.498  1.00  0.00     0.031 C 
ATOM     58  C   UNL     1      -6.804   3.050  10.688  1.00  0.00     0.031 A 
BRANCH  45  59
ATOM     59  C   UNL     1      -8.853  -1.738   7.358  1.00  0.00    -0.014 A 
ATOM     60  C   UNL     1      -8.127  -2.828   6.851  1.00  0.00     0.009 A 
ATOM     61  C   UNL     1     -10.123  -1.972   7.912  1.00  0.00     0.009 A 
ATOM     62  C   UNL     1      -8.679  -4.112   6.861  1.00  0.00     0.001 A 
ATOM     63  C   UNL     1     -10.657  -3.262   7.952  1.00  0.00     0.001 A 
ATOM     64  C   UNL     1      -9.940  -4.329   7.416  1.00  0.00     0.000 A 
ENDBRANCH  45  59
BRANCH  46  65
ATOM     65  C   UNL     1      -5.243   7.564   6.973  1.00  0.00    -0.014 A 
ATOM     66  C   UNL     1      -3.931   7.858   7.372  1.00  0.00     0.009 A 
ATOM     67  C   UNL     1      -6.066   8.613   6.530  1.00  0.00     0.009 A 
ATOM     68  C   UNL     1      -3.463   9.175   7.351  1.00  0.00     0.001 A 
ATOM     69  C   UNL     1      -5.583   9.921   6.472  1.00  0.00     0.001 A 
ATOM     70  C   UNL     1      -4.286  10.203   6.894  1.00  0.00     0.000 A 
ENDBRANCH  46  65
BRANCH  58  71
ATOM     71  C   UNL     1      -6.648   3.164  12.179  1.00  0.00    -0.014 A 
ATOM     72  C   UNL     1      -7.471   4.007  12.941  1.00  0.00     0.009 A 
ATOM     73  C   UNL     1      -5.675   2.390  12.832  1.00  0.00     0.009 A 
ATOM     74  C   UNL     1      -7.294   4.104  14.323  1.00  0.00     0.001 A 
ATOM     75  C   UNL     1      -5.525   2.462  14.217  1.00  0.00     0.001 A 
ATOM     76  C   UNL     1      -6.326   3.327  14.960  1.00  0.00     0.000 A 
ENDBRANCH  58  71
ENDBRANCH  32  33
ENDBRANCH  25  27
ENDBRANCH  24  25
ENDBRANCH  23  24
ENDBRANCH   1  23
TORSDOF 13
