REMARK SMILES COc1cc2c(cc1OC)-c1c(c(C(=O)Nc3ccc(C(=O)OCCOC(=O)c4ccc(-c5c6nc(c(-c7ccccc7)c7ccc([nH]7)c(-c7ccccc7)c7nc(c(-c8ccccc8)c8ccc5[nH]8)C=C7)C=C6)cc4)cc3)nn1-c1ccc(F)cc1)C2
REMARK SMILES IDX 24 1 23 2 21 3 22 4 20 5 17 6 18 7 78 8 19 9 77 10 16 11
REMARK SMILES IDX 14 12 15 13 13 15 3 16 4 17 8 18 5 19 7 20 6 21 88 22 11 23
REMARK SMILES IDX 12 24 80 25 79 26 2 27 1 28 9 29 10 30 81 31 82 32 87 33
REMARK SMILES IDX 83 34 86 35 84 36 85 37 25 38 26 39 27 40 28 41 29 42 30 43
REMARK SMILES IDX 76 44 31 45 75 46 32 47 33 48 34 49 69 50 35 51 74 52 68 53
REMARK SMILES IDX 70 54 36 55 73 56 67 57 66 58 37 60 59 61 44 62 58 63 45 64
REMARK SMILES IDX 48 65 57 66 71 67 46 68 47 69 56 71 72 72 49 73 38 74 39 75
REMARK SMILES IDX 43 76 40 77 42 78 41 79 60 80 61 81 65 82 62 83 64 84 63 85
REMARK SMILES IDX 50 86 51 87 55 88 52 89 54 90 53 91
REMARK H PARENT 16 14 70 59 48 70
REMARK Flexibility Score: inf
ROOT
ATOM      1  C   UNL     1      -4.684  -2.057   3.869  1.00  0.00     0.275 C 
ENDROOT
BRANCH   1   2
ATOM      2  O   UNL     1      -4.259  -3.434   4.065  1.00  0.00    -0.458 OA
BRANCH   2   3
ATOM      3  C   UNL     1      -4.686  -4.362   3.168  1.00  0.00     0.338 C 
ATOM      4  O   UNL     1      -5.426  -4.152   2.214  1.00  0.00    -0.246 OA
BRANCH   3   5
ATOM      5  C   UNL     1      -3.982  -5.664   3.375  1.00  0.00     0.060 A 
ATOM      6  C   UNL     1      -2.128  -7.786   3.503  1.00  0.00     0.041 A 
ATOM      7  C   UNL     1      -2.694  -7.442   2.290  1.00  0.00     0.027 A 
ATOM      8  C   UNL     1      -2.672  -7.234   4.670  1.00  0.00     0.027 A 
ATOM      9  C   UNL     1      -3.647  -6.411   2.248  1.00  0.00     0.018 A 
ATOM     10  C   UNL     1      -3.557  -6.140   4.609  1.00  0.00     0.018 A 
BRANCH   6  11
ATOM     11  N   UNL     1      -1.133  -8.762   3.616  1.00  0.00    -0.321 N 
ATOM     12  C   UNL     1      -0.004  -9.031   2.858  1.00  0.00     0.276 C 
ATOM     13  O   UNL     1       0.277 -10.229   2.732  1.00  0.00    -0.267 OA
ATOM     14  H   UNL     1      -1.258  -9.373   4.378  1.00  0.00     0.170 HD
BRANCH  12  15
ATOM     15  C   UNL     1       0.927  -7.964   2.369  1.00  0.00     0.155 A 
ATOM     16  C   UNL     1       1.868  -2.041   1.888  1.00  0.00     0.161 A 
ATOM     17  C   UNL     1       1.184  -2.876   2.808  1.00  0.00     0.055 A 
ATOM     18  C   UNL     1       2.817  -2.569   0.993  1.00  0.00     0.161 A 
ATOM     19  C   UNL     1       1.291  -4.257   2.706  1.00  0.00    -0.030 A 
ATOM     20  C   UNL     1       2.954  -3.954   0.914  1.00  0.00     0.061 A 
ATOM     21  C   UNL     1       2.186  -4.749   1.749  1.00  0.00     0.008 A 
ATOM     22  C   UNL     1       0.539  -5.405   3.464  1.00  0.00     0.076 C 
ATOM     23  C   UNL     1       2.031  -6.154   1.798  1.00  0.00     0.079 A 
ATOM     24  C   UNL     1       1.040  -6.567   2.643  1.00  0.00     0.016 A 
ATOM     25  N   UNL     1       2.785  -7.233   1.507  1.00  0.00    -0.232 N 
ATOM     26  N   UNL     1       2.001  -8.341   1.583  1.00  0.00    -0.162 NA
BRANCH  16  27
ATOM     27  O   UNL     1       1.538  -0.708   1.931  1.00  0.00    -0.493 OA
ATOM     28  C   UNL     1       0.840  -0.287   0.752  1.00  0.00     0.278 C 
ENDBRANCH  16  27
BRANCH  18  29
ATOM     29  O   UNL     1       3.632  -1.904   0.120  1.00  0.00    -0.493 OA
ATOM     30  C   UNL     1       3.960  -0.544   0.369  1.00  0.00     0.278 C 
ENDBRANCH  18  29
BRANCH  25  31
ATOM     31  C   UNL     1       4.190  -7.196   1.313  1.00  0.00     0.065 A 
ATOM     32  C   UNL     1       4.799  -7.914   0.288  1.00  0.00     0.031 A 
ATOM     33  C   UNL     1       4.945  -6.281   2.084  1.00  0.00     0.031 A 
ATOM     34  C   UNL     1       6.132  -7.617  -0.036  1.00  0.00     0.041 A 
ATOM     35  C   UNL     1       6.272  -6.008   1.769  1.00  0.00     0.041 A 
ATOM     36  C   UNL     1       6.846  -6.660   0.691  1.00  0.00     0.123 A 
ATOM     37  F   UNL     1       8.099  -6.350   0.333  1.00  0.00    -0.207 F 
ENDBRANCH  25  31
ENDBRANCH  12  15
ENDBRANCH   6  11
ENDBRANCH   3   5
ENDBRANCH   2   3
ENDBRANCH   1   2
BRANCH   1  38
ATOM     38  C   UNL     1      -3.511  -1.099   3.586  1.00  0.00     0.275 C 
BRANCH  38  39
ATOM     39  O   UNL     1      -3.038  -1.291   2.236  1.00  0.00    -0.458 OA
BRANCH  39  40
ATOM     40  C   UNL     1      -2.150  -2.305   2.183  1.00  0.00     0.338 C 
ATOM     41  O   UNL     1      -1.617  -2.795   3.170  1.00  0.00    -0.246 OA
BRANCH  40  42
ATOM     42  C   UNL     1      -2.148  -3.007   0.883  1.00  0.00     0.060 A 
ATOM     43  C   UNL     1      -2.723  -2.603  -0.315  1.00  0.00     0.016 A 
ATOM     44  C   UNL     1      -1.681  -4.307   0.981  1.00  0.00     0.016 A 
ATOM     45  C   UNL     1      -3.070  -3.591  -1.258  1.00  0.00     0.010 A 
ATOM     46  C   UNL     1      -1.952  -5.254   0.034  1.00  0.00     0.010 A 
ATOM     47  C   UNL     1      -2.822  -4.945  -0.986  1.00  0.00    -0.014 A 
BRANCH  47  48
ATOM     48  C   UNL     1      -3.196  -6.086  -1.817  1.00  0.00     0.031 A 
ATOM     49  C   UNL     1      -2.133  -6.361  -2.792  1.00  0.00     0.074 A 
ATOM     50  C   UNL     1      -4.232  -6.952  -1.720  1.00  0.00     0.049 A 
ATOM     51  N   UNL     1      -2.070  -5.747  -3.920  1.00  0.00    -0.248 NA
ATOM     52  C   UNL     1      -0.939  -7.143  -2.452  1.00  0.00     0.031 C 
ATOM     53  C   UNL     1      -5.321  -7.052  -0.744  1.00  0.00     0.029 A 
ATOM     54  N   UNL     1      -4.505  -8.000  -2.563  1.00  0.00    -0.354 N 
ATOM     55  C   UNL     1      -0.948  -6.233  -4.546  1.00  0.00     0.074 A 
ATOM     56  C   UNL     1      -0.178  -6.901  -3.526  1.00  0.00     0.031 C 
ATOM     57  C   UNL     1      -6.037  -8.190  -0.948  1.00  0.00     0.029 A 
ATOM     58  C   UNL     1      -5.580  -8.800  -2.187  1.00  0.00     0.049 A 
ATOM     59  H   UNL     1      -3.978  -8.173  -3.376  1.00  0.00     0.167 HD
ATOM     60  C   UNL     1      -0.902  -6.252  -5.902  1.00  0.00     0.031 A 
ATOM     61  C   UNL     1      -6.253  -9.694  -2.958  1.00  0.00     0.031 A 
ATOM     62  C   UNL     1      -2.053  -5.575  -6.468  1.00  0.00     0.049 A 
ATOM     63  C   UNL     1      -6.073  -9.257  -4.356  1.00  0.00     0.074 A 
ATOM     64  C   UNL     1      -2.505  -4.271  -6.481  1.00  0.00     0.029 A 
ATOM     65  N   UNL     1      -3.151  -6.380  -6.685  1.00  0.00    -0.354 N 
ATOM     66  N   UNL     1      -6.612  -8.177  -4.838  1.00  0.00    -0.248 NA
ATOM     67  C   UNL     1      -5.004  -9.836  -5.152  1.00  0.00     0.031 C 
ATOM     68  C   UNL     1      -3.926  -4.355  -6.372  1.00  0.00     0.029 A 
ATOM     69  C   UNL     1      -4.302  -5.699  -6.367  1.00  0.00     0.049 A 
ATOM     70  H   UNL     1      -3.115  -7.305  -7.019  1.00  0.00     0.167 HD
ATOM     71  C   UNL     1      -5.666  -7.690  -5.722  1.00  0.00     0.074 A 
ATOM     72  C   UNL     1      -4.790  -8.824  -5.996  1.00  0.00     0.031 C 
ATOM     73  C   UNL     1      -5.526  -6.348  -5.922  1.00  0.00     0.031 A 
BRANCH  60  74
ATOM     74  C   UNL     1      -0.071  -7.212  -6.694  1.00  0.00    -0.014 A 
ATOM     75  C   UNL     1       0.483  -8.391  -6.161  1.00  0.00     0.009 A 
ATOM     76  C   UNL     1      -0.010  -7.051  -8.087  1.00  0.00     0.009 A 
ATOM     77  C   UNL     1       1.088  -9.353  -6.970  1.00  0.00     0.001 A 
ATOM     78  C   UNL     1       0.561  -8.031  -8.905  1.00  0.00     0.001 A 
ATOM     79  C   UNL     1       1.113  -9.180  -8.345  1.00  0.00     0.000 A 
ENDBRANCH  60  74
BRANCH  61  80
ATOM     80  C   UNL     1      -6.717 -11.070  -2.666  1.00  0.00    -0.014 A 
ATOM     81  C   UNL     1      -6.024 -11.870  -1.744  1.00  0.00     0.009 A 
ATOM     82  C   UNL     1      -7.611 -11.711  -3.547  1.00  0.00     0.009 A 
ATOM     83  C   UNL     1      -6.161 -13.265  -1.756  1.00  0.00     0.001 A 
ATOM     84  C   UNL     1      -7.747 -13.106  -3.558  1.00  0.00     0.001 A 
ATOM     85  C   UNL     1      -7.004 -13.885  -2.676  1.00  0.00     0.000 A 
ENDBRANCH  61  80
BRANCH  73  86
ATOM     86  C   UNL     1      -6.657  -5.450  -5.461  1.00  0.00    -0.014 A 
ATOM     87  C   UNL     1      -7.221  -4.572  -6.399  1.00  0.00     0.009 A 
ATOM     88  C   UNL     1      -7.104  -5.364  -4.129  1.00  0.00     0.009 A 
ATOM     89  C   UNL     1      -8.176  -3.625  -6.022  1.00  0.00     0.001 A 
ATOM     90  C   UNL     1      -8.082  -4.434  -3.755  1.00  0.00     0.001 A 
ATOM     91  C   UNL     1      -8.608  -3.556  -4.700  1.00  0.00     0.000 A 
ENDBRANCH  73  86
ENDBRANCH  47  48
ENDBRANCH  40  42
ENDBRANCH  39  40
ENDBRANCH  38  39
ENDBRANCH   1  38
TORSDOF 16
