REMARK SMILES CC1=C[C@@H](C)[C@H]2C(=O)N([C@H](Cc3ccccc3)C(=O)OCCOC(=O)c3ccc(-c4c5nc(c(-c6ccccc6)c6ccc([nH]6)c(-c6ccccc6)c6nc(c(-c7ccccc7)c7ccc4[nH]7)C=C6)C=C5)cc3)C(=O)[C@H]2C1
REMARK SMILES IDX 21 1 20 2 18 3 19 4 10 5 9 6 1 7 2 8 3 9 77 10 4 11 76 12
REMARK SMILES IDX 6 13 5 14 74 15 7 16 75 17 8 18 11 19 12 20 13 21 17 22
REMARK SMILES IDX 14 23 16 24 15 25 22 26 23 27 24 28 25 29 26 30 27 31 73 32
REMARK SMILES IDX 28 33 72 34 29 35 30 36 31 37 66 38 32 39 71 40 65 41 67 42
REMARK SMILES IDX 33 43 70 44 64 45 63 46 34 48 56 49 41 50 55 51 42 52 45 53
REMARK SMILES IDX 54 54 68 55 43 56 44 57 53 59 69 60 46 61 35 62 36 63 40 64
REMARK SMILES IDX 37 65 39 66 38 67 57 68 58 69 62 70 59 71 61 72 60 73 47 74
REMARK SMILES IDX 48 75 52 76 49 77 51 78 50 79
REMARK H PARENT 67 47 45 58
REMARK Flexibility Score: inf
ROOT
ATOM      1  C   UNL     1       3.155  -5.799   5.638  1.00  0.00     0.274 C 
ENDROOT
BRANCH   1   2
ATOM      2  O   UNL     1       2.304  -4.645   5.551  1.00  0.00    -0.461 OA
BRANCH   2   3
ATOM      3  C   UNL     1       2.583  -3.636   6.416  1.00  0.00     0.329 C 
ATOM      4  O   UNL     1       3.509  -3.637   7.224  1.00  0.00    -0.250 OA
BRANCH   3   5
ATOM      5  C   UNL     1       1.547  -2.515   6.374  1.00  0.00     0.207 C 
BRANCH   5   6
ATOM      6  N   UNL     1       0.899  -2.508   7.689  1.00  0.00    -0.267 N 
ATOM      7  C   UNL     1      -3.644  -0.302  10.538  1.00  0.00     0.039 C 
ATOM      8  C   UNL     1      -2.605  -1.270  10.048  1.00  0.00    -0.076 C 
ATOM      9  C   UNL     1      -2.960  -2.450   9.519  1.00  0.00    -0.024 C 
ATOM     10  C   UNL     1      -1.176  -0.821  10.184  1.00  0.00     0.044 C 
ATOM     11  C   UNL     1      -2.007  -3.449   8.935  1.00  0.00     0.022 C 
ATOM     12  C   UNL     1      -0.119  -1.771   9.635  1.00  0.00     0.096 C 
ATOM     13  C   UNL     1      -0.546  -3.217   9.381  1.00  0.00     0.098 C 
ATOM     14  C   UNL     1      -2.262  -3.473   7.418  1.00  0.00     0.013 C 
ATOM     15  C   UNL     1       0.486  -1.366   8.315  1.00  0.00     0.234 C 
ATOM     16  C   UNL     1       0.398  -3.634   8.290  1.00  0.00     0.234 C 
ATOM     17  O   UNL     1       0.626  -0.227   7.900  1.00  0.00    -0.274 OA
ATOM     18  O   UNL     1       0.573  -4.792   7.943  1.00  0.00    -0.274 OA
ENDBRANCH   5   6
BRANCH   5  19
ATOM     19  C   UNL     1       0.504  -2.524   5.250  1.00  0.00     0.073 C 
BRANCH  19  20
ATOM     20  C   UNL     1       1.024  -2.508   3.833  1.00  0.00    -0.045 A 
ATOM     21  C   UNL     1       1.647  -1.381   3.282  1.00  0.00     0.004 A 
ATOM     22  C   UNL     1       0.839  -3.642   3.028  1.00  0.00     0.004 A 
ATOM     23  C   UNL     1       2.079  -1.399   1.952  1.00  0.00     0.000 A 
ATOM     24  C   UNL     1       1.276  -3.659   1.706  1.00  0.00     0.000 A 
ATOM     25  C   UNL     1       1.895  -2.536   1.167  1.00  0.00     0.000 A 
ENDBRANCH  19  20
ENDBRANCH   5  19
ENDBRANCH   3   5
ENDBRANCH   2   3
ENDBRANCH   1   2
BRANCH   1  26
ATOM     26  C   UNL     1       4.288  -5.696   4.625  1.00  0.00     0.275 C 
BRANCH  26  27
ATOM     27  O   UNL     1       5.038  -4.494   4.869  1.00  0.00    -0.458 OA
BRANCH  27  28
ATOM     28  C   UNL     1       5.118  -3.634   3.829  1.00  0.00     0.338 C 
ATOM     29  O   UNL     1       4.740  -3.808   2.686  1.00  0.00    -0.246 OA
BRANCH  28  30
ATOM     30  C   UNL     1       5.838  -2.425   4.256  1.00  0.00     0.060 A 
ATOM     31  C   UNL     1       5.295  -1.548   5.200  1.00  0.00     0.016 A 
ATOM     32  C   UNL     1       7.046  -2.130   3.628  1.00  0.00     0.016 A 
ATOM     33  C   UNL     1       5.953  -0.358   5.505  1.00  0.00     0.010 A 
ATOM     34  C   UNL     1       7.723  -0.959   3.961  1.00  0.00     0.010 A 
ATOM     35  C   UNL     1       7.174  -0.059   4.890  1.00  0.00    -0.014 A 
BRANCH  35  36
ATOM     36  C   UNL     1       7.896   1.197   5.190  1.00  0.00     0.031 A 
ATOM     37  C   UNL     1       8.004   2.262   4.138  1.00  0.00     0.074 A 
ATOM     38  C   UNL     1       8.498   1.350   6.383  1.00  0.00     0.049 A 
ATOM     39  N   UNL     1       8.762   3.328   4.117  1.00  0.00    -0.248 NA
ATOM     40  C   UNL     1       7.149   2.103   2.950  1.00  0.00     0.031 C 
ATOM     41  C   UNL     1       8.424   0.404   7.497  1.00  0.00     0.029 A 
ATOM     42  N   UNL     1       9.313   2.351   6.845  1.00  0.00    -0.354 N 
ATOM     43  C   UNL     1       8.500   3.951   2.904  1.00  0.00     0.074 A 
ATOM     44  C   UNL     1       7.515   3.144   2.214  1.00  0.00     0.031 C 
ATOM     45  C   UNL     1       9.171   0.866   8.513  1.00  0.00     0.029 A 
ATOM     46  C   UNL     1       9.823   2.103   8.096  1.00  0.00     0.049 A 
ATOM     47  H   UNL     1       9.513   3.167   6.332  1.00  0.00     0.167 HD
ATOM     48  C   UNL     1       9.041   5.089   2.410  1.00  0.00     0.031 A 
ATOM     49  C   UNL     1      10.749   2.772   8.807  1.00  0.00     0.031 A 
ATOM     50  C   UNL     1      10.023   5.881   3.101  1.00  0.00     0.049 A 
ATOM     51  C   UNL     1      11.380   3.997   8.210  1.00  0.00     0.074 A 
ATOM     52  C   UNL     1      10.649   7.042   2.683  1.00  0.00     0.029 A 
ATOM     53  N   UNL     1      10.517   5.591   4.364  1.00  0.00    -0.354 N 
ATOM     54  N   UNL     1      11.155   4.557   7.046  1.00  0.00    -0.248 NA
ATOM     55  C   UNL     1      12.398   4.677   9.022  1.00  0.00     0.031 C 
ATOM     56  C   UNL     1      11.547   7.438   3.681  1.00  0.00     0.029 A 
ATOM     57  C   UNL     1      11.447   6.546   4.737  1.00  0.00     0.049 A 
ATOM     58  H   UNL     1      10.246   4.821   4.914  1.00  0.00     0.167 HD
ATOM     59  C   UNL     1      11.991   5.663   6.991  1.00  0.00     0.074 A 
ATOM     60  C   UNL     1      12.715   5.704   8.246  1.00  0.00     0.031 C 
ATOM     61  C   UNL     1      12.151   6.563   5.992  1.00  0.00     0.031 A 
BRANCH  48  62
ATOM     62  C   UNL     1       8.607   5.527   1.041  1.00  0.00    -0.014 A 
ATOM     63  C   UNL     1       7.353   6.119   0.830  1.00  0.00     0.009 A 
ATOM     64  C   UNL     1       9.485   5.385  -0.046  1.00  0.00     0.009 A 
ATOM     65  C   UNL     1       6.978   6.540  -0.449  1.00  0.00     0.001 A 
ATOM     66  C   UNL     1       9.115   5.826  -1.318  1.00  0.00     0.001 A 
ATOM     67  C   UNL     1       7.860   6.398  -1.519  1.00  0.00     0.000 A 
ENDBRANCH  48  62
BRANCH  49  68
ATOM     68  C   UNL     1      11.169   2.267  10.138  1.00  0.00    -0.014 A 
ATOM     69  C   UNL     1      10.806   2.951  11.308  1.00  0.00     0.009 A 
ATOM     70  C   UNL     1      11.934   1.095  10.245  1.00  0.00     0.009 A 
ATOM     71  C   UNL     1      11.216   2.480  12.557  1.00  0.00     0.001 A 
ATOM     72  C   UNL     1      12.319   0.612  11.497  1.00  0.00     0.001 A 
ATOM     73  C   UNL     1      11.967   1.309  12.651  1.00  0.00     0.000 A 
ENDBRANCH  49  68
BRANCH  61  74
ATOM     74  C   UNL     1      13.119   7.681   6.238  1.00  0.00    -0.014 A 
ATOM     75  C   UNL     1      14.504   7.469   6.169  1.00  0.00     0.009 A 
ATOM     76  C   UNL     1      12.635   8.968   6.520  1.00  0.00     0.009 A 
ATOM     77  C   UNL     1      15.389   8.521   6.409  1.00  0.00     0.001 A 
ATOM     78  C   UNL     1      13.522  10.022   6.738  1.00  0.00     0.001 A 
ATOM     79  C   UNL     1      14.897   9.796   6.691  1.00  0.00     0.000 A 
ENDBRANCH  61  74
ENDBRANCH  35  36
ENDBRANCH  28  30
ENDBRANCH  27  28
ENDBRANCH  26  27
ENDBRANCH   1  26
TORSDOF 14
