REMARK SMILES O=C(OCCOC(=O)[C@H]1C[C@@H](O)CN1C(=O)c1cc(F)c(F)cc1Cl)c1ccc(-c2c3nc(c(-c4ccccc4)c4ccc([nH]4)c(-c4ccccc4)c4nc(c(-c5ccccc5)c5ccc2[nH]5)C=C4)C=C3)cc1
REMARK SMILES IDX 4 1 3 2 2 3 1 4 26 5 27 6 73 7 28 8 72 9 29 10 30 11 31 12
REMARK SMILES IDX 66 13 32 14 71 15 65 16 67 17 33 18 70 19 64 20 63 21 34 23
REMARK SMILES IDX 56 24 41 25 55 26 42 27 45 28 54 29 68 30 43 31 44 32 53 34
REMARK SMILES IDX 69 35 46 36 35 37 36 38 40 39 37 40 39 41 38 42 57 43 58 44
REMARK SMILES IDX 62 45 59 46 61 47 60 48 47 49 48 50 52 51 49 52 51 53 50 54
REMARK SMILES IDX 5 55 6 56 7 57 8 58 9 59 10 60 14 61 11 62 13 63 15 64 16 65
REMARK SMILES IDX 17 66 18 67 24 68 19 69 23 70 25 71 20 72 21 73 22 74 12 75
REMARK H PARENT 67 22 45 33 12 76
REMARK Flexibility Score: inf
ROOT
ATOM      1  C   UNL     1       4.395  -0.693  -1.082  1.00  0.00     0.275 C 
ENDROOT
BRANCH   1   2
ATOM      2  O   UNL     1       3.297  -1.006  -0.212  1.00  0.00    -0.458 OA
BRANCH   2   3
ATOM      3  C   UNL     1       3.360  -1.102   1.140  1.00  0.00     0.338 C 
ATOM      4  O   UNL     1       2.637  -1.899   1.733  1.00  0.00    -0.246 OA
BRANCH   3   5
ATOM      5  C   UNL     1       4.043  -0.041   1.940  1.00  0.00     0.060 A 
ATOM      6  C   UNL     1       3.276   0.532   2.965  1.00  0.00     0.016 A 
ATOM      7  C   UNL     1       5.362   0.396   1.780  1.00  0.00     0.016 A 
ATOM      8  C   UNL     1       3.763   1.615   3.700  1.00  0.00     0.010 A 
ATOM      9  C   UNL     1       5.868   1.463   2.548  1.00  0.00     0.010 A 
ATOM     10  C   UNL     1       5.059   2.119   3.482  1.00  0.00    -0.014 A 
BRANCH  10  11
ATOM     11  C   UNL     1       5.538   3.250   4.322  1.00  0.00     0.031 A 
ATOM     12  C   UNL     1       5.731   4.653   3.808  1.00  0.00     0.074 A 
ATOM     13  C   UNL     1       5.674   3.028   5.641  1.00  0.00     0.049 A 
ATOM     14  N   UNL     1       5.636   5.778   4.477  1.00  0.00    -0.248 NA
ATOM     15  C   UNL     1       6.025   4.847   2.384  1.00  0.00     0.031 C 
ATOM     16  C   UNL     1       5.511   1.728   6.291  1.00  0.00     0.029 A 
ATOM     17  N   UNL     1       5.946   3.893   6.669  1.00  0.00    -0.354 N 
ATOM     18  C   UNL     1       5.707   6.794   3.532  1.00  0.00     0.074 A 
ATOM     19  C   UNL     1       5.918   6.165   2.249  1.00  0.00     0.031 C 
ATOM     20  C   UNL     1       5.650   1.886   7.613  1.00  0.00     0.029 A 
ATOM     21  C   UNL     1       5.960   3.284   7.896  1.00  0.00     0.049 A 
ATOM     22  H   UNL     1       6.113   4.854   6.538  1.00  0.00     0.167 HD
ATOM     23  C   UNL     1       5.612   8.128   3.729  1.00  0.00     0.031 A 
ATOM     24  C   UNL     1       6.206   3.785   9.120  1.00  0.00     0.031 A 
ATOM     25  C   UNL     1       5.696   8.760   5.019  1.00  0.00     0.049 A 
ATOM     26  C   UNL     1       6.417   5.259   9.281  1.00  0.00     0.074 A 
ATOM     27  C   UNL     1       5.706  10.115   5.305  1.00  0.00     0.029 A 
ATOM     28  N   UNL     1       5.911   8.094   6.212  1.00  0.00    -0.354 N 
ATOM     29  N   UNL     1       6.275   6.209   8.390  1.00  0.00    -0.248 NA
ATOM     30  C   UNL     1       6.812   5.732  10.613  1.00  0.00     0.031 C 
ATOM     31  C   UNL     1       6.058  10.268   6.648  1.00  0.00     0.029 A 
ATOM     32  C   UNL     1       6.166   9.009   7.218  1.00  0.00     0.049 A 
ATOM     33  H   UNL     1       5.885   7.117   6.328  1.00  0.00     0.167 HD
ATOM     34  C   UNL     1       6.537   7.398   9.058  1.00  0.00     0.074 A 
ATOM     35  C   UNL     1       6.845   7.047  10.430  1.00  0.00     0.031 C 
ATOM     36  C   UNL     1       6.506   8.663   8.574  1.00  0.00     0.031 A 
BRANCH  23  37
ATOM     37  C   UNL     1       5.465   9.045   2.550  1.00  0.00    -0.014 A 
ATOM     38  C   UNL     1       6.576   9.729   2.036  1.00  0.00     0.009 A 
ATOM     39  C   UNL     1       4.176   9.418   2.131  1.00  0.00     0.009 A 
ATOM     40  C   UNL     1       6.399  10.788   1.142  1.00  0.00     0.001 A 
ATOM     41  C   UNL     1       4.005  10.482   1.245  1.00  0.00     0.001 A 
ATOM     42  C   UNL     1       5.115  11.170   0.756  1.00  0.00     0.000 A 
ENDBRANCH  23  37
BRANCH  24  43
ATOM     43  C   UNL     1       6.267   2.841  10.263  1.00  0.00    -0.014 A 
ATOM     44  C   UNL     1       7.274   1.860  10.301  1.00  0.00     0.009 A 
ATOM     45  C   UNL     1       5.270   2.830  11.246  1.00  0.00     0.009 A 
ATOM     46  C   UNL     1       7.249   0.852  11.263  1.00  0.00     0.001 A 
ATOM     47  C   UNL     1       5.268   1.839  12.230  1.00  0.00     0.001 A 
ATOM     48  C   UNL     1       6.245   0.843  12.227  1.00  0.00     0.000 A 
ENDBRANCH  24  43
BRANCH  36  49
ATOM     49  C   UNL     1       6.819   9.788   9.520  1.00  0.00    -0.014 A 
ATOM     50  C   UNL     1       5.814  10.706   9.866  1.00  0.00     0.009 A 
ATOM     51  C   UNL     1       8.123   9.997   9.994  1.00  0.00     0.009 A 
ATOM     52  C   UNL     1       6.109  11.816  10.657  1.00  0.00     0.001 A 
ATOM     53  C   UNL     1       8.407  11.090  10.815  1.00  0.00     0.001 A 
ATOM     54  C   UNL     1       7.403  12.003  11.138  1.00  0.00     0.000 A 
ENDBRANCH  36  49
ENDBRANCH  10  11
ENDBRANCH   3   5
ENDBRANCH   2   3
ENDBRANCH   1   2
BRANCH   1  55
ATOM     55  C   UNL     1       4.233   0.649  -1.801  1.00  0.00     0.274 C 
BRANCH  55  56
ATOM     56  O   UNL     1       3.504   1.622  -1.030  1.00  0.00    -0.461 OA
BRANCH  56  57
ATOM     57  C   UNL     1       2.265   1.974  -1.502  1.00  0.00     0.329 C 
ATOM     58  O   UNL     1       1.786   1.546  -2.543  1.00  0.00    -0.250 OA
BRANCH  57  59
ATOM     59  C   UNL     1       1.577   3.032  -0.603  1.00  0.00     0.198 C 
ATOM     60  C   UNL     1       1.807   2.769   0.889  1.00  0.00     0.071 C 
ATOM     61  N   UNL     1       2.039   4.417  -0.784  1.00  0.00    -0.322 N 
ATOM     62  C   UNL     1       2.909   3.757   1.265  1.00  0.00     0.136 C 
ATOM     63  C   UNL     1       2.541   4.984   0.466  1.00  0.00     0.152 C 
BRANCH  61  64
ATOM     64  C   UNL     1       1.751   5.138  -1.917  1.00  0.00     0.256 C 
ATOM     65  O   UNL     1       1.187   4.684  -2.903  1.00  0.00    -0.269 OA
BRANCH  64  66
ATOM     66  C   UNL     1       2.207   6.537  -1.936  1.00  0.00     0.061 A 
ATOM     67  C   UNL     1       3.563   6.776  -2.196  1.00  0.00     0.057 A 
ATOM     68  C   UNL     1       1.332   7.590  -1.649  1.00  0.00     0.056 A 
ATOM     69  C   UNL     1       4.031   8.082  -2.169  1.00  0.00     0.159 A 
ATOM     70  C   UNL     1       1.814   8.899  -1.641  1.00  0.00     0.063 A 
ATOM     71  Cl  UNL     1      -0.323   7.327  -1.241  1.00  0.00    -0.083 Cl
ATOM     72  F   UNL     1       5.332   8.315  -2.383  1.00  0.00    -0.204 F 
ATOM     73  C   UNL     1       3.160   9.135  -1.911  1.00  0.00     0.160 A 
ATOM     74  F   UNL     1       3.612  10.396  -1.912  1.00  0.00    -0.204 F 
ENDBRANCH  64  66
ENDBRANCH  61  64
BRANCH  62  75
ATOM     75  O   UNL     1       4.187   3.308   0.827  1.00  0.00    -0.391 OA
ATOM     76  H   UNL     1       4.168   3.164  -0.132  1.00  0.00     0.211 HD
ENDBRANCH  62  75
ENDBRANCH  57  59
ENDBRANCH  56  57
ENDBRANCH  55  56
ENDBRANCH   1  55
TORSDOF 14
