REMARK SMILES O=C(NCCC1=CCCCC1)C1=C(C(=O)OCCOC(=O)c2ccc(-c3c4nc(c(-c5ccccc5)c5ccc([nH]5)c(-c5ccccc5)c5nc(c(-c6ccccc6)c6ccc3[nH]6)C=C5)C=C4)cc2)CCCC1
REMARK SMILES IDX 17 1 16 2 14 3 15 4 13 5 12 6 73 7 70 8 72 9 71 10 2 11 1 12
REMARK SMILES IDX 3 13 4 15 5 16 6 17 7 18 11 19 8 20 10 21 9 22 18 23 19 24
REMARK SMILES IDX 20 25 21 26 22 27 23 28 69 29 24 30 68 31 25 32 26 33 27 34
REMARK SMILES IDX 62 35 28 36 67 37 61 38 63 39 29 40 66 41 60 42 59 43 30 45
REMARK SMILES IDX 52 46 37 47 51 48 38 49 41 50 50 51 64 52 39 53 40 54 49 56
REMARK SMILES IDX 65 57 42 58 31 59 32 60 36 61 33 62 35 63 34 64 53 65 54 66
REMARK SMILES IDX 58 67 55 68 57 69 56 70 43 71 44 72 48 73 45 74 47 75 46 76
REMARK H PARENT 3 14 63 44 41 55
REMARK Flexibility Score: inf
ROOT
ATOM      1  C   UNL     1       3.903  -2.221  -2.294  1.00  0.00     0.275 C 
ENDROOT
BRANCH   1   2
ATOM      2  O   UNL     1       3.445  -0.929  -1.850  1.00  0.00    -0.459 OA
BRANCH   2   3
ATOM      3  C   UNL     1       4.394  -0.090  -1.376  1.00  0.00     0.334 C 
ATOM      4  O   UNL     1       5.603  -0.261  -1.431  1.00  0.00    -0.247 OA
BRANCH   3   5
ATOM      5  C   UNL     1       3.800   1.123  -0.760  1.00  0.00     0.046 C 
ATOM      6  C   UNL     1       2.803   1.065   0.146  1.00  0.00     0.027 C 
ATOM      7  C   UNL     1       2.159   2.300   0.729  1.00  0.00     0.042 C 
ATOM      8  C   UNL     1       4.460   2.427  -1.131  1.00  0.00     0.044 C 
ATOM      9  C   UNL     1       2.611   3.605   0.069  1.00  0.00     0.005 C 
ATOM     10  C   UNL     1       4.108   3.584  -0.198  1.00  0.00     0.005 C 
BRANCH   6  11
ATOM     11  C   UNL     1       2.213  -0.210   0.628  1.00  0.00     0.247 C 
ATOM     12  O   UNL     1       1.006  -0.412   0.527  1.00  0.00    -0.270 OA
ATOM     13  N   UNL     1       3.007  -1.120   1.255  1.00  0.00    -0.352 N 
ATOM     14  H   UNL     1       2.537  -1.926   1.568  1.00  0.00     0.163 HD
BRANCH  13  15
ATOM     15  C   UNL     1       4.437  -1.104   1.543  1.00  0.00     0.120 C 
BRANCH  15  16
ATOM     16  C   UNL     1       4.793  -1.862   2.824  1.00  0.00     0.052 C 
BRANCH  16  17
ATOM     17  C   UNL     1       4.339  -3.307   2.810  1.00  0.00    -0.072 C 
ATOM     18  C   UNL     1       3.267  -3.704   3.521  1.00  0.00    -0.028 C 
ATOM     19  C   UNL     1       5.144  -4.276   1.973  1.00  0.00     0.031 C 
ATOM     20  C   UNL     1       2.778  -5.120   3.573  1.00  0.00     0.027 C 
ATOM     21  C   UNL     1       4.457  -5.631   1.771  1.00  0.00     0.005 C 
ATOM     22  C   UNL     1       3.808  -6.123   3.060  1.00  0.00     0.004 C 
ENDBRANCH  16  17
ENDBRANCH  15  16
ENDBRANCH  13  15
ENDBRANCH   6  11
ENDBRANCH   3   5
ENDBRANCH   2   3
ENDBRANCH   1   2
BRANCH   1  23
ATOM     23  C   UNL     1       3.914  -2.324  -3.817  1.00  0.00     0.275 C 
BRANCH  23  24
ATOM     24  O   UNL     1       4.918  -1.454  -4.367  1.00  0.00    -0.458 OA
BRANCH  24  25
ATOM     25  C   UNL     1       4.447  -0.316  -4.920  1.00  0.00     0.338 C 
ATOM     26  O   UNL     1       3.288   0.024  -5.077  1.00  0.00    -0.246 OA
BRANCH  25  27
ATOM     27  C   UNL     1       5.576   0.565  -5.237  1.00  0.00     0.060 A 
ATOM     28  C   UNL     1       6.007   1.448  -4.249  1.00  0.00     0.016 A 
ATOM     29  C   UNL     1       6.096   0.633  -6.525  1.00  0.00     0.016 A 
ATOM     30  C   UNL     1       6.915   2.453  -4.546  1.00  0.00     0.010 A 
ATOM     31  C   UNL     1       7.045   1.617  -6.818  1.00  0.00     0.010 A 
ATOM     32  C   UNL     1       7.431   2.554  -5.839  1.00  0.00    -0.014 A 
BRANCH  32  33
ATOM     33  C   UNL     1       8.279   3.710  -6.205  1.00  0.00     0.031 A 
ATOM     34  C   UNL     1       7.733   4.737  -7.153  1.00  0.00     0.074 A 
ATOM     35  C   UNL     1       9.503   3.865  -5.670  1.00  0.00     0.049 A 
ATOM     36  N   UNL     1       8.359   5.693  -7.787  1.00  0.00    -0.248 NA
ATOM     37  C   UNL     1       6.287   4.673  -7.428  1.00  0.00     0.031 C 
ATOM     38  C   UNL     1      10.103   3.004  -4.650  1.00  0.00     0.029 A 
ATOM     39  N   UNL     1      10.464   4.812  -5.917  1.00  0.00    -0.354 N 
ATOM     40  C   UNL     1       7.399   6.304  -8.582  1.00  0.00     0.074 A 
ATOM     41  C   UNL     1       6.145   5.625  -8.339  1.00  0.00     0.031 C 
ATOM     42  C   UNL     1      11.328   3.467  -4.353  1.00  0.00     0.029 A 
ATOM     43  C   UNL     1      11.626   4.605  -5.217  1.00  0.00     0.049 A 
ATOM     44  H   UNL     1      10.332   5.566  -6.536  1.00  0.00     0.167 HD
ATOM     45  C   UNL     1       7.558   7.329  -9.451  1.00  0.00     0.031 A 
ATOM     46  C   UNL     1      12.815   5.230  -5.304  1.00  0.00     0.031 A 
ATOM     47  C   UNL     1       8.804   8.013  -9.663  1.00  0.00     0.049 A 
ATOM     48  C   UNL     1      12.988   6.327  -6.317  1.00  0.00     0.074 A 
ATOM     49  C   UNL     1       9.092   9.035 -10.549  1.00  0.00     0.029 A 
ATOM     50  N   UNL     1       9.968   7.751  -8.957  1.00  0.00    -0.354 N 
ATOM     51  N   UNL     1      12.106   6.829  -7.148  1.00  0.00    -0.248 NA
ATOM     52  C   UNL     1      14.325   6.926  -6.420  1.00  0.00     0.031 C 
ATOM     53  C   UNL     1      10.440   9.377 -10.394  1.00  0.00     0.029 A 
ATOM     54  C   UNL     1      10.978   8.592  -9.386  1.00  0.00     0.049 A 
ATOM     55  H   UNL     1      10.062   7.067  -8.255  1.00  0.00     0.167 HD
ATOM     56  C   UNL     1      12.777   7.810  -7.865  1.00  0.00     0.074 A 
ATOM     57  C   UNL     1      14.136   7.843  -7.360  1.00  0.00     0.031 C 
ATOM     58  C   UNL     1      12.315   8.609  -8.856  1.00  0.00     0.031 A 
BRANCH  45  59
ATOM     59  C   UNL     1       6.369   7.722 -10.275  1.00  0.00    -0.014 A 
ATOM     60  C   UNL     1       5.309   8.462  -9.731  1.00  0.00     0.009 A 
ATOM     61  C   UNL     1       6.315   7.346 -11.627  1.00  0.00     0.009 A 
ATOM     62  C   UNL     1       4.204   8.794 -10.519  1.00  0.00     0.001 A 
ATOM     63  C   UNL     1       5.220   7.697 -12.417  1.00  0.00     0.001 A 
ATOM     64  C   UNL     1       4.162   8.414 -11.861  1.00  0.00     0.000 A 
ENDBRANCH  45  59
BRANCH  46  65
ATOM     65  C   UNL     1      13.951   4.788  -4.456  1.00  0.00    -0.014 A 
ATOM     66  C   UNL     1      14.419   5.597  -3.410  1.00  0.00     0.009 A 
ATOM     67  C   UNL     1      14.572   3.551  -4.689  1.00  0.00     0.009 A 
ATOM     68  C   UNL     1      15.496   5.181  -2.624  1.00  0.00     0.001 A 
ATOM     69  C   UNL     1      15.631   3.126  -3.885  1.00  0.00     0.001 A 
ATOM     70  C   UNL     1      16.097   3.944  -2.857  1.00  0.00     0.000 A 
ENDBRANCH  46  65
BRANCH  58  71
ATOM     71  C   UNL     1      13.274   9.610  -9.426  1.00  0.00    -0.014 A 
ATOM     72  C   UNL     1      14.254   9.226 -10.353  1.00  0.00     0.009 A 
ATOM     73  C   UNL     1      13.159  10.961  -9.066  1.00  0.00     0.009 A 
ATOM     74  C   UNL     1      15.119  10.179 -10.893  1.00  0.00     0.001 A 
ATOM     75  C   UNL     1      14.013  11.913  -9.621  1.00  0.00     0.001 A 
ATOM     76  C   UNL     1      14.996  11.521 -10.530  1.00  0.00     0.000 A 
ENDBRANCH  58  71
ENDBRANCH  32  33
ENDBRANCH  25  27
ENDBRANCH  24  25
ENDBRANCH  23  24
ENDBRANCH   1  23
TORSDOF 15
