REMARK SMILES CCn1ncc(NC(=O)[C@@H]2CCCC[C@@H]2C(=O)OCCOC(=O)c2ccc(-c3c4nc(c(-c5ccccc5)c5ccc([nH]5)c(-c5ccccc5)c5nc(c(-c6ccccc6)c6ccc3[nH]6)C=C5)C=C4)cc2)c1C(=O)Nc1cnn(C)c1C
REMARK SMILES IDX 19 1 18 2 16 3 17 4 15 5 10 6 11 7 12 8 14 9 13 10 8 11 7 12
REMARK SMILES IDX 9 14 6 15 3 16 4 17 72 18 5 19 2 20 1 21 73 22 74 23 75 24
REMARK SMILES IDX 76 26 77 27 81 28 78 29 79 30 82 31 80 32 20 33 21 34 22 35
REMARK SMILES IDX 23 36 24 37 25 38 71 39 26 40 70 41 27 42 28 43 29 44 64 45
REMARK SMILES IDX 30 46 69 47 63 48 65 49 31 50 68 51 62 52 61 53 32 55 54 56
REMARK SMILES IDX 39 57 53 58 40 59 43 60 52 61 66 62 41 63 42 64 51 66 67 67
REMARK SMILES IDX 44 68 33 69 34 70 38 71 35 72 37 73 36 74 55 75 56 76 60 77
REMARK SMILES IDX 57 78 59 79 58 80 45 81 46 82 50 83 47 84 49 85 48 86
REMARK H PARENT 7 13 75 25 65 54 43 65
REMARK Flexibility Score: inf
ROOT
ATOM      1  C   UNL     1       4.524  -6.565  -0.438  1.00  0.00     0.274 C 
ENDROOT
BRANCH   1   2
ATOM      2  O   UNL     1       3.082  -6.718  -0.406  1.00  0.00    -0.462 OA
BRANCH   2   3
ATOM      3  C   UNL     1       2.384  -5.659   0.098  1.00  0.00     0.309 C 
ATOM      4  O   UNL     1       2.925  -4.633   0.503  1.00  0.00    -0.252 OA
BRANCH   3   5
ATOM      5  C   UNL     1       0.877  -5.918   0.183  1.00  0.00     0.111 C 
ATOM      6  C   UNL     1      -0.053  -5.169  -0.819  1.00  0.00     0.093 C 
ATOM      7  C   UNL     1      -0.090  -3.720  -0.480  1.00  0.00     0.014 C 
ATOM      8  C   UNL     1      -0.310  -3.275   0.933  1.00  0.00     0.001 C 
ATOM      9  C   UNL     1       0.483  -5.537   1.648  1.00  0.00     0.016 C 
ATOM     10  C   UNL     1       0.507  -4.034   1.940  1.00  0.00     0.001 C 
BRANCH   6  11
ATOM     11  C   UNL     1       0.117  -5.372  -2.362  1.00  0.00     0.228 C 
ATOM     12  N   UNL     1      -0.221  -4.370  -3.295  1.00  0.00    -0.322 N 
ATOM     13  H   UNL     1      -0.989  -4.541  -3.887  1.00  0.00     0.170 HD
ATOM     14  O   UNL     1       0.302  -6.516  -2.799  1.00  0.00    -0.274 OA
BRANCH  12  15
ATOM     15  C   UNL     1       0.464  -3.127  -3.447  1.00  0.00     0.092 A 
ATOM     16  N   UNL     1       1.445  -0.375  -3.064  1.00  0.00    -0.258 N 
ATOM     17  N   UNL     1       2.915  -1.276  -3.831  1.00  0.00    -0.178 NA
ATOM     18  C   UNL     1       0.032  -1.511  -2.835  1.00  0.00     0.150 A 
ATOM     19  C   UNL     1       2.290  -3.069  -4.144  1.00  0.00     0.162 A 
BRANCH  16  20
ATOM     20  C   UNL     1       1.677   0.783  -2.216  1.00  0.00     0.142 C 
ATOM     21  C   UNL     1       2.403   0.434  -0.926  1.00  0.00     0.029 C 
ENDBRANCH  16  20
BRANCH  18  22
ATOM     22  C   UNL     1      -1.206  -1.130  -2.095  1.00  0.00     0.276 C 
ATOM     23  O   UNL     1      -2.324  -1.472  -2.479  1.00  0.00    -0.267 OA
ATOM     24  N   UNL     1      -1.063  -0.741  -0.757  1.00  0.00    -0.318 N 
ATOM     25  H   UNL     1      -1.038  -1.470  -0.095  1.00  0.00     0.170 HD
BRANCH  24  26
ATOM     26  C   UNL     1      -0.951   0.550  -0.249  1.00  0.00     0.082 A 
ATOM     27  C   UNL     1      -1.375   1.774  -0.806  1.00  0.00     0.161 A 
ATOM     28  C   UNL     1      -0.399   0.905   0.980  1.00  0.00     0.059 A 
ATOM     29  N   UNL     1      -0.929   2.825  -0.116  1.00  0.00    -0.179 NA
ATOM     30  N   UNL     1      -0.255   2.275   0.909  1.00  0.00    -0.271 N 
ATOM     31  C   UNL     1       0.144   0.158   2.149  1.00  0.00     0.068 C 
ATOM     32  C   UNL     1       0.667   3.101   1.661  1.00  0.00     0.174 C 
ENDBRANCH  24  26
ENDBRANCH  18  22
ENDBRANCH  12  15
ENDBRANCH   6  11
ENDBRANCH   3   5
ENDBRANCH   2   3
ENDBRANCH   1   2
BRANCH   1  33
ATOM     33  C   UNL     1       5.061  -5.949  -1.735  1.00  0.00     0.275 C 
BRANCH  33  34
ATOM     34  O   UNL     1       4.984  -4.513  -1.714  1.00  0.00    -0.458 OA
BRANCH  34  35
ATOM     35  C   UNL     1       3.744  -4.095  -2.026  1.00  0.00     0.338 C 
ATOM     36  O   UNL     1       2.788  -4.827  -2.247  1.00  0.00    -0.246 OA
BRANCH  35  37
ATOM     37  C   UNL     1       3.689  -2.691  -2.458  1.00  0.00     0.060 A 
ATOM     38  C   UNL     1       2.012  -2.154  -2.623  1.00  0.00     0.016 A 
ATOM     39  C   UNL     1       4.680  -2.619  -3.829  1.00  0.00     0.016 A 
ATOM     40  C   UNL     1       1.332  -1.610  -4.529  1.00  0.00     0.010 A 
ATOM     41  C   UNL     1       4.177  -2.181  -5.373  1.00  0.00     0.010 A 
ATOM     42  C   UNL     1       2.581  -1.742  -5.816  1.00  0.00    -0.014 A 
BRANCH  42  43
ATOM     43  C   UNL     1       2.501  -1.212  -7.148  1.00  0.00     0.031 A 
ATOM     44  C   UNL     1       2.022   0.177  -7.064  1.00  0.00     0.074 A 
ATOM     45  C   UNL     1       3.094  -1.806  -8.214  1.00  0.00     0.049 A 
ATOM     46  N   UNL     1       0.842   0.579  -7.383  1.00  0.00    -0.248 NA
ATOM     47  C   UNL     1       2.796   1.172  -6.289  1.00  0.00     0.031 C 
ATOM     48  C   UNL     1       3.841  -3.072  -8.303  1.00  0.00     0.029 A 
ATOM     49  N   UNL     1       3.226  -1.335  -9.483  1.00  0.00    -0.354 N 
ATOM     50  C   UNL     1       0.840   1.942  -7.145  1.00  0.00     0.074 A 
ATOM     51  C   UNL     1       1.940   2.198  -6.253  1.00  0.00     0.031 C 
ATOM     52  C   UNL     1       4.535  -3.130  -9.469  1.00  0.00     0.029 A 
ATOM     53  C   UNL     1       4.155  -1.999 -10.291  1.00  0.00     0.049 A 
ATOM     54  H   UNL     1       2.699  -0.572  -9.814  1.00  0.00     0.167 HD
ATOM     55  C   UNL     1       0.147   2.758  -7.982  1.00  0.00     0.031 A 
ATOM     56  C   UNL     1       4.556  -1.626 -11.541  1.00  0.00     0.031 A 
ATOM     57  C   UNL     1      -0.744   1.988  -8.824  1.00  0.00     0.049 A 
ATOM     58  C   UNL     1       3.503  -0.715 -12.064  1.00  0.00     0.074 A 
ATOM     59  C   UNL     1      -1.797   1.130  -8.575  1.00  0.00     0.029 A 
ATOM     60  N   UNL     1      -0.265   1.658 -10.074  1.00  0.00    -0.354 N 
ATOM     61  N   UNL     1       2.290  -1.126 -12.312  1.00  0.00    -0.248 NA
ATOM     62  C   UNL     1       3.638   0.701 -11.748  1.00  0.00     0.031 C 
ATOM     63  C   UNL     1      -1.600   0.035  -9.470  1.00  0.00     0.029 A 
ATOM     64  C   UNL     1      -0.525   0.329 -10.310  1.00  0.00     0.049 A 
ATOM     65  H   UNL     1       0.190   2.272 -10.694  1.00  0.00     0.167 HD
ATOM     66  C   UNL     1       1.472  -0.167 -11.730  1.00  0.00     0.074 A 
ATOM     67  C   UNL     1       2.362   0.966 -11.443  1.00  0.00     0.031 C 
ATOM     68  C   UNL     1       0.252  -0.500 -11.209  1.00  0.00     0.031 A 
BRANCH  55  69
ATOM     69  C   UNL     1       0.625   4.128  -8.373  1.00  0.00    -0.014 A 
ATOM     70  C   UNL     1      -0.206   4.905  -9.194  1.00  0.00     0.009 A 
ATOM     71  C   UNL     1       1.956   4.560  -8.216  1.00  0.00     0.009 A 
ATOM     72  C   UNL     1       0.292   6.016  -9.882  1.00  0.00     0.001 A 
ATOM     73  C   UNL     1       2.448   5.688  -8.875  1.00  0.00     0.001 A 
ATOM     74  C   UNL     1       1.621   6.401  -9.730  1.00  0.00     0.000 A 
ENDBRANCH  55  69
BRANCH  56  75
ATOM     75  C   UNL     1       5.905  -1.701 -12.172  1.00  0.00    -0.014 A 
ATOM     76  C   UNL     1       6.095  -1.503 -13.555  1.00  0.00     0.009 A 
ATOM     77  C   UNL     1       7.054  -1.667 -11.361  1.00  0.00     0.009 A 
ATOM     78  C   UNL     1       7.373  -1.252 -14.091  1.00  0.00     0.001 A 
ATOM     79  C   UNL     1       8.327  -1.409 -11.893  1.00  0.00     0.001 A 
ATOM     80  C   UNL     1       8.486  -1.189 -13.257  1.00  0.00     0.000 A 
ENDBRANCH  56  75
BRANCH  68  81
ATOM     81  C   UNL     1      -0.249  -1.915 -11.427  1.00  0.00    -0.014 A 
ATOM     82  C   UNL     1       0.351  -3.065 -10.873  1.00  0.00     0.009 A 
ATOM     83  C   UNL     1      -1.471  -2.073 -12.093  1.00  0.00     0.009 A 
ATOM     84  C   UNL     1      -0.243  -4.329 -11.010  1.00  0.00     0.001 A 
ATOM     85  C   UNL     1      -2.071  -3.329 -12.215  1.00  0.00     0.001 A 
ATOM     86  C   UNL     1      -1.455  -4.458 -11.681  1.00  0.00     0.000 A 
ENDBRANCH  68  81
ENDBRANCH  42  43
ENDBRANCH  35  37
ENDBRANCH  34  35
ENDBRANCH  33  34
ENDBRANCH   1  33
TORSDOF 16
