REMARK SMILES CC(C)[N@@H+](C)Cc1cc2c(cc1Cl)C=C(C(=O)OCCOC(=O)c1ccc(-c3c4nc(c(-c5ccccc5)c5ccc([nH]5)c(-c5ccccc5)c5nc(c(-c6ccccc6)c6ccc3[nH]6)C=C5)C=C4)cc1)[C@@H](C(F)(F)F)O2
REMARK SMILES IDX 19 1 18 2 16 3 17 4 15 5 7 6 8 7 12 8 9 9 11 10 13 11 10 12
REMARK SMILES IDX 77 13 14 14 72 15 6 16 4 17 5 18 2 20 1 21 3 22 73 23 74 24
REMARK SMILES IDX 75 25 76 26 20 27 21 28 22 29 23 30 24 31 25 32 71 33 26 34
REMARK SMILES IDX 70 35 27 36 28 37 29 38 64 39 30 40 69 41 63 42 65 43 31 44
REMARK SMILES IDX 68 45 62 46 61 47 32 49 54 50 39 51 53 52 40 53 43 54 52 55
REMARK SMILES IDX 66 56 41 57 42 58 51 60 67 61 44 62 33 63 34 64 38 65 35 66
REMARK SMILES IDX 37 67 36 68 55 69 56 70 60 71 57 72 59 73 58 74 45 75 46 76
REMARK SMILES IDX 50 77 47 78 49 79 48 80
REMARK H PARENT 4 19 65 48 43 59
REMARK Flexibility Score: inf
ROOT
ATOM      1  C   UNL     1       1.651  -4.834  -9.948  1.00  0.00     0.275 C 
ENDROOT
BRANCH   1   2
ATOM      2  O   UNL     1       1.445  -4.004  -8.784  1.00  0.00    -0.459 OA
BRANCH   2   3
ATOM      3  C   UNL     1       0.289  -4.219  -8.116  1.00  0.00     0.338 C 
ATOM      4  O   UNL     1      -0.574  -5.037  -8.401  1.00  0.00    -0.246 OA
BRANCH   3   5
ATOM      5  C   UNL     1       0.192  -3.344  -6.934  1.00  0.00     0.087 C 
ATOM      6  C   UNL     1      -1.111  -1.400  -2.477  1.00  0.00     0.029 A 
ATOM      7  C   UNL     1      -0.721  -0.882  -3.727  1.00  0.00     0.058 A 
ATOM      8  C   UNL     1      -1.228  -2.795  -2.362  1.00  0.00     0.050 A 
ATOM      9  C   UNL     1      -0.344  -1.700  -4.780  1.00  0.00     0.128 A 
ATOM     10  C   UNL     1      -0.907  -3.623  -3.438  1.00  0.00     0.033 A 
ATOM     11  Cl  UNL     1      -1.793  -3.568  -0.922  1.00  0.00    -0.084 Cl
ATOM     12  C   UNL     1      -0.466  -3.067  -4.642  1.00  0.00     0.019 A 
ATOM     13  O   UNL     1       0.160  -1.081  -5.886  1.00  0.00    -0.475 OA
ATOM     14  C   UNL     1      -0.205  -3.903  -5.785  1.00  0.00     0.027 C 
ATOM     15  C   UNL     1       0.393  -1.864  -7.091  1.00  0.00     0.316 C 
BRANCH   6  16
ATOM     16  C   UNL     1      -1.425  -0.489  -1.308  1.00  0.00     0.300 C 
BRANCH  16  17
ATOM     17  N   UNL     1      -0.753   0.810  -1.229  1.00  0.00    -0.332 N 
ATOM     18  C   UNL     1      -1.378   1.899  -1.956  1.00  0.00     0.333 C 
ATOM     19  H   UNL     1      -0.987   0.993  -0.253  1.00  0.00     0.348 HD
BRANCH  17  20
ATOM     20  C   UNL     1       0.696   0.896  -1.021  1.00  0.00     0.177 C 
ATOM     21  C   UNL     1       1.085   0.274   0.325  1.00  0.00     0.075 C 
ATOM     22  C   UNL     1       1.611   0.327  -2.111  1.00  0.00     0.075 C 
ENDBRANCH  17  20
ENDBRANCH  16  17
ENDBRANCH   6  16
BRANCH  15  23
ATOM     23  C   UNL     1      -0.500  -1.275  -8.192  1.00  0.00     0.430 C 
ATOM     24  F   UNL     1      -0.298   0.058  -8.325  1.00  0.00    -0.167 F 
ATOM     25  F   UNL     1      -0.247  -1.828  -9.401  1.00  0.00    -0.167 F 
ATOM     26  F   UNL     1      -1.814  -1.462  -7.928  1.00  0.00    -0.167 F 
ENDBRANCH  15  23
ENDBRANCH   3   5
ENDBRANCH   2   3
ENDBRANCH   1   2
BRANCH   1  27
ATOM     27  C   UNL     1       2.626  -5.981  -9.668  1.00  0.00     0.275 C 
BRANCH  27  28
ATOM     28  O   UNL     1       2.051  -6.962  -8.783  1.00  0.00    -0.458 OA
BRANCH  28  29
ATOM     29  C   UNL     1       2.424  -6.843  -7.490  1.00  0.00     0.338 C 
ATOM     30  O   UNL     1       3.173  -6.010  -7.008  1.00  0.00    -0.246 OA
BRANCH  29  31
ATOM     31  C   UNL     1       1.665  -7.779  -6.651  1.00  0.00     0.060 A 
ATOM     32  C   UNL     1       2.187  -8.976  -6.191  1.00  0.00     0.016 A 
ATOM     33  C   UNL     1       0.466  -7.314  -6.138  1.00  0.00     0.016 A 
ATOM     34  C   UNL     1       1.469  -9.695  -5.223  1.00  0.00     0.010 A 
ATOM     35  C   UNL     1      -0.121  -7.908  -5.030  1.00  0.00     0.010 A 
ATOM     36  C   UNL     1       0.324  -9.151  -4.593  1.00  0.00    -0.014 A 
BRANCH  36  37
ATOM     37  C   UNL     1      -0.412  -9.889  -3.521  1.00  0.00     0.031 A 
ATOM     38  C   UNL     1      -1.911 -10.118  -3.600  1.00  0.00     0.074 A 
ATOM     39  C   UNL     1       0.270 -10.370  -2.460  1.00  0.00     0.049 A 
ATOM     40  N   UNL     1      -2.666 -10.873  -2.837  1.00  0.00    -0.248 NA
ATOM     41  C   UNL     1      -2.677  -9.388  -4.627  1.00  0.00     0.031 C 
ATOM     42  C   UNL     1       1.685 -10.113  -2.180  1.00  0.00     0.029 A 
ATOM     43  N   UNL     1      -0.115 -11.216  -1.447  1.00  0.00    -0.354 N 
ATOM     44  C   UNL     1      -3.970 -10.694  -3.290  1.00  0.00     0.074 A 
ATOM     45  C   UNL     1      -3.928  -9.686  -4.317  1.00  0.00     0.031 C 
ATOM     46  C   UNL     1       2.078 -10.881  -1.154  1.00  0.00     0.029 A 
ATOM     47  C   UNL     1       0.935 -11.646  -0.667  1.00  0.00     0.049 A 
ATOM     48  H   UNL     1      -1.049 -11.487  -1.294  1.00  0.00     0.167 HD
ATOM     49  C   UNL     1      -5.097 -11.354  -2.936  1.00  0.00     0.031 A 
ATOM     50  C   UNL     1       0.989 -12.583   0.301  1.00  0.00     0.031 A 
ATOM     51  C   UNL     1      -5.133 -12.393  -1.947  1.00  0.00     0.049 A 
ATOM     52  C   UNL     1      -0.257 -13.355   0.639  1.00  0.00     0.074 A 
ATOM     53  C   UNL     1      -6.206 -13.176  -1.562  1.00  0.00     0.029 A 
ATOM     54  N   UNL     1      -4.042 -12.802  -1.197  1.00  0.00    -0.354 N 
ATOM     55  N   UNL     1      -1.456 -13.253   0.117  1.00  0.00    -0.248 NA
ATOM     56  C   UNL     1      -0.141 -14.389   1.677  1.00  0.00     0.031 C 
ATOM     57  C   UNL     1      -5.779 -14.017  -0.534  1.00  0.00     0.029 A 
ATOM     58  C   UNL     1      -4.421 -13.818  -0.341  1.00  0.00     0.049 A 
ATOM     59  H   UNL     1      -3.135 -12.425  -1.264  1.00  0.00     0.167 HD
ATOM     60  C   UNL     1      -2.227 -14.227   0.739  1.00  0.00     0.074 A 
ATOM     61  C   UNL     1      -1.356 -14.922   1.664  1.00  0.00     0.031 C 
ATOM     62  C   UNL     1      -3.538 -14.515   0.559  1.00  0.00     0.031 A 
BRANCH  49  63
ATOM     63  C   UNL     1      -6.380 -11.018  -3.656  1.00  0.00    -0.014 A 
ATOM     64  C   UNL     1      -7.470 -10.489  -2.947  1.00  0.00     0.009 A 
ATOM     65  C   UNL     1      -6.544 -11.316  -5.020  1.00  0.00     0.009 A 
ATOM     66  C   UNL     1      -8.697 -10.281  -3.582  1.00  0.00     0.001 A 
ATOM     67  C   UNL     1      -7.760 -11.072  -5.661  1.00  0.00     0.001 A 
ATOM     68  C   UNL     1      -8.840 -10.567  -4.939  1.00  0.00     0.000 A 
ENDBRANCH  49  63
BRANCH  50  69
ATOM     69  C   UNL     1       2.298 -12.903   0.937  1.00  0.00    -0.014 A 
ATOM     70  C   UNL     1       2.957 -11.959   1.741  1.00  0.00     0.009 A 
ATOM     71  C   UNL     1       2.932 -14.131   0.686  1.00  0.00     0.009 A 
ATOM     72  C   UNL     1       4.230 -12.223   2.254  1.00  0.00     0.001 A 
ATOM     73  C   UNL     1       4.190 -14.408   1.230  1.00  0.00     0.001 A 
ATOM     74  C   UNL     1       4.843 -13.449   2.002  1.00  0.00     0.000 A 
ENDBRANCH  50  69
BRANCH  62  75
ATOM     75  C   UNL     1      -4.133 -15.655   1.340  1.00  0.00    -0.014 A 
ATOM     76  C   UNL     1      -4.601 -16.789   0.654  1.00  0.00     0.009 A 
ATOM     77  C   UNL     1      -4.356 -15.556   2.720  1.00  0.00     0.009 A 
ATOM     78  C   UNL     1      -5.300 -17.789   1.329  1.00  0.00     0.001 A 
ATOM     79  C   UNL     1      -5.024 -16.576   3.401  1.00  0.00     0.001 A 
ATOM     80  C   UNL     1      -5.506 -17.684   2.703  1.00  0.00     0.000 A 
ENDBRANCH  62  75
ENDBRANCH  36  37
ENDBRANCH  29  31
ENDBRANCH  28  29
ENDBRANCH  27  28
ENDBRANCH   1  27
TORSDOF 15
