REMARK SMILES O=C(OCCOC(=O)[C@@H]1C=C[C@H](NC(=O)[C@@H]2Cc3ccccc3O2)C1)c1ccc(-c2c3nc(c(-c4ccccc4)c4ccc([nH]4)c(-c4ccccc4)c4nc(c(-c5ccccc5)c5ccc2[nH]5)C=C4)C=C3)cc1
REMARK SMILES IDX 4 1 3 2 2 3 1 4 26 5 27 6 73 7 28 8 72 9 29 10 30 11 31 12
REMARK SMILES IDX 66 13 32 14 71 15 65 16 67 17 33 18 70 19 64 20 63 21 34 23
REMARK SMILES IDX 56 24 41 25 55 26 42 27 45 28 54 29 68 30 43 31 44 32 53 34
REMARK SMILES IDX 69 35 46 36 35 37 36 38 40 39 37 40 39 41 38 42 57 43 58 44
REMARK SMILES IDX 62 45 59 46 61 47 60 48 47 49 48 50 52 51 49 52 51 53 50 54
REMARK SMILES IDX 5 55 6 56 7 57 8 58 9 59 10 60 25 61 11 62 12 63 13 64 14 65
REMARK SMILES IDX 15 67 16 68 17 69 24 70 18 71 23 72 19 73 22 74 20 75 21 76
REMARK H PARENT 67 22 45 33 13 66
REMARK Flexibility Score: inf
ROOT
ATOM      1  C   UNL     1       8.161   1.628   1.956  1.00  0.00     0.275 C 
ENDROOT
BRANCH   1   2
ATOM      2  O   UNL     1       9.041   0.493   1.920  1.00  0.00    -0.458 OA
BRANCH   2   3
ATOM      3  C   UNL     1      10.278   0.538   2.473  1.00  0.00     0.338 C 
ATOM      4  O   UNL     1      11.273   0.111   1.904  1.00  0.00    -0.246 OA
BRANCH   3   5
ATOM      5  C   UNL     1      10.328   0.828   3.923  1.00  0.00     0.060 A 
ATOM      6  C   UNL     1      10.068   2.096   4.441  1.00  0.00     0.016 A 
ATOM      7  C   UNL     1      10.732  -0.204   4.780  1.00  0.00     0.016 A 
ATOM      8  C   UNL     1      10.126   2.312   5.813  1.00  0.00     0.010 A 
ATOM      9  C   UNL     1      10.792   0.010   6.161  1.00  0.00     0.010 A 
ATOM     10  C   UNL     1      10.494   1.275   6.680  1.00  0.00    -0.014 A 
BRANCH  10  11
ATOM     11  C   UNL     1      10.742   1.628   8.092  1.00  0.00     0.031 A 
ATOM     12  C   UNL     1      12.143   1.980   8.489  1.00  0.00     0.074 A 
ATOM     13  C   UNL     1       9.715   1.807   8.941  1.00  0.00     0.049 A 
ATOM     14  N   UNL     1      12.561   2.636   9.537  1.00  0.00    -0.248 NA
ATOM     15  C   UNL     1      13.211   1.568   7.562  1.00  0.00     0.031 C 
ATOM     16  C   UNL     1       8.315   1.504   8.649  1.00  0.00     0.029 A 
ATOM     17  N   UNL     1       9.688   2.333  10.207  1.00  0.00    -0.354 N 
ATOM     18  C   UNL     1      13.931   2.769   9.365  1.00  0.00     0.074 A 
ATOM     19  C   UNL     1      14.285   2.067   8.152  1.00  0.00     0.031 C 
ATOM     20  C   UNL     1       7.558   1.880   9.695  1.00  0.00     0.029 A 
ATOM     21  C   UNL     1       8.420   2.465  10.719  1.00  0.00     0.049 A 
ATOM     22  H   UNL     1      10.500   2.593  10.701  1.00  0.00     0.167 HD
ATOM     23  C   UNL     1      14.815   3.444  10.132  1.00  0.00     0.031 A 
ATOM     24  C   UNL     1       8.004   3.033  11.867  1.00  0.00     0.031 A 
ATOM     25  C   UNL     1      14.473   4.079  11.371  1.00  0.00     0.049 A 
ATOM     26  C   UNL     1       9.019   3.712  12.746  1.00  0.00     0.074 A 
ATOM     27  C   UNL     1      15.296   4.725  12.274  1.00  0.00     0.029 A 
ATOM     28  N   UNL     1      13.187   4.128  11.888  1.00  0.00    -0.354 N 
ATOM     29  N   UNL     1      10.305   3.879  12.545  1.00  0.00    -0.248 NA
ATOM     30  C   UNL     1       8.521   4.305  13.995  1.00  0.00     0.031 C 
ATOM     31  C   UNL     1      14.509   5.138  13.356  1.00  0.00     0.029 A 
ATOM     32  C   UNL     1      13.192   4.780  13.106  1.00  0.00     0.049 A 
ATOM     33  H   UNL     1      12.388   3.753  11.451  1.00  0.00     0.167 HD
ATOM     34  C   UNL     1      10.768   4.606  13.633  1.00  0.00     0.074 A 
ATOM     35  C   UNL     1       9.619   4.871  14.478  1.00  0.00     0.031 C 
ATOM     36  C   UNL     1      12.028   5.017  13.918  1.00  0.00     0.031 A 
BRANCH  23  37
ATOM     37  C   UNL     1      16.226   3.493   9.629  1.00  0.00    -0.014 A 
ATOM     38  C   UNL     1      16.567   4.330   8.552  1.00  0.00     0.009 A 
ATOM     39  C   UNL     1      17.203   2.652  10.177  1.00  0.00     0.009 A 
ATOM     40  C   UNL     1      17.852   4.294   8.010  1.00  0.00     0.001 A 
ATOM     41  C   UNL     1      18.493   2.631   9.642  1.00  0.00     0.001 A 
ATOM     42  C   UNL     1      18.813   3.443   8.554  1.00  0.00     0.000 A 
ENDBRANCH  23  37
BRANCH  24  43
ATOM     43  C   UNL     1       6.563   3.018  12.233  1.00  0.00    -0.014 A 
ATOM     44  C   UNL     1       5.800   4.196  12.215  1.00  0.00     0.009 A 
ATOM     45  C   UNL     1       5.946   1.818  12.622  1.00  0.00     0.009 A 
ATOM     46  C   UNL     1       4.457   4.176  12.603  1.00  0.00     0.001 A 
ATOM     47  C   UNL     1       4.598   1.798  12.988  1.00  0.00     0.001 A 
ATOM     48  C   UNL     1       3.856   2.977  12.986  1.00  0.00     0.000 A 
ENDBRANCH  24  43
BRANCH  36  49
ATOM     49  C   UNL     1      12.218   5.786  15.191  1.00  0.00    -0.014 A 
ATOM     50  C   UNL     1      12.220   5.130  16.431  1.00  0.00     0.009 A 
ATOM     51  C   UNL     1      12.441   7.170  15.145  1.00  0.00     0.009 A 
ATOM     52  C   UNL     1      12.415   5.854  17.608  1.00  0.00     0.001 A 
ATOM     53  C   UNL     1      12.656   7.887  16.322  1.00  0.00     0.001 A 
ATOM     54  C   UNL     1      12.636   7.230  17.552  1.00  0.00     0.000 A 
ENDBRANCH  36  49
ENDBRANCH  10  11
ENDBRANCH   3   5
ENDBRANCH   2   3
ENDBRANCH   1   2
BRANCH   1  55
ATOM     55  C   UNL     1       6.885   1.342   2.744  1.00  0.00     0.274 C 
BRANCH  55  56
ATOM     56  O   UNL     1       7.141   0.622   3.965  1.00  0.00    -0.462 OA
BRANCH  56  57
ATOM     57  C   UNL     1       6.214  -0.338   4.263  1.00  0.00     0.312 C 
ATOM     58  O   UNL     1       5.235  -0.588   3.571  1.00  0.00    -0.252 OA
BRANCH  57  59
ATOM     59  C   UNL     1       6.525  -1.039   5.581  1.00  0.00     0.124 C 
ATOM     60  C   UNL     1       7.726  -1.933   5.545  1.00  0.00    -0.014 C 
ATOM     61  C   UNL     1       5.423  -2.043   5.964  1.00  0.00     0.048 C 
ATOM     62  C   UNL     1       7.412  -3.233   5.566  1.00  0.00    -0.006 C 
ATOM     63  C   UNL     1       5.948  -3.435   5.574  1.00  0.00     0.106 C 
BRANCH  63  64
ATOM     64  N   UNL     1       5.403  -3.950   4.326  1.00  0.00    -0.347 N 
ATOM     65  C   UNL     1       5.770  -4.035   3.017  1.00  0.00     0.261 C 
ATOM     66  H   UNL     1       4.516  -4.351   4.470  1.00  0.00     0.164 HD
ATOM     67  O   UNL     1       4.905  -4.482   2.252  1.00  0.00    -0.271 OA
BRANCH  65  68
ATOM     68  C   UNL     1       7.160  -3.663   2.491  1.00  0.00     0.266 C 
ATOM     69  C   UNL     1       7.084  -2.459   1.546  1.00  0.00     0.095 C 
ATOM     70  O   UNL     1       7.760  -4.764   1.753  1.00  0.00    -0.480 OA
ATOM     71  C   UNL     1       8.235  -2.784   0.675  1.00  0.00    -0.002 A 
ATOM     72  C   UNL     1       8.553  -4.123   0.832  1.00  0.00     0.123 A 
ATOM     73  C   UNL     1       8.943  -1.978  -0.197  1.00  0.00     0.008 A 
ATOM     74  C   UNL     1       9.580  -4.712   0.125  1.00  0.00     0.047 A 
ATOM     75  C   UNL     1      10.008  -2.545  -0.898  1.00  0.00     0.001 A 
ATOM     76  C   UNL     1      10.322  -3.905  -0.742  1.00  0.00     0.004 A 
ENDBRANCH  65  68
ENDBRANCH  63  64
ENDBRANCH  57  59
ENDBRANCH  56  57
ENDBRANCH  55  56
ENDBRANCH   1  55
TORSDOF 13
