REMARK SMILES O=C(C[C@H](NC(=O)[C@]12C[C@H]3C[C@H](C[C@H](C3)C1)C2)c1cccc([N+](=O)[O-])c1)OCCOC(=O)c1ccc(-c2c3nc(c(-c4ccccc4)c4ccc([nH]4)c(-c4ccccc4)c4nc(c(-c5ccccc5)c5ccc2[nH]5)C=C4)C=C3)cc1
REMARK SMILES IDX 28 1 27 2 2 3 1 4 3 5 4 6 18 7 19 8 26 9 20 10 22 11 21 12
REMARK SMILES IDX 23 13 24 14 25 15 5 16 6 17 7 19 8 20 9 21 16 22 17 23 10 24
REMARK SMILES IDX 14 25 12 26 11 27 15 28 13 29 29 30 30 31 31 32 32 33 33 34
REMARK SMILES IDX 34 35 80 36 35 37 79 38 36 39 37 40 38 41 73 42 39 43 78 44
REMARK SMILES IDX 72 45 74 46 40 47 77 48 71 49 70 50 41 52 63 53 48 54 62 55
REMARK SMILES IDX 49 56 52 57 61 58 75 59 50 60 51 61 60 63 76 64 53 65 42 66
REMARK SMILES IDX 43 67 47 68 44 69 46 70 45 71 64 72 65 73 69 74 66 75 68 76
REMARK SMILES IDX 67 77 54 78 55 79 59 80 56 81 58 82 57 83
REMARK H PARENT 5 18 74 51 52 62
REMARK Flexibility Score: inf
ROOT
ATOM      1  C   UNL     1       6.220   3.013   3.204  1.00  0.00     0.274 C 
ENDROOT
BRANCH   1   2
ATOM      2  O   UNL     1       5.300   2.113   3.856  1.00  0.00    -0.462 OA
BRANCH   2   3
ATOM      3  C   UNL     1       4.039   2.097   3.346  1.00  0.00     0.308 C 
ATOM      4  O   UNL     1       3.074   2.575   3.924  1.00  0.00    -0.252 OA
BRANCH   3   5
ATOM      5  C   UNL     1       3.945   1.240   2.118  1.00  0.00     0.152 C 
BRANCH   5   6
ATOM      6  C   UNL     1       2.983   1.769   1.063  1.00  0.00     0.123 C 
BRANCH   6   7
ATOM      7  C   UNL     1       3.565   3.099   0.540  1.00  0.00    -0.018 A 
ATOM      8  C   UNL     1       4.718   3.078  -0.267  1.00  0.00     0.006 A 
ATOM      9  C   UNL     1       3.072   4.345   0.957  1.00  0.00     0.091 A 
ATOM     10  C   UNL     1       5.421   4.243  -0.581  1.00  0.00     0.007 A 
ATOM     11  C   UNL     1       3.769   5.521   0.614  1.00  0.00     0.269 A 
ATOM     12  C   UNL     1       4.956   5.472  -0.130  1.00  0.00     0.085 A 
BRANCH  11  13
ATOM     13  N   UNL     1       3.271   6.825   1.062  1.00  0.00     0.062 N 
ATOM     14  O   UNL     1       4.063   7.778   1.046  1.00  0.00    -0.258 OA
ATOM     15  O   UNL     1       2.089   6.893   1.423  1.00  0.00    -0.258 OA
ENDBRANCH  11  13
ENDBRANCH   6   7
BRANCH   6  16
ATOM     16  N   UNL     1       2.707   0.901  -0.110  1.00  0.00    -0.348 N 
ATOM     17  C   UNL     1       2.555  -0.405  -0.446  1.00  0.00     0.226 C 
ATOM     18  H   UNL     1       2.598   1.461  -0.912  1.00  0.00     0.164 HD
ATOM     19  O   UNL     1       1.955  -0.571  -1.517  1.00  0.00    -0.274 OA
BRANCH  17  20
ATOM     20  C   UNL     1       3.084  -1.632   0.327  1.00  0.00     0.050 C 
ATOM     21  C   UNL     1       2.274  -1.902   1.608  1.00  0.00     0.020 C 
ATOM     22  C   UNL     1       4.598  -1.530   0.566  1.00  0.00     0.020 C 
ATOM     23  C   UNL     1       2.936  -2.933  -0.545  1.00  0.00     0.020 C 
ATOM     24  C   UNL     1       2.859  -3.101   2.376  1.00  0.00    -0.010 C 
ATOM     25  C   UNL     1       5.140  -2.712   1.374  1.00  0.00    -0.010 C 
ATOM     26  C   UNL     1       3.494  -4.175   0.192  1.00  0.00    -0.010 C 
ATOM     27  C   UNL     1       2.730  -4.366   1.509  1.00  0.00     0.007 C 
ATOM     28  C   UNL     1       4.344  -2.846   2.681  1.00  0.00     0.007 C 
ATOM     29  C   UNL     1       4.981  -3.975   0.524  1.00  0.00     0.007 C 
ENDBRANCH  17  20
ENDBRANCH   6  16
ENDBRANCH   5   6
ENDBRANCH   3   5
ENDBRANCH   2   3
ENDBRANCH   1   2
BRANCH   1  30
ATOM     30  C   UNL     1       7.455   2.275   2.668  1.00  0.00     0.275 C 
BRANCH  30  31
ATOM     31  O   UNL     1       7.229   1.739   1.340  1.00  0.00    -0.458 OA
BRANCH  31  32
ATOM     32  C   UNL     1       8.057   0.709   0.999  1.00  0.00     0.338 C 
ATOM     33  O   UNL     1       8.915   0.223   1.706  1.00  0.00    -0.246 OA
BRANCH  32  34
ATOM     34  C   UNL     1       7.704   0.146  -0.336  1.00  0.00     0.060 A 
ATOM     35  C   UNL     1       7.771  -1.240  -0.496  1.00  0.00     0.016 A 
ATOM     36  C   UNL     1       7.315   0.933  -1.425  1.00  0.00     0.016 A 
ATOM     37  C   UNL     1       7.352  -1.836  -1.693  1.00  0.00     0.010 A 
ATOM     38  C   UNL     1       6.905   0.337  -2.634  1.00  0.00     0.010 A 
ATOM     39  C   UNL     1       6.901  -1.058  -2.774  1.00  0.00    -0.014 A 
BRANCH  39  40
ATOM     40  C   UNL     1       6.596  -1.737  -4.067  1.00  0.00     0.031 A 
ATOM     41  C   UNL     1       7.735  -2.385  -4.806  1.00  0.00     0.074 A 
ATOM     42  C   UNL     1       5.345  -1.885  -4.548  1.00  0.00     0.049 A 
ATOM     43  N   UNL     1       7.705  -3.213  -5.818  1.00  0.00    -0.248 NA
ATOM     44  C   UNL     1       9.086  -2.084  -4.306  1.00  0.00     0.031 C 
ATOM     45  C   UNL     1       4.129  -1.377  -3.925  1.00  0.00     0.029 A 
ATOM     46  N   UNL     1       4.888  -2.552  -5.665  1.00  0.00    -0.354 N 
ATOM     47  C   UNL     1       9.025  -3.584  -6.030  1.00  0.00     0.074 A 
ATOM     48  C   UNL     1       9.831  -2.880  -5.057  1.00  0.00     0.031 C 
ATOM     49  C   UNL     1       3.062  -1.780  -4.641  1.00  0.00     0.029 A 
ATOM     50  C   UNL     1       3.517  -2.548  -5.798  1.00  0.00     0.049 A 
ATOM     51  H   UNL     1       5.489  -2.992  -6.310  1.00  0.00     0.167 HD
ATOM     52  C   UNL     1       9.536  -4.421  -6.961  1.00  0.00     0.031 A 
ATOM     53  C   UNL     1       2.725  -3.098  -6.743  1.00  0.00     0.031 A 
ATOM     54  C   UNL     1       8.787  -5.011  -8.031  1.00  0.00     0.049 A 
ATOM     55  C   UNL     1       3.349  -3.865  -7.886  1.00  0.00     0.074 A 
ATOM     56  C   UNL     1       9.252  -5.768  -9.092  1.00  0.00     0.029 A 
ATOM     57  N   UNL     1       7.421  -4.869  -8.205  1.00  0.00    -0.354 N 
ATOM     58  N   UNL     1       4.595  -4.238  -8.053  1.00  0.00    -0.248 NA
ATOM     59  C   UNL     1       2.453  -4.275  -8.981  1.00  0.00     0.031 C 
ATOM     60  C   UNL     1       8.175  -6.027  -9.946  1.00  0.00     0.029 A 
ATOM     61  C   UNL     1       7.032  -5.482  -9.382  1.00  0.00     0.049 A 
ATOM     62  H   UNL     1       6.817  -4.401  -7.584  1.00  0.00     0.167 HD
ATOM     63  C   UNL     1       4.625  -4.938  -9.255  1.00  0.00     0.074 A 
ATOM     64  C   UNL     1       3.272  -4.961  -9.765  1.00  0.00     0.031 C 
ATOM     65  C   UNL     1       5.684  -5.503  -9.883  1.00  0.00     0.031 A 
BRANCH  52  66
ATOM     66  C   UNL     1      11.013  -4.657  -6.894  1.00  0.00    -0.014 A 
ATOM     67  C   UNL     1      11.555  -5.539  -5.947  1.00  0.00     0.009 A 
ATOM     68  C   UNL     1      11.869  -3.958  -7.756  1.00  0.00     0.009 A 
ATOM     69  C   UNL     1      12.938  -5.694  -5.846  1.00  0.00     0.001 A 
ATOM     70  C   UNL     1      13.250  -4.126  -7.661  1.00  0.00     0.001 A 
ATOM     71  C   UNL     1      13.783  -4.986  -6.702  1.00  0.00     0.000 A 
ENDBRANCH  52  66
BRANCH  53  72
ATOM     72  C   UNL     1       1.243  -2.924  -6.713  1.00  0.00    -0.014 A 
ATOM     73  C   UNL     1       0.390  -4.034  -6.581  1.00  0.00     0.009 A 
ATOM     74  C   UNL     1       0.671  -1.661  -6.932  1.00  0.00     0.009 A 
ATOM     75  C   UNL     1      -0.995  -3.887  -6.710  1.00  0.00     0.001 A 
ATOM     76  C   UNL     1      -0.716  -1.513  -7.030  1.00  0.00     0.001 A 
ATOM     77  C   UNL     1      -1.546  -2.627  -6.934  1.00  0.00     0.000 A 
ENDBRANCH  53  72
BRANCH  65  78
ATOM     78  C   UNL     1       5.433  -6.208 -11.187  1.00  0.00    -0.014 A 
ATOM     79  C   UNL     1       5.166  -5.489 -12.362  1.00  0.00     0.009 A 
ATOM     80  C   UNL     1       5.542  -7.606 -11.256  1.00  0.00     0.009 A 
ATOM     81  C   UNL     1       4.994  -6.157 -13.576  1.00  0.00     0.001 A 
ATOM     82  C   UNL     1       5.395  -8.270 -12.476  1.00  0.00     0.001 A 
ATOM     83  C   UNL     1       5.115  -7.545 -13.633  1.00  0.00     0.000 A 
ENDBRANCH  65  78
ENDBRANCH  39  40
ENDBRANCH  32  34
ENDBRANCH  31  32
ENDBRANCH  30  31
ENDBRANCH   1  30
TORSDOF 16
