REMARK SMILES Cc1c(CC(=O)N[C@@H](CCO)C(=O)OCCOC(=O)c2ccc(-c3c4nc(c(-c5ccccc5)c5ccc([nH]5)c(-c5ccccc5)c5nc(c(-c6ccccc6)c6ccc3[nH]6)C=C5)C=C4)cc2)cc(-c2ccc(S(C)(=O)=O)cc2)n1-c1ccc(F)cc1
REMARK SMILES IDX 14 1 12 2 13 3 8 4 7 5 5 6 6 7 4 9 3 10 1 11 2 12 80 13
REMARK SMILES IDX 68 14 69 15 81 16 82 17 87 18 83 19 86 20 84 21 85 22 70 23
REMARK SMILES IDX 71 24 79 25 72 26 78 27 73 28 74 29 75 30 76 31 77 32 9 33
REMARK SMILES IDX 10 34 11 35 15 37 16 38 17 39 18 40 19 41 20 42 21 43 67 44
REMARK SMILES IDX 22 45 66 46 23 47 24 48 25 49 60 50 26 51 65 52 59 53 61 54
REMARK SMILES IDX 27 55 64 56 58 57 57 58 28 60 50 61 35 62 49 63 36 64 39 65
REMARK SMILES IDX 48 66 62 67 37 68 38 69 47 71 63 72 40 73 29 74 30 75 34 76
REMARK SMILES IDX 31 77 33 78 32 79 51 80 52 81 56 82 53 83 55 84 54 85 41 86
REMARK SMILES IDX 42 87 46 88 43 89 45 90 44 91
REMARK H PARENT 7 8 11 36 61 59 39 70
REMARK Flexibility Score: inf
ROOT
ATOM      1  O   UNL     1       0.958  -0.304  -6.712  1.00  0.00    -0.461 OA
ENDROOT
BRANCH   1   2
ATOM      2  C   UNL     1       1.377   0.861  -6.138  1.00  0.00     0.328 C 
ATOM      3  O   UNL     1       1.517   1.919  -6.740  1.00  0.00    -0.250 OA
BRANCH   2   4
ATOM      4  C   UNL     1       1.556   0.732  -4.609  1.00  0.00     0.194 C 
BRANCH   4   5
ATOM      5  N   UNL     1       1.366  -0.606  -4.035  1.00  0.00    -0.342 N 
ATOM      6  C   UNL     1       0.396  -1.038  -3.175  1.00  0.00     0.225 C 
ATOM      7  O   UNL     1       0.448  -2.210  -2.795  1.00  0.00    -0.275 OA
ATOM      8  H   UNL     1       2.026  -1.284  -4.307  1.00  0.00     0.164 HD
BRANCH   6   9
ATOM      9  C   UNL     1      -0.733  -0.109  -2.739  1.00  0.00     0.137 C 
BRANCH   9  10
ATOM     10  C   UNL     1      -0.262   1.096  -1.971  1.00  0.00    -0.017 A 
ATOM     11  C   UNL     1       0.902  -0.014   0.060  1.00  0.00     0.065 C 
ATOM     12  C   UNL     1       0.496   1.132  -0.809  1.00  0.00     0.024 A 
ATOM     13  N   UNL     1       0.779   2.464  -0.512  1.00  0.00    -0.314 N 
ATOM     14  C   UNL     1      -0.518   2.447  -2.333  1.00  0.00     0.033 A 
ATOM     15  C   UNL     1       0.199   3.275  -1.490  1.00  0.00     0.053 A 
BRANCH  13  16
ATOM     16  C   UNL     1       1.546   2.936   0.589  1.00  0.00     0.046 A 
ATOM     17  C   UNL     1       1.056   3.999   1.363  1.00  0.00     0.029 A 
ATOM     18  C   UNL     1       2.814   2.399   0.844  1.00  0.00     0.029 A 
ATOM     19  C   UNL     1       1.839   4.527   2.387  1.00  0.00     0.041 A 
ATOM     20  C   UNL     1       3.596   2.942   1.865  1.00  0.00     0.041 A 
ATOM     21  C   UNL     1       3.103   3.999   2.624  1.00  0.00     0.123 A 
ATOM     22  F   UNL     1       3.864   4.526   3.591  1.00  0.00    -0.207 F 
ENDBRANCH  13  16
BRANCH  15  23
ATOM     23  C   UNL     1       0.420   4.722  -1.637  1.00  0.00    -0.001 A 
ATOM     24  C   UNL     1       1.721   5.252  -1.685  1.00  0.00     0.011 A 
ATOM     25  C   UNL     1      -0.670   5.595  -1.746  1.00  0.00     0.011 A 
ATOM     26  C   UNL     1       1.931   6.630  -1.779  1.00  0.00     0.021 A 
ATOM     27  C   UNL     1      -0.470   6.975  -1.843  1.00  0.00     0.021 A 
ATOM     28  C   UNL     1       0.831   7.487  -1.839  1.00  0.00     0.067 A 
BRANCH  28  29
ATOM     29  S   UNL     1       1.093   9.241  -1.955  1.00  0.00     0.175 S 
ATOM     30  C   UNL     1       1.850   9.674  -0.410  1.00  0.00     0.163 C 
ATOM     31  O   UNL     1       2.076   9.449  -3.013  1.00  0.00    -0.224 OA
ATOM     32  O   UNL     1      -0.198   9.882  -2.004  1.00  0.00    -0.224 OA
ENDBRANCH  28  29
ENDBRANCH  15  23
ENDBRANCH   9  10
ENDBRANCH   6   9
ENDBRANCH   4   5
BRANCH   4  33
ATOM     33  C   UNL     1       2.841   1.381  -4.065  1.00  0.00     0.065 C 
BRANCH  33  34
ATOM     34  C   UNL     1       4.130   0.617  -4.340  1.00  0.00     0.159 C 
BRANCH  34  35
ATOM     35  O   UNL     1       4.388   0.547  -5.731  1.00  0.00    -0.396 OA
ATOM     36  H   UNL     1       3.659   0.083  -6.172  1.00  0.00     0.210 HD
ENDBRANCH  34  35
ENDBRANCH  33  34
ENDBRANCH   4  33
ENDBRANCH   2   4
ENDBRANCH   1   2
BRANCH   1  37
ATOM     37  C   UNL     1       0.696  -0.280  -8.141  1.00  0.00     0.274 C 
BRANCH  37  38
ATOM     38  C   UNL     1      -0.575  -1.105  -8.498  1.00  0.00     0.275 C 
BRANCH  38  39
ATOM     39  O   UNL     1      -1.811  -0.397  -8.901  1.00  0.00    -0.458 OA
BRANCH  39  40
ATOM     40  C   UNL     1      -2.910  -0.484  -8.077  1.00  0.00     0.338 C 
ATOM     41  O   UNL     1      -2.825  -0.756  -6.886  1.00  0.00    -0.246 OA
BRANCH  40  42
ATOM     42  C   UNL     1      -4.277  -0.193  -8.745  1.00  0.00     0.060 A 
ATOM     43  C   UNL     1      -4.964   0.972  -8.438  1.00  0.00     0.016 A 
ATOM     44  C   UNL     1      -5.047  -1.122  -9.485  1.00  0.00     0.016 A 
ATOM     45  C   UNL     1      -6.310   1.214  -8.924  1.00  0.00     0.010 A 
ATOM     46  C   UNL     1      -6.457  -0.892  -9.925  1.00  0.00     0.010 A 
ATOM     47  C   UNL     1      -7.160   0.303  -9.675  1.00  0.00    -0.014 A 
BRANCH  47  48
ATOM     48  C   UNL     1      -8.812   0.650  -9.739  1.00  0.00     0.031 A 
ATOM     49  C   UNL     1      -9.036   1.178  -8.367  1.00  0.00     0.074 A 
ATOM     50  C   UNL     1     -10.047   0.473 -10.416  1.00  0.00     0.049 A 
ATOM     51  N   UNL     1      -8.752   0.382  -7.378  1.00  0.00    -0.248 NA
ATOM     52  C   UNL     1      -9.159   2.587  -8.003  1.00  0.00     0.031 C 
ATOM     53  C   UNL     1     -10.338  -0.377 -11.589  1.00  0.00     0.029 A 
ATOM     54  N   UNL     1     -11.393   1.004 -10.212  1.00  0.00    -0.354 N 
ATOM     55  C   UNL     1      -8.938   1.101  -6.229  1.00  0.00     0.074 A 
ATOM     56  C   UNL     1      -8.966   2.487  -6.680  1.00  0.00     0.031 C 
ATOM     57  C   UNL     1     -11.607  -0.196 -12.075  1.00  0.00     0.029 A 
ATOM     58  C   UNL     1     -12.373   0.763 -11.274  1.00  0.00     0.049 A 
ATOM     59  H   UNL     1     -11.632   1.502  -9.397  1.00  0.00     0.167 HD
ATOM     60  C   UNL     1      -9.730   0.482  -5.306  1.00  0.00     0.031 A 
ATOM     61  C   UNL     1     -13.700   1.202 -11.469  1.00  0.00     0.031 A 
ATOM     62  C   UNL     1     -11.078   0.979  -5.364  1.00  0.00     0.049 A 
ATOM     63  C   UNL     1     -14.250   1.378 -10.123  1.00  0.00     0.074 A 
ATOM     64  C   UNL     1     -11.596   2.257  -5.447  1.00  0.00     0.029 A 
ATOM     65  N   UNL     1     -12.057   0.122  -5.814  1.00  0.00    -0.354 N 
ATOM     66  N   UNL     1     -14.692   0.358  -9.454  1.00  0.00    -0.248 NA
ATOM     67  C   UNL     1     -14.507   2.679  -9.524  1.00  0.00     0.031 C 
ATOM     68  C   UNL     1     -12.667   2.165  -6.356  1.00  0.00     0.029 A 
ATOM     69  C   UNL     1     -13.031   0.833  -6.487  1.00  0.00     0.049 A 
ATOM     70  H   UNL     1     -12.062  -0.853  -5.676  1.00  0.00     0.167 HD
ATOM     71  C   UNL     1     -14.712   0.825  -8.179  1.00  0.00     0.074 A 
ATOM     72  C   UNL     1     -14.873   2.263  -8.309  1.00  0.00     0.031 C 
ATOM     73  C   UNL     1     -13.984   0.105  -7.289  1.00  0.00     0.031 A 
BRANCH  60  74
ATOM     74  C   UNL     1      -9.337  -0.962  -5.079  1.00  0.00    -0.014 A 
ATOM     75  C   UNL     1      -8.630  -1.292  -3.918  1.00  0.00     0.009 A 
ATOM     76  C   UNL     1      -9.440  -1.941  -6.093  1.00  0.00     0.009 A 
ATOM     77  C   UNL     1      -7.977  -2.527  -3.812  1.00  0.00     0.001 A 
ATOM     78  C   UNL     1      -8.749  -3.151  -6.007  1.00  0.00     0.001 A 
ATOM     79  C   UNL     1      -8.008  -3.439  -4.868  1.00  0.00     0.000 A 
ENDBRANCH  60  74
BRANCH  61  80
ATOM     80  C   UNL     1     -14.945   1.341 -12.451  1.00  0.00    -0.014 A 
ATOM     81  C   UNL     1     -16.293   1.208 -11.941  1.00  0.00     0.009 A 
ATOM     82  C   UNL     1     -14.890   2.026 -13.673  1.00  0.00     0.009 A 
ATOM     83  C   UNL     1     -17.438   1.822 -12.504  1.00  0.00     0.001 A 
ATOM     84  C   UNL     1     -16.054   2.614 -14.268  1.00  0.00     0.001 A 
ATOM     85  C   UNL     1     -17.313   2.553 -13.666  1.00  0.00     0.000 A 
ENDBRANCH  61  80
BRANCH  73  86
ATOM     86  C   UNL     1     -14.044  -1.414  -7.379  1.00  0.00    -0.014 A 
ATOM     87  C   UNL     1     -13.985  -2.179  -8.566  1.00  0.00     0.009 A 
ATOM     88  C   UNL     1     -14.195  -2.123  -6.179  1.00  0.00     0.009 A 
ATOM     89  C   UNL     1     -14.115  -3.574  -8.555  1.00  0.00     0.001 A 
ATOM     90  C   UNL     1     -14.273  -3.519  -6.160  1.00  0.00     0.001 A 
ATOM     91  C   UNL     1     -14.248  -4.244  -7.348  1.00  0.00     0.000 A 
ENDBRANCH  73  86
ENDBRANCH  47  48
ENDBRANCH  40  42
ENDBRANCH  39  40
ENDBRANCH  38  39
ENDBRANCH  37  38
ENDBRANCH   1  37
TORSDOF 20
