REMARK SMILES CC/C=C/C/C=C/C/C=C/C/C=C/CC/C=C/COCC(=O)OCCOC(=O)c1ccc(-c2c3nc(c(-c4ccccc4)c4ccc([nH]4)c(-c4ccccc4)c4nc(c(-c5ccccc5)c5ccc2[nH]5)C=C4)C=C3)cc1
REMARK SMILES IDX 18 1 17 2 16 3 15 4 14 5 13 6 12 7 11 8 10 9 9 10 8 11 7 12
REMARK SMILES IDX 6 13 5 14 4 15 3 16 2 17 1 18 19 19 20 20 21 21 22 22 23 23
REMARK SMILES IDX 24 24 25 25 26 26 27 27 28 28 29 29 30 30 76 31 31 32 75 33
REMARK SMILES IDX 32 34 33 35 34 36 69 37 35 38 74 39 68 40 70 41 36 42 73 43
REMARK SMILES IDX 67 44 66 45 37 47 59 48 44 49 58 50 45 51 48 52 57 53 71 54
REMARK SMILES IDX 46 55 47 56 56 58 72 59 49 60 38 61 39 62 43 63 40 64 42 65
REMARK SMILES IDX 41 66 60 67 61 68 65 69 62 70 64 71 63 72 50 73 51 74 55 75
REMARK SMILES IDX 52 76 54 77 53 78
REMARK H PARENT 70 46 48 57
REMARK Flexibility Score: inf
ROOT
ATOM      1  C   UNL     1      -8.703  10.812 -10.228  1.00  0.00     0.188 C 
ENDROOT
BRANCH   1   2
ATOM      2  C   UNL     1      -9.123  10.685  -8.786  1.00  0.00    -0.003 C 
ATOM      3  C   UNL     1      -8.350  10.006  -7.932  1.00  0.00    -0.029 C 
BRANCH   3   4
ATOM      4  C   UNL     1      -8.740   9.349  -6.632  1.00  0.00     0.031 C 
BRANCH   4   5
ATOM      5  C   UNL     1      -9.023   7.773  -6.641  1.00  0.00     0.031 C 
BRANCH   5   6
ATOM      6  C   UNL     1      -8.153   6.510  -7.025  1.00  0.00    -0.031 C 
ATOM      7  C   UNL     1      -7.079   5.903  -6.446  1.00  0.00    -0.027 C 
BRANCH   7   8
ATOM      8  C   UNL     1      -6.349   4.592  -6.701  1.00  0.00     0.054 C 
BRANCH   8   9
ATOM      9  C   UNL     1      -4.819   4.694  -6.609  1.00  0.00    -0.027 C 
ATOM     10  C   UNL     1      -3.992   4.344  -5.592  1.00  0.00    -0.027 C 
BRANCH  10  11
ATOM     11  C   UNL     1      -2.467   4.399  -5.670  1.00  0.00     0.054 C 
BRANCH  11  12
ATOM     12  C   UNL     1      -1.753   4.700  -4.363  1.00  0.00    -0.027 C 
ATOM     13  C   UNL     1      -0.734   3.963  -3.867  1.00  0.00    -0.027 C 
BRANCH  13  14
ATOM     14  C   UNL     1       0.076   4.277  -2.627  1.00  0.00     0.054 C 
BRANCH  14  15
ATOM     15  C   UNL     1      -0.156   3.267  -1.533  1.00  0.00    -0.027 C 
ATOM     16  C   UNL     1       0.799   2.574  -0.887  1.00  0.00    -0.031 C 
BRANCH  16  17
ATOM     17  C   UNL     1       0.511   1.600   0.225  1.00  0.00     0.023 C 
ATOM     18  C   UNL     1       1.027   0.202  -0.087  1.00  0.00     0.008 C 
ENDBRANCH  16  17
ENDBRANCH  14  15
ENDBRANCH  13  14
ENDBRANCH  11  12
ENDBRANCH  10  11
ENDBRANCH   8   9
ENDBRANCH   7   8
ENDBRANCH   5   6
ENDBRANCH   4   5
ENDBRANCH   3   4
ENDBRANCH   1   2
BRANCH   1  19
ATOM     19  O   UNL     1      -9.727  10.333 -11.105  1.00  0.00    -0.366 OA
BRANCH  19  20
ATOM     20  C   UNL     1     -10.383   9.136 -10.720  1.00  0.00     0.283 C 
BRANCH  20  21
ATOM     21  C   UNL     1      -9.699   7.766 -10.733  1.00  0.00     0.332 C 
ATOM     22  O   UNL     1      -9.865   6.935  -9.848  1.00  0.00    -0.250 OA
BRANCH  21  23
ATOM     23  O   UNL     1      -9.017   7.548 -11.889  1.00  0.00    -0.460 OA
BRANCH  23  24
ATOM     24  C   UNL     1      -8.552   6.196 -12.097  1.00  0.00     0.274 C 
BRANCH  24  25
ATOM     25  C   UNL     1      -7.021   6.146 -12.118  1.00  0.00     0.275 C 
BRANCH  25  26
ATOM     26  O   UNL     1      -6.503   6.562 -10.837  1.00  0.00    -0.458 OA
BRANCH  26  27
ATOM     27  C   UNL     1      -5.180   6.851 -10.745  1.00  0.00     0.338 C 
ATOM     28  O   UNL     1      -4.348   6.710 -11.649  1.00  0.00    -0.246 OA
BRANCH  27  29
ATOM     29  C   UNL     1      -4.860   7.364  -9.379  1.00  0.00     0.060 A 
ATOM     30  C   UNL     1      -5.862   7.964  -8.646  1.00  0.00     0.016 A 
ATOM     31  C   UNL     1      -3.606   7.288  -8.764  1.00  0.00     0.016 A 
ATOM     32  C   UNL     1      -5.639   8.407  -7.326  1.00  0.00     0.010 A 
ATOM     33  C   UNL     1      -3.424   7.700  -7.396  1.00  0.00     0.010 A 
ATOM     34  C   UNL     1      -4.474   8.234  -6.618  1.00  0.00    -0.014 A 
BRANCH  34  35
ATOM     35  C   UNL     1      -4.395   8.792  -5.193  1.00  0.00     0.031 A 
ATOM     36  C   UNL     1      -3.412   9.896  -4.970  1.00  0.00     0.074 A 
ATOM     37  C   UNL     1      -5.235   8.618  -4.125  1.00  0.00     0.049 A 
ATOM     38  N   UNL     1      -2.994  10.421  -3.849  1.00  0.00    -0.248 NA
ATOM     39  C   UNL     1      -2.898  10.543  -6.185  1.00  0.00     0.031 C 
ATOM     40  C   UNL     1      -6.552   8.018  -4.122  1.00  0.00     0.029 A 
ATOM     41  N   UNL     1      -5.111   8.957  -2.781  1.00  0.00    -0.354 N 
ATOM     42  C   UNL     1      -2.128  11.428  -4.222  1.00  0.00     0.074 A 
ATOM     43  C   UNL     1      -2.074  11.438  -5.670  1.00  0.00     0.031 C 
ATOM     44  C   UNL     1      -7.033   7.832  -2.889  1.00  0.00     0.029 A 
ATOM     45  C   UNL     1      -6.096   8.420  -1.962  1.00  0.00     0.049 A 
ATOM     46  H   UNL     1      -4.387   9.529  -2.439  1.00  0.00     0.167 HD
ATOM     47  C   UNL     1      -1.437  12.280  -3.436  1.00  0.00     0.031 A 
ATOM     48  C   UNL     1      -6.301   8.401  -0.629  1.00  0.00     0.031 A 
ATOM     49  C   UNL     1      -1.510  12.356  -2.005  1.00  0.00     0.049 A 
ATOM     50  C   UNL     1      -5.386   9.182   0.250  1.00  0.00     0.074 A 
ATOM     51  C   UNL     1      -0.756  13.149  -1.158  1.00  0.00     0.029 A 
ATOM     52  N   UNL     1      -2.395  11.651  -1.209  1.00  0.00    -0.354 N 
ATOM     53  N   UNL     1      -4.424   9.989  -0.105  1.00  0.00    -0.248 NA
ATOM     54  C   UNL     1      -5.604   9.088   1.701  1.00  0.00     0.031 C 
ATOM     55  C   UNL     1      -1.154  12.891   0.158  1.00  0.00     0.029 A 
ATOM     56  C   UNL     1      -2.186  11.971   0.125  1.00  0.00     0.049 A 
ATOM     57  H   UNL     1      -3.072  11.017  -1.540  1.00  0.00     0.167 HD
ATOM     58  C   UNL     1      -3.939  10.527   1.073  1.00  0.00     0.074 A 
ATOM     59  C   UNL     1      -4.722   9.968   2.155  1.00  0.00     0.031 C 
ATOM     60  C   UNL     1      -2.933  11.418   1.222  1.00  0.00     0.031 A 
BRANCH  47  61
ATOM     61  C   UNL     1      -0.433  13.119  -4.152  1.00  0.00    -0.014 A 
ATOM     62  C   UNL     1      -0.801  14.257  -4.881  1.00  0.00     0.009 A 
ATOM     63  C   UNL     1       0.904  12.695  -4.146  1.00  0.00     0.009 A 
ATOM     64  C   UNL     1       0.158  14.940  -5.626  1.00  0.00     0.001 A 
ATOM     65  C   UNL     1       1.863  13.395  -4.869  1.00  0.00     0.001 A 
ATOM     66  C   UNL     1       1.487  14.511  -5.616  1.00  0.00     0.000 A 
ENDBRANCH  47  61
BRANCH  48  67
ATOM     67  C   UNL     1      -7.414   7.609  -0.022  1.00  0.00    -0.014 A 
ATOM     68  C   UNL     1      -8.502   8.233   0.610  1.00  0.00     0.009 A 
ATOM     69  C   UNL     1      -7.347   6.205  -0.011  1.00  0.00     0.009 A 
ATOM     70  C   UNL     1      -9.476   7.472   1.266  1.00  0.00     0.001 A 
ATOM     71  C   UNL     1      -8.333   5.447   0.627  1.00  0.00     0.001 A 
ATOM     72  C   UNL     1      -9.391   6.081   1.275  1.00  0.00     0.000 A 
ENDBRANCH  48  67
BRANCH  60  73
ATOM     73  C   UNL     1      -2.625  11.860   2.619  1.00  0.00    -0.014 A 
ATOM     74  C   UNL     1      -2.018  10.990   3.538  1.00  0.00     0.009 A 
ATOM     75  C   UNL     1      -2.959  13.160   3.027  1.00  0.00     0.009 A 
ATOM     76  C   UNL     1      -1.786  11.401   4.851  1.00  0.00     0.001 A 
ATOM     77  C   UNL     1      -2.701  13.578   4.333  1.00  0.00     0.001 A 
ATOM     78  C   UNL     1      -2.125  12.695   5.246  1.00  0.00     0.000 A 
ENDBRANCH  60  73
ENDBRANCH  34  35
ENDBRANCH  27  29
ENDBRANCH  26  27
ENDBRANCH  25  26
ENDBRANCH  24  25
ENDBRANCH  23  24
ENDBRANCH  21  23
ENDBRANCH  20  21
ENDBRANCH  19  20
ENDBRANCH   1  19
TORSDOF 24
