REMARK SMILES CC[C@@H]1CCC[C@@](Cc2ccccn2)(C(=O)OCCOC(=O)c2ccc(-c3c4nc(c(-c5ccccc5)c5ccc([nH]5)c(-c5ccccc5)c5nc(c(-c6ccccc6)c6ccc3[nH]6)C=C5)C=C4)cc2)C1
REMARK SMILES IDX 18 1 17 2 15 3 16 4 7 5 3 6 4 7 71 8 5 9 6 10 2 11 1 12 8 13
REMARK SMILES IDX 9 14 10 15 14 16 11 17 13 18 12 19 19 20 20 21 21 22 22 23
REMARK SMILES IDX 23 24 24 25 70 26 25 27 69 28 26 29 27 30 28 31 63 32 29 33
REMARK SMILES IDX 68 34 62 35 64 36 30 37 67 38 61 39 60 40 31 42 53 43 38 44
REMARK SMILES IDX 52 45 39 46 42 47 51 48 65 49 40 50 41 51 50 53 66 54 43 55
REMARK SMILES IDX 32 56 33 57 37 58 34 59 36 60 35 61 54 62 55 63 59 64 56 65
REMARK SMILES IDX 58 66 57 67 44 68 45 69 49 70 46 71 48 72 47 73
REMARK H PARENT 64 41 42 52
REMARK Flexibility Score: inf
ROOT
ATOM      1  C   UNL     1       4.942  -5.015  -0.186  1.00  0.00     0.274 C 
ENDROOT
BRANCH   1   2
ATOM      2  O   UNL     1       3.507  -5.060  -0.030  1.00  0.00    -0.462 OA
BRANCH   2   3
ATOM      3  C   UNL     1       2.924  -4.079   0.711  1.00  0.00     0.312 C 
ATOM      4  O   UNL     1       3.528  -3.115   1.171  1.00  0.00    -0.252 OA
BRANCH   3   5
ATOM      5  C   UNL     1       1.453  -4.381   1.046  1.00  0.00     0.074 C 
ATOM      6  C   UNL     1       0.339  -2.552  -0.433  1.00  0.00    -0.010 C 
ATOM      7  C   UNL     1      -0.256  -3.650  -1.323  1.00  0.00     0.003 C 
ATOM      8  C   UNL     1       0.612  -3.071   0.986  1.00  0.00     0.022 C 
ATOM      9  C   UNL     1       0.589  -4.915  -1.308  1.00  0.00     0.001 C 
ATOM     10  C   UNL     1       0.808  -5.431   0.114  1.00  0.00     0.019 C 
BRANCH   6  11
ATOM     11  C   UNL     1      -0.572  -1.304  -0.482  1.00  0.00     0.000 C 
ATOM     12  C   UNL     1      -0.353  -0.282   0.624  1.00  0.00     0.004 C 
ENDBRANCH   6  11
BRANCH   5  13
ATOM     13  C   UNL     1       1.455  -4.846   2.532  1.00  0.00     0.075 C 
BRANCH  13  14
ATOM     14  C   UNL     1       2.101  -6.182   2.801  1.00  0.00     0.041 A 
ATOM     15  C   UNL     1       3.477  -6.295   2.993  1.00  0.00     0.024 A 
ATOM     16  N   UNL     1       1.274  -7.253   2.835  1.00  0.00    -0.261 NA
ATOM     17  C   UNL     1       4.024  -7.557   3.204  1.00  0.00     0.003 A 
ATOM     18  C   UNL     1       1.829  -8.462   3.064  1.00  0.00     0.111 A 
ATOM     19  C   UNL     1       3.186  -8.664   3.244  1.00  0.00     0.020 A 
ENDBRANCH  13  14
ENDBRANCH   5  13
ENDBRANCH   3   5
ENDBRANCH   2   3
ENDBRANCH   1   2
BRANCH   1  20
ATOM     20  C   UNL     1       5.318  -4.550  -1.589  1.00  0.00     0.275 C 
BRANCH  20  21
ATOM     21  O   UNL     1       4.931  -3.175  -1.720  1.00  0.00    -0.458 OA
BRANCH  21  22
ATOM     22  C   UNL     1       4.468  -2.786  -2.927  1.00  0.00     0.338 C 
ATOM     23  O   UNL     1       4.479  -3.443  -3.961  1.00  0.00    -0.246 OA
BRANCH  22  24
ATOM     24  C   UNL     1       3.880  -1.430  -2.816  1.00  0.00     0.060 A 
ATOM     25  C   UNL     1       3.428  -0.949  -1.589  1.00  0.00     0.016 A 
ATOM     26  C   UNL     1       3.683  -0.657  -3.963  1.00  0.00     0.016 A 
ATOM     27  C   UNL     1       2.694   0.233  -1.526  1.00  0.00     0.010 A 
ATOM     28  C   UNL     1       3.028   0.581  -3.875  1.00  0.00     0.010 A 
ATOM     29  C   UNL     1       2.482   1.027  -2.659  1.00  0.00    -0.014 A 
BRANCH  29  30
ATOM     30  C   UNL     1       1.646   2.268  -2.583  1.00  0.00     0.031 A 
ATOM     31  C   UNL     1       0.510   2.481  -3.556  1.00  0.00     0.074 A 
ATOM     32  C   UNL     1       1.845   3.203  -1.629  1.00  0.00     0.049 A 
ATOM     33  N   UNL     1      -0.140   3.583  -3.839  1.00  0.00    -0.248 NA
ATOM     34  C   UNL     1       0.055   1.308  -4.321  1.00  0.00     0.031 C 
ATOM     35  C   UNL     1       2.832   3.136  -0.549  1.00  0.00     0.029 A 
ATOM     36  N   UNL     1       1.198   4.396  -1.401  1.00  0.00    -0.354 N 
ATOM     37  C   UNL     1      -1.004   3.259  -4.879  1.00  0.00     0.074 A 
ATOM     38  C   UNL     1      -0.821   1.851  -5.156  1.00  0.00     0.031 C 
ATOM     39  C   UNL     1       2.668   4.186   0.268  1.00  0.00     0.029 A 
ATOM     40  C   UNL     1       1.663   5.075  -0.300  1.00  0.00     0.049 A 
ATOM     41  H   UNL     1       0.471   4.732  -1.974  1.00  0.00     0.167 HD
ATOM     42  C   UNL     1      -1.856   4.067  -5.554  1.00  0.00     0.031 A 
ATOM     43  C   UNL     1       1.370   6.301   0.175  1.00  0.00     0.031 A 
ATOM     44  C   UNL     1      -2.106   5.447  -5.227  1.00  0.00     0.049 A 
ATOM     45  C   UNL     1       0.438   7.189  -0.596  1.00  0.00     0.074 A 
ATOM     46  C   UNL     1      -2.934   6.351  -5.871  1.00  0.00     0.029 A 
ATOM     47  N   UNL     1      -1.562   6.108  -4.139  1.00  0.00    -0.354 N 
ATOM     48  N   UNL     1      -0.245   6.925  -1.681  1.00  0.00    -0.248 NA
ATOM     49  C   UNL     1       0.277   8.565  -0.100  1.00  0.00     0.031 C 
ATOM     50  C   UNL     1      -2.874   7.569  -5.184  1.00  0.00     0.029 A 
ATOM     51  C   UNL     1      -2.038   7.408  -4.092  1.00  0.00     0.049 A 
ATOM     52  H   UNL     1      -0.932   5.713  -3.495  1.00  0.00     0.167 HD
ATOM     53  C   UNL     1      -0.901   8.103  -2.010  1.00  0.00     0.074 A 
ATOM     54  C   UNL     1      -0.568   9.072  -0.987  1.00  0.00     0.031 C 
ATOM     55  C   UNL     1      -1.691   8.365  -3.078  1.00  0.00     0.031 A 
BRANCH  42  56
ATOM     56  C   UNL     1      -2.548   3.501  -6.760  1.00  0.00    -0.014 A 
ATOM     57  C   UNL     1      -3.655   2.649  -6.647  1.00  0.00     0.009 A 
ATOM     58  C   UNL     1      -2.111   3.886  -8.039  1.00  0.00     0.009 A 
ATOM     59  C   UNL     1      -4.301   2.180  -7.795  1.00  0.00     0.001 A 
ATOM     60  C   UNL     1      -2.772   3.435  -9.182  1.00  0.00     0.001 A 
ATOM     61  C   UNL     1      -3.863   2.577  -9.059  1.00  0.00     0.000 A 
ENDBRANCH  42  56
BRANCH  43  62
ATOM     62  C   UNL     1       2.050   6.806   1.398  1.00  0.00    -0.014 A 
ATOM     63  C   UNL     1       1.329   7.002   2.584  1.00  0.00     0.009 A 
ATOM     64  C   UNL     1       3.424   7.094   1.382  1.00  0.00     0.009 A 
ATOM     65  C   UNL     1       1.970   7.482   3.729  1.00  0.00     0.001 A 
ATOM     66  C   UNL     1       4.069   7.542   2.535  1.00  0.00     0.001 A 
ATOM     67  C   UNL     1       3.340   7.742   3.706  1.00  0.00     0.000 A 
ENDBRANCH  43  62
BRANCH  55  68
ATOM     68  C   UNL     1      -2.250   9.752  -3.187  1.00  0.00    -0.014 A 
ATOM     69  C   UNL     1      -1.446  10.817  -3.620  1.00  0.00     0.009 A 
ATOM     70  C   UNL     1      -3.595   9.993  -2.872  1.00  0.00     0.009 A 
ATOM     71  C   UNL     1      -1.973  12.107  -3.707  1.00  0.00     0.001 A 
ATOM     72  C   UNL     1      -4.124  11.280  -2.979  1.00  0.00     0.001 A 
ATOM     73  C   UNL     1      -3.311  12.336  -3.388  1.00  0.00     0.000 A 
ENDBRANCH  55  68
ENDBRANCH  29  30
ENDBRANCH  22  24
ENDBRANCH  21  22
ENDBRANCH  20  21
ENDBRANCH   1  20
TORSDOF 14
