REMARK SMILES CC(C)(CC(=O)Nc1sc2c(c1C#N)CCCCCC2)CC(=O)OCCOC(=O)c1ccc(-c2c3nc(c(-c4ccccc4)c4ccc([nH]4)c(-c4ccccc4)c4nc(c(-c5ccccc5)c5ccc2[nH]5)C=C4)C=C3)cc1
REMARK SMILES IDX 22 1 23 2 21 3 2 4 1 5 3 6 4 7 5 8 6 9 7 10 8 12 9 13 12 14
REMARK SMILES IDX 10 15 11 16 13 17 14 18 20 19 19 20 18 21 15 23 16 24 17 25
REMARK SMILES IDX 24 27 25 28 26 29 27 30 28 31 29 32 30 33 31 34 77 35 32 36
REMARK SMILES IDX 76 37 33 38 34 39 35 40 70 41 36 42 75 43 69 44 71 45 37 46
REMARK SMILES IDX 74 47 68 48 67 49 38 51 60 52 45 53 59 54 46 55 49 56 58 57
REMARK SMILES IDX 72 58 47 59 48 60 57 62 73 63 50 64 39 65 40 66 44 67 41 68
REMARK SMILES IDX 43 69 42 70 61 71 62 72 66 73 63 74 65 75 64 76 51 77 52 78
REMARK SMILES IDX 56 79 53 80 55 81 54 82
REMARK H PARENT 7 11 71 50 49 61
REMARK Flexibility Score: 90.00
ROOT
ATOM      1  C   UNL     1       0.240   2.287  -2.736  1.00  0.00     0.306 C 
ATOM      2  O   UNL     1       0.742   3.157  -3.440  1.00  0.00    -0.252 OA
ENDROOT
BRANCH   1   3
ATOM      3  C   UNL     1       0.520   0.815  -2.947  1.00  0.00     0.129 C 
BRANCH   3   4
ATOM      4  C   UNL     1       0.219  -0.316  -1.915  1.00  0.00    -0.016 C 
ATOM      5  C   UNL     1       1.317  -0.376  -0.881  1.00  0.00     0.012 C 
ATOM      6  C   UNL     1       0.428  -1.644  -2.714  1.00  0.00     0.012 C 
BRANCH   4   7
ATOM      7  C   UNL     1      -1.188  -0.398  -1.226  1.00  0.00     0.107 C 
BRANCH   7   8
ATOM      8  C   UNL     1      -1.849   0.608  -0.240  1.00  0.00     0.225 C 
ATOM      9  O   UNL     1      -2.784   1.311  -0.665  1.00  0.00    -0.275 OA
ATOM     10  N   UNL     1      -1.669   0.688   1.119  1.00  0.00    -0.317 N 
ATOM     11  H   UNL     1      -2.268   1.319   1.579  1.00  0.00     0.170 HD
BRANCH  10  12
ATOM     12  C   UNL     1      -0.788   0.028   1.936  1.00  0.00     0.114 A 
ATOM     13  S   UNL     1       0.791   0.652   1.956  1.00  0.00    -0.121 S 
ATOM     14  C   UNL     1      -0.862  -0.535   3.204  1.00  0.00     0.090 A 
ATOM     15  C   UNL     1       1.359  -0.835   2.591  1.00  0.00     0.011 A 
ATOM     16  C   UNL     1       0.394  -1.219   3.515  1.00  0.00    -0.014 A 
BRANCH  14  17
ATOM     17  C   UNL     1      -2.029  -0.483   4.017  1.00  0.00     0.103 C 
ATOM     18  N   UNL     1      -2.963  -0.346   4.705  1.00  0.00    -0.192 NA
ENDBRANCH  14  17
BRANCH  15  19
ATOM     19  C   UNL     1       2.690  -1.367   2.135  1.00  0.00     0.047 C 
BRANCH  19  20
ATOM     20  C   UNL     1       3.385  -2.380   3.025  1.00  0.00     0.006 C 
BRANCH  20  21
ATOM     21  C   UNL     1       2.837  -3.811   2.943  1.00  0.00     0.000 CG0
ATOM     22  G   UNL     1       1.323  -4.010   2.851  1.00  0.00     0.000 G0
ENDBRANCH  20  21
ENDBRANCH  19  20
ENDBRANCH  15  19
BRANCH  16  23
ATOM     23  C   UNL     1       0.620  -2.217   4.603  1.00  0.00     0.038 C 
BRANCH  23  24
ATOM     24  C   UNL     1       0.518  -3.657   4.106  1.00  0.00     0.005 C 
BRANCH  24  25
ATOM     25  C   UNL     1       1.323  -4.010   2.851  1.00  0.00     0.000 CG0
ATOM     26  G   UNL     1       2.837  -3.811   2.943  1.00  0.00     0.000 G0
ENDBRANCH  24  25
ENDBRANCH  23  24
ENDBRANCH  16  23
ENDBRANCH  10  12
ENDBRANCH   7   8
ENDBRANCH   4   7
ENDBRANCH   3   4
ENDBRANCH   1   3
BRANCH   1  27
ATOM     27  O   UNL     1      -0.654   2.513  -1.759  1.00  0.00    -0.462 OA
BRANCH  27  28
ATOM     28  C   UNL     1      -0.967   3.879  -1.446  1.00  0.00     0.274 C 
BRANCH  28  29
ATOM     29  C   UNL     1      -0.521   4.171  -0.020  1.00  0.00     0.275 C 
BRANCH  29  30
ATOM     30  O   UNL     1       0.860   4.564   0.114  1.00  0.00    -0.458 OA
BRANCH  30  31
ATOM     31  C   UNL     1       1.786   3.579   0.073  1.00  0.00     0.338 C 
ATOM     32  O   UNL     1       1.948   2.761  -0.812  1.00  0.00    -0.246 OA
BRANCH  31  33
ATOM     33  C   UNL     1       2.526   3.494   1.346  1.00  0.00     0.060 A 
ATOM     34  C   UNL     1       3.411   2.420   1.517  1.00  0.00     0.016 A 
ATOM     35  C   UNL     1       2.216   4.340   2.416  1.00  0.00     0.016 A 
ATOM     36  C   UNL     1       3.878   2.123   2.788  1.00  0.00     0.010 A 
ATOM     37  C   UNL     1       2.714   4.065   3.678  1.00  0.00     0.010 A 
ATOM     38  C   UNL     1       3.511   2.936   3.873  1.00  0.00    -0.014 A 
BRANCH  38  39
ATOM     39  C   UNL     1       4.341   2.863   5.079  1.00  0.00     0.031 A 
ATOM     40  C   UNL     1       5.755   3.163   4.687  1.00  0.00     0.074 A 
ATOM     41  C   UNL     1       3.870   2.753   6.343  1.00  0.00     0.049 A 
ATOM     42  N   UNL     1       6.760   2.352   4.703  1.00  0.00    -0.248 NA
ATOM     43  C   UNL     1       6.021   4.399   3.906  1.00  0.00     0.031 C 
ATOM     44  C   UNL     1       2.463   2.699   6.757  1.00  0.00     0.029 A 
ATOM     45  N   UNL     1       4.519   2.780   7.550  1.00  0.00    -0.354 N 
ATOM     46  C   UNL     1       7.838   3.102   4.229  1.00  0.00     0.074 A 
ATOM     47  C   UNL     1       7.276   4.201   3.503  1.00  0.00     0.031 C 
ATOM     48  C   UNL     1       2.362   2.966   8.082  1.00  0.00     0.029 A 
ATOM     49  C   UNL     1       3.696   3.079   8.645  1.00  0.00     0.049 A 
ATOM     50  H   UNL     1       5.484   2.603   7.641  1.00  0.00     0.167 HD
ATOM     51  C   UNL     1       9.032   3.025   4.881  1.00  0.00     0.031 A 
ATOM     52  C   UNL     1       4.085   3.432   9.904  1.00  0.00     0.031 A 
ATOM     53  C   UNL     1       9.090   1.805   5.646  1.00  0.00     0.049 A 
ATOM     54  C   UNL     1       5.492   3.015  10.055  1.00  0.00     0.074 A 
ATOM     55  C   UNL     1       9.206   0.458   5.383  1.00  0.00     0.029 A 
ATOM     56  N   UNL     1       8.495   1.932   6.873  1.00  0.00    -0.354 N 
ATOM     57  N   UNL     1       5.855   1.766  10.096  1.00  0.00    -0.248 NA
ATOM     58  C   UNL     1       6.541   3.974   9.741  1.00  0.00     0.031 C 
ATOM     59  C   UNL     1       8.555  -0.213   6.461  1.00  0.00     0.029 A 
ATOM     60  C   UNL     1       8.155   0.727   7.408  1.00  0.00     0.049 A 
ATOM     61  H   UNL     1       8.333   2.796   7.317  1.00  0.00     0.167 HD
ATOM     62  C   UNL     1       7.026   1.741   9.366  1.00  0.00     0.074 A 
ATOM     63  C   UNL     1       7.481   3.130   9.309  1.00  0.00     0.031 C 
ATOM     64  C   UNL     1       7.329   0.662   8.589  1.00  0.00     0.031 A 
BRANCH  51  65
ATOM     65  C   UNL     1       9.771   4.273   5.361  1.00  0.00    -0.014 A 
ATOM     66  C   UNL     1      10.882   4.100   6.209  1.00  0.00     0.009 A 
ATOM     67  C   UNL     1       9.265   5.586   5.273  1.00  0.00     0.009 A 
ATOM     68  C   UNL     1      11.401   5.158   6.970  1.00  0.00     0.001 A 
ATOM     69  C   UNL     1       9.791   6.649   6.014  1.00  0.00     0.001 A 
ATOM     70  C   UNL     1      10.848   6.430   6.880  1.00  0.00     0.000 A 
ENDBRANCH  51  65
BRANCH  52  71
ATOM     71  C   UNL     1       3.464   4.350  10.899  1.00  0.00    -0.014 A 
ATOM     72  C   UNL     1       3.882   4.371  12.247  1.00  0.00     0.009 A 
ATOM     73  C   UNL     1       2.684   5.431  10.456  1.00  0.00     0.009 A 
ATOM     74  C   UNL     1       3.568   5.448  13.095  1.00  0.00     0.001 A 
ATOM     75  C   UNL     1       2.374   6.508  11.300  1.00  0.00     0.001 A 
ATOM     76  C   UNL     1       2.828   6.525  12.614  1.00  0.00     0.000 A 
ENDBRANCH  52  71
BRANCH  64  77
ATOM     77  C   UNL     1       6.695  -0.653   8.925  1.00  0.00    -0.014 A 
ATOM     78  C   UNL     1       5.324  -0.938   8.830  1.00  0.00     0.009 A 
ATOM     79  C   UNL     1       7.575  -1.685   9.284  1.00  0.00     0.009 A 
ATOM     80  C   UNL     1       4.853  -2.228   9.109  1.00  0.00     0.001 A 
ATOM     81  C   UNL     1       7.109  -2.971   9.539  1.00  0.00     0.001 A 
ATOM     82  C   UNL     1       5.747  -3.241   9.459  1.00  0.00     0.000 A 
ENDBRANCH  64  77
ENDBRANCH  38  39
ENDBRANCH  31  33
ENDBRANCH  30  31
ENDBRANCH  29  30
ENDBRANCH  28  29
ENDBRANCH  27  28
ENDBRANCH   1  27
TORSDOF 16
