REMARK SMILES NC(=O)CC[N@@H+]1[C@@H](C(=O)OCCOC(=O)c2ccc(-c3c4nc(c(-c5ccccc5)c5ccc([nH]5)c(-c5ccccc5)c5nc(c(-c6ccccc6)c6ccc3[nH]6)C=C5)C=C4)cc2)CC[C@@H]2CCCC[C@H]21
REMARK SMILES IDX 11 1 10 2 8 3 9 4 7 5 6 6 71 7 64 9 66 10 70 11 65 12 67 13
REMARK SMILES IDX 69 14 68 15 5 16 4 17 2 18 1 19 3 22 12 23 13 24 14 25 15 26
REMARK SMILES IDX 16 27 17 28 63 29 18 30 62 31 19 32 20 33 21 34 56 35 22 36
REMARK SMILES IDX 61 37 55 38 57 39 23 40 60 41 54 42 53 43 24 45 46 46 31 47
REMARK SMILES IDX 45 48 32 49 35 50 44 51 58 52 33 53 34 54 43 56 59 57 36 58
REMARK SMILES IDX 25 59 26 60 30 61 27 62 29 63 28 64 47 65 48 66 52 67 49 68
REMARK SMILES IDX 51 69 50 70 37 71 38 72 42 73 39 74 41 75 40 76
REMARK H PARENT 6 8 1 20 1 21 57 44 35 55
REMARK Flexibility Score: inf
ROOT
ATOM      1  C   UNL     1      -0.555  -1.817   0.232  1.00  0.00     0.274 C 
ENDROOT
BRANCH   1   2
ATOM      2  O   UNL     1       0.808  -1.481   0.561  1.00  0.00    -0.458 OA
BRANCH   2   3
ATOM      3  C   UNL     1       0.973  -0.800   1.728  1.00  0.00     0.365 C 
ATOM      4  O   UNL     1       0.050  -0.505   2.483  1.00  0.00    -0.245 OA
BRANCH   3   5
ATOM      5  C   UNL     1       2.445  -0.444   2.046  1.00  0.00     0.295 C 
ATOM      6  N   UNL     1       2.851   0.950   1.641  1.00  0.00    -0.320 N 
ATOM      7  C   UNL     1       4.245   1.221   2.118  1.00  0.00     0.187 C 
ATOM      8  H   UNL     1       2.830   1.027   0.624  1.00  0.00     0.349 HD
ATOM      9  C   UNL     1       3.399  -1.495   1.467  1.00  0.00     0.078 C 
ATOM     10  C   UNL     1       5.256   0.153   1.616  1.00  0.00     0.048 C 
ATOM     11  C   UNL     1       4.770   2.609   1.675  1.00  0.00     0.065 C 
ATOM     12  C   UNL     1       4.811  -1.263   1.973  1.00  0.00     0.016 C 
ATOM     13  C   UNL     1       6.661   0.411   2.182  1.00  0.00     0.010 C 
ATOM     14  C   UNL     1       6.173   2.880   2.222  1.00  0.00     0.006 C 
ATOM     15  C   UNL     1       7.165   1.800   1.813  1.00  0.00     0.001 C 
BRANCH   6  16
ATOM     16  C   UNL     1       1.895   1.952   2.194  1.00  0.00     0.273 C 
BRANCH  16  17
ATOM     17  C   UNL     1       1.255   2.826   1.114  1.00  0.00     0.161 C 
BRANCH  17  18
ATOM     18  C   UNL     1       0.471   2.055   0.076  1.00  0.00     0.223 C 
ATOM     19  N   UNL     1       1.231   1.319  -0.783  1.00  0.00    -0.369 N 
ATOM     20  H   UNL     1       0.799   0.786  -1.489  1.00  0.00     0.159 HD
ATOM     21  H   UNL     1       2.211   1.319  -0.697  1.00  0.00     0.159 HD
ATOM     22  O   UNL     1      -0.749   2.099  -0.032  1.00  0.00    -0.275 OA
ENDBRANCH  17  18
ENDBRANCH  16  17
ENDBRANCH   6  16
ENDBRANCH   3   5
ENDBRANCH   2   3
ENDBRANCH   1   2
BRANCH   1  23
ATOM     23  C   UNL     1      -0.961  -3.211   0.730  1.00  0.00     0.275 C 
BRANCH  23  24
ATOM     24  O   UNL     1      -1.020  -3.287   2.167  1.00  0.00    -0.458 OA
BRANCH  24  25
ATOM     25  C   UNL     1       0.116  -3.713   2.765  1.00  0.00     0.338 C 
ATOM     26  O   UNL     1       1.137  -4.096   2.218  1.00  0.00    -0.246 OA
BRANCH  25  27
ATOM     27  C   UNL     1       0.039  -3.498   4.219  1.00  0.00     0.060 A 
ATOM     28  C   UNL     1       1.020  -2.690   4.801  1.00  0.00     0.016 A 
ATOM     29  C   UNL     1      -0.913  -4.136   5.013  1.00  0.00     0.016 A 
ATOM     30  C   UNL     1       1.055  -2.500   6.177  1.00  0.00     0.010 A 
ATOM     31  C   UNL     1      -0.864  -3.969   6.402  1.00  0.00     0.010 A 
ATOM     32  C   UNL     1       0.127  -3.160   6.988  1.00  0.00    -0.014 A 
BRANCH  32  33
ATOM     33  C   UNL     1       0.277  -3.082   8.457  1.00  0.00     0.031 A 
ATOM     34  C   UNL     1       0.946  -4.212   9.184  1.00  0.00     0.074 A 
ATOM     35  C   UNL     1      -0.131  -1.989   9.124  1.00  0.00     0.049 A 
ATOM     36  N   UNL     1       1.118  -4.382  10.469  1.00  0.00    -0.248 NA
ATOM     37  C   UNL     1       1.500  -5.291   8.350  1.00  0.00     0.031 C 
ATOM     38  C   UNL     1      -0.718  -0.796   8.514  1.00  0.00     0.029 A 
ATOM     39  N   UNL     1      -0.109  -1.708  10.466  1.00  0.00    -0.354 N 
ATOM     40  C   UNL     1       1.776  -5.598  10.600  1.00  0.00     0.074 A 
ATOM     41  C   UNL     1       1.972  -6.124   9.266  1.00  0.00     0.031 C 
ATOM     42  C   UNL     1      -1.007   0.089   9.483  1.00  0.00     0.029 A 
ATOM     43  C   UNL     1      -0.667  -0.494  10.779  1.00  0.00     0.049 A 
ATOM     44  H   UNL     1       0.271  -2.318  11.139  1.00  0.00     0.167 HD
ATOM     45  C   UNL     1       2.175  -6.221  11.733  1.00  0.00     0.031 A 
ATOM     46  C   UNL     1      -0.905   0.068  11.979  1.00  0.00     0.031 A 
ATOM     47  C   UNL     1       1.974  -5.697  13.057  1.00  0.00     0.049 A 
ATOM     48  C   UNL     1      -0.521  -0.679  13.226  1.00  0.00     0.074 A 
ATOM     49  C   UNL     1       2.329  -6.257  14.272  1.00  0.00     0.029 A 
ATOM     50  N   UNL     1       1.362  -4.485  13.336  1.00  0.00    -0.354 N 
ATOM     51  N   UNL     1       0.075  -1.841  13.342  1.00  0.00    -0.248 NA
ATOM     52  C   UNL     1      -0.849  -0.038  14.508  1.00  0.00     0.031 C 
ATOM     53  C   UNL     1       1.894  -5.400  15.289  1.00  0.00     0.029 A 
ATOM     54  C   UNL     1       1.312  -4.287  14.705  1.00  0.00     0.049 A 
ATOM     55  H   UNL     1       1.015  -3.858  12.661  1.00  0.00     0.167 HD
ATOM     56  C   UNL     1       0.208  -2.064  14.706  1.00  0.00     0.074 A 
ATOM     57  C   UNL     1      -0.354  -0.909  15.377  1.00  0.00     0.031 C 
ATOM     58  C   UNL     1       0.745  -3.130  15.348  1.00  0.00     0.031 A 
BRANCH  45  59
ATOM     59  C   UNL     1       2.820  -7.569  11.583  1.00  0.00    -0.014 A 
ATOM     60  C   UNL     1       4.136  -7.702  11.115  1.00  0.00     0.009 A 
ATOM     61  C   UNL     1       2.098  -8.722  11.928  1.00  0.00     0.009 A 
ATOM     62  C   UNL     1       4.705  -8.969  10.966  1.00  0.00     0.001 A 
ATOM     63  C   UNL     1       2.678  -9.985  11.799  1.00  0.00     0.001 A 
ATOM     64  C   UNL     1       3.978 -10.108  11.310  1.00  0.00     0.000 A 
ENDBRANCH  45  59
BRANCH  46  65
ATOM     65  C   UNL     1      -1.581   1.388  12.059  1.00  0.00    -0.014 A 
ATOM     66  C   UNL     1      -0.878   2.529  12.472  1.00  0.00     0.009 A 
ATOM     67  C   UNL     1      -2.939   1.509  11.726  1.00  0.00     0.009 A 
ATOM     68  C   UNL     1      -1.528   3.763  12.566  1.00  0.00     0.001 A 
ATOM     69  C   UNL     1      -3.579   2.748  11.796  1.00  0.00     0.001 A 
ATOM     70  C   UNL     1      -2.876   3.872  12.223  1.00  0.00     0.000 A 
ENDBRANCH  46  65
BRANCH  58  71
ATOM     71  C   UNL     1       0.774  -3.079  16.848  1.00  0.00    -0.014 A 
ATOM     72  C   UNL     1      -0.389  -3.292  17.603  1.00  0.00     0.009 A 
ATOM     73  C   UNL     1       1.989  -2.852  17.512  1.00  0.00     0.009 A 
ATOM     74  C   UNL     1      -0.340  -3.250  18.998  1.00  0.00     0.001 A 
ATOM     75  C   UNL     1       2.039  -2.834  18.906  1.00  0.00     0.001 A 
ATOM     76  C   UNL     1       0.874  -3.025  19.647  1.00  0.00     0.000 A 
ENDBRANCH  58  71
ENDBRANCH  32  33
ENDBRANCH  25  27
ENDBRANCH  24  25
ENDBRANCH  23  24
ENDBRANCH   1  23
TORSDOF 14
