REMARK SMILES CCCC[C@@H](C(=O)OCCOC(=O)c1ccc(-c2c3nc(c(-c4ccccc4)c4ccc([nH]4)c(-c4ccccc4)c4nc(c(-c5ccccc5)c5ccc2[nH]5)C=C4)C=C3)cc1)[C@]1(O)COc2cc(O)ccc21
REMARK SMILES IDX 9 1 8 2 6 3 7 4 5 5 4 6 3 7 2 8 1 9 62 10 64 11 72 12 65 13
REMARK SMILES IDX 66 14 71 15 67 16 70 17 68 18 63 19 69 21 10 23 11 24 12 25
REMARK SMILES IDX 13 26 14 27 15 28 61 29 16 30 60 31 17 32 18 33 19 34 54 35
REMARK SMILES IDX 20 36 59 37 53 38 55 39 21 40 58 41 52 42 51 43 22 45 44 46
REMARK SMILES IDX 29 47 43 48 30 49 33 50 42 51 56 52 31 53 32 54 41 56 57 57
REMARK SMILES IDX 34 58 23 59 24 60 28 61 25 62 27 63 26 64 45 65 46 66 50 67
REMARK SMILES IDX 47 68 49 69 48 70 35 71 36 72 40 73 37 74 39 75 38 76
REMARK H PARENT 63 20 69 22 55 44 33 55
REMARK Flexibility Score: inf
ROOT
ATOM      1  C   UNL     1      -1.413  -0.601  -5.856  1.00  0.00     0.274 C 
ENDROOT
BRANCH   1   2
ATOM      2  O   UNL     1      -1.129  -0.916  -4.485  1.00  0.00    -0.462 OA
BRANCH   2   3
ATOM      3  C   UNL     1      -1.914  -0.299  -3.561  1.00  0.00     0.312 C 
ATOM      4  O   UNL     1      -2.734   0.575  -3.815  1.00  0.00    -0.252 OA
BRANCH   3   5
ATOM      5  C   UNL     1      -1.696  -0.872  -2.166  1.00  0.00     0.139 C 
BRANCH   5   6
ATOM      6  C   UNL     1      -0.189  -1.195  -1.928  1.00  0.00     0.019 C 
BRANCH   6   7
ATOM      7  C   UNL     1       0.800  -0.030  -2.074  1.00  0.00     0.001 C 
BRANCH   7   8
ATOM      8  C   UNL     1       0.727   1.027  -0.976  1.00  0.00    -0.003 C 
ATOM      9  C   UNL     1       1.139   0.499   0.389  1.00  0.00     0.004 C 
ENDBRANCH   7   8
ENDBRANCH   6   7
ENDBRANCH   5   6
BRANCH   5  10
ATOM     10  C   UNL     1      -2.655  -2.088  -1.878  1.00  0.00     0.140 C 
ATOM     11  C   UNL     1      -1.980  -3.441  -2.167  1.00  0.00     0.270 C 
ATOM     12  C   UNL     1      -3.781  -2.327  -2.858  1.00  0.00     0.030 A 
ATOM     13  O   UNL     1      -2.014  -3.570  -3.596  1.00  0.00    -0.490 OA
ATOM     14  C   UNL     1      -3.276  -3.127  -3.878  1.00  0.00     0.129 A 
ATOM     15  C   UNL     1      -5.116  -1.971  -2.890  1.00  0.00     0.014 A 
ATOM     16  C   UNL     1      -3.980  -3.468  -5.007  1.00  0.00     0.093 A 
ATOM     17  C   UNL     1      -5.893  -2.391  -3.989  1.00  0.00     0.047 A 
ATOM     18  C   UNL     1      -5.311  -3.105  -5.047  1.00  0.00     0.119 A 
BRANCH  10  19
ATOM     19  O   UNL     1      -3.102  -2.058  -0.525  1.00  0.00    -0.381 OA
ATOM     20  H   UNL     1      -2.345  -1.902   0.062  1.00  0.00     0.212 HD
ENDBRANCH  10  19
BRANCH  18  21
ATOM     21  O   UNL     1      -6.026  -3.503  -6.138  1.00  0.00    -0.508 OA
ATOM     22  H   UNL     1      -5.604  -3.978  -6.826  1.00  0.00     0.293 HD
ENDBRANCH  18  21
ENDBRANCH   5  10
ENDBRANCH   3   5
ENDBRANCH   2   3
ENDBRANCH   1   2
BRANCH   1  23
ATOM     23  C   UNL     1      -0.527  -1.462  -6.762  1.00  0.00     0.275 C 
BRANCH  23  24
ATOM     24  O   UNL     1      -0.901  -2.854  -6.662  1.00  0.00    -0.458 OA
BRANCH  24  25
ATOM     25  C   UNL     1       0.019  -3.696  -6.125  1.00  0.00     0.338 C 
ATOM     26  O   UNL     1       1.169  -3.429  -5.812  1.00  0.00    -0.246 OA
BRANCH  25  27
ATOM     27  C   UNL     1      -0.634  -4.986  -5.794  1.00  0.00     0.060 A 
ATOM     28  C   UNL     1      -0.426  -5.492  -4.506  1.00  0.00     0.016 A 
ATOM     29  C   UNL     1      -1.537  -5.619  -6.656  1.00  0.00     0.016 A 
ATOM     30  C   UNL     1      -1.230  -6.524  -4.024  1.00  0.00     0.010 A 
ATOM     31  C   UNL     1      -2.286  -6.714  -6.198  1.00  0.00     0.010 A 
ATOM     32  C   UNL     1      -2.156  -7.152  -4.870  1.00  0.00    -0.014 A 
BRANCH  32  33
ATOM     33  C   UNL     1      -2.750  -8.432  -4.412  1.00  0.00     0.031 A 
ATOM     34  C   UNL     1      -1.851  -9.635  -4.458  1.00  0.00     0.074 A 
ATOM     35  C   UNL     1      -3.981  -8.525  -3.873  1.00  0.00     0.049 A 
ATOM     36  N   UNL     1      -2.070 -10.859  -4.056  1.00  0.00    -0.248 NA
ATOM     37  C   UNL     1      -0.497  -9.409  -4.998  1.00  0.00     0.031 C 
ATOM     38  C   UNL     1      -4.908  -7.416  -3.652  1.00  0.00     0.029 A 
ATOM     39  N   UNL     1      -4.652  -9.622  -3.382  1.00  0.00    -0.354 N 
ATOM     40  C   UNL     1      -0.876 -11.535  -4.271  1.00  0.00     0.074 A 
ATOM     41  C   UNL     1       0.063 -10.592  -4.832  1.00  0.00     0.031 C 
ATOM     42  C   UNL     1      -6.024  -7.889  -3.063  1.00  0.00     0.029 A 
ATOM     43  C   UNL     1      -5.908  -9.339  -2.900  1.00  0.00     0.049 A 
ATOM     44  H   UNL     1      -4.267 -10.528  -3.377  1.00  0.00     0.167 HD
ATOM     45  C   UNL     1      -0.585 -12.835  -4.048  1.00  0.00     0.031 A 
ATOM     46  C   UNL     1      -6.854 -10.165  -2.405  1.00  0.00     0.031 A 
ATOM     47  C   UNL     1      -1.542 -13.801  -3.599  1.00  0.00     0.049 A 
ATOM     48  C   UNL     1      -6.563 -11.648  -2.329  1.00  0.00     0.074 A 
ATOM     49  C   UNL     1      -1.395 -15.169  -3.473  1.00  0.00     0.029 A 
ATOM     50  N   UNL     1      -2.842 -13.495  -3.231  1.00  0.00    -0.354 N 
ATOM     51  N   UNL     1      -5.445 -12.289  -2.577  1.00  0.00    -0.248 NA
ATOM     52  C   UNL     1      -7.672 -12.524  -1.915  1.00  0.00     0.031 C 
ATOM     53  C   UNL     1      -2.628 -15.699  -3.076  1.00  0.00     0.029 A 
ATOM     54  C   UNL     1      -3.519 -14.652  -2.894  1.00  0.00     0.049 A 
ATOM     55  H   UNL     1      -3.227 -12.588  -3.211  1.00  0.00     0.167 HD
ATOM     56  C   UNL     1      -5.708 -13.631  -2.326  1.00  0.00     0.074 A 
ATOM     57  C   UNL     1      -7.085 -13.713  -1.888  1.00  0.00     0.031 C 
ATOM     58  C   UNL     1      -4.887 -14.703  -2.450  1.00  0.00     0.031 A 
BRANCH  45  59
ATOM     59  C   UNL     1       0.802 -13.272  -4.413  1.00  0.00    -0.014 A 
ATOM     60  C   UNL     1       1.908 -12.914  -3.626  1.00  0.00     0.009 A 
ATOM     61  C   UNL     1       1.010 -13.974  -5.609  1.00  0.00     0.009 A 
ATOM     62  C   UNL     1       3.202 -13.214  -4.055  1.00  0.00     0.001 A 
ATOM     63  C   UNL     1       2.303 -14.294  -6.022  1.00  0.00     0.001 A 
ATOM     64  C   UNL     1       3.398 -13.902  -5.253  1.00  0.00     0.000 A 
ENDBRANCH  45  59
BRANCH  46  65
ATOM     65  C   UNL     1      -8.194  -9.652  -1.991  1.00  0.00    -0.014 A 
ATOM     66  C   UNL     1      -8.636  -9.765  -0.662  1.00  0.00     0.009 A 
ATOM     67  C   UNL     1      -9.078  -9.124  -2.946  1.00  0.00     0.009 A 
ATOM     68  C   UNL     1      -9.939  -9.397  -0.309  1.00  0.00     0.001 A 
ATOM     69  C   UNL     1     -10.369  -8.728  -2.585  1.00  0.00     0.001 A 
ATOM     70  C   UNL     1     -10.803  -8.877  -1.270  1.00  0.00     0.000 A 
ENDBRANCH  46  65
BRANCH  58  71
ATOM     71  C   UNL     1      -5.434 -16.050  -2.067  1.00  0.00    -0.014 A 
ATOM     72  C   UNL     1      -6.363 -16.720  -2.877  1.00  0.00     0.009 A 
ATOM     73  C   UNL     1      -4.946 -16.690  -0.916  1.00  0.00     0.009 A 
ATOM     74  C   UNL     1      -6.811 -17.995  -2.527  1.00  0.00     0.001 A 
ATOM     75  C   UNL     1      -5.374 -17.975  -0.585  1.00  0.00     0.001 A 
ATOM     76  C   UNL     1      -6.311 -18.624  -1.386  1.00  0.00     0.000 A 
ENDBRANCH  58  71
ENDBRANCH  32  33
ENDBRANCH  25  27
ENDBRANCH  24  25
ENDBRANCH  23  24
ENDBRANCH   1  23
TORSDOF 17
