REMARK SMILES Cc1ccc2c(c1)c(-c1ccnc3c(C)cccc13)c(C)n2CC(=O)OCCOC(=O)c1ccc(-c2c3nc(c(-c4ccccc4)c4ccc([nH]4)c(-c4ccccc4)c4nc(c(-c5ccccc5)c5ccc2[nH]5)C=C4)C=C3)cc1
REMARK SMILES IDX 27 1 26 2 24 3 25 4 23 5 22 6 1 7 2 8 3 9 7 10 4 11 6 12
REMARK SMILES IDX 5 13 8 14 20 15 21 16 9 17 10 18 19 19 11 20 13 21 18 22
REMARK SMILES IDX 12 23 14 24 17 25 15 26 16 27 28 28 29 29 30 30 31 31 32 32
REMARK SMILES IDX 33 33 79 34 34 35 78 36 35 37 36 38 37 39 72 40 38 41 77 42
REMARK SMILES IDX 71 43 73 44 39 45 76 46 70 47 69 48 40 50 62 51 47 52 61 53
REMARK SMILES IDX 48 54 51 55 60 56 74 57 49 58 50 59 59 61 75 62 52 63 41 64
REMARK SMILES IDX 42 65 46 66 43 67 45 68 44 69 63 70 64 71 68 72 65 73 67 74
REMARK SMILES IDX 66 75 53 76 54 77 58 78 55 79 57 80 56 81
REMARK H PARENT 73 49 51 60
REMARK Flexibility Score: inf
ROOT
ATOM      1  C   UNL     1       2.384   2.267   7.929  1.00  0.00     0.274 C 
ENDROOT
BRANCH   1   2
ATOM      2  O   UNL     1       1.531   2.307   6.753  1.00  0.00    -0.461 OA
BRANCH   2   3
ATOM      3  C   UNL     1       0.442   1.501   6.786  1.00  0.00     0.326 C 
ATOM      4  O   UNL     1       0.125   0.827   7.767  1.00  0.00    -0.250 OA
BRANCH   3   5
ATOM      5  C   UNL     1      -0.403   1.444   5.539  1.00  0.00     0.244 C 
BRANCH   5   6
ATOM      6  N   UNL     1       0.045   2.070   4.299  1.00  0.00    -0.333 N 
ATOM      7  C   UNL     1       1.249  -0.195  -0.730  1.00  0.00     0.044 C 
ATOM      8  C   UNL     1       0.886   0.338   0.622  1.00  0.00    -0.050 A 
ATOM      9  C   UNL     1       0.390  -0.516   1.606  1.00  0.00     0.005 A 
ATOM     10  C   UNL     1       1.073   1.700   0.904  1.00  0.00     0.014 A 
ATOM     11  C   UNL     1       0.082  -0.044   2.880  1.00  0.00     0.027 A 
ATOM     12  C   UNL     1       0.723   2.206   2.170  1.00  0.00     0.008 A 
ATOM     13  C   UNL     1       0.264   1.323   3.146  1.00  0.00     0.049 A 
ATOM     14  C   UNL     1       0.673   3.509   2.728  1.00  0.00     0.011 A 
ATOM     15  C   UNL     1       0.004   3.408   3.936  1.00  0.00     0.024 A 
ATOM     16  C   UNL     1      -0.650   4.519   4.670  1.00  0.00     0.065 C 
BRANCH  14  17
ATOM     17  C   UNL     1       0.986   4.798   2.128  1.00  0.00    -0.005 A 
ATOM     18  C   UNL     1       0.144   5.290   1.135  1.00  0.00     0.029 A 
ATOM     19  C   UNL     1       2.094   5.564   2.577  1.00  0.00     0.008 A 
ATOM     20  C   UNL     1       0.447   6.516   0.592  1.00  0.00     0.112 A 
ATOM     21  C   UNL     1       2.340   6.791   1.923  1.00  0.00     0.074 A 
ATOM     22  C   UNL     1       2.946   5.159   3.636  1.00  0.00     0.011 A 
ATOM     23  N   UNL     1       1.523   7.248   0.949  1.00  0.00    -0.256 NA
ATOM     24  C   UNL     1       3.463   7.539   2.307  1.00  0.00    -0.025 A 
ATOM     25  C   UNL     1       4.031   5.931   4.029  1.00  0.00     0.001 A 
ATOM     26  C   UNL     1       3.842   8.809   1.590  1.00  0.00     0.047 C 
ATOM     27  C   UNL     1       4.299   7.111   3.354  1.00  0.00     0.005 A 
ENDBRANCH  14  17
ENDBRANCH   5   6
ENDBRANCH   3   5
ENDBRANCH   2   3
ENDBRANCH   1   2
BRANCH   1  28
ATOM     28  C   UNL     1       2.304   3.569   8.734  1.00  0.00     0.275 C 
BRANCH  28  29
ATOM     29  O   UNL     1       1.040   3.621   9.416  1.00  0.00    -0.458 OA
BRANCH  29  30
ATOM     30  C   UNL     1       0.149   4.520   8.939  1.00  0.00     0.338 C 
ATOM     31  O   UNL     1       0.379   5.505   8.256  1.00  0.00    -0.246 OA
BRANCH  30  32
ATOM     32  C   UNL     1      -1.156   3.843   8.995  1.00  0.00     0.060 A 
ATOM     33  C   UNL     1      -1.677   3.231  10.126  1.00  0.00     0.016 A 
ATOM     34  C   UNL     1      -1.759   3.649   7.758  1.00  0.00     0.016 A 
ATOM     35  C   UNL     1      -2.729   2.326   9.968  1.00  0.00     0.010 A 
ATOM     36  C   UNL     1      -2.767   2.723   7.585  1.00  0.00     0.010 A 
ATOM     37  C   UNL     1      -3.210   2.011   8.684  1.00  0.00    -0.014 A 
BRANCH  37  38
ATOM     38  C   UNL     1      -4.367   1.149   8.518  1.00  0.00     0.031 A 
ATOM     39  C   UNL     1      -5.639   1.877   8.687  1.00  0.00     0.074 A 
ATOM     40  C   UNL     1      -4.428  -0.134   8.117  1.00  0.00     0.049 A 
ATOM     41  N   UNL     1      -6.359   1.886   9.754  1.00  0.00    -0.248 NA
ATOM     42  C   UNL     1      -6.094   2.787   7.629  1.00  0.00     0.031 C 
ATOM     43  C   UNL     1      -3.401  -0.995   7.538  1.00  0.00     0.029 A 
ATOM     44  N   UNL     1      -5.539  -0.929   8.116  1.00  0.00    -0.354 N 
ATOM     45  C   UNL     1      -7.455   2.678   9.463  1.00  0.00     0.074 A 
ATOM     46  C   UNL     1      -7.164   3.332   8.210  1.00  0.00     0.031 C 
ATOM     47  C   UNL     1      -3.983  -2.132   7.077  1.00  0.00     0.029 A 
ATOM     48  C   UNL     1      -5.387  -2.142   7.467  1.00  0.00     0.049 A 
ATOM     49  H   UNL     1      -6.384  -0.660   8.545  1.00  0.00     0.167 HD
ATOM     50  C   UNL     1      -8.603   2.572  10.184  1.00  0.00     0.031 A 
ATOM     51  C   UNL     1      -6.364  -3.062   7.262  1.00  0.00     0.031 A 
ATOM     52  C   UNL     1      -8.410   1.802  11.390  1.00  0.00     0.049 A 
ATOM     53  C   UNL     1      -7.423  -2.836   8.276  1.00  0.00     0.074 A 
ATOM     54  C   UNL     1      -7.550   1.899  12.469  1.00  0.00     0.029 A 
ATOM     55  N   UNL     1      -8.877   0.507  11.404  1.00  0.00    -0.354 N 
ATOM     56  N   UNL     1      -7.276  -3.094   9.543  1.00  0.00    -0.248 NA
ATOM     57  C   UNL     1      -8.547  -1.975   7.946  1.00  0.00     0.031 C 
ATOM     58  C   UNL     1      -7.169   0.555  12.761  1.00  0.00     0.029 A 
ATOM     59  C   UNL     1      -7.864  -0.284  11.888  1.00  0.00     0.049 A 
ATOM     60  H   UNL     1      -9.770   0.205  11.121  1.00  0.00     0.167 HD
ATOM     61  C   UNL     1      -7.974  -2.087  10.191  1.00  0.00     0.074 A 
ATOM     62  C   UNL     1      -8.843  -1.516   9.165  1.00  0.00     0.031 C 
ATOM     63  C   UNL     1      -7.578  -1.623  11.414  1.00  0.00     0.031 A 
BRANCH  50  64
ATOM     64  C   UNL     1      -9.963   2.865   9.620  1.00  0.00    -0.014 A 
ATOM     65  C   UNL     1     -10.232   2.932   8.240  1.00  0.00     0.009 A 
ATOM     66  C   UNL     1     -11.070   2.836  10.483  1.00  0.00     0.009 A 
ATOM     67  C   UNL     1     -11.536   2.967   7.742  1.00  0.00     0.001 A 
ATOM     68  C   UNL     1     -12.377   2.822   9.986  1.00  0.00     0.001 A 
ATOM     69  C   UNL     1     -12.609   2.886   8.616  1.00  0.00     0.000 A 
ENDBRANCH  50  64
BRANCH  51  70
ATOM     70  C   UNL     1      -6.567  -4.012   6.149  1.00  0.00    -0.014 A 
ATOM     71  C   UNL     1      -6.080  -3.709   4.867  1.00  0.00     0.009 A 
ATOM     72  C   UNL     1      -7.496  -5.061   6.266  1.00  0.00     0.009 A 
ATOM     73  C   UNL     1      -6.548  -4.388   3.736  1.00  0.00     0.001 A 
ATOM     74  C   UNL     1      -7.969  -5.737   5.134  1.00  0.00     0.001 A 
ATOM     75  C   UNL     1      -7.508  -5.387   3.868  1.00  0.00     0.000 A 
ENDBRANCH  51  70
BRANCH  63  76
ATOM     76  C   UNL     1      -6.540  -2.413  12.188  1.00  0.00    -0.014 A 
ATOM     77  C   UNL     1      -6.756  -2.640  13.558  1.00  0.00     0.009 A 
ATOM     78  C   UNL     1      -5.304  -2.811  11.647  1.00  0.00     0.009 A 
ATOM     79  C   UNL     1      -5.779  -3.246  14.354  1.00  0.00     0.001 A 
ATOM     80  C   UNL     1      -4.339  -3.448  12.435  1.00  0.00     0.001 A 
ATOM     81  C   UNL     1      -4.575  -3.658  13.790  1.00  0.00     0.000 A 
ENDBRANCH  63  76
ENDBRANCH  37  38
ENDBRANCH  30  32
ENDBRANCH  29  30
ENDBRANCH  28  29
ENDBRANCH   1  28
TORSDOF 13
