REMARK SMILES O=C(OCCOC(=O)[C@@H](Cc1ccc(O)cc1)Nc1c2ccccc2nc2ccccc12)c1ccc(-c2c3nc(c(-c4ccccc4)c4ccc([nH]4)c(-c4ccccc4)c4nc(c(-c5ccccc5)c5ccc2[nH]5)C=C4)C=C3)cc1
REMARK SMILES IDX 5 1 4 2 3 3 2 4 1 5 33 6 34 7 80 8 35 9 79 10 36 11 37 12
REMARK SMILES IDX 38 13 73 14 39 15 78 16 72 17 74 18 40 19 77 20 71 21 70 22
REMARK SMILES IDX 41 24 63 25 48 26 62 27 49 28 52 29 61 30 75 31 50 32 51 33
REMARK SMILES IDX 60 35 76 36 53 37 42 38 43 39 47 40 44 41 46 42 45 43 64 44
REMARK SMILES IDX 65 45 69 46 66 47 68 48 67 49 54 50 55 51 59 52 56 53 58 54
REMARK SMILES IDX 57 55 6 56 7 57 8 58 9 59 10 60 11 61 12 62 17 63 13 64
REMARK SMILES IDX 16 65 14 66 15 67 18 69 19 71 20 72 32 73 21 74 25 75 27 76
REMARK SMILES IDX 31 77 22 78 24 79 26 80 28 81 30 82 23 83 29 84
REMARK H PARENT 74 23 52 34 15 68 18 70
REMARK Flexibility Score: inf
ROOT
ATOM      1  C   UNL     1       3.848   1.268   2.555  1.00  0.00     0.274 C 
ENDROOT
BRANCH   1   2
ATOM      2  C   UNL     1       4.542   1.575   1.217  1.00  0.00     0.275 C 
BRANCH   2   3
ATOM      3  O   UNL     1       3.598   1.622   0.149  1.00  0.00    -0.458 OA
BRANCH   3   4
ATOM      4  C   UNL     1       3.270   0.598  -0.649  1.00  0.00     0.338 C 
ATOM      5  O   UNL     1       2.475   0.774  -1.570  1.00  0.00    -0.246 OA
BRANCH   4   6
ATOM      6  C   UNL     1       3.757  -0.800  -0.458  1.00  0.00     0.060 A 
ATOM      7  C   UNL     1       4.617  -1.597   0.956  1.00  0.00     0.016 A 
ATOM      8  C   UNL     1       3.207  -1.847  -1.852  1.00  0.00     0.016 A 
ATOM      9  C   UNL     1       4.694  -3.428   1.061  1.00  0.00     0.010 A 
ATOM     10  C   UNL     1       3.370  -3.626  -1.769  1.00  0.00     0.010 A 
ATOM     11  C   UNL     1       4.128  -4.458  -0.367  1.00  0.00    -0.014 A 
BRANCH  11  12
ATOM     12  C   UNL     1       4.611  -5.883  -0.526  1.00  0.00     0.031 A 
ATOM     13  C   UNL     1       5.419  -6.278  -1.765  1.00  0.00     0.074 A 
ATOM     14  C   UNL     1       4.679  -6.631   0.592  1.00  0.00     0.049 A 
ATOM     15  N   UNL     1       6.254  -7.282  -1.919  1.00  0.00    -0.248 NA
ATOM     16  C   UNL     1       5.344  -5.424  -2.961  1.00  0.00     0.031 C 
ATOM     17  C   UNL     1       4.021  -6.301   1.853  1.00  0.00     0.029 A 
ATOM     18  N   UNL     1       5.446  -7.728   0.897  1.00  0.00    -0.354 N 
ATOM     19  C   UNL     1       6.774  -7.157  -3.209  1.00  0.00     0.074 A 
ATOM     20  C   UNL     1       6.164  -6.009  -3.811  1.00  0.00     0.031 C 
ATOM     21  C   UNL     1       4.546  -7.048   2.833  1.00  0.00     0.029 A 
ATOM     22  C   UNL     1       5.480  -8.004   2.248  1.00  0.00     0.049 A 
ATOM     23  H   UNL     1       5.923  -8.261   0.222  1.00  0.00     0.167 HD
ATOM     24  C   UNL     1       7.694  -7.909  -3.854  1.00  0.00     0.031 A 
ATOM     25  C   UNL     1       6.180  -8.926   2.939  1.00  0.00     0.031 A 
ATOM     26  C   UNL     1       8.298  -9.069  -3.279  1.00  0.00     0.049 A 
ATOM     27  C   UNL     1       7.082  -9.846   2.165  1.00  0.00     0.074 A 
ATOM     28  C   UNL     1       9.118 -10.006  -3.876  1.00  0.00     0.029 A 
ATOM     29  N   UNL     1       8.132  -9.445  -1.958  1.00  0.00    -0.354 N 
ATOM     30  N   UNL     1       7.475  -9.761   0.915  1.00  0.00    -0.248 NA
ATOM     31  C   UNL     1       7.600 -11.018   2.883  1.00  0.00     0.031 C 
ATOM     32  C   UNL     1       9.395 -10.992  -2.925  1.00  0.00     0.029 A 
ATOM     33  C   UNL     1       8.804 -10.626  -1.724  1.00  0.00     0.049 A 
ATOM     34  H   UNL     1       7.614  -8.945  -1.287  1.00  0.00     0.167 HD
ATOM     35  C   UNL     1       8.259 -10.884   0.689  1.00  0.00     0.074 A 
ATOM     36  C   UNL     1       8.336 -11.600   1.946  1.00  0.00     0.031 C 
ATOM     37  C   UNL     1       8.842 -11.308  -0.459  1.00  0.00     0.031 A 
BRANCH  24  38
ATOM     38  C   UNL     1       7.999  -7.548  -5.284  1.00  0.00    -0.014 A 
ATOM     39  C   UNL     1       8.809  -6.451  -5.619  1.00  0.00     0.009 A 
ATOM     40  C   UNL     1       7.417  -8.300  -6.317  1.00  0.00     0.009 A 
ATOM     41  C   UNL     1       9.003  -6.098  -6.959  1.00  0.00     0.001 A 
ATOM     42  C   UNL     1       7.630  -7.959  -7.654  1.00  0.00     0.001 A 
ATOM     43  C   UNL     1       8.416  -6.854  -7.974  1.00  0.00     0.000 A 
ENDBRANCH  24  38
BRANCH  25  44
ATOM     44  C   UNL     1       5.983  -9.085   4.412  1.00  0.00    -0.014 A 
ATOM     45  C   UNL     1       7.050  -8.985   5.319  1.00  0.00     0.009 A 
ATOM     46  C   UNL     1       4.702  -9.361   4.923  1.00  0.00     0.009 A 
ATOM     47  C   UNL     1       6.837  -9.164   6.692  1.00  0.00     0.001 A 
ATOM     48  C   UNL     1       4.482  -9.491   6.295  1.00  0.00     0.001 A 
ATOM     49  C   UNL     1       5.552  -9.403   7.179  1.00  0.00     0.000 A 
ENDBRANCH  25  44
BRANCH  37  50
ATOM     50  C   UNL     1       9.593 -12.603  -0.405  1.00  0.00    -0.014 A 
ATOM     51  C   UNL     1       8.909 -13.825  -0.324  1.00  0.00     0.009 A 
ATOM     52  C   UNL     1      10.992 -12.601  -0.505  1.00  0.00     0.009 A 
ATOM     53  C   UNL     1       9.618 -15.025  -0.310  1.00  0.00     0.001 A 
ATOM     54  C   UNL     1      11.696 -13.804  -0.522  1.00  0.00     0.001 A 
ATOM     55  C   UNL     1      11.009 -15.013  -0.415  1.00  0.00     0.000 A 
ENDBRANCH  37  50
ENDBRANCH  11  12
ENDBRANCH   4   6
ENDBRANCH   3   4
ENDBRANCH   2   3
ENDBRANCH   1   2
BRANCH   1  56
ATOM     56  O   UNL     1       3.426  -0.114   2.683  1.00  0.00    -0.461 OA
BRANCH  56  57
ATOM     57  C   UNL     1       2.294  -0.502   2.016  1.00  0.00     0.329 C 
ATOM     58  O   UNL     1       1.421   0.280   1.663  1.00  0.00    -0.250 OA
BRANCH  57  59
ATOM     59  C   UNL     1       2.305  -2.030   1.639  1.00  0.00     0.194 C 
BRANCH  59  60
ATOM     60  C   UNL     1       3.111  -2.645   0.093  1.00  0.00     0.072 C 
BRANCH  60  61
ATOM     61  C   UNL     1       5.052  -2.530  -0.848  1.00  0.00    -0.045 A 
ATOM     62  C   UNL     1       6.327  -3.402  -0.573  1.00  0.00     0.007 A 
ATOM     63  C   UNL     1       5.685  -1.432  -1.678  1.00  0.00     0.007 A 
ATOM     64  C   UNL     1       7.698  -3.178  -0.819  1.00  0.00     0.046 A 
ATOM     65  C   UNL     1       7.089  -1.161  -1.854  1.00  0.00     0.046 A 
ATOM     66  C   UNL     1       8.072  -1.999  -1.376  1.00  0.00     0.115 A 
BRANCH  66  67
ATOM     67  O   UNL     1       9.381  -1.648  -1.453  1.00  0.00    -0.508 OA
ATOM     68  H   UNL     1      10.041  -2.226  -1.125  1.00  0.00     0.293 HD
ENDBRANCH  66  67
ENDBRANCH  60  61
ENDBRANCH  59  60
BRANCH  59  69
ATOM     69  N   UNL     1       2.639  -2.891   2.796  1.00  0.00    -0.371 N 
ATOM     70  H   UNL     1       3.598  -2.979   3.005  1.00  0.00     0.161 HD
BRANCH  69  71
ATOM     71  C   UNL     1       1.764  -3.596   3.631  1.00  0.00     0.054 A 
ATOM     72  C   UNL     1       0.681  -4.414   3.158  1.00  0.00     0.024 A 
ATOM     73  C   UNL     1       2.001  -3.520   5.043  1.00  0.00     0.024 A 
ATOM     74  C   UNL     1       0.321  -4.658   1.802  1.00  0.00     0.012 A 
ATOM     75  C   UNL     1      -0.070  -5.110   4.131  1.00  0.00     0.073 A 
ATOM     76  C   UNL     1       1.167  -4.274   5.889  1.00  0.00     0.073 A 
ATOM     77  C   UNL     1       3.021  -2.738   5.654  1.00  0.00     0.012 A 
ATOM     78  C   UNL     1      -0.718  -5.517   1.433  1.00  0.00     0.001 A 
ATOM     79  C   UNL     1      -1.101  -5.959   3.748  1.00  0.00     0.029 A 
ATOM     80  N   UNL     1       0.168  -5.034   5.442  1.00  0.00    -0.248 NA
ATOM     81  C   UNL     1       1.379  -4.251   7.261  1.00  0.00     0.029 A 
ATOM     82  C   UNL     1       3.222  -2.734   7.035  1.00  0.00     0.001 A 
ATOM     83  C   UNL     1      -1.434  -6.172   2.414  1.00  0.00     0.002 A 
ATOM     84  C   UNL     1       2.398  -3.498   7.842  1.00  0.00     0.002 A 
ENDBRANCH  69  71
ENDBRANCH  59  69
ENDBRANCH  57  59
ENDBRANCH  56  57
ENDBRANCH   1  56
TORSDOF 16
