REMARK SMILES Nc1c(N2CCC(C(=O)OCCOC(=O)c3ccc(-c4c5nc(c(-c6ccccc6)c6ccc([nH]6)c(-c6ccccc6)c6nc(c(-c7ccccc7)c7ccc4[nH]7)C=C6)C=C5)cc3)CC2)ncnc1N1CCN(c2ccccc2)CC1
REMARK SMILES IDX 11 1 10 2 8 3 9 4 7 5 4 6 5 7 65 8 6 9 64 10 3 11 2 12 69 13
REMARK SMILES IDX 66 14 68 15 67 16 1 17 70 20 71 21 81 22 72 23 80 24 73 25
REMARK SMILES IDX 74 26 75 27 79 28 76 29 78 30 77 31 12 32 13 33 14 34 15 35
REMARK SMILES IDX 16 36 17 37 63 38 18 39 62 40 19 41 20 42 21 43 56 44 22 45
REMARK SMILES IDX 61 46 55 47 57 48 23 49 60 50 54 51 53 52 24 54 46 55 31 56
REMARK SMILES IDX 45 57 32 58 35 59 44 60 58 61 33 62 34 63 43 65 59 66 36 67
REMARK SMILES IDX 25 68 26 69 30 70 27 71 29 72 28 73 47 74 48 75 52 76 49 77
REMARK SMILES IDX 51 78 50 79 37 80 38 81 42 82 39 83 41 84 40 85
REMARK H PARENT 1 18 1 19 57 53 35 64
REMARK Flexibility Score: inf
ROOT
ATOM      1  C   UNL     1      -4.102  -2.614   6.672  1.00  0.00     0.274 C 
ENDROOT
BRANCH   1   2
ATOM      2  O   UNL     1      -3.502  -2.027   5.504  1.00  0.00    -0.462 OA
BRANCH   2   3
ATOM      3  C   UNL     1      -2.467  -2.711   4.962  1.00  0.00     0.309 C 
ATOM      4  O   UNL     1      -1.968  -3.727   5.436  1.00  0.00    -0.252 OA
BRANCH   3   5
ATOM      5  C   UNL     1      -1.967  -2.108   3.673  1.00  0.00     0.103 C 
ATOM      6  N   UNL     1      -0.963  -0.351   1.727  1.00  0.00    -0.355 N 
ATOM      7  C   UNL     1      -2.357  -0.734   1.618  1.00  0.00     0.119 C 
ATOM      8  C   UNL     1      -0.013  -1.121   2.518  1.00  0.00     0.119 C 
ATOM      9  C   UNL     1      -2.917  -1.131   2.979  1.00  0.00     0.037 C 
ATOM     10  C   UNL     1      -0.607  -1.452   3.880  1.00  0.00     0.037 C 
BRANCH   6  11
ATOM     11  C   UNL     1      -0.566   0.895   1.267  1.00  0.00     0.157 A 
ATOM     12  C   UNL     1       0.514   0.985   0.384  1.00  0.00     0.118 A 
ATOM     13  C   UNL     1       0.962   2.276   0.078  1.00  0.00     0.157 A 
ATOM     14  N   UNL     1      -1.176   1.983   1.765  1.00  0.00    -0.217 NA
ATOM     15  N   UNL     1       0.419   3.373   0.626  1.00  0.00    -0.217 NA
ATOM     16  C   UNL     1      -0.642   3.164   1.421  1.00  0.00     0.226 A 
BRANCH  12  17
ATOM     17  N   UNL     1       1.079  -0.154  -0.221  1.00  0.00    -0.393 N 
ATOM     18  H   UNL     1       0.746  -1.051   0.012  1.00  0.00     0.156 HD
ATOM     19  H   UNL     1       1.806  -0.053  -0.876  1.00  0.00     0.156 HD
ENDBRANCH  12  17
BRANCH  13  20
ATOM     20  N   UNL     1       2.041   2.406  -0.771  1.00  0.00    -0.351 N 
ATOM     21  C   UNL     1       3.179   3.237  -0.401  1.00  0.00     0.139 C 
ATOM     22  C   UNL     1       1.868   2.144  -2.201  1.00  0.00     0.139 C 
ATOM     23  C   UNL     1       4.468   2.541  -0.908  1.00  0.00     0.138 C 
ATOM     24  C   UNL     1       3.146   1.478  -2.756  1.00  0.00     0.138 C 
ATOM     25  N   UNL     1       4.349   2.231  -2.345  1.00  0.00    -0.368 N 
BRANCH  25  26
ATOM     26  C   UNL     1       5.460   2.191  -3.163  1.00  0.00     0.037 A 
ATOM     27  C   UNL     1       6.703   1.716  -2.730  1.00  0.00     0.026 A 
ATOM     28  C   UNL     1       5.365   2.672  -4.476  1.00  0.00     0.026 A 
ATOM     29  C   UNL     1       7.814   1.728  -3.580  1.00  0.00     0.002 A 
ATOM     30  C   UNL     1       6.472   2.701  -5.324  1.00  0.00     0.002 A 
ATOM     31  C   UNL     1       7.699   2.228  -4.874  1.00  0.00     0.000 A 
ENDBRANCH  25  26
ENDBRANCH  13  20
ENDBRANCH   6  11
ENDBRANCH   3   5
ENDBRANCH   2   3
ENDBRANCH   1   2
BRANCH   1  32
ATOM     32  C   UNL     1      -5.383  -3.369   6.311  1.00  0.00     0.275 C 
BRANCH  32  33
ATOM     33  O   UNL     1      -5.112  -4.533   5.504  1.00  0.00    -0.458 OA
BRANCH  33  34
ATOM     34  C   UNL     1      -5.246  -4.352   4.170  1.00  0.00     0.338 C 
ATOM     35  O   UNL     1      -5.584  -3.337   3.587  1.00  0.00    -0.246 OA
BRANCH  34  36
ATOM     36  C   UNL     1      -4.820  -5.562   3.453  1.00  0.00     0.060 A 
ATOM     37  C   UNL     1      -3.667  -5.491   2.668  1.00  0.00     0.016 A 
ATOM     38  C   UNL     1      -5.609  -6.712   3.450  1.00  0.00     0.016 A 
ATOM     39  C   UNL     1      -3.296  -6.565   1.866  1.00  0.00     0.010 A 
ATOM     40  C   UNL     1      -5.238  -7.792   2.643  1.00  0.00     0.010 A 
ATOM     41  C   UNL     1      -4.089  -7.717   1.836  1.00  0.00    -0.014 A 
BRANCH  41  42
ATOM     42  C   UNL     1      -3.750  -8.819   0.907  1.00  0.00     0.031 A 
ATOM     43  C   UNL     1      -4.538  -8.994  -0.358  1.00  0.00     0.074 A 
ATOM     44  C   UNL     1      -2.721  -9.639   1.182  1.00  0.00     0.049 A 
ATOM     45  N   UNL     1      -4.476  -9.956  -1.242  1.00  0.00    -0.248 NA
ATOM     46  C   UNL     1      -5.519  -7.943  -0.673  1.00  0.00     0.031 C 
ATOM     47  C   UNL     1      -1.827  -9.520   2.333  1.00  0.00     0.029 A 
ATOM     48  N   UNL     1      -2.256 -10.737   0.505  1.00  0.00    -0.354 N 
ATOM     49  C   UNL     1      -5.422  -9.639  -2.208  1.00  0.00     0.074 A 
ATOM     50  C   UNL     1      -6.048  -8.399  -1.800  1.00  0.00     0.031 C 
ATOM     51  C   UNL     1      -0.917 -10.506   2.281  1.00  0.00     0.029 A 
ATOM     52  C   UNL     1      -1.198 -11.354   1.125  1.00  0.00     0.049 A 
ATOM     53  H   UNL     1      -2.642 -11.053  -0.344  1.00  0.00     0.167 HD
ATOM     54  C   UNL     1      -5.741 -10.323  -3.332  1.00  0.00     0.031 A 
ATOM     55  C   UNL     1      -0.552 -12.493   0.817  1.00  0.00     0.031 A 
ATOM     56  C   UNL     1      -5.125 -11.560  -3.731  1.00  0.00     0.049 A 
ATOM     57  C   UNL     1      -0.991 -13.288  -0.380  1.00  0.00     0.074 A 
ATOM     58  C   UNL     1      -5.402 -12.346  -4.836  1.00  0.00     0.029 A 
ATOM     59  N   UNL     1      -4.103 -12.189  -3.037  1.00  0.00    -0.354 N 
ATOM     60  N   UNL     1      -1.928 -13.013  -1.254  1.00  0.00    -0.248 NA
ATOM     61  C   UNL     1      -0.291 -14.558  -0.624  1.00  0.00     0.031 C 
ATOM     62  C   UNL     1      -4.572 -13.472  -4.790  1.00  0.00     0.029 A 
ATOM     63  C   UNL     1      -3.748 -13.362  -3.682  1.00  0.00     0.049 A 
ATOM     64  H   UNL     1      -3.691 -11.852  -2.209  1.00  0.00     0.167 HD
ATOM     65  C   UNL     1      -1.925 -14.068  -2.157  1.00  0.00     0.074 A 
ATOM     66  C   UNL     1      -0.882 -14.980  -1.734  1.00  0.00     0.031 C 
ATOM     67  C   UNL     1      -2.716 -14.263  -3.239  1.00  0.00     0.031 A 
BRANCH  54  68
ATOM     68  C   UNL     1      -6.840  -9.766  -4.188  1.00  0.00    -0.014 A 
ATOM     69  C   UNL     1      -6.624  -8.656  -5.018  1.00  0.00     0.009 A 
ATOM     70  C   UNL     1      -8.102 -10.381  -4.186  1.00  0.00     0.009 A 
ATOM     71  C   UNL     1      -7.659  -8.158  -5.813  1.00  0.00     0.001 A 
ATOM     72  C   UNL     1      -9.128  -9.893  -4.996  1.00  0.00     0.001 A 
ATOM     73  C   UNL     1      -8.908  -8.779  -5.804  1.00  0.00     0.000 A 
ENDBRANCH  54  68
BRANCH  55  74
ATOM     74  C   UNL     1       0.556 -12.967   1.683  1.00  0.00    -0.014 A 
ATOM     75  C   UNL     1       1.885 -12.892   1.243  1.00  0.00     0.009 A 
ATOM     76  C   UNL     1       0.290 -13.479   2.963  1.00  0.00     0.009 A 
ATOM     77  C   UNL     1       2.926 -13.327   2.066  1.00  0.00     0.001 A 
ATOM     78  C   UNL     1       1.334 -13.891   3.792  1.00  0.00     0.001 A 
ATOM     79  C   UNL     1       2.651 -13.819   3.342  1.00  0.00     0.000 A 
ENDBRANCH  55  74
BRANCH  67  80
ATOM     80  C   UNL     1      -2.473 -15.501  -4.051  1.00  0.00    -0.014 A 
ATOM     81  C   UNL     1      -2.910 -16.756  -3.604  1.00  0.00     0.009 A 
ATOM     82  C   UNL     1      -1.840 -15.402  -5.300  1.00  0.00     0.009 A 
ATOM     83  C   UNL     1      -2.696 -17.895  -4.384  1.00  0.00     0.001 A 
ATOM     84  C   UNL     1      -1.646 -16.538  -6.086  1.00  0.00     0.001 A 
ATOM     85  C   UNL     1      -2.068 -17.784  -5.625  1.00  0.00     0.000 A 
ENDBRANCH  67  80
ENDBRANCH  41  42
ENDBRANCH  34  36
ENDBRANCH  33  34
ENDBRANCH  32  33
ENDBRANCH   1  32
TORSDOF 15
