REMARK SMILES O=C(OCCOC(=O)[C@@H]1C[N@@H+](CCOc2ccc(F)cc2)C[C@H]1C1CC1)c1ccc(-c2c3nc(c(-c4ccccc4)c4ccc([nH]4)c(-c4ccccc4)c4nc(c(-c5ccccc5)c5ccc2[nH]5)C=C4)C=C3)cc1
REMARK SMILES IDX 5 1 4 2 3 3 2 4 1 5 27 6 28 7 74 8 29 9 73 10 30 11 31 12
REMARK SMILES IDX 32 13 67 14 33 15 72 16 66 17 68 18 34 19 71 20 65 21 64 22
REMARK SMILES IDX 35 24 57 25 42 26 56 27 43 28 46 29 55 30 69 31 44 32 45 33
REMARK SMILES IDX 54 35 70 36 47 37 36 38 37 39 41 40 38 41 40 42 39 43 58 44
REMARK SMILES IDX 59 45 63 46 60 47 62 48 61 49 48 50 49 51 53 52 50 53 52 54
REMARK SMILES IDX 51 55 6 56 7 57 8 58 9 59 10 60 23 61 11 62 22 63 24 65
REMARK SMILES IDX 25 66 26 67 12 68 13 69 14 70 15 71 16 72 21 73 17 74 20 75
REMARK SMILES IDX 18 76 19 77
REMARK H PARENT 68 23 46 34 11 64
REMARK Flexibility Score: inf
ROOT
ATOM      1  C   UNL     1       4.226   1.752  -0.809  1.00  0.00     0.274 C 
ENDROOT
BRANCH   1   2
ATOM      2  C   UNL     1       4.641   0.633  -1.766  1.00  0.00     0.275 C 
BRANCH   2   3
ATOM      3  O   UNL     1       3.785  -0.521  -1.789  1.00  0.00    -0.458 OA
BRANCH   3   4
ATOM      4  C   UNL     1       3.714  -1.602  -0.981  1.00  0.00     0.338 C 
ATOM      5  O   UNL     1       2.916  -2.494  -1.269  1.00  0.00    -0.246 OA
BRANCH   4   6
ATOM      6  C   UNL     1       4.464  -1.744   0.316  1.00  0.00     0.060 A 
ATOM      7  C   UNL     1       5.588  -1.020   0.733  1.00  0.00     0.016 A 
ATOM      8  C   UNL     1       3.912  -2.647   1.236  1.00  0.00     0.016 A 
ATOM      9  C   UNL     1       6.071  -1.091   2.052  1.00  0.00     0.010 A 
ATOM     10  C   UNL     1       4.380  -2.713   2.551  1.00  0.00     0.010 A 
ATOM     11  C   UNL     1       5.458  -1.921   2.987  1.00  0.00    -0.014 A 
BRANCH  11  12
ATOM     12  C   UNL     1       6.000  -2.085   4.366  1.00  0.00     0.031 A 
ATOM     13  C   UNL     1       6.484  -3.459   4.743  1.00  0.00     0.074 A 
ATOM     14  C   UNL     1       6.042  -1.089   5.281  1.00  0.00     0.049 A 
ATOM     15  N   UNL     1       6.976  -3.886   5.876  1.00  0.00    -0.248 NA
ATOM     16  C   UNL     1       6.354  -4.508   3.713  1.00  0.00     0.031 C 
ATOM     17  C   UNL     1       5.562   0.282   5.096  1.00  0.00     0.029 A 
ATOM     18  N   UNL     1       6.506  -1.088   6.579  1.00  0.00    -0.354 N 
ATOM     19  C   UNL     1       7.224  -5.234   5.665  1.00  0.00     0.074 A 
ATOM     20  C   UNL     1       6.631  -5.596   4.403  1.00  0.00     0.031 C 
ATOM     21  C   UNL     1       5.737   0.980   6.236  1.00  0.00     0.029 A 
ATOM     22  C   UNL     1       6.369   0.120   7.231  1.00  0.00     0.049 A 
ATOM     23  H   UNL     1       6.902  -1.882   7.005  1.00  0.00     0.167 HD
ATOM     24  C   UNL     1       8.010  -6.076   6.369  1.00  0.00     0.031 A 
ATOM     25  C   UNL     1       6.741   0.488   8.476  1.00  0.00     0.031 A 
ATOM     26  C   UNL     1       8.641  -5.725   7.599  1.00  0.00     0.049 A 
ATOM     27  C   UNL     1       7.510  -0.503   9.322  1.00  0.00     0.074 A 
ATOM     28  C   UNL     1       9.479  -6.482   8.391  1.00  0.00     0.029 A 
ATOM     29  N   UNL     1       8.492  -4.493   8.215  1.00  0.00    -0.354 N 
ATOM     30  N   UNL     1       7.873  -1.731   9.035  1.00  0.00    -0.248 NA
ATOM     31  C   UNL     1       7.970  -0.039  10.641  1.00  0.00     0.031 C 
ATOM     32  C   UNL     1       9.806  -5.718   9.515  1.00  0.00     0.029 A 
ATOM     33  C   UNL     1       9.213  -4.470   9.390  1.00  0.00     0.049 A 
ATOM     34  H   UNL     1       7.953  -3.747   7.866  1.00  0.00     0.167 HD
ATOM     35  C   UNL     1       8.658  -2.156  10.102  1.00  0.00     0.074 A 
ATOM     36  C   UNL     1       8.717  -1.057  11.042  1.00  0.00     0.031 C 
ATOM     37  C   UNL     1       9.286  -3.344  10.285  1.00  0.00     0.031 A 
BRANCH  24  38
ATOM     38  C   UNL     1       8.268  -7.407   5.726  1.00  0.00    -0.014 A 
ATOM     39  C   UNL     1       9.014  -7.477   4.533  1.00  0.00     0.009 A 
ATOM     40  C   UNL     1       7.668  -8.568   6.226  1.00  0.00     0.009 A 
ATOM     41  C   UNL     1       9.085  -8.666   3.810  1.00  0.00     0.001 A 
ATOM     42  C   UNL     1       7.775  -9.767   5.518  1.00  0.00     0.001 A 
ATOM     43  C   UNL     1       8.463  -9.810   4.303  1.00  0.00     0.000 A 
ENDBRANCH  24  38
BRANCH  25  44
ATOM     44  C   UNL     1       6.470   1.856   9.014  1.00  0.00    -0.014 A 
ATOM     45  C   UNL     1       7.524   2.754   9.261  1.00  0.00     0.009 A 
ATOM     46  C   UNL     1       5.173   2.229   9.400  1.00  0.00     0.009 A 
ATOM     47  C   UNL     1       7.296   3.960   9.935  1.00  0.00     0.001 A 
ATOM     48  C   UNL     1       4.944   3.449  10.049  1.00  0.00     0.001 A 
ATOM     49  C   UNL     1       6.007   4.305  10.333  1.00  0.00     0.000 A 
ENDBRANCH  25  44
BRANCH  37  50
ATOM     50  C   UNL     1      10.154  -3.497  11.500  1.00  0.00    -0.014 A 
ATOM     51  C   UNL     1       9.605  -3.619  12.784  1.00  0.00     0.009 A 
ATOM     52  C   UNL     1      11.544  -3.615  11.335  1.00  0.00     0.009 A 
ATOM     53  C   UNL     1      10.436  -3.835  13.884  1.00  0.00     0.001 A 
ATOM     54  C   UNL     1      12.368  -3.866  12.431  1.00  0.00     0.001 A 
ATOM     55  C   UNL     1      11.814  -3.969  13.706  1.00  0.00     0.000 A 
ENDBRANCH  37  50
ENDBRANCH  11  12
ENDBRANCH   4   6
ENDBRANCH   3   4
ENDBRANCH   2   3
ENDBRANCH   1   2
BRANCH   1  56
ATOM     56  O   UNL     1       4.034   1.346   0.551  1.00  0.00    -0.462 OA
BRANCH  56  57
ATOM     57  C   UNL     1       2.797   0.841   0.842  1.00  0.00     0.315 C 
ATOM     58  O   UNL     1       1.943   0.577   0.015  1.00  0.00    -0.252 OA
BRANCH  57  59
ATOM     59  C   UNL     1       2.586   0.824   2.333  1.00  0.00     0.163 C 
ATOM     60  C   UNL     1       2.280  -0.508   3.004  1.00  0.00     0.278 C 
ATOM     61  C   UNL     1       1.348   1.665   2.551  1.00  0.00     0.067 C 
ATOM     62  N   UNL     1       1.182  -0.300   3.947  1.00  0.00    -0.331 N 
ATOM     63  C   UNL     1       0.402   0.712   3.273  1.00  0.00     0.267 C 
ATOM     64  H   UNL     1       0.628  -1.136   4.131  1.00  0.00     0.348 HD
BRANCH  61  65
ATOM     65  C   UNL     1       1.604   2.996   3.188  1.00  0.00    -0.001 C 
ATOM     66  C   UNL     1       2.863   3.468   3.886  1.00  0.00     0.004 C 
ATOM     67  C   UNL     1       2.535   3.973   2.512  1.00  0.00     0.004 C 
ENDBRANCH  61  65
BRANCH  62  68
ATOM     68  C   UNL     1       1.542  -0.112   5.369  1.00  0.00     0.304 C 
BRANCH  68  69
ATOM     69  C   UNL     1       1.260   1.198   6.162  1.00  0.00     0.290 C 
BRANCH  69  70
ATOM     70  O   UNL     1      -0.080   1.320   6.691  1.00  0.00    -0.488 OA
BRANCH  70  71
ATOM     71  C   UNL     1      -0.906   2.140   5.966  1.00  0.00     0.119 A 
ATOM     72  C   UNL     1      -2.014   1.529   5.365  1.00  0.00     0.049 A 
ATOM     73  C   UNL     1      -0.612   3.479   5.695  1.00  0.00     0.049 A 
ATOM     74  C   UNL     1      -2.668   2.174   4.310  1.00  0.00     0.043 A 
ATOM     75  C   UNL     1      -1.314   4.145   4.681  1.00  0.00     0.043 A 
ATOM     76  C   UNL     1      -2.284   3.462   3.953  1.00  0.00     0.123 A 
ATOM     77  F   UNL     1      -2.792   4.021   2.846  1.00  0.00    -0.207 F 
ENDBRANCH  70  71
ENDBRANCH  69  70
ENDBRANCH  68  69
ENDBRANCH  62  68
ENDBRANCH  57  59
ENDBRANCH  56  57
ENDBRANCH   1  56
TORSDOF 16
