REMARK SMILES CC[N@@H+]1CCO[C@H](C[NH2+][C@@H]2CCC[C@H](C(=O)OCCOC(=O)c3ccc(-c4c5nc(c(-c6ccccc6)c6ccc([nH]6)c(-c6ccccc6)c6nc(c(-c7ccccc7)c7ccc4[nH]7)C=C6)C=C5)cc3)C2)C1
REMARK SMILES IDX 18 1 17 2 15 3 16 4 14 5 10 6 11 7 71 8 12 9 13 10 9 11 8 14
REMARK SMILES IDX 7 15 3 16 4 17 72 18 5 20 6 21 2 22 1 23 19 24 20 25 21 26
REMARK SMILES IDX 22 27 23 28 24 29 70 30 25 31 69 32 26 33 27 34 28 35 63 36
REMARK SMILES IDX 29 37 68 38 62 39 64 40 30 41 67 42 61 43 60 44 31 46 53 47
REMARK SMILES IDX 38 48 52 49 39 50 42 51 51 52 65 53 40 54 41 55 50 57 66 58
REMARK SMILES IDX 43 59 32 60 33 61 37 62 34 63 36 64 35 65 54 66 55 67 59 68
REMARK SMILES IDX 56 69 58 70 57 71 44 72 45 73 49 74 46 75 48 76 47 77
REMARK H PARENT 9 12 9 13 3 19 64 45 42 56
REMARK Flexibility Score: inf
ROOT
ATOM      1  C   UNL     1      -3.468  -1.183  -2.903  1.00  0.00     0.274 C 
ENDROOT
BRANCH   1   2
ATOM      2  O   UNL     1      -2.105  -0.763  -3.100  1.00  0.00    -0.462 OA
BRANCH   2   3
ATOM      3  C   UNL     1      -1.173  -1.736  -2.951  1.00  0.00     0.309 C 
ATOM      4  O   UNL     1      -1.424  -2.896  -2.639  1.00  0.00    -0.252 OA
BRANCH   3   5
ATOM      5  C   UNL     1       0.255  -1.264  -3.178  1.00  0.00     0.105 C 
ATOM      6  C   UNL     1       2.464  -1.060  -1.891  1.00  0.00     0.183 C 
ATOM      7  C   UNL     1       2.644   0.335  -2.518  1.00  0.00     0.065 C 
ATOM      8  C   UNL     1       0.992  -1.470  -1.862  1.00  0.00     0.080 C 
ATOM      9  C   UNL     1       1.896   0.498  -3.840  1.00  0.00     0.007 C 
ATOM     10  C   UNL     1       0.413   0.169  -3.678  1.00  0.00     0.016 C 
BRANCH   6  11
ATOM     11  N   UNL     1       2.970  -0.982  -0.519  1.00  0.00    -0.341 N 
ATOM     12  H   UNL     1       3.837  -0.447  -0.536  1.00  0.00     0.346 HD
ATOM     13  H   UNL     1       2.222  -0.551   0.025  1.00  0.00     0.346 HD
BRANCH  11  14
ATOM     14  C   UNL     1       3.246  -2.261   0.138  1.00  0.00     0.299 C 
BRANCH  14  15
ATOM     15  C   UNL     1       3.280  -2.229   1.698  1.00  0.00     0.227 C 
ATOM     16  N   UNL     1       1.265  -0.926   2.565  1.00  0.00    -0.331 N 
ATOM     17  C   UNL     1       2.195   0.090   3.037  1.00  0.00     0.291 C 
ATOM     18  C   UNL     1       1.899  -2.232   2.400  1.00  0.00     0.300 C 
ATOM     19  H   UNL     1       0.642  -0.949   3.372  1.00  0.00     0.348 HD
ATOM     20  C   UNL     1       3.562   0.083   2.333  1.00  0.00     0.222 C 
ATOM     21  O   UNL     1       4.152  -1.220   2.243  1.00  0.00    -0.361 OA
BRANCH  16  22
ATOM     22  C   UNL     1       0.150  -0.625   1.689  1.00  0.00     0.258 C 
ATOM     23  C   UNL     1       0.053   0.779   1.100  1.00  0.00     0.071 C 
ENDBRANCH  16  22
ENDBRANCH  14  15
ENDBRANCH  11  14
ENDBRANCH   6  11
ENDBRANCH   3   5
ENDBRANCH   2   3
ENDBRANCH   1   2
BRANCH   1  24
ATOM     24  C   UNL     1      -4.156  -1.524  -4.227  1.00  0.00     0.275 C 
BRANCH  24  25
ATOM     25  O   UNL     1      -3.514  -2.624  -4.900  1.00  0.00    -0.458 OA
BRANCH  25  26
ATOM     26  C   UNL     1      -2.615  -2.268  -5.843  1.00  0.00     0.338 C 
ATOM     27  O   UNL     1      -2.312  -1.138  -6.195  1.00  0.00    -0.246 OA
BRANCH  26  28
ATOM     28  C   UNL     1      -1.932  -3.456  -6.369  1.00  0.00     0.060 A 
ATOM     29  C   UNL     1      -0.707  -3.816  -5.809  1.00  0.00     0.016 A 
ATOM     30  C   UNL     1      -2.405  -4.107  -7.506  1.00  0.00     0.016 A 
ATOM     31  C   UNL     1       0.087  -4.783  -6.409  1.00  0.00     0.010 A 
ATOM     32  C   UNL     1      -1.630  -5.121  -8.081  1.00  0.00     0.010 A 
ATOM     33  C   UNL     1      -0.367  -5.445  -7.553  1.00  0.00    -0.014 A 
BRANCH  33  34
ATOM     34  C   UNL     1       0.515  -6.432  -8.218  1.00  0.00     0.031 A 
ATOM     35  C   UNL     1       1.079  -6.133  -9.578  1.00  0.00     0.074 A 
ATOM     36  C   UNL     1       0.849  -7.572  -7.585  1.00  0.00     0.049 A 
ATOM     37  N   UNL     1       1.754  -6.915 -10.380  1.00  0.00    -0.248 NA
ATOM     38  C   UNL     1       0.851  -4.778 -10.105  1.00  0.00     0.031 C 
ATOM     39  C   UNL     1       0.434  -7.944  -6.231  1.00  0.00     0.029 A 
ATOM     40  N   UNL     1       1.626  -8.623  -7.997  1.00  0.00    -0.354 N 
ATOM     41  C   UNL     1       1.988  -6.166 -11.526  1.00  0.00     0.074 A 
ATOM     42  C   UNL     1       1.390  -4.865 -11.313  1.00  0.00     0.031 C 
ATOM     43  C   UNL     1       0.982  -9.128  -5.915  1.00  0.00     0.029 A 
ATOM     44  C   UNL     1       1.725  -9.628  -7.067  1.00  0.00     0.049 A 
ATOM     45  H   UNL     1       2.071  -8.654  -8.875  1.00  0.00     0.167 HD
ATOM     46  C   UNL     1       2.634  -6.536 -12.656  1.00  0.00     0.031 A 
ATOM     47  C   UNL     1       2.314 -10.834  -7.147  1.00  0.00     0.031 A 
ATOM     48  C   UNL     1       3.253  -7.818 -12.854  1.00  0.00     0.049 A 
ATOM     49  C   UNL     1       2.983 -11.239  -8.428  1.00  0.00     0.074 A 
ATOM     50  C   UNL     1       3.923  -8.293 -13.968  1.00  0.00     0.029 A 
ATOM     51  N   UNL     1       3.289  -8.826 -11.903  1.00  0.00    -0.354 N 
ATOM     52  N   UNL     1       3.135 -10.549  -9.531  1.00  0.00    -0.248 NA
ATOM     53  C   UNL     1       3.542 -12.597  -8.480  1.00  0.00     0.031 C 
ATOM     54  C   UNL     1       4.340  -9.602 -13.701  1.00  0.00     0.029 A 
ATOM     55  C   UNL     1       3.960  -9.926 -12.409  1.00  0.00     0.049 A 
ATOM     56  H   UNL     1       2.896  -8.768 -11.003  1.00  0.00     0.167 HD
ATOM     57  C   UNL     1       3.810 -11.386 -10.409  1.00  0.00     0.074 A 
ATOM     58  C   UNL     1       4.056 -12.627  -9.702  1.00  0.00     0.031 C 
ATOM     59  C   UNL     1       4.187 -11.151 -11.688  1.00  0.00     0.031 A 
BRANCH  46  60
ATOM     60  C   UNL     1       2.655  -5.550 -13.788  1.00  0.00    -0.014 A 
ATOM     61  C   UNL     1       3.514  -4.441 -13.778  1.00  0.00     0.009 A 
ATOM     62  C   UNL     1       1.811  -5.751 -14.891  1.00  0.00     0.009 A 
ATOM     63  C   UNL     1       3.506  -3.537 -14.842  1.00  0.00     0.001 A 
ATOM     64  C   UNL     1       1.820  -4.856 -15.962  1.00  0.00     0.001 A 
ATOM     65  C   UNL     1       2.662  -3.746 -15.933  1.00  0.00     0.000 A 
ENDBRANCH  46  60
BRANCH  47  66
ATOM     66  C   UNL     1       2.249 -11.766  -5.993  1.00  0.00    -0.014 A 
ATOM     67  C   UNL     1       3.392 -12.028  -5.223  1.00  0.00     0.009 A 
ATOM     68  C   UNL     1       1.039 -12.390  -5.652  1.00  0.00     0.009 A 
ATOM     69  C   UNL     1       3.325 -12.907  -4.140  1.00  0.00     0.001 A 
ATOM     70  C   UNL     1       0.970 -13.249  -4.554  1.00  0.00     0.001 A 
ATOM     71  C   UNL     1       2.114 -13.511  -3.803  1.00  0.00     0.000 A 
ENDBRANCH  47  66
BRANCH  59  72
ATOM     72  C   UNL     1       4.919 -12.254 -12.391  1.00  0.00    -0.014 A 
ATOM     73  C   UNL     1       4.228 -13.363 -12.902  1.00  0.00     0.009 A 
ATOM     74  C   UNL     1       6.308 -12.168 -12.567  1.00  0.00     0.009 A 
ATOM     75  C   UNL     1       4.923 -14.382 -13.556  1.00  0.00     0.001 A 
ATOM     76  C   UNL     1       6.996 -13.180 -13.238  1.00  0.00     0.001 A 
ATOM     77  C   UNL     1       6.304 -14.288 -13.725  1.00  0.00     0.000 A 
ENDBRANCH  59  72
ENDBRANCH  33  34
ENDBRANCH  26  28
ENDBRANCH  25  26
ENDBRANCH  24  25
ENDBRANCH   1  24
TORSDOF 15
