REMARK SMILES C[C@@H](C(=O)OCCOC(=O)c1ccc(-c2c3nc(c(-c4ccccc4)c4ccc([nH]4)c(-c4ccccc4)c4nc(c(-c5ccccc5)c5ccc2[nH]5)C=C4)C=C3)cc1)N1C(=O)/C(=C/c2ccc(-c3ccc([N+](=O)[O-])cc3Cl)o2)SC1=S
REMARK SMILES IDX 6 1 5 2 3 3 4 4 2 5 1 6 59 7 60 8 80 9 61 10 62 11 79 12
REMARK SMILES IDX 81 13 63 14 64 15 65 16 78 17 66 18 67 19 68 20 69 21 76 22
REMARK SMILES IDX 70 23 75 24 77 25 71 26 72 27 73 28 74 29 7 30 8 31 9 32
REMARK SMILES IDX 10 33 11 34 12 35 58 36 13 37 57 38 14 39 15 40 16 41 51 42
REMARK SMILES IDX 17 43 56 44 50 45 52 46 18 47 55 48 49 49 48 50 19 52 41 53
REMARK SMILES IDX 26 54 40 55 27 56 30 57 39 58 53 59 28 60 29 61 38 63 54 64
REMARK SMILES IDX 31 65 20 66 21 67 25 68 22 69 24 70 23 71 42 72 43 73 47 74
REMARK SMILES IDX 44 75 46 76 45 77 32 78 33 79 37 80 34 81 36 82 35 83
REMARK H PARENT 52 51 30 62
REMARK Flexibility Score: inf
ROOT
ATOM      1  C   UNL     1       2.692  -2.416   2.883  1.00  0.00     0.274 C 
ENDROOT
BRANCH   1   2
ATOM      2  O   UNL     1       2.137  -1.772   1.707  1.00  0.00    -0.461 OA
BRANCH   2   3
ATOM      3  C   UNL     1       1.047  -2.342   1.109  1.00  0.00     0.329 C 
ATOM      4  O   UNL     1       0.535  -3.380   1.513  1.00  0.00    -0.250 OA
BRANCH   3   5
ATOM      5  C   UNL     1       0.545  -1.562  -0.157  1.00  0.00     0.199 C 
ATOM      6  C   UNL     1       1.387  -0.289  -0.348  1.00  0.00     0.044 C 
BRANCH   5   7
ATOM      7  N   UNL     1      -0.965  -1.371  -0.317  1.00  0.00    -0.279 N 
ATOM      8  C   UNL     1      -1.778  -2.495  -0.568  1.00  0.00     0.267 C 
ATOM      9  C   UNL     1      -1.669  -0.174  -0.304  1.00  0.00     0.149 C 
ATOM     10  O   UNL     1      -1.393  -3.650  -0.677  1.00  0.00    -0.268 OA
ATOM     11  C   UNL     1      -3.244  -2.101  -0.665  1.00  0.00     0.084 C 
ATOM     12  S   UNL     1      -3.287  -0.410  -0.955  1.00  0.00    -0.054 SA
ATOM     13  S   UNL     1      -1.270   1.356   0.218  1.00  0.00    -0.052 S 
ATOM     14  C   UNL     1      -4.322  -2.865  -0.372  1.00  0.00     0.068 C 
BRANCH  14  15
ATOM     15  C   UNL     1      -5.669  -2.326  -0.262  1.00  0.00     0.128 A 
ATOM     16  C   UNL     1      -6.425  -1.612  -1.181  1.00  0.00     0.051 A 
ATOM     17  O   UNL     1      -6.492  -2.460   0.855  1.00  0.00    -0.457 OA
ATOM     18  C   UNL     1      -7.639  -1.200  -0.549  1.00  0.00     0.051 A 
ATOM     19  C   UNL     1      -7.656  -1.712   0.743  1.00  0.00     0.136 A 
BRANCH  19  20
ATOM     20  C   UNL     1      -8.839  -1.989   1.711  1.00  0.00     0.036 A 
ATOM     21  C   UNL     1      -9.997  -2.743   0.686  1.00  0.00     0.020 A 
ATOM     22  C   UNL     1      -9.063  -1.899   3.551  1.00  0.00     0.058 A 
ATOM     23  C   UNL     1     -11.379  -3.420   1.457  1.00  0.00     0.086 A 
ATOM     24  C   UNL     1     -10.294  -2.631   4.454  1.00  0.00     0.106 A 
ATOM     25  Cl  UNL     1      -8.238  -1.070   4.892  1.00  0.00    -0.083 Cl
ATOM     26  C   UNL     1     -11.525  -3.387   3.555  1.00  0.00     0.270 A 
BRANCH  26  27
ATOM     27  N   UNL     1     -12.534  -3.858   4.704  1.00  0.00     0.062 N 
ATOM     28  O   UNL     1     -12.957  -5.025   4.743  1.00  0.00    -0.258 OA
ATOM     29  O   UNL     1     -12.752  -3.026   5.599  1.00  0.00    -0.258 OA
ENDBRANCH  26  27
ENDBRANCH  19  20
ENDBRANCH  14  15
ENDBRANCH   5   7
ENDBRANCH   3   5
ENDBRANCH   2   3
ENDBRANCH   1   2
BRANCH   1  30
ATOM     30  C   UNL     1       2.414  -1.618   4.161  1.00  0.00     0.275 C 
BRANCH  30  31
ATOM     31  O   UNL     1       1.009  -1.593   4.448  1.00  0.00    -0.458 OA
BRANCH  31  32
ATOM     32  C   UNL     1       0.367  -0.519   3.939  1.00  0.00     0.338 C 
ATOM     33  O   UNL     1       0.843   0.427   3.338  1.00  0.00    -0.246 OA
BRANCH  32  34
ATOM     34  C   UNL     1      -1.068  -0.766   4.003  1.00  0.00     0.060 A 
ATOM     35  C   UNL     1      -1.612  -1.450   2.930  1.00  0.00     0.016 A 
ATOM     36  C   UNL     1      -1.883  -0.245   5.000  1.00  0.00     0.016 A 
ATOM     37  C   UNL     1      -2.966  -1.540   2.776  1.00  0.00     0.010 A 
ATOM     38  C   UNL     1      -3.264  -0.414   4.888  1.00  0.00     0.010 A 
ATOM     39  C   UNL     1      -3.801  -1.031   3.749  1.00  0.00    -0.014 A 
BRANCH  39  40
ATOM     40  C   UNL     1      -5.229  -1.221   3.511  1.00  0.00     0.031 A 
ATOM     41  C   UNL     1      -6.124   0.134   3.253  1.00  0.00     0.074 A 
ATOM     42  C   UNL     1      -5.620  -2.541   3.499  1.00  0.00     0.049 A 
ATOM     43  N   UNL     1      -7.376   0.326   2.849  1.00  0.00    -0.248 NA
ATOM     44  C   UNL     1      -5.479   1.428   3.538  1.00  0.00     0.031 C 
ATOM     45  C   UNL     1      -5.007  -3.872   3.483  1.00  0.00     0.029 A 
ATOM     46  N   UNL     1      -6.898  -2.901   3.320  1.00  0.00    -0.354 N 
ATOM     47  C   UNL     1      -7.759   1.655   3.135  1.00  0.00     0.074 A 
ATOM     48  C   UNL     1      -6.490   2.294   3.474  1.00  0.00     0.031 C 
ATOM     49  C   UNL     1      -5.964  -4.813   3.191  1.00  0.00     0.029 A 
ATOM     50  C   UNL     1      -7.300  -4.185   3.071  1.00  0.00     0.049 A 
ATOM     51  H   UNL     1      -7.588  -2.201   3.369  1.00  0.00     0.167 HD
ATOM     52  C   UNL     1      -8.988   2.289   3.250  1.00  0.00     0.031 A 
ATOM     53  C   UNL     1      -8.559  -4.687   2.752  1.00  0.00     0.031 A 
ATOM     54  C   UNL     1     -10.389   1.768   3.123  1.00  0.00     0.049 A 
ATOM     55  C   UNL     1     -10.082  -3.925   2.598  1.00  0.00     0.074 A 
ATOM     56  C   UNL     1     -11.580   2.469   3.340  1.00  0.00     0.029 A 
ATOM     57  N   UNL     1     -10.843   0.492   2.765  1.00  0.00    -0.354 N 
ATOM     58  N   UNL     1     -10.698  -2.220   2.520  1.00  0.00    -0.248 NA
ATOM     59  C   UNL     1     -11.805  -5.026   2.457  1.00  0.00     0.031 C 
ATOM     60  C   UNL     1     -12.694   1.606   3.231  1.00  0.00     0.029 A 
ATOM     61  C   UNL     1     -12.253   0.348   2.862  1.00  0.00     0.049 A 
ATOM     62  H   UNL     1     -10.244  -0.234   2.476  1.00  0.00     0.167 HD
ATOM     63  C   UNL     1     -12.501  -2.096   2.406  1.00  0.00     0.074 A 
ATOM     64  C   UNL     1     -13.106  -3.933   2.340  1.00  0.00     0.031 C 
ATOM     65  C   UNL     1     -13.055  -0.882   2.639  1.00  0.00     0.031 A 
BRANCH  52  66
ATOM     66  C   UNL     1      -8.910   3.781   3.655  1.00  0.00    -0.014 A 
ATOM     67  C   UNL     1      -8.400   4.749   2.771  1.00  0.00     0.009 A 
ATOM     68  C   UNL     1      -9.417   4.235   4.892  1.00  0.00     0.009 A 
ATOM     69  C   UNL     1      -8.375   6.109   3.117  1.00  0.00     0.001 A 
ATOM     70  C   UNL     1      -9.435   5.601   5.217  1.00  0.00     0.001 A 
ATOM     71  C   UNL     1      -8.904   6.537   4.333  1.00  0.00     0.000 A 
ENDBRANCH  52  66
BRANCH  53  72
ATOM     72  C   UNL     1      -8.672  -6.158   2.503  1.00  0.00    -0.014 A 
ATOM     73  C   UNL     1      -9.271  -6.633   1.325  1.00  0.00     0.009 A 
ATOM     74  C   UNL     1      -8.249  -7.094   3.458  1.00  0.00     0.009 A 
ATOM     75  C   UNL     1      -9.482  -8.002   1.129  1.00  0.00     0.001 A 
ATOM     76  C   UNL     1      -8.416  -8.464   3.241  1.00  0.00     0.001 A 
ATOM     77  C   UNL     1      -9.049  -8.916   2.086  1.00  0.00     0.000 A 
ENDBRANCH  53  72
BRANCH  65  78
ATOM     78  C   UNL     1     -14.526  -0.902   2.746  1.00  0.00    -0.014 A 
ATOM     79  C   UNL     1     -15.175  -1.548   3.808  1.00  0.00     0.009 A 
ATOM     80  C   UNL     1     -15.292  -0.288   1.754  1.00  0.00     0.009 A 
ATOM     81  C   UNL     1     -16.561  -1.675   3.822  1.00  0.00     0.001 A 
ATOM     82  C   UNL     1     -16.682  -0.388   1.783  1.00  0.00     0.001 A 
ATOM     83  C   UNL     1     -17.313  -1.105   2.800  1.00  0.00     0.000 A 
ENDBRANCH  65  78
ENDBRANCH  39  40
ENDBRANCH  32  34
ENDBRANCH  31  32
ENDBRANCH  30  31
ENDBRANCH   1  30
TORSDOF 15
