REMARK SMILES CS(=O)(=O)c1ccc(/C=C(/C(=O)OCCOC(=O)c2ccc(-c3c4nc(c(-c5ccccc5)c5ccc([nH]5)c(-c5ccccc5)c5nc(c(-c6ccccc6)c6ccc3[nH]6)C=C5)C=C4)cc2)c2ccc(-c3ccc(S(C)(=O)=O)cc3)cc2)cc1
REMARK SMILES IDX 14 1 13 2 11 3 12 4 10 5 9 6 8 7 5 8 6 9 84 10 7 11 83 12
REMARK SMILES IDX 2 13 1 14 3 15 4 16 67 17 68 18 82 19 69 20 81 21 70 22
REMARK SMILES IDX 71 23 72 24 80 25 73 26 79 27 74 28 75 29 76 30 77 31 78 32
REMARK SMILES IDX 15 33 16 34 17 35 18 36 19 37 20 38 66 39 21 40 65 41 22 42
REMARK SMILES IDX 23 43 24 44 59 45 25 46 64 47 58 48 60 49 26 50 63 51 57 52
REMARK SMILES IDX 56 53 27 55 49 56 34 57 48 58 35 59 38 60 47 61 61 62 36 63
REMARK SMILES IDX 37 64 46 66 62 67 39 68 28 69 29 70 33 71 30 72 32 73 31 74
REMARK SMILES IDX 50 75 51 76 55 77 52 78 54 79 53 80 40 81 41 82 45 83 42 84
REMARK SMILES IDX 44 85 43 86
REMARK H PARENT 60 54 38 65
REMARK Flexibility Score: inf
ROOT
ATOM      1  C   UNL     1       3.243  -9.517   4.489  1.00  0.00     0.275 C 
ENDROOT
BRANCH   1   2
ATOM      2  O   UNL     1       2.576  -8.266   4.215  1.00  0.00    -0.458 OA
BRANCH   2   3
ATOM      3  C   UNL     1       2.480  -7.937   2.902  1.00  0.00     0.338 C 
ATOM      4  O   UNL     1       2.942  -8.581   1.970  1.00  0.00    -0.246 OA
BRANCH   3   5
ATOM      5  C   UNL     1       1.677  -6.694   2.694  1.00  0.00     0.067 C 
ATOM      6  C   UNL     1       1.943  -5.610   3.458  1.00  0.00     0.024 C 
BRANCH   6   7
ATOM      7  C   UNL     1       1.481  -4.216   3.249  1.00  0.00    -0.025 A 
ATOM      8  C   UNL     1       0.874  -1.555   2.584  1.00  0.00     0.067 A 
ATOM      9  C   UNL     1      -0.065  -2.554   2.354  1.00  0.00     0.021 A 
ATOM     10  C   UNL     1       2.071  -1.847   3.238  1.00  0.00     0.021 A 
ATOM     11  C   UNL     1       0.232  -3.868   2.716  1.00  0.00     0.009 A 
ATOM     12  C   UNL     1       2.372  -3.176   3.561  1.00  0.00     0.009 A 
BRANCH   8  13
ATOM     13  S   UNL     1       0.535   0.097   2.031  1.00  0.00     0.175 S 
ATOM     14  C   UNL     1       1.082   0.067   0.341  1.00  0.00     0.163 C 
ATOM     15  O   UNL     1       1.393   0.995   2.771  1.00  0.00    -0.224 OA
ATOM     16  O   UNL     1      -0.910   0.267   2.036  1.00  0.00    -0.224 OA
ENDBRANCH   8  13
ENDBRANCH   6   7
BRANCH   5  17
ATOM     17  C   UNL     1       0.752  -6.668   1.549  1.00  0.00    -0.011 A 
ATOM     18  C   UNL     1      -0.592  -7.009   1.742  1.00  0.00     0.009 A 
ATOM     19  C   UNL     1       1.170  -6.249   0.285  1.00  0.00     0.009 A 
ATOM     20  C   UNL     1      -1.508  -6.907   0.688  1.00  0.00     0.009 A 
ATOM     21  C   UNL     1       0.248  -6.153  -0.764  1.00  0.00     0.009 A 
ATOM     22  C   UNL     1      -1.111  -6.481  -0.591  1.00  0.00    -0.018 A 
BRANCH  22  23
ATOM     23  C   UNL     1      -2.080  -6.384  -1.710  1.00  0.00    -0.018 A 
ATOM     24  C   UNL     1      -3.425  -6.028  -1.489  1.00  0.00     0.010 A 
ATOM     25  C   UNL     1      -1.688  -6.628  -3.041  1.00  0.00     0.010 A 
ATOM     26  C   UNL     1      -4.332  -5.898  -2.546  1.00  0.00     0.021 A 
ATOM     27  C   UNL     1      -2.583  -6.490  -4.107  1.00  0.00     0.021 A 
ATOM     28  C   UNL     1      -3.901  -6.124  -3.851  1.00  0.00     0.067 A 
BRANCH  28  29
ATOM     29  S   UNL     1      -5.035  -5.883  -5.196  1.00  0.00     0.175 S 
ATOM     30  C   UNL     1      -6.219  -7.178  -4.987  1.00  0.00     0.163 C 
ATOM     31  O   UNL     1      -5.696  -4.612  -4.966  1.00  0.00    -0.224 OA
ATOM     32  O   UNL     1      -4.313  -6.128  -6.431  1.00  0.00    -0.224 OA
ENDBRANCH  28  29
ENDBRANCH  22  23
ENDBRANCH   5  17
ENDBRANCH   3   5
ENDBRANCH   2   3
ENDBRANCH   1   2
BRANCH   1  33
ATOM     33  C   UNL     1       2.228 -10.623   4.766  1.00  0.00     0.275 C 
BRANCH  33  34
ATOM     34  O   UNL     1       1.435 -10.868   3.589  1.00  0.00    -0.458 OA
BRANCH  34  35
ATOM     35  C   UNL     1       0.104 -10.671   3.721  1.00  0.00     0.338 C 
ATOM     36  O   UNL     1      -0.502 -10.367   4.737  1.00  0.00    -0.246 OA
BRANCH  35  37
ATOM     37  C   UNL     1      -0.577 -10.839   2.423  1.00  0.00     0.060 A 
ATOM     38  C   UNL     1      -0.095 -10.191   1.292  1.00  0.00     0.016 A 
ATOM     39  C   UNL     1      -1.807 -11.497   2.368  1.00  0.00     0.016 A 
ATOM     40  C   UNL     1      -0.908 -10.073   0.164  1.00  0.00     0.010 A 
ATOM     41  C   UNL     1      -2.564 -11.473   1.188  1.00  0.00     0.010 A 
ATOM     42  C   UNL     1      -2.161 -10.700   0.086  1.00  0.00    -0.014 A 
BRANCH  42  43
ATOM     43  C   UNL     1      -3.064 -10.494  -1.096  1.00  0.00     0.031 A 
ATOM     44  C   UNL     1      -4.517 -10.109  -0.906  1.00  0.00     0.074 A 
ATOM     45  C   UNL     1      -2.608 -10.616  -2.361  1.00  0.00     0.049 A 
ATOM     46  N   UNL     1      -5.502 -10.127  -1.774  1.00  0.00    -0.248 NA
ATOM     47  C   UNL     1      -4.922  -9.661   0.437  1.00  0.00     0.031 C 
ATOM     48  C   UNL     1      -1.228 -10.908  -2.751  1.00  0.00     0.029 A 
ATOM     49  N   UNL     1      -3.267 -10.494  -3.563  1.00  0.00    -0.354 N 
ATOM     50  C   UNL     1      -6.649  -9.798  -1.058  1.00  0.00     0.074 A 
ATOM     51  C   UNL     1      -6.237  -9.555   0.307  1.00  0.00     0.031 C 
ATOM     52  C   UNL     1      -1.126 -10.864  -4.086  1.00  0.00     0.029 A 
ATOM     53  C   UNL     1      -2.455 -10.683  -4.655  1.00  0.00     0.049 A 
ATOM     54  H   UNL     1      -4.228 -10.291  -3.634  1.00  0.00     0.167 HD
ATOM     55  C   UNL     1      -7.931  -9.717  -1.494  1.00  0.00     0.031 A 
ATOM     56  C   UNL     1      -2.735 -10.775  -5.968  1.00  0.00     0.031 A 
ATOM     57  C   UNL     1      -8.339  -9.876  -2.866  1.00  0.00     0.049 A 
ATOM     58  C   UNL     1      -4.159 -10.722  -6.431  1.00  0.00     0.074 A 
ATOM     59  C   UNL     1      -9.605  -9.726  -3.410  1.00  0.00     0.029 A 
ATOM     60  N   UNL     1      -7.495 -10.211  -3.911  1.00  0.00    -0.354 N 
ATOM     61  N   UNL     1      -5.249 -10.559  -5.723  1.00  0.00    -0.248 NA
ATOM     62  C   UNL     1      -4.393 -10.900  -7.871  1.00  0.00     0.031 C 
ATOM     63  C   UNL     1      -9.527  -9.977  -4.784  1.00  0.00     0.029 A 
ATOM     64  C   UNL     1      -8.204 -10.232  -5.102  1.00  0.00     0.049 A 
ATOM     65  H   UNL     1      -6.534 -10.406  -3.821  1.00  0.00     0.167 HD
ATOM     66  C   UNL     1      -6.297 -10.606  -6.631  1.00  0.00     0.074 A 
ATOM     67  C   UNL     1      -5.713 -10.802  -7.941  1.00  0.00     0.031 C 
ATOM     68  C   UNL     1      -7.625 -10.479  -6.396  1.00  0.00     0.031 A 
BRANCH  55  69
ATOM     69  C   UNL     1      -9.010  -9.476  -0.473  1.00  0.00    -0.014 A 
ATOM     70  C   UNL     1      -9.198  -8.224   0.131  1.00  0.00     0.009 A 
ATOM     71  C   UNL     1      -9.900 -10.518  -0.162  1.00  0.00     0.009 A 
ATOM     72  C   UNL     1     -10.236  -8.030   1.046  1.00  0.00     0.001 A 
ATOM     73  C   UNL     1     -10.952 -10.315   0.733  1.00  0.00     0.001 A 
ATOM     74  C   UNL     1     -11.115  -9.073   1.342  1.00  0.00     0.000 A 
ENDBRANCH  55  69
BRANCH  56  75
ATOM     75  C   UNL     1      -1.633 -11.012  -6.936  1.00  0.00    -0.014 A 
ATOM     76  C   UNL     1      -1.224  -9.998  -7.814  1.00  0.00     0.009 A 
ATOM     77  C   UNL     1      -0.966 -12.248  -6.962  1.00  0.00     0.009 A 
ATOM     78  C   UNL     1      -0.169 -10.220  -8.701  1.00  0.00     0.001 A 
ATOM     79  C   UNL     1       0.109 -12.455  -7.827  1.00  0.00     0.001 A 
ATOM     80  C   UNL     1       0.503 -11.443  -8.700  1.00  0.00     0.000 A 
ENDBRANCH  56  75
BRANCH  68  81
ATOM     81  C   UNL     1      -8.532 -10.528  -7.590  1.00  0.00    -0.014 A 
ATOM     82  C   UNL     1      -8.821 -11.741  -8.231  1.00  0.00     0.009 A 
ATOM     83  C   UNL     1      -9.107  -9.343  -8.076  1.00  0.00     0.009 A 
ATOM     84  C   UNL     1      -9.647 -11.762  -9.357  1.00  0.00     0.001 A 
ATOM     85  C   UNL     1      -9.950  -9.371  -9.187  1.00  0.00     0.001 A 
ATOM     86  C   UNL     1     -10.212 -10.579  -9.832  1.00  0.00     0.000 A 
ENDBRANCH  68  81
ENDBRANCH  42  43
ENDBRANCH  35  37
ENDBRANCH  34  35
ENDBRANCH  33  34
ENDBRANCH   1  33
TORSDOF 16
