REMARK SMILES COc1cccc(NC(=O)[C@@H]2[C@@H](C(=O)OCCOC(=O)c3ccc(-c4c5nc(c(-c6ccccc6)c6ccc([nH]6)c(-c6ccccc6)c6nc(c(-c7ccccc7)c7ccc4[nH]7)C=C6)C=C5)cc3)[C@H]3C=C[C@@H]2C3)c1
REMARK SMILES IDX 16 1 15 2 13 3 14 4 12 5 11 6 72 7 69 8 71 9 73 10 70 11
REMARK SMILES IDX 9 12 8 13 10 15 7 16 3 17 4 18 74 19 5 20 6 21 2 22 1 23
REMARK SMILES IDX 17 24 18 25 19 26 20 27 21 28 22 29 68 30 23 31 67 32 24 33
REMARK SMILES IDX 25 34 26 35 61 36 27 37 66 38 60 39 62 40 28 41 65 42 59 43
REMARK SMILES IDX 58 44 29 46 51 47 36 48 50 49 37 50 40 51 49 52 63 53 38 54
REMARK SMILES IDX 39 55 48 57 64 58 41 59 30 60 31 61 35 62 32 63 34 64 33 65
REMARK SMILES IDX 52 66 53 67 57 68 54 69 56 70 55 71 42 72 43 73 47 74 44 75
REMARK SMILES IDX 46 76 45 77
REMARK H PARENT 8 14 62 45 40 56
REMARK Flexibility Score: inf
ROOT
ATOM      1  C   UNL     1       0.690   8.820   2.838  1.00  0.00     0.274 C 
ENDROOT
BRANCH   1   2
ATOM      2  O   UNL     1       1.786   8.396   3.675  1.00  0.00    -0.462 OA
BRANCH   2   3
ATOM      3  C   UNL     1       2.257   7.155   3.407  1.00  0.00     0.310 C 
ATOM      4  O   UNL     1       1.800   6.432   2.530  1.00  0.00    -0.252 OA
BRANCH   3   5
ATOM      5  C   UNL     1       3.478   6.762   4.194  1.00  0.00     0.119 C 
ATOM      6  C   UNL     1       3.347   5.357   4.865  1.00  0.00     0.100 C 
ATOM      7  C   UNL     1       3.994   5.628   6.259  1.00  0.00     0.025 C 
ATOM      8  C   UNL     1       3.916   7.676   5.358  1.00  0.00     0.027 C 
ATOM      9  C   UNL     1       2.968   6.423   7.041  1.00  0.00    -0.027 C 
ATOM     10  C   UNL     1       4.984   6.770   5.985  1.00  0.00     0.017 C 
ATOM     11  C   UNL     1       2.908   7.642   6.485  1.00  0.00    -0.027 C 
BRANCH   6  12
ATOM     12  C   UNL     1       4.093   4.288   4.088  1.00  0.00     0.228 C 
ATOM     13  N   UNL     1       3.529   3.470   3.156  1.00  0.00    -0.326 N 
ATOM     14  H   UNL     1       4.205   2.894   2.731  1.00  0.00     0.169 HD
ATOM     15  O   UNL     1       5.315   4.157   4.244  1.00  0.00    -0.274 OA
BRANCH  13  16
ATOM     16  C   UNL     1       2.242   3.221   2.631  1.00  0.00     0.044 A 
ATOM     17  C   UNL     1       0.974   2.083   0.878  1.00  0.00     0.120 A 
ATOM     18  C   UNL     1      -0.199   2.689   1.304  1.00  0.00     0.046 A 
ATOM     19  C   UNL     1       2.187   2.354   1.523  1.00  0.00     0.072 A 
ATOM     20  C   UNL     1      -0.168   3.509   2.424  1.00  0.00     0.006 A 
ATOM     21  C   UNL     1       1.040   3.751   3.094  1.00  0.00     0.026 A 
BRANCH  17  22
ATOM     22  O   UNL     1       0.895   1.290  -0.235  1.00  0.00    -0.497 OA
ATOM     23  C   UNL     1       1.308  -0.049   0.037  1.00  0.00     0.278 C 
ENDBRANCH  17  22
ENDBRANCH  13  16
ENDBRANCH   6  12
ENDBRANCH   3   5
ENDBRANCH   2   3
ENDBRANCH   1   2
BRANCH   1  24
ATOM     24  C   UNL     1       1.162   9.603   1.606  1.00  0.00     0.275 C 
BRANCH  24  25
ATOM     25  O   UNL     1       1.849   8.781   0.641  1.00  0.00    -0.458 OA
BRANCH  25  26
ATOM     26  C   UNL     1       3.183   8.662   0.829  1.00  0.00     0.338 C 
ATOM     27  O   UNL     1       3.851   9.197   1.706  1.00  0.00    -0.246 OA
BRANCH  26  28
ATOM     28  C   UNL     1       3.755   7.670  -0.098  1.00  0.00     0.060 A 
ATOM     29  C   UNL     1       4.507   6.627   0.450  1.00  0.00     0.016 A 
ATOM     30  C   UNL     1       3.640   7.799  -1.483  1.00  0.00     0.016 A 
ATOM     31  C   UNL     1       5.156   5.714  -0.370  1.00  0.00     0.010 A 
ATOM     32  C   UNL     1       4.296   6.881  -2.312  1.00  0.00     0.010 A 
ATOM     33  C   UNL     1       5.066   5.843  -1.758  1.00  0.00    -0.014 A 
BRANCH  33  34
ATOM     34  C   UNL     1       5.833   4.911  -2.613  1.00  0.00     0.031 A 
ATOM     35  C   UNL     1       7.102   5.373  -3.266  1.00  0.00     0.074 A 
ATOM     36  C   UNL     1       5.418   3.640  -2.752  1.00  0.00     0.049 A 
ATOM     37  N   UNL     1       7.889   4.729  -4.090  1.00  0.00    -0.248 NA
ATOM     38  C   UNL     1       7.547   6.739  -2.948  1.00  0.00     0.031 C 
ATOM     39  C   UNL     1       4.238   3.061  -2.109  1.00  0.00     0.029 A 
ATOM     40  N   UNL     1       5.948   2.605  -3.479  1.00  0.00    -0.354 N 
ATOM     41  C   UNL     1       8.911   5.615  -4.404  1.00  0.00     0.074 A 
ATOM     42  C   UNL     1       8.638   6.846  -3.693  1.00  0.00     0.031 C 
ATOM     43  C   UNL     1       4.136   1.771  -2.469  1.00  0.00     0.029 A 
ATOM     44  C   UNL     1       5.212   1.449  -3.401  1.00  0.00     0.049 A 
ATOM     45  H   UNL     1       6.776   2.684  -4.005  1.00  0.00     0.167 HD
ATOM     46  C   UNL     1       9.978   5.419  -5.213  1.00  0.00     0.031 A 
ATOM     47  C   UNL     1       5.372   0.274  -4.037  1.00  0.00     0.031 A 
ATOM     48  C   UNL     1      10.241   4.195  -5.922  1.00  0.00     0.049 A 
ATOM     49  C   UNL     1       6.515   0.112  -5.001  1.00  0.00     0.074 A 
ATOM     50  C   UNL     1      11.292   3.897  -6.772  1.00  0.00     0.029 A 
ATOM     51  N   UNL     1       9.441   3.064  -5.864  1.00  0.00    -0.354 N 
ATOM     52  N   UNL     1       7.467   0.961  -5.304  1.00  0.00    -0.248 NA
ATOM     53  C   UNL     1       6.600  -1.169  -5.715  1.00  0.00     0.031 C 
ATOM     54  C   UNL     1      11.101   2.602  -7.265  1.00  0.00     0.029 A 
ATOM     55  C   UNL     1       9.960   2.075  -6.682  1.00  0.00     0.049 A 
ATOM     56  H   UNL     1       8.624   2.977  -5.321  1.00  0.00     0.167 HD
ATOM     57  C   UNL     1       8.273   0.313  -6.230  1.00  0.00     0.074 A 
ATOM     58  C   UNL     1       7.709  -1.008  -6.425  1.00  0.00     0.031 C 
ATOM     59  C   UNL     1       9.381   0.769  -6.864  1.00  0.00     0.031 A 
BRANCH  46  60
ATOM     60  C   UNL     1      10.915   6.576  -5.410  1.00  0.00    -0.014 A 
ATOM     61  C   UNL     1      11.803   6.979  -4.401  1.00  0.00     0.009 A 
ATOM     62  C   UNL     1      10.926   7.258  -6.637  1.00  0.00     0.009 A 
ATOM     63  C   UNL     1      12.659   8.063  -4.606  1.00  0.00     0.001 A 
ATOM     64  C   UNL     1      11.800   8.326  -6.848  1.00  0.00     0.001 A 
ATOM     65  C   UNL     1      12.659   8.733  -5.829  1.00  0.00     0.000 A 
ENDBRANCH  46  60
BRANCH  47  66
ATOM     66  C   UNL     1       4.401  -0.828  -3.813  1.00  0.00    -0.014 A 
ATOM     67  C   UNL     1       4.785  -1.994  -3.134  1.00  0.00     0.009 A 
ATOM     68  C   UNL     1       3.083  -0.721  -4.285  1.00  0.00     0.009 A 
ATOM     69  C   UNL     1       3.874  -3.037  -2.951  1.00  0.00     0.001 A 
ATOM     70  C   UNL     1       2.167  -1.753  -4.076  1.00  0.00     0.001 A 
ATOM     71  C   UNL     1       2.566  -2.914  -3.417  1.00  0.00     0.000 A 
ENDBRANCH  47  66
BRANCH  59  72
ATOM     72  C   UNL     1      10.070  -0.178  -7.804  1.00  0.00    -0.014 A 
ATOM     73  C   UNL     1       9.526  -0.475  -9.063  1.00  0.00     0.009 A 
ATOM     74  C   UNL     1      11.300  -0.747  -7.441  1.00  0.00     0.009 A 
ATOM     75  C   UNL     1      10.187  -1.350  -9.928  1.00  0.00     0.001 A 
ATOM     76  C   UNL     1      11.971  -1.600  -8.317  1.00  0.00     0.001 A 
ATOM     77  C   UNL     1      11.411  -1.907  -9.556  1.00  0.00     0.000 A 
ENDBRANCH  59  72
ENDBRANCH  33  34
ENDBRANCH  26  28
ENDBRANCH  25  26
ENDBRANCH  24  25
ENDBRANCH   1  24
TORSDOF 14
