REMARK SMILES [NH3+]Cc1c(-c2ccccc2)c(C(=O)OCCOC(=O)c2ccc(-c3c4nc(c(-c5ccccc5)c5ccc([nH]5)c(-c5ccccc5)c5nc(c(-c6ccccc6)c6ccc3[nH]6)C=C5)C=C4)cc2)c2ccccn12
REMARK SMILES IDX 15 1 14 2 12 3 13 4 11 5 3 6 4 7 73 8 68 9 72 10 69 11 71 12
REMARK SMILES IDX 70 13 2 14 1 15 5 19 6 20 10 21 7 22 9 23 8 24 16 25 17 26
REMARK SMILES IDX 18 27 19 28 20 29 21 30 67 31 22 32 66 33 23 34 24 35 25 36
REMARK SMILES IDX 60 37 26 38 65 39 59 40 61 41 27 42 64 43 58 44 57 45 28 47
REMARK SMILES IDX 50 48 35 49 49 50 36 51 39 52 48 53 62 54 37 55 38 56 47 58
REMARK SMILES IDX 63 59 40 60 29 61 30 62 34 63 31 64 33 65 32 66 51 67 52 68
REMARK SMILES IDX 56 69 53 70 55 71 54 72 41 73 42 74 46 75 43 76 45 77 44 78
REMARK H PARENT 1 16 1 17 1 18 61 46 39 57
REMARK Flexibility Score: inf
ROOT
ATOM      1  C   UNL     1       3.068  -2.034   7.645  1.00  0.00     0.275 C 
ENDROOT
BRANCH   1   2
ATOM      2  O   UNL     1       2.166  -1.580   6.614  1.00  0.00    -0.458 OA
BRANCH   2   3
ATOM      3  C   UNL     1       2.528  -1.860   5.322  1.00  0.00     0.341 C 
ATOM      4  O   UNL     1       3.613  -2.336   5.013  1.00  0.00    -0.246 OA
BRANCH   3   5
ATOM      5  C   UNL     1       1.559  -1.382   4.338  1.00  0.00     0.093 A 
ATOM      6  C   UNL     1       0.448  -0.990   2.386  1.00  0.00     0.086 A 
ATOM      7  C   UNL     1       0.874  -2.034   3.219  1.00  0.00     0.024 A 
ATOM      8  N   UNL     1       0.652   0.225   3.049  1.00  0.00    -0.314 N 
ATOM      9  C   UNL     1       1.329  -0.023   4.231  1.00  0.00     0.061 A 
ATOM     10  C   UNL     1       0.394   1.540   2.623  1.00  0.00     0.092 A 
ATOM     11  C   UNL     1       1.784   1.094   5.003  1.00  0.00     0.027 A 
ATOM     12  C   UNL     1       0.841   2.587   3.340  1.00  0.00     0.018 A 
ATOM     13  C   UNL     1       1.565   2.345   4.569  1.00  0.00     0.004 A 
BRANCH   6  14
ATOM     14  C   UNL     1      -0.062  -1.035   0.982  1.00  0.00     0.315 C 
BRANCH  14  15
ATOM     15  N   UNL     1       0.914  -0.477   0.051  1.00  0.00    -0.353 N 
ATOM     16  H   UNL     1       0.542  -0.520  -0.898  1.00  0.00     0.344 HD
ATOM     17  H   UNL     1       1.779  -1.015   0.101  1.00  0.00     0.344 HD
ATOM     18  H   UNL     1       1.104   0.495   0.298  1.00  0.00     0.344 HD
ENDBRANCH  14  15
ENDBRANCH   6  14
BRANCH   7  19
ATOM     19  C   UNL     1       1.048  -3.454   2.749  1.00  0.00    -0.015 A 
ATOM     20  C   UNL     1       0.267  -4.860   3.595  1.00  0.00     0.009 A 
ATOM     21  C   UNL     1       2.670  -3.684   2.108  1.00  0.00     0.009 A 
ATOM     22  C   UNL     1       1.386  -6.531   3.883  1.00  0.00     0.001 A 
ATOM     23  C   UNL     1       3.632  -5.144   2.333  1.00  0.00     0.001 A 
ATOM     24  C   UNL     1       3.071  -6.539   3.223  1.00  0.00     0.000 A 
ENDBRANCH   7  19
ENDBRANCH   3   5
ENDBRANCH   2   3
ENDBRANCH   1   2
BRANCH   1  25
ATOM     25  C   UNL     1       2.545  -3.321   8.276  1.00  0.00     0.275 C 
BRANCH  25  26
ATOM     26  O   UNL     1       2.438  -4.321   7.252  1.00  0.00    -0.458 OA
BRANCH  26  27
ATOM     27  C   UNL     1       1.214  -4.347   6.697  1.00  0.00     0.338 C 
ATOM     28  O   UNL     1       0.205  -3.769   7.073  1.00  0.00    -0.246 OA
BRANCH  27  29
ATOM     29  C   UNL     1       1.176  -5.168   5.506  1.00  0.00     0.060 A 
ATOM     30  C   UNL     1       2.106  -4.812   3.999  1.00  0.00     0.016 A 
ATOM     31  C   UNL     1      -0.262  -6.164   5.392  1.00  0.00     0.016 A 
ATOM     32  C   UNL     1       1.393  -5.578   2.258  1.00  0.00     0.010 A 
ATOM     33  C   UNL     1      -0.846  -6.861   3.886  1.00  0.00     0.010 A 
ATOM     34  C   UNL     1      -0.082  -6.633   2.321  1.00  0.00    -0.014 A 
BRANCH  34  35
ATOM     35  C   UNL     1      -0.458  -7.671   1.272  1.00  0.00     0.031 A 
ATOM     36  C   UNL     1      -1.892  -7.929   0.868  1.00  0.00     0.074 A 
ATOM     37  C   UNL     1       0.434  -8.618   0.897  1.00  0.00     0.049 A 
ATOM     38  N   UNL     1      -2.380  -8.912   0.145  1.00  0.00    -0.248 NA
ATOM     39  C   UNL     1      -2.918  -7.033   1.417  1.00  0.00     0.031 C 
ATOM     40  C   UNL     1       1.752  -8.765   1.471  1.00  0.00     0.029 A 
ATOM     41  N   UNL     1       0.395  -9.664  -0.000  1.00  0.00    -0.354 N 
ATOM     42  C   UNL     1      -3.763  -8.793   0.204  1.00  0.00     0.074 A 
ATOM     43  C   UNL     1      -4.038  -7.644   1.044  1.00  0.00     0.031 C 
ATOM     44  C   UNL     1       2.477  -9.669   0.816  1.00  0.00     0.029 A 
ATOM     45  C   UNL     1       1.608 -10.312  -0.146  1.00  0.00     0.049 A 
ATOM     46  H   UNL     1      -0.418  -9.924  -0.490  1.00  0.00     0.167 HD
ATOM     47  C   UNL     1      -4.713  -9.577  -0.370  1.00  0.00     0.031 A 
ATOM     48  C   UNL     1       2.003 -11.348  -0.909  1.00  0.00     0.031 A 
ATOM     49  C   UNL     1      -4.436 -10.725  -1.203  1.00  0.00     0.049 A 
ATOM     50  C   UNL     1       0.964 -12.079  -1.686  1.00  0.00     0.074 A 
ATOM     51  C   UNL     1      -5.332 -11.526  -1.895  1.00  0.00     0.029 A 
ATOM     52  N   UNL     1      -3.172 -11.239  -1.458  1.00  0.00    -0.354 N 
ATOM     53  N   UNL     1      -0.330 -11.879  -1.691  1.00  0.00    -0.248 NA
ATOM     54  C   UNL     1       1.416 -13.198  -2.519  1.00  0.00     0.031 C 
ATOM     55  C   UNL     1      -4.614 -12.536  -2.545  1.00  0.00     0.029 A 
ATOM     56  C   UNL     1      -3.266 -12.338  -2.300  1.00  0.00     0.049 A 
ATOM     57  H   UNL     1      -2.332 -10.877  -1.094  1.00  0.00     0.167 HD
ATOM     58  C   UNL     1      -0.852 -12.854  -2.519  1.00  0.00     0.074 A 
ATOM     59  C   UNL     1       0.267 -13.622  -3.029  1.00  0.00     0.031 C 
ATOM     60  C   UNL     1      -2.151 -13.095  -2.808  1.00  0.00     0.031 A 
BRANCH  47  61
ATOM     61  C   UNL     1      -6.157  -9.221  -0.116  1.00  0.00    -0.014 A 
ATOM     62  C   UNL     1      -6.721  -8.049  -0.647  1.00  0.00     0.009 A 
ATOM     63  C   UNL     1      -6.979 -10.086   0.625  1.00  0.00     0.009 A 
ATOM     64  C   UNL     1      -8.057  -7.726  -0.397  1.00  0.00     0.001 A 
ATOM     65  C   UNL     1      -8.324  -9.776   0.848  1.00  0.00     0.001 A 
ATOM     66  C   UNL     1      -8.858  -8.589   0.348  1.00  0.00     0.000 A 
ENDBRANCH  47  61
BRANCH  48  67
ATOM     67  C   UNL     1       3.440 -11.734  -0.974  1.00  0.00    -0.014 A 
ATOM     68  C   UNL     1       4.180 -11.438  -2.131  1.00  0.00     0.009 A 
ATOM     69  C   UNL     1       4.100 -12.331   0.112  1.00  0.00     0.009 A 
ATOM     70  C   UNL     1       5.544 -11.735  -2.201  1.00  0.00     0.001 A 
ATOM     71  C   UNL     1       5.473 -12.591   0.053  1.00  0.00     0.001 A 
ATOM     72  C   UNL     1       6.191 -12.300  -1.105  1.00  0.00     0.000 A 
ENDBRANCH  48  67
BRANCH  60  73
ATOM     73  C   UNL     1      -2.426 -14.220  -3.757  1.00  0.00    -0.014 A 
ATOM     74  C   UNL     1      -2.344 -15.558  -3.344  1.00  0.00     0.009 A 
ATOM     75  C   UNL     1      -2.794 -13.930  -5.079  1.00  0.00     0.009 A 
ATOM     76  C   UNL     1      -2.607 -16.588  -4.247  1.00  0.00     0.001 A 
ATOM     77  C   UNL     1      -3.076 -14.961  -5.973  1.00  0.00     0.001 A 
ATOM     78  C   UNL     1      -2.978 -16.289  -5.558  1.00  0.00     0.000 A 
ENDBRANCH  60  73
ENDBRANCH  34  35
ENDBRANCH  27  29
ENDBRANCH  26  27
ENDBRANCH  25  26
ENDBRANCH   1  25
TORSDOF 14
