REMARK SMILES Cc1sc2[nH]c(SCC(=O)OCCOC(=O)c3ccc(-c4c5nc(c(-c6ccccc6)c6ccc([nH]6)c(-c6ccccc6)c6nc(c(-c7ccccc7)c7ccc4[nH]7)C=C6)C=C5)cc3)nc(=O)c2c1C
REMARK SMILES IDX 12 1 11 2 9 3 10 4 8 5 7 6 6 7 1 8 2 9 3 10 69 11 4 12 68 13
REMARK SMILES IDX 70 14 5 15 66 16 65 18 67 19 13 20 14 21 15 22 16 23 17 24
REMARK SMILES IDX 18 25 64 26 19 27 63 28 20 29 21 30 22 31 57 32 23 33 62 34
REMARK SMILES IDX 56 35 58 36 24 37 61 38 55 39 54 40 25 42 47 43 32 44 46 45
REMARK SMILES IDX 33 46 36 47 45 48 59 49 34 50 35 51 44 53 60 54 37 55 26 56
REMARK SMILES IDX 27 57 31 58 28 59 30 60 29 61 48 62 49 63 53 64 50 65 52 66
REMARK SMILES IDX 51 67 38 68 39 69 43 70 40 71 42 72 41 73
REMARK H PARENT 5 17 58 41 36 52
REMARK Flexibility Score: inf
ROOT
ATOM      1  C   UNL     1       0.957  -0.517  -9.329  1.00  0.00     0.274 C 
ENDROOT
BRANCH   1   2
ATOM      2  O   UNL     1       0.335   0.446  -8.444  1.00  0.00    -0.461 OA
BRANCH   2   3
ATOM      3  C   UNL     1      -0.982   0.683  -8.673  1.00  0.00     0.316 C 
ATOM      4  O   UNL     1      -1.613   0.160  -9.593  1.00  0.00    -0.251 OA
BRANCH   3   5
ATOM      5  C   UNL     1      -1.683   1.614  -7.706  1.00  0.00     0.200 C 
BRANCH   5   6
ATOM      6  S   UNL     1      -0.676   2.602  -6.582  1.00  0.00    -0.076 SA
BRANCH   6   7
ATOM      7  C   UNL     1      -0.650   1.648  -5.109  1.00  0.00     0.170 A 
ATOM      8  C   UNL     1       1.353   0.351   0.594  1.00  0.00     0.057 C 
ATOM      9  C   UNL     1       0.830   0.556  -0.789  1.00  0.00     0.007 A 
ATOM     10  S   UNL     1       0.893   2.125  -1.497  1.00  0.00    -0.122 S 
ATOM     11  C   UNL     1       0.300  -0.386  -1.658  1.00  0.00    -0.022 A 
ATOM     12  C   UNL     1       0.172   1.577  -2.922  1.00  0.00     0.108 A 
ATOM     13  C   UNL     1      -0.184   0.258  -2.853  1.00  0.00     0.080 A 
ATOM     14  C   UNL     1       0.236  -1.867  -1.428  1.00  0.00     0.046 C 
ATOM     15  N   UNL     1      -0.055   2.277  -4.048  1.00  0.00    -0.326 N 
ATOM     16  C   UNL     1      -0.935  -0.329  -3.956  1.00  0.00     0.282 A 
ATOM     17  H   UNL     1       0.202   3.226  -4.108  1.00  0.00     0.169 HD
ATOM     18  N   UNL     1      -1.139   0.454  -5.088  1.00  0.00    -0.185 NA
ATOM     19  O   UNL     1      -1.367  -1.461  -3.836  1.00  0.00    -0.267 OA
ENDBRANCH   6   7
ENDBRANCH   5   6
ENDBRANCH   3   5
ENDBRANCH   2   3
ENDBRANCH   1   2
BRANCH   1  20
ATOM     20  C   UNL     1       0.908  -1.949  -8.782  1.00  0.00     0.275 C 
BRANCH  20  21
ATOM     21  O   UNL     1      -0.444  -2.347  -8.461  1.00  0.00    -0.458 OA
BRANCH  21  22
ATOM     22  C   UNL     1      -0.733  -2.098  -7.164  1.00  0.00     0.338 C 
ATOM     23  O   UNL     1       0.076  -1.664  -6.353  1.00  0.00    -0.246 OA
BRANCH  22  24
ATOM     24  C   UNL     1      -2.107  -2.450  -6.746  1.00  0.00     0.060 A 
ATOM     25  C   UNL     1      -3.238  -1.686  -7.068  1.00  0.00     0.016 A 
ATOM     26  C   UNL     1      -2.166  -3.332  -5.677  1.00  0.00     0.016 A 
ATOM     27  C   UNL     1      -4.380  -1.714  -6.231  1.00  0.00     0.010 A 
ATOM     28  C   UNL     1      -3.283  -3.332  -4.844  1.00  0.00     0.010 A 
ATOM     29  C   UNL     1      -4.401  -2.508  -5.075  1.00  0.00    -0.014 A 
BRANCH  29  30
ATOM     30  C   UNL     1      -5.606  -2.636  -4.193  1.00  0.00     0.031 A 
ATOM     31  C   UNL     1      -5.676  -3.949  -3.470  1.00  0.00     0.074 A 
ATOM     32  C   UNL     1      -6.327  -1.664  -3.584  1.00  0.00     0.049 A 
ATOM     33  N   UNL     1      -5.087  -4.154  -2.324  1.00  0.00    -0.248 NA
ATOM     34  C   UNL     1      -6.108  -5.168  -4.149  1.00  0.00     0.031 C 
ATOM     35  C   UNL     1      -5.805  -0.362  -3.158  1.00  0.00     0.029 A 
ATOM     36  N   UNL     1      -7.574  -1.738  -2.981  1.00  0.00    -0.354 N 
ATOM     37  C   UNL     1      -4.948  -5.522  -2.190  1.00  0.00     0.074 A 
ATOM     38  C   UNL     1      -5.641  -6.111  -3.318  1.00  0.00     0.031 C 
ATOM     39  C   UNL     1      -6.639   0.151  -2.223  1.00  0.00     0.029 A 
ATOM     40  C   UNL     1      -7.832  -0.689  -2.103  1.00  0.00     0.049 A 
ATOM     41  H   UNL     1      -8.216  -2.464  -3.158  1.00  0.00     0.167 HD
ATOM     42  C   UNL     1      -4.206  -6.113  -1.217  1.00  0.00     0.031 A 
ATOM     43  C   UNL     1      -8.641  -0.745  -1.006  1.00  0.00     0.031 A 
ATOM     44  C   UNL     1      -3.539  -5.248  -0.294  1.00  0.00     0.049 A 
ATOM     45  C   UNL     1      -7.825  -1.595  -0.067  1.00  0.00     0.074 A 
ATOM     46  C   UNL     1      -2.288  -4.685  -0.149  1.00  0.00     0.029 A 
ATOM     47  N   UNL     1      -4.262  -4.744   0.759  1.00  0.00    -0.354 N 
ATOM     48  N   UNL     1      -6.826  -1.222   0.682  1.00  0.00    -0.248 NA
ATOM     49  C   UNL     1      -7.990  -3.045  -0.198  1.00  0.00     0.031 C 
ATOM     50  C   UNL     1      -2.477  -3.537   0.685  1.00  0.00     0.029 A 
ATOM     51  C   UNL     1      -3.843  -3.452   0.940  1.00  0.00     0.049 A 
ATOM     52  H   UNL     1      -4.948  -5.219   1.282  1.00  0.00     0.167 HD
ATOM     53  C   UNL     1      -6.058  -2.373   0.859  1.00  0.00     0.074 A 
ATOM     54  C   UNL     1      -6.855  -3.466   0.338  1.00  0.00     0.031 C 
ATOM     55  C   UNL     1      -4.745  -2.361   1.225  1.00  0.00     0.031 A 
BRANCH  42  56
ATOM     56  C   UNL     1      -4.165  -7.572  -1.023  1.00  0.00    -0.014 A 
ATOM     57  C   UNL     1      -5.131  -8.153  -0.191  1.00  0.00     0.009 A 
ATOM     58  C   UNL     1      -3.107  -8.350  -1.504  1.00  0.00     0.009 A 
ATOM     59  C   UNL     1      -5.026  -9.489   0.185  1.00  0.00     0.001 A 
ATOM     60  C   UNL     1      -3.010  -9.694  -1.133  1.00  0.00     0.001 A 
ATOM     61  C   UNL     1      -3.961 -10.258  -0.281  1.00  0.00     0.000 A 
ENDBRANCH  42  56
BRANCH  43  62
ATOM     62  C   UNL     1     -10.107  -1.034  -1.195  1.00  0.00    -0.014 A 
ATOM     63  C   UNL     1     -10.806  -0.391  -2.233  1.00  0.00     0.009 A 
ATOM     64  C   UNL     1     -10.858  -1.875  -0.351  1.00  0.00     0.009 A 
ATOM     65  C   UNL     1     -12.159  -0.656  -2.481  1.00  0.00     0.001 A 
ATOM     66  C   UNL     1     -12.202  -2.170  -0.618  1.00  0.00     0.001 A 
ATOM     67  C   UNL     1     -12.850  -1.570  -1.692  1.00  0.00     0.000 A 
ENDBRANCH  43  62
BRANCH  55  68
ATOM     68  C   UNL     1      -4.179  -1.056   1.672  1.00  0.00    -0.014 A 
ATOM     69  C   UNL     1      -4.403  -0.616   2.982  1.00  0.00     0.009 A 
ATOM     70  C   UNL     1      -3.343  -0.304   0.830  1.00  0.00     0.009 A 
ATOM     71  C   UNL     1      -3.771   0.534   3.456  1.00  0.00     0.001 A 
ATOM     72  C   UNL     1      -2.705   0.842   1.309  1.00  0.00     0.001 A 
ATOM     73  C   UNL     1      -2.912   1.254   2.624  1.00  0.00     0.000 A 
ENDBRANCH  55  68
ENDBRANCH  29  30
ENDBRANCH  22  24
ENDBRANCH  21  22
ENDBRANCH  20  21
ENDBRANCH   1  20
TORSDOF 13
