REMARK SMILES COc1cccc(NC(=O)c2nccnc2C(=O)OCCOC(=O)c2ccc(-c3c4nc(c(-c5ccccc5)c5ccc([nH]5)c(-c5ccccc5)c5nc(c(-c6ccccc6)c6ccc3[nH]6)C=C5)C=C4)cc2)c1
REMARK SMILES IDX 20 1 19 2 17 3 18 4 16 5 11 6 12 7 13 8 15 9 14 10 9 11 8 12
REMARK SMILES IDX 10 14 7 15 3 16 4 17 73 18 5 19 6 20 2 21 1 22 21 23 22 24
REMARK SMILES IDX 23 25 24 26 25 27 26 28 72 29 27 30 71 31 28 32 29 33 30 34
REMARK SMILES IDX 65 35 31 36 70 37 64 38 66 39 32 40 69 41 63 42 62 43 33 45
REMARK SMILES IDX 55 46 40 47 54 48 41 49 44 50 53 51 67 52 42 53 43 54 52 56
REMARK SMILES IDX 68 57 45 58 34 59 35 60 39 61 36 62 38 63 37 64 56 65 57 66
REMARK SMILES IDX 61 67 58 68 60 69 59 70 46 71 47 72 51 73 48 74 50 75 49 76
REMARK H PARENT 8 13 66 44 44 55
REMARK Flexibility Score: inf
ROOT
ATOM      1  C   UNL     1       7.256   7.048  -0.227  1.00  0.00     0.275 C 
ENDROOT
BRANCH   1   2
ATOM      2  O   UNL     1       5.977   6.891   0.419  1.00  0.00    -0.457 OA
BRANCH   2   3
ATOM      3  C   UNL     1       5.642   7.842   1.325  1.00  0.00     0.359 C 
ATOM      4  O   UNL     1       6.302   8.841   1.576  1.00  0.00    -0.244 OA
BRANCH   3   5
ATOM      5  C   UNL     1       4.290   7.613   1.908  1.00  0.00     0.179 A 
ATOM      6  C   UNL     1       3.732   6.372   2.172  1.00  0.00     0.161 A 
ATOM      7  N   UNL     1       2.498   6.244   2.763  1.00  0.00    -0.247 NA
ATOM      8  C   UNL     1       1.829   7.389   3.012  1.00  0.00     0.132 A 
ATOM      9  N   UNL     1       3.596   8.768   2.183  1.00  0.00    -0.245 NA
ATOM     10  C   UNL     1       2.364   8.627   2.720  1.00  0.00     0.132 A 
BRANCH   6  11
ATOM     11  C   UNL     1       4.450   5.102   1.933  1.00  0.00     0.276 C 
ATOM     12  N   UNL     1       3.829   4.004   1.366  1.00  0.00    -0.320 N 
ATOM     13  H   UNL     1       4.367   3.180   1.412  1.00  0.00     0.170 HD
ATOM     14  O   UNL     1       5.605   4.989   2.349  1.00  0.00    -0.267 OA
BRANCH  12  15
ATOM     15  C   UNL     1       2.579   3.829   0.735  1.00  0.00     0.045 A 
ATOM     16  C   UNL     1       0.874   2.229   0.034  1.00  0.00     0.120 A 
ATOM     17  C   UNL     1       0.065   3.284  -0.383  1.00  0.00     0.046 A 
ATOM     18  C   UNL     1       2.128   2.505   0.589  1.00  0.00     0.072 A 
ATOM     19  C   UNL     1       0.520   4.596  -0.293  1.00  0.00     0.006 A 
ATOM     20  C   UNL     1       1.784   4.863   0.239  1.00  0.00     0.026 A 
BRANCH  16  21
ATOM     21  O   UNL     1       0.326   0.989  -0.145  1.00  0.00    -0.497 OA
ATOM     22  C   UNL     1       1.128  -0.130   0.210  1.00  0.00     0.278 C 
ENDBRANCH  16  21
ENDBRANCH  12  15
ENDBRANCH   6  11
ENDBRANCH   3   5
ENDBRANCH   2   3
ENDBRANCH   1   2
BRANCH   1  23
ATOM     23  C   UNL     1       7.090   7.331  -1.722  1.00  0.00     0.275 C 
BRANCH  23  24
ATOM     24  O   UNL     1       6.467   8.608  -1.959  1.00  0.00    -0.458 OA
BRANCH  24  25
ATOM     25  C   UNL     1       5.114   8.582  -1.971  1.00  0.00     0.338 C 
ATOM     26  O   UNL     1       4.387   7.610  -1.849  1.00  0.00    -0.246 OA
BRANCH  25  27
ATOM     27  C   UNL     1       4.588   9.955  -2.012  1.00  0.00     0.060 A 
ATOM     28  C   UNL     1       3.738  10.341  -0.974  1.00  0.00     0.016 A 
ATOM     29  C   UNL     1       4.841  10.819  -3.078  1.00  0.00     0.016 A 
ATOM     30  C   UNL     1       3.120  11.585  -1.000  1.00  0.00     0.010 A 
ATOM     31  C   UNL     1       4.222  12.076  -3.102  1.00  0.00     0.010 A 
ATOM     32  C   UNL     1       3.347  12.460  -2.070  1.00  0.00    -0.014 A 
BRANCH  32  33
ATOM     33  C   UNL     1       2.621  13.752  -2.113  1.00  0.00     0.031 A 
ATOM     34  C   UNL     1       1.493  13.951  -3.084  1.00  0.00     0.074 A 
ATOM     35  C   UNL     1       2.942  14.729  -1.243  1.00  0.00     0.049 A 
ATOM     36  N   UNL     1       0.766  15.018  -3.299  1.00  0.00    -0.248 NA
ATOM     37  C   UNL     1       1.131  12.797  -3.924  1.00  0.00     0.031 C 
ATOM     38  C   UNL     1       3.981  14.640  -0.216  1.00  0.00     0.029 A 
ATOM     39  N   UNL     1       2.416  15.986  -1.081  1.00  0.00    -0.354 N 
ATOM     40  C   UNL     1      -0.119  14.675  -4.313  1.00  0.00     0.074 A 
ATOM     41  C   UNL     1       0.165  13.304  -4.677  1.00  0.00     0.031 C 
ATOM     42  C   UNL     1       4.008  15.789   0.478  1.00  0.00     0.029 A 
ATOM     43  C   UNL     1       3.026  16.710  -0.086  1.00  0.00     0.049 A 
ATOM     44  H   UNL     1       1.674  16.335  -1.625  1.00  0.00     0.167 HD
ATOM     45  C   UNL     1      -1.081  15.436  -4.888  1.00  0.00     0.031 A 
ATOM     46  C   UNL     1       2.834  17.983   0.310  1.00  0.00     0.031 A 
ATOM     47  C   UNL     1      -1.373  16.795  -4.519  1.00  0.00     0.049 A 
ATOM     48  C   UNL     1       1.796  18.820  -0.383  1.00  0.00     0.074 A 
ATOM     49  C   UNL     1      -2.336  17.642  -5.040  1.00  0.00     0.029 A 
ATOM     50  N   UNL     1      -0.705  17.505  -3.534  1.00  0.00    -0.354 N 
ATOM     51  N   UNL     1       0.971  18.485  -1.344  1.00  0.00    -0.248 NA
ATOM     52  C   UNL     1       1.667  20.215   0.064  1.00  0.00     0.031 C 
ATOM     53  C   UNL     1      -2.223  18.880  -4.398  1.00  0.00     0.029 A 
ATOM     54  C   UNL     1      -1.221  18.787  -3.446  1.00  0.00     0.049 A 
ATOM     55  H   UNL     1       0.027  17.151  -2.979  1.00  0.00     0.167 HD
ATOM     56  C   UNL     1       0.215  19.619  -1.607  1.00  0.00     0.074 A 
ATOM     57  C   UNL     1       0.665  20.646  -0.690  1.00  0.00     0.031 C 
ATOM     58  C   UNL     1      -0.762  19.796  -2.528  1.00  0.00     0.031 A 
BRANCH  45  59
ATOM     59  C   UNL     1      -1.867  14.825  -6.012  1.00  0.00    -0.014 A 
ATOM     60  C   UNL     1      -2.867  13.870  -5.771  1.00  0.00     0.009 A 
ATOM     61  C   UNL     1      -1.633  15.249  -7.330  1.00  0.00     0.009 A 
ATOM     62  C   UNL     1      -3.600  13.335  -6.833  1.00  0.00     0.001 A 
ATOM     63  C   UNL     1      -2.383  14.729  -8.386  1.00  0.00     0.001 A 
ATOM     64  C   UNL     1      -3.361  13.767  -8.137  1.00  0.00     0.000 A 
ENDBRANCH  45  59
BRANCH  46  65
ATOM     65  C   UNL     1       3.672  18.559   1.393  1.00  0.00    -0.014 A 
ATOM     66  C   UNL     1       3.118  18.869   2.643  1.00  0.00     0.009 A 
ATOM     67  C   UNL     1       5.034  18.817   1.171  1.00  0.00     0.009 A 
ATOM     68  C   UNL     1       3.906  19.446   3.642  1.00  0.00     0.001 A 
ATOM     69  C   UNL     1       5.826  19.368   2.180  1.00  0.00     0.001 A 
ATOM     70  C   UNL     1       5.259  19.691   3.411  1.00  0.00     0.000 A 
ENDBRANCH  46  65
BRANCH  58  71
ATOM     71  C   UNL     1      -1.429  21.140  -2.568  1.00  0.00    -0.014 A 
ATOM     72  C   UNL     1      -0.780  22.256  -3.118  1.00  0.00     0.009 A 
ATOM     73  C   UNL     1      -2.738  21.283  -2.080  1.00  0.00     0.009 A 
ATOM     74  C   UNL     1      -1.419  23.497  -3.150  1.00  0.00     0.001 A 
ATOM     75  C   UNL     1      -3.382  22.519  -2.136  1.00  0.00     0.001 A 
ATOM     76  C   UNL     1      -2.719  23.627  -2.664  1.00  0.00     0.000 A 
ENDBRANCH  58  71
ENDBRANCH  32  33
ENDBRANCH  25  27
ENDBRANCH  24  25
ENDBRANCH  23  24
ENDBRANCH   1  23
TORSDOF 14
