REMARK SMILES CC[NH2+][C@@]1(C(=O)OCCOC(=O)c2ccc(-c3c4nc(c(-c5ccccc5)c5ccc([nH]5)c(-c5ccccc5)c5nc(c(-c6ccccc6)c6ccc3[nH]6)C=C5)C=C4)cc2)CC[C@@H]([NH+]2CCC(C)(CC)CC2)C1
REMARK SMILES IDX 8 1 7 2 5 3 6 4 4 5 61 6 73 7 62 8 63 9 3 10 2 13 1 14 64 15
REMARK SMILES IDX 65 16 72 17 66 19 71 20 67 21 68 22 69 23 70 24 9 25 10 26
REMARK SMILES IDX 11 27 12 28 13 29 14 30 60 31 15 32 59 33 16 34 17 35 18 36
REMARK SMILES IDX 53 37 19 38 58 39 52 40 54 41 20 42 57 43 51 44 50 45 21 47
REMARK SMILES IDX 43 48 28 49 42 50 29 51 32 52 41 53 55 54 30 55 31 56 40 58
REMARK SMILES IDX 56 59 33 60 22 61 23 62 27 63 24 64 26 65 25 66 44 67 45 68
REMARK SMILES IDX 49 69 46 70 48 71 47 72 34 73 35 74 39 75 36 76 38 77 37 78
REMARK H PARENT 3 11 3 12 64 18 54 46 32 57
REMARK Flexibility Score: inf
ROOT
ATOM      1  C   UNL     1      -3.450  -1.929  -3.688  1.00  0.00     0.274 C 
ENDROOT
BRANCH   1   2
ATOM      2  O   UNL     1      -2.039  -2.199  -3.721  1.00  0.00    -0.457 OA
BRANCH   2   3
ATOM      3  C   UNL     1      -1.193  -1.135  -3.660  1.00  0.00     0.368 C 
ATOM      4  O   UNL     1      -1.540   0.026  -3.846  1.00  0.00    -0.245 OA
BRANCH   3   5
ATOM      5  C   UNL     1       0.263  -1.577  -3.328  1.00  0.00     0.200 C 
ATOM      6  C   UNL     1       1.211  -1.303  -4.501  1.00  0.00     0.087 C 
ATOM      7  C   UNL     1       0.394  -3.100  -3.137  1.00  0.00     0.146 C 
ATOM      8  C   UNL     1       1.053  -2.513  -5.415  1.00  0.00     0.072 C 
ATOM      9  C   UNL     1       0.770  -3.712  -4.489  1.00  0.00     0.191 C 
BRANCH   5  10
ATOM     10  N   UNL     1       0.743  -0.968  -2.054  1.00  0.00    -0.332 N 
ATOM     11  H   UNL     1       0.167  -1.337  -1.298  1.00  0.00     0.347 HD
ATOM     12  H   UNL     1       1.731  -1.212  -1.994  1.00  0.00     0.347 HD
BRANCH  10  13
ATOM     13  C   UNL     1       0.701   0.489  -1.971  1.00  0.00     0.257 C 
ATOM     14  C   UNL     1       1.522   0.926  -0.762  1.00  0.00     0.071 C 
ENDBRANCH  10  13
ENDBRANCH   5  10
BRANCH   9  15
ATOM     15  N   UNL     1       1.813  -4.748  -4.472  1.00  0.00    -0.332 N 
ATOM     16  C   UNL     1       1.423  -5.999  -3.820  1.00  0.00     0.263 C 
ATOM     17  C   UNL     1       3.178  -4.383  -4.102  1.00  0.00     0.263 C 
ATOM     18  H   UNL     1       1.874  -4.895  -5.479  1.00  0.00     0.348 HD
ATOM     19  C   UNL     1       1.543  -6.001  -2.293  1.00  0.00     0.068 C 
ATOM     20  C   UNL     1       3.489  -4.318  -2.602  1.00  0.00     0.068 C 
ATOM     21  C   UNL     1       2.873  -5.441  -1.720  1.00  0.00    -0.022 C 
ATOM     22  C   UNL     1       2.567  -4.832  -0.323  1.00  0.00     0.012 C 
BRANCH  21  23
ATOM     23  C   UNL     1       3.899  -6.577  -1.436  1.00  0.00     0.004 C 
ATOM     24  C   UNL     1       4.392  -7.381  -2.624  1.00  0.00     0.004 C 
ENDBRANCH  21  23
ENDBRANCH   9  15
ENDBRANCH   3   5
ENDBRANCH   2   3
ENDBRANCH   1   2
BRANCH   1  25
ATOM     25  C   UNL     1      -4.072  -2.763  -2.566  1.00  0.00     0.275 C 
BRANCH  25  26
ATOM     26  O   UNL     1      -3.548  -2.343  -1.287  1.00  0.00    -0.458 OA
BRANCH  26  27
ATOM     27  C   UNL     1      -2.689  -3.209  -0.697  1.00  0.00     0.338 C 
ATOM     28  O   UNL     1      -2.381  -4.324  -1.083  1.00  0.00    -0.246 OA
BRANCH  27  29
ATOM     29  C   UNL     1      -2.053  -2.575   0.473  1.00  0.00     0.060 A 
ATOM     30  C   UNL     1      -0.658  -2.566   0.521  1.00  0.00     0.016 A 
ATOM     31  C   UNL     1      -2.793  -2.071   1.544  1.00  0.00     0.016 A 
ATOM     32  C   UNL     1       0.011  -2.053   1.631  1.00  0.00     0.010 A 
ATOM     33  C   UNL     1      -2.123  -1.573   2.672  1.00  0.00     0.010 A 
ATOM     34  C   UNL     1      -0.718  -1.572   2.724  1.00  0.00    -0.014 A 
BRANCH  34  35
ATOM     35  C   UNL     1       0.009  -1.149   3.943  1.00  0.00     0.031 A 
ATOM     36  C   UNL     1       0.308  -2.156   5.016  1.00  0.00     0.074 A 
ATOM     37  C   UNL     1       0.454   0.114   4.067  1.00  0.00     0.049 A 
ATOM     38  N   UNL     1       0.958  -1.997   6.141  1.00  0.00    -0.248 NA
ATOM     39  C   UNL     1      -0.181  -3.523   4.784  1.00  0.00     0.031 C 
ATOM     40  C   UNL     1       0.279   1.172   3.075  1.00  0.00     0.029 A 
ATOM     41  N   UNL     1       1.155   0.714   5.083  1.00  0.00    -0.354 N 
ATOM     42  C   UNL     1       0.964  -3.245   6.750  1.00  0.00     0.074 A 
ATOM     43  C   UNL     1       0.236  -4.145   5.878  1.00  0.00     0.031 C 
ATOM     44  C   UNL     1       0.863   2.295   3.529  1.00  0.00     0.029 A 
ATOM     45  C   UNL     1       1.422   2.042   4.855  1.00  0.00     0.049 A 
ATOM     46  H   UNL     1       1.440   0.239   5.896  1.00  0.00     0.167 HD
ATOM     47  C   UNL     1       1.521  -3.611   7.929  1.00  0.00     0.031 A 
ATOM     48  C   UNL     1       2.033   2.953   5.636  1.00  0.00     0.031 A 
ATOM     49  C   UNL     1       2.203  -2.715   8.823  1.00  0.00     0.049 A 
ATOM     50  C   UNL     1       2.561   2.543   6.984  1.00  0.00     0.074 A 
ATOM     51  C   UNL     1       2.766  -2.989  10.058  1.00  0.00     0.029 A 
ATOM     52  N   UNL     1       2.402  -1.364   8.584  1.00  0.00    -0.354 N 
ATOM     53  N   UNL     1       2.564   1.359   7.546  1.00  0.00    -0.248 NA
ATOM     54  C   UNL     1       3.171   3.601   7.805  1.00  0.00     0.031 C 
ATOM     55  C   UNL     1       3.266  -1.793  10.586  1.00  0.00     0.029 A 
ATOM     56  C   UNL     1       3.058  -0.786   9.658  1.00  0.00     0.049 A 
ATOM     57  H   UNL     1       2.119  -0.887   7.771  1.00  0.00     0.167 HD
ATOM     58  C   UNL     1       3.188   1.525   8.776  1.00  0.00     0.074 A 
ATOM     59  C   UNL     1       3.568   2.920   8.871  1.00  0.00     0.031 C 
ATOM     60  C   UNL     1       3.424   0.604   9.742  1.00  0.00     0.031 A 
BRANCH  47  61
ATOM     61  C   UNL     1       1.367  -5.048   8.333  1.00  0.00    -0.014 A 
ATOM     62  C   UNL     1       2.124  -6.058   7.719  1.00  0.00     0.009 A 
ATOM     63  C   UNL     1       0.456  -5.395   9.342  1.00  0.00     0.009 A 
ATOM     64  C   UNL     1       1.945  -7.394   8.085  1.00  0.00     0.001 A 
ATOM     65  C   UNL     1       0.295  -6.728   9.721  1.00  0.00     0.001 A 
ATOM     66  C   UNL     1       1.032  -7.727   9.086  1.00  0.00     0.000 A 
ENDBRANCH  47  61
BRANCH  48  67
ATOM     67  C   UNL     1       2.153   4.361   5.178  1.00  0.00    -0.014 A 
ATOM     68  C   UNL     1       3.401   4.898   4.827  1.00  0.00     0.009 A 
ATOM     69  C   UNL     1       1.017   5.183   5.116  1.00  0.00     0.009 A 
ATOM     70  C   UNL     1       3.510   6.237   4.443  1.00  0.00     0.001 A 
ATOM     71  C   UNL     1       1.126   6.514   4.708  1.00  0.00     0.001 A 
ATOM     72  C   UNL     1       2.373   7.042   4.381  1.00  0.00     0.000 A 
ENDBRANCH  48  67
BRANCH  60  73
ATOM     73  C   UNL     1       4.144   1.071  10.976  1.00  0.00    -0.014 A 
ATOM     74  C   UNL     1       3.495   1.857  11.942  1.00  0.00     0.009 A 
ATOM     75  C   UNL     1       5.477   0.690  11.192  1.00  0.00     0.009 A 
ATOM     76  C   UNL     1       4.178   2.276  13.085  1.00  0.00     0.001 A 
ATOM     77  C   UNL     1       6.150   1.091  12.347  1.00  0.00     0.001 A 
ATOM     78  C   UNL     1       5.503   1.889  13.289  1.00  0.00     0.000 A 
ENDBRANCH  60  73
ENDBRANCH  34  35
ENDBRANCH  27  29
ENDBRANCH  26  27
ENDBRANCH  25  26
ENDBRANCH   1  25
TORSDOF 15
