REMARK SMILES C[C@H](C(=O)OCCOC(=O)c1ccc(-c2c3nc(c(-c4ccccc4)c4ccc([nH]4)c(-c4ccccc4)c4nc(c(-c5ccccc5)c5ccc2[nH]5)C=C4)C=C3)cc1)c1ccc(C[C@H]2CCC[C@@H]2O)cc1
REMARK SMILES IDX 6 1 5 2 3 3 4 4 2 5 1 6 59 7 60 8 71 9 61 10 70 11 62 12
REMARK SMILES IDX 63 13 64 14 65 15 68 16 66 17 67 18 69 19 7 21 8 22 9 23
REMARK SMILES IDX 10 24 11 25 12 26 58 27 13 28 57 29 14 30 15 31 16 32 51 33
REMARK SMILES IDX 17 34 56 35 50 36 52 37 18 38 55 39 49 40 48 41 19 43 41 44
REMARK SMILES IDX 26 45 40 46 27 47 30 48 39 49 53 50 28 51 29 52 38 54 54 55
REMARK SMILES IDX 31 56 20 57 21 58 25 59 22 60 24 61 23 62 42 63 43 64 47 65
REMARK SMILES IDX 44 66 46 67 45 68 32 69 33 70 37 71 34 72 36 73 35 74
REMARK H PARENT 69 20 52 42 30 53
REMARK Flexibility Score: inf
ROOT
ATOM      1  C   UNL     1       1.067  -2.104  -0.469  1.00  0.00     0.274 C 
ENDROOT
BRANCH   1   2
ATOM      2  O   UNL     1       0.387  -0.832  -0.435  1.00  0.00    -0.462 OA
BRANCH   2   3
ATOM      3  C   UNL     1       0.685  -0.000   0.603  1.00  0.00     0.313 C 
ATOM      4  O   UNL     1       1.487  -0.255   1.495  1.00  0.00    -0.252 OA
BRANCH   3   5
ATOM      5  C   UNL     1      -0.053   1.330   0.509  1.00  0.00     0.126 C 
ATOM      6  C   UNL     1       0.604   2.171  -0.591  1.00  0.00     0.025 C 
BRANCH   5   7
ATOM      7  C   UNL     1      -1.570   1.243   0.414  1.00  0.00    -0.034 A 
ATOM      8  C   UNL     1      -2.313   2.399   0.126  1.00  0.00     0.005 A 
ATOM      9  C   UNL     1      -2.277   0.079   0.749  1.00  0.00     0.005 A 
ATOM     10  C   UNL     1      -3.703   2.398   0.177  1.00  0.00     0.004 A 
ATOM     11  C   UNL     1      -3.671   0.084   0.824  1.00  0.00     0.004 A 
ATOM     12  C   UNL     1      -4.391   1.258   0.590  1.00  0.00    -0.048 A 
BRANCH  12  13
ATOM     13  C   UNL     1      -5.866   1.328   0.892  1.00  0.00     0.041 C 
BRANCH  13  14
ATOM     14  C   UNL     1      -6.208   1.925   2.272  1.00  0.00     0.022 C 
ATOM     15  C   UNL     1      -5.599   1.201   3.487  1.00  0.00     0.007 C 
ATOM     16  C   UNL     1      -5.827   3.395   2.486  1.00  0.00     0.117 C 
ATOM     17  C   UNL     1      -5.295   2.288   4.523  1.00  0.00     0.003 C 
ATOM     18  C   UNL     1      -5.949   3.554   3.994  1.00  0.00     0.032 C 
BRANCH  16  19
ATOM     19  O   UNL     1      -6.706   4.278   1.816  1.00  0.00    -0.393 OA
ATOM     20  H   UNL     1      -7.614   4.121   2.118  1.00  0.00     0.210 HD
ENDBRANCH  16  19
ENDBRANCH  13  14
ENDBRANCH  12  13
ENDBRANCH   5   7
ENDBRANCH   3   5
ENDBRANCH   2   3
ENDBRANCH   1   2
BRANCH   1  21
ATOM     21  C   UNL     1       2.051  -2.121  -1.633  1.00  0.00     0.275 C 
BRANCH  21  22
ATOM     22  O   UNL     1       3.031  -1.095  -1.403  1.00  0.00    -0.458 OA
BRANCH  22  23
ATOM     23  C   UNL     1       3.309  -0.289  -2.451  1.00  0.00     0.338 C 
ATOM     24  O   UNL     1       2.941  -0.425  -3.604  1.00  0.00    -0.246 OA
BRANCH  23  25
ATOM     25  C   UNL     1       4.122   0.857  -1.987  1.00  0.00     0.060 A 
ATOM     26  C   UNL     1       3.910   1.417  -0.726  1.00  0.00     0.016 A 
ATOM     27  C   UNL     1       5.031   1.452  -2.862  1.00  0.00     0.016 A 
ATOM     28  C   UNL     1       4.512   2.628  -0.386  1.00  0.00     0.010 A 
ATOM     29  C   UNL     1       5.728   2.598  -2.465  1.00  0.00     0.010 A 
ATOM     30  C   UNL     1       5.452   3.224  -1.236  1.00  0.00    -0.014 A 
BRANCH  30  31
ATOM     31  C   UNL     1       6.134   4.497  -0.865  1.00  0.00     0.031 A 
ATOM     32  C   UNL     1       6.109   5.673  -1.808  1.00  0.00     0.074 A 
ATOM     33  C   UNL     1       6.801   4.609   0.302  1.00  0.00     0.049 A 
ATOM     34  N   UNL     1       6.854   6.750  -1.807  1.00  0.00    -0.248 NA
ATOM     35  C   UNL     1       5.130   5.623  -2.906  1.00  0.00     0.031 C 
ATOM     36  C   UNL     1       6.874   3.590   1.351  1.00  0.00     0.029 A 
ATOM     37  N   UNL     1       7.551   5.647   0.802  1.00  0.00    -0.354 N 
ATOM     38  C   UNL     1       6.494   7.461  -2.946  1.00  0.00     0.074 A 
ATOM     39  C   UNL     1       5.450   6.705  -3.604  1.00  0.00     0.031 C 
ATOM     40  C   UNL     1       7.582   4.067   2.384  1.00  0.00     0.029 A 
ATOM     41  C   UNL     1       8.107   5.379   2.030  1.00  0.00     0.049 A 
ATOM     42  H   UNL     1       7.676   6.500   0.327  1.00  0.00     0.167 HD
ATOM     43  C   UNL     1       7.000   8.629  -3.409  1.00  0.00     0.031 A 
ATOM     44  C   UNL     1       8.989   6.077   2.769  1.00  0.00     0.031 A 
ATOM     45  C   UNL     1       7.993   9.413  -2.724  1.00  0.00     0.049 A 
ATOM     46  C   UNL     1       9.553   7.357   2.229  1.00  0.00     0.074 A 
ATOM     47  C   UNL     1       8.560  10.617  -3.108  1.00  0.00     0.029 A 
ATOM     48  N   UNL     1       8.546   9.084  -1.497  1.00  0.00    -0.354 N 
ATOM     49  N   UNL     1       9.277   7.968   1.103  1.00  0.00    -0.248 NA
ATOM     50  C   UNL     1      10.572   8.025   3.049  1.00  0.00     0.031 C 
ATOM     51  C   UNL     1       9.478  11.002  -2.124  1.00  0.00     0.029 A 
ATOM     52  C   UNL     1       9.452  10.057  -1.112  1.00  0.00     0.049 A 
ATOM     53  H   UNL     1       8.327   8.278  -0.976  1.00  0.00     0.167 HD
ATOM     54  C   UNL     1      10.088   9.094   1.079  1.00  0.00     0.074 A 
ATOM     55  C   UNL     1      10.848   9.094   2.313  1.00  0.00     0.031 C 
ATOM     56  C   UNL     1      10.201  10.039   0.116  1.00  0.00     0.031 A 
BRANCH  43  57
ATOM     57  C   UNL     1       6.525   9.109  -4.751  1.00  0.00    -0.014 A 
ATOM     58  C   UNL     1       5.261   9.690  -4.923  1.00  0.00     0.009 A 
ATOM     59  C   UNL     1       7.385   9.012  -5.858  1.00  0.00     0.009 A 
ATOM     60  C   UNL     1       4.857  10.140  -6.183  1.00  0.00     0.001 A 
ATOM     61  C   UNL     1       6.989   9.482  -7.110  1.00  0.00     0.001 A 
ATOM     62  C   UNL     1       5.722  10.039  -7.274  1.00  0.00     0.000 A 
ENDBRANCH  43  57
BRANCH  44  63
ATOM     63  C   UNL     1       9.446   5.537   4.075  1.00  0.00    -0.014 A 
ATOM     64  C   UNL     1       9.032   6.136   5.274  1.00  0.00     0.009 A 
ATOM     65  C   UNL     1      10.283   4.411   4.129  1.00  0.00     0.009 A 
ATOM     66  C   UNL     1       9.455   5.621   6.502  1.00  0.00     0.001 A 
ATOM     67  C   UNL     1      10.680   3.882   5.358  1.00  0.00     0.001 A 
ATOM     68  C   UNL     1      10.271   4.490   6.543  1.00  0.00     0.000 A 
ENDBRANCH  44  63
BRANCH  56  69
ATOM     69  C   UNL     1      11.161  11.161   0.376  1.00  0.00    -0.014 A 
ATOM     70  C   UNL     1      12.544  10.974   0.234  1.00  0.00     0.009 A 
ATOM     71  C   UNL     1      10.674  12.422   0.749  1.00  0.00     0.009 A 
ATOM     72  C   UNL     1      13.425  12.027   0.489  1.00  0.00     0.001 A 
ATOM     73  C   UNL     1      11.556  13.477   0.984  1.00  0.00     0.001 A 
ATOM     74  C   UNL     1      12.930  13.277   0.862  1.00  0.00     0.000 A 
ENDBRANCH  56  69
ENDBRANCH  30  31
ENDBRANCH  23  25
ENDBRANCH  22  23
ENDBRANCH  21  22
ENDBRANCH   1  21
TORSDOF 15
