REMARK SMILES Cc1ccc(-c2cc3cccnc3n2CCC(=O)OCCOC(=O)c2ccc(-c3c4nc(c(-c5ccccc5)c5ccc([nH]5)c(-c5ccccc5)c5nc(c(-c6ccccc6)c6ccc3[nH]6)C=C5)C=C4)cc2)cn1
REMARK SMILES IDX 20 1 19 2 17 3 18 4 16 5 15 6 14 7 6 8 7 9 8 10 13 11 9 12
REMARK SMILES IDX 12 13 10 14 11 15 5 16 1 17 2 18 3 19 74 20 4 21 73 22 21 23
REMARK SMILES IDX 22 24 23 25 24 26 25 27 26 28 72 29 27 30 71 31 28 32 29 33
REMARK SMILES IDX 30 34 65 35 31 36 70 37 64 38 66 39 32 40 69 41 63 42 62 43
REMARK SMILES IDX 33 45 55 46 40 47 54 48 41 49 44 50 53 51 67 52 42 53 43 54
REMARK SMILES IDX 52 56 68 57 45 58 34 59 35 60 39 61 36 62 38 63 37 64 56 65
REMARK SMILES IDX 57 66 61 67 58 68 60 69 59 70 46 71 47 72 51 73 48 74 50 75
REMARK SMILES IDX 49 76
REMARK H PARENT 66 44 44 55
REMARK Flexibility Score: inf
ROOT
ATOM      1  C   UNL     1      -1.463  -1.706  -1.727  1.00  0.00     0.274 C 
ENDROOT
BRANCH   1   2
ATOM      2  O   UNL     1      -2.816  -1.891  -1.211  1.00  0.00    -0.462 OA
BRANCH   2   3
ATOM      3  C   UNL     1      -3.091  -3.055  -0.558  1.00  0.00     0.307 C 
ATOM      4  O   UNL     1      -2.462  -4.093  -0.739  1.00  0.00    -0.252 OA
BRANCH   3   5
ATOM      5  C   UNL     1      -4.191  -2.961   0.505  1.00  0.00     0.144 C 
BRANCH   5   6
ATOM      6  C   UNL     1      -4.233  -1.761   1.461  1.00  0.00     0.136 C 
BRANCH   6   7
ATOM      7  N   UNL     1      -4.457  -0.506   0.781  1.00  0.00    -0.325 N 
ATOM      8  C   UNL     1      -3.489   0.302   0.234  1.00  0.00     0.052 A 
ATOM      9  C   UNL     1      -4.152   1.203  -0.589  1.00  0.00     0.039 A 
ATOM     10  C   UNL     1      -5.537   0.969  -0.493  1.00  0.00     0.020 A 
ATOM     11  C   UNL     1      -5.706  -0.046   0.439  1.00  0.00     0.140 A 
ATOM     12  C   UNL     1      -6.675   1.488  -1.123  1.00  0.00     0.013 A 
ATOM     13  N   UNL     1      -6.878  -0.559   0.866  1.00  0.00    -0.238 NA
ATOM     14  C   UNL     1      -7.910   0.996  -0.711  1.00  0.00     0.021 A 
ATOM     15  C   UNL     1      -7.950   0.022   0.279  1.00  0.00     0.113 A 
BRANCH   8  16
ATOM     16  C   UNL     1      -2.044   0.115   0.282  1.00  0.00     0.017 A 
ATOM     17  C   UNL     1       2.990  -0.096  -0.311  1.00  0.00     0.066 C 
ATOM     18  C   UNL     1       1.504  -0.096  -0.155  1.00  0.00     0.037 A 
ATOM     19  C   UNL     1       0.637  -1.541   0.434  1.00  0.00     0.024 A 
ATOM     20  N   UNL     1       0.670   1.398  -0.528  1.00  0.00    -0.261 NA
ATOM     21  C   UNL     1      -1.144  -1.428   0.713  1.00  0.00     0.014 A 
ATOM     22  C   UNL     1      -1.069   1.521  -0.294  1.00  0.00     0.121 A 
ENDBRANCH   8  16
ENDBRANCH   6   7
ENDBRANCH   5   6
ENDBRANCH   3   5
ENDBRANCH   2   3
ENDBRANCH   1   2
BRANCH   1  23
ATOM     23  C   UNL     1      -0.515  -0.404  -1.188  1.00  0.00     0.275 C 
BRANCH  23  24
ATOM     24  O   UNL     1      -0.164   0.182   0.725  1.00  0.00    -0.458 OA
BRANCH  24  25
ATOM     25  C   UNL     1      -0.401   0.775   1.964  1.00  0.00     0.338 C 
ATOM     26  O   UNL     1      -1.298   1.543   2.315  1.00  0.00    -0.246 OA
BRANCH  25  27
ATOM     27  C   UNL     1       0.437   0.199   2.994  1.00  0.00     0.060 A 
ATOM     28  C   UNL     1      -0.233  -0.339   4.105  1.00  0.00     0.016 A 
ATOM     29  C   UNL     1       1.720   0.724   3.030  1.00  0.00     0.016 A 
ATOM     30  C   UNL     1       0.301  -0.086   5.341  1.00  0.00     0.010 A 
ATOM     31  C   UNL     1       2.257   0.958   4.258  1.00  0.00     0.010 A 
ATOM     32  C   UNL     1       1.474   0.666   5.379  1.00  0.00    -0.014 A 
BRANCH  32  33
ATOM     33  C   UNL     1       1.858   1.280   6.623  1.00  0.00     0.031 A 
ATOM     34  C   UNL     1       2.627   0.394   7.509  1.00  0.00     0.074 A 
ATOM     35  C   UNL     1       1.692   2.605   6.796  1.00  0.00     0.049 A 
ATOM     36  N   UNL     1       2.360   0.058   8.724  1.00  0.00    -0.248 NA
ATOM     37  C   UNL     1       3.778  -0.306   6.913  1.00  0.00     0.031 C 
ATOM     38  C   UNL     1       1.231   3.593   5.811  1.00  0.00     0.029 A 
ATOM     39  N   UNL     1       2.075   3.372   7.846  1.00  0.00    -0.354 N 
ATOM     40  C   UNL     1       3.403  -0.773   9.103  1.00  0.00     0.074 A 
ATOM     41  C   UNL     1       4.141  -1.104   7.912  1.00  0.00     0.031 C 
ATOM     42  C   UNL     1       1.608   4.825   6.218  1.00  0.00     0.029 A 
ATOM     43  C   UNL     1       2.223   4.715   7.530  1.00  0.00     0.049 A 
ATOM     44  H   UNL     1       2.234   3.010   8.747  1.00  0.00     0.167 HD
ATOM     45  C   UNL     1       3.764  -0.933  10.400  1.00  0.00     0.031 A 
ATOM     46  C   UNL     1       2.907   5.626   8.263  1.00  0.00     0.031 A 
ATOM     47  C   UNL     1       2.755  -0.489  11.317  1.00  0.00     0.049 A 
ATOM     48  C   UNL     1       3.098   5.046   9.617  1.00  0.00     0.074 A 
ATOM     49  C   UNL     1       1.450  -0.862  11.565  1.00  0.00     0.029 A 
ATOM     50  N   UNL     1       2.913   0.760  11.868  1.00  0.00    -0.354 N 
ATOM     51  N   UNL     1       2.131   4.834  10.462  1.00  0.00    -0.248 NA
ATOM     52  C   UNL     1       4.329   4.316   9.889  1.00  0.00     0.031 C 
ATOM     53  C   UNL     1       0.767   0.350  11.868  1.00  0.00     0.029 A 
ATOM     54  C   UNL     1       1.696   1.392  11.816  1.00  0.00     0.049 A 
ATOM     55  H   UNL     1       3.747   1.134  12.235  1.00  0.00     0.167 HD
ATOM     56  C   UNL     1       2.475   3.657  11.113  1.00  0.00     0.074 A 
ATOM     57  C   UNL     1       3.888   3.455  10.811  1.00  0.00     0.031 C 
ATOM     58  C   UNL     1       1.516   2.811  11.589  1.00  0.00     0.031 A 
BRANCH  45  59
ATOM     59  C   UNL     1       5.193  -1.150  10.786  1.00  0.00    -0.014 A 
ATOM     60  C   UNL     1       5.502  -1.656  12.052  1.00  0.00     0.009 A 
ATOM     61  C   UNL     1       6.261  -0.657  10.005  1.00  0.00     0.009 A 
ATOM     62  C   UNL     1       6.824  -1.674  12.510  1.00  0.00     0.001 A 
ATOM     63  C   UNL     1       7.583  -0.717  10.438  1.00  0.00     0.001 A 
ATOM     64  C   UNL     1       7.862  -1.214  11.701  1.00  0.00     0.000 A 
ENDBRANCH  45  59
BRANCH  46  65
ATOM     65  C   UNL     1       3.658   6.817   7.803  1.00  0.00    -0.014 A 
ATOM     66  C   UNL     1       4.142   7.745   8.739  1.00  0.00     0.009 A 
ATOM     67  C   UNL     1       4.125   6.926   6.480  1.00  0.00     0.009 A 
ATOM     68  C   UNL     1       5.095   8.706   8.379  1.00  0.00     0.001 A 
ATOM     69  C   UNL     1       5.066   7.895   6.115  1.00  0.00     0.001 A 
ATOM     70  C   UNL     1       5.567   8.772   7.070  1.00  0.00     0.000 A 
ENDBRANCH  46  65
BRANCH  58  71
ATOM     71  C   UNL     1       0.089   3.304  11.591  1.00  0.00    -0.014 A 
ATOM     72  C   UNL     1      -0.621   3.556  10.404  1.00  0.00     0.009 A 
ATOM     73  C   UNL     1      -0.609   3.333  12.806  1.00  0.00     0.009 A 
ATOM     74  C   UNL     1      -1.990   3.842  10.434  1.00  0.00     0.001 A 
ATOM     75  C   UNL     1      -1.980   3.602  12.834  1.00  0.00     0.001 A 
ATOM     76  C   UNL     1      -2.669   3.856  11.650  1.00  0.00     0.000 A 
ENDBRANCH  58  71
ENDBRANCH  32  33
ENDBRANCH  25  27
ENDBRANCH  24  25
ENDBRANCH  23  24
ENDBRANCH   1  23
TORSDOF 14
