REMARK SMILES CC1=C(C)C[C@@H](C(=O)OCCOC(=O)c2ccc(-c3c4nc(c(-c5ccccc5)c5ccc([nH]5)c(-c5ccccc5)c5nc(c(-c6ccccc6)c6ccc3[nH]6)C=C5)C=C4)cc2)[C@@H](C(=O)NCC[NH+]2CCOCC2)C1
REMARK SMILES IDX 10 1 9 2 7 3 8 4 6 5 1 6 2 7 3 8 75 9 4 10 5 11 63 12 64 13
REMARK SMILES IDX 65 14 66 15 67 17 68 18 69 19 70 20 74 21 71 23 73 24 72 25
REMARK SMILES IDX 11 26 12 27 13 28 14 29 15 30 16 31 62 32 17 33 61 34 18 35
REMARK SMILES IDX 19 36 20 37 55 38 21 39 60 40 54 41 56 42 22 43 59 44 53 45
REMARK SMILES IDX 52 46 23 48 45 49 30 50 44 51 31 52 34 53 43 54 57 55 32 56
REMARK SMILES IDX 33 57 42 59 58 60 35 61 24 62 25 63 29 64 26 65 28 66 27 67
REMARK SMILES IDX 46 68 47 69 51 70 48 71 50 72 49 73 36 74 37 75 41 76 38 77
REMARK SMILES IDX 40 78 39 79
REMARK H PARENT 66 16 69 22 56 47 34 58
REMARK Flexibility Score: inf
ROOT
ATOM      1  C   UNL     1      -4.201  -1.192  -3.614  1.00  0.00     0.274 C 
ENDROOT
BRANCH   1   2
ATOM      2  O   UNL     1      -2.914  -0.810  -3.091  1.00  0.00    -0.462 OA
BRANCH   2   3
ATOM      3  C   UNL     1      -1.827  -1.238  -3.752  1.00  0.00     0.310 C 
ATOM      4  O   UNL     1      -1.871  -2.022  -4.700  1.00  0.00    -0.252 OA
BRANCH   3   5
ATOM      5  C   UNL     1      -0.494  -0.701  -3.249  1.00  0.00     0.116 C 
ATOM      6  C   UNL     1       1.355  -0.131   0.709  1.00  0.00     0.039 C 
ATOM      7  C   UNL     1       0.949  -0.448  -0.702  1.00  0.00    -0.074 C 
ATOM      8  C   UNL     1       0.703  -1.683  -1.178  1.00  0.00    -0.073 C 
ATOM      9  C   UNL     1       0.857   0.742  -1.629  1.00  0.00     0.045 C 
ATOM     10  C   UNL     1       0.896  -2.975  -0.431  1.00  0.00     0.039 C 
ATOM     11  C   UNL     1       0.264  -1.873  -2.602  1.00  0.00     0.046 C 
ATOM     12  C   UNL     1      -0.347   0.693  -2.587  1.00  0.00     0.097 C 
BRANCH  12  13
ATOM     13  C   UNL     1      -1.521   1.343  -1.855  1.00  0.00     0.224 C 
ATOM     14  O   UNL     1      -2.302   0.722  -1.135  1.00  0.00    -0.275 OA
ATOM     15  N   UNL     1      -1.638   2.712  -1.873  1.00  0.00    -0.350 N 
ATOM     16  H   UNL     1      -2.449   3.059  -1.436  1.00  0.00     0.163 HD
BRANCH  15  17
ATOM     17  C   UNL     1      -0.760   3.741  -2.432  1.00  0.00     0.177 C 
BRANCH  17  18
ATOM     18  C   UNL     1      -1.184   4.288  -3.813  1.00  0.00     0.283 C 
BRANCH  18  19
ATOM     19  N   UNL     1      -2.184   5.379  -3.829  1.00  0.00    -0.330 N 
ATOM     20  C   UNL     1      -3.468   5.046  -3.180  1.00  0.00     0.291 C 
ATOM     21  C   UNL     1      -2.496   5.774  -5.228  1.00  0.00     0.291 C 
ATOM     22  H   UNL     1      -1.747   6.132  -3.298  1.00  0.00     0.348 HD
ATOM     23  C   UNL     1      -4.295   4.007  -3.949  1.00  0.00     0.221 C 
ATOM     24  C   UNL     1      -3.363   4.751  -5.990  1.00  0.00     0.221 C 
ATOM     25  O   UNL     1      -4.574   4.447  -5.285  1.00  0.00    -0.370 OA
ENDBRANCH  18  19
ENDBRANCH  17  18
ENDBRANCH  15  17
ENDBRANCH  12  13
ENDBRANCH   3   5
ENDBRANCH   2   3
ENDBRANCH   1   2
BRANCH   1  26
ATOM     26  C   UNL     1      -4.776  -0.085  -4.504  1.00  0.00     0.275 C 
BRANCH  26  27
ATOM     27  O   UNL     1      -4.148  -0.043  -5.802  1.00  0.00    -0.458 OA
BRANCH  27  28
ATOM     28  C   UNL     1      -2.997   0.662  -5.865  1.00  0.00     0.338 C 
ATOM     29  O   UNL     1      -2.453   1.285  -4.969  1.00  0.00    -0.246 OA
BRANCH  28  30
ATOM     30  C   UNL     1      -2.342   0.479  -7.164  1.00  0.00     0.060 A 
ATOM     31  C   UNL     1      -1.013   0.044  -7.154  1.00  0.00     0.016 A 
ATOM     32  C   UNL     1      -2.975   0.816  -8.359  1.00  0.00     0.016 A 
ATOM     33  C   UNL     1      -0.303  -0.056  -8.340  1.00  0.00     0.010 A 
ATOM     34  C   UNL     1      -2.262   0.708  -9.555  1.00  0.00     0.010 A 
ATOM     35  C   UNL     1      -0.924   0.276  -9.547  1.00  0.00    -0.014 A 
BRANCH  35  36
ATOM     36  C   UNL     1      -0.149   0.173 -10.799  1.00  0.00     0.031 A 
ATOM     37  C   UNL     1       0.380   1.409 -11.457  1.00  0.00     0.074 A 
ATOM     38  C   UNL     1       0.117  -1.045 -11.304  1.00  0.00     0.049 A 
ATOM     39  N   UNL     1       1.028   1.527 -12.586  1.00  0.00    -0.248 NA
ATOM     40  C   UNL     1       0.158   2.680 -10.749  1.00  0.00     0.031 C 
ATOM     41  C   UNL     1      -0.287  -2.316 -10.699  1.00  0.00     0.029 A 
ATOM     42  N   UNL     1       0.799  -1.411 -12.433  1.00  0.00    -0.354 N 
ATOM     43  C   UNL     1       1.277   2.884 -12.736  1.00  0.00     0.074 A 
ATOM     44  C   UNL     1       0.704   3.551 -11.586  1.00  0.00     0.031 C 
ATOM     45  C   UNL     1       0.168  -3.324 -11.460  1.00  0.00     0.029 A 
ATOM     46  C   UNL     1       0.844  -2.768 -12.627  1.00  0.00     0.049 A 
ATOM     47  H   UNL     1       1.217  -0.763 -13.046  1.00  0.00     0.167 HD
ATOM     48  C   UNL     1       1.922   3.513 -13.746  1.00  0.00     0.031 A 
ATOM     49  C   UNL     1       1.350  -3.482 -13.648  1.00  0.00     0.031 A 
ATOM     50  C   UNL     1       2.475   2.840 -14.891  1.00  0.00     0.049 A 
ATOM     51  C   UNL     1       1.989  -2.755 -14.795  1.00  0.00     0.074 A 
ATOM     52  C   UNL     1       3.119   3.386 -15.987  1.00  0.00     0.029 A 
ATOM     53  N   UNL     1       2.450   1.466 -15.083  1.00  0.00    -0.354 N 
ATOM     54  N   UNL     1       2.178  -1.466 -14.950  1.00  0.00    -0.248 NA
ATOM     55  C   UNL     1       2.477  -3.578 -15.909  1.00  0.00     0.031 C 
ATOM     56  C   UNL     1       3.451   2.344 -16.861  1.00  0.00     0.029 A 
ATOM     57  C   UNL     1       3.054   1.146 -16.287  1.00  0.00     0.049 A 
ATOM     58  H   UNL     1       2.060   0.815 -14.456  1.00  0.00     0.167 HD
ATOM     59  C   UNL     1       2.815  -1.323 -16.174  1.00  0.00     0.074 A 
ATOM     60  C   UNL     1       2.997  -2.658 -16.710  1.00  0.00     0.031 C 
ATOM     61  C   UNL     1       3.213  -0.189 -16.801  1.00  0.00     0.031 A 
BRANCH  48  62
ATOM     62  C   UNL     1       2.018   5.009 -13.674  1.00  0.00    -0.014 A 
ATOM     63  C   UNL     1       2.908   5.640 -12.791  1.00  0.00     0.009 A 
ATOM     64  C   UNL     1       1.218   5.798 -14.514  1.00  0.00     0.009 A 
ATOM     65  C   UNL     1       2.974   7.035 -12.734  1.00  0.00     0.001 A 
ATOM     66  C   UNL     1       1.301   7.190 -14.470  1.00  0.00     0.001 A 
ATOM     67  C   UNL     1       2.174   7.808 -13.575  1.00  0.00     0.000 A 
ENDBRANCH  48  62
BRANCH  49  68
ATOM     68  C   UNL     1       1.237  -4.962 -13.640  1.00  0.00    -0.014 A 
ATOM     69  C   UNL     1       2.368  -5.764 -13.434  1.00  0.00     0.009 A 
ATOM     70  C   UNL     1      -0.012  -5.579 -13.816  1.00  0.00     0.009 A 
ATOM     71  C   UNL     1       2.252  -7.156 -13.414  1.00  0.00     0.001 A 
ATOM     72  C   UNL     1      -0.129  -6.969 -13.771  1.00  0.00     0.001 A 
ATOM     73  C   UNL     1       1.004  -7.756 -13.576  1.00  0.00     0.000 A 
ENDBRANCH  49  68
BRANCH  61  74
ATOM     74  C   UNL     1       3.901  -0.353 -18.123  1.00  0.00    -0.014 A 
ATOM     75  C   UNL     1       3.174  -0.661 -19.283  1.00  0.00     0.009 A 
ATOM     76  C   UNL     1       5.288  -0.168 -18.213  1.00  0.00     0.009 A 
ATOM     77  C   UNL     1       3.830  -0.808 -20.506  1.00  0.00     0.001 A 
ATOM     78  C   UNL     1       5.939  -0.294 -19.441  1.00  0.00     0.001 A 
ATOM     79  C   UNL     1       5.211  -0.621 -20.584  1.00  0.00     0.000 A 
ENDBRANCH  61  74
ENDBRANCH  35  36
ENDBRANCH  28  30
ENDBRANCH  27  28
ENDBRANCH  26  27
ENDBRANCH   1  26
TORSDOF 15
