REMARK SMILES C[C@H](C(=O)OCCOC(=O)c1ccc(-c2c3nc(c(-c4ccccc4)c4ccc([nH]4)c(-c4ccccc4)c4nc(c(-c5ccccc5)c5ccc2[nH]5)C=C4)C=C3)cc1)[C@H](C)[N@@H+]1CC[C@H]([NH+]2CCCCC2)C1
REMARK SMILES IDX 6 1 5 2 3 3 4 4 2 5 1 6 59 7 60 8 61 9 62 10 71 11 63 13
REMARK SMILES IDX 64 14 65 15 66 16 70 17 67 19 69 20 68 21 7 22 8 23 9 24
REMARK SMILES IDX 10 25 11 26 12 27 58 28 13 29 57 30 14 31 15 32 16 33 51 34
REMARK SMILES IDX 17 35 56 36 50 37 52 38 18 39 55 40 49 41 48 42 19 44 41 45
REMARK SMILES IDX 26 46 40 47 27 48 30 49 39 50 53 51 28 52 29 53 38 55 54 56
REMARK SMILES IDX 31 57 20 58 21 59 25 60 22 61 24 62 23 63 42 64 43 65 47 66
REMARK SMILES IDX 44 67 46 68 45 69 32 70 33 71 37 72 34 73 36 74 35 75
REMARK H PARENT 61 12 65 18 52 43 30 54
REMARK Flexibility Score: inf
ROOT
ATOM      1  C   UNL     1      -3.590   2.282   3.667  1.00  0.00     0.274 C 
ENDROOT
BRANCH   1   2
ATOM      2  O   UNL     1      -3.280   1.750   2.365  1.00  0.00    -0.462 OA
BRANCH   2   3
ATOM      3  C   UNL     1      -1.962   1.558   2.086  1.00  0.00     0.314 C 
ATOM      4  O   UNL     1      -1.036   1.896   2.817  1.00  0.00    -0.252 OA
BRANCH   3   5
ATOM      5  C   UNL     1      -1.737   0.844   0.763  1.00  0.00     0.154 C 
ATOM      6  C   UNL     1      -2.964   0.047   0.305  1.00  0.00     0.026 C 
BRANCH   5   7
ATOM      7  C   UNL     1      -1.223   1.800  -0.338  1.00  0.00     0.195 C 
ATOM      8  C   UNL     1       0.282   2.084  -0.181  1.00  0.00     0.076 C 
BRANCH   7   9
ATOM      9  N   UNL     1      -2.104   2.972  -0.495  1.00  0.00    -0.327 N 
ATOM     10  C   UNL     1      -2.177   3.490  -1.863  1.00  0.00     0.269 C 
ATOM     11  C   UNL     1      -1.833   4.118   0.402  1.00  0.00     0.328 C 
ATOM     12  H   UNL     1      -2.999   2.564  -0.223  1.00  0.00     0.348 HD
ATOM     13  C   UNL     1      -1.405   4.793  -1.867  1.00  0.00     0.132 C 
ATOM     14  C   UNL     1      -1.706   5.371  -0.488  1.00  0.00     0.245 C 
BRANCH  14  15
ATOM     15  N   UNL     1      -0.823   6.454  -0.005  1.00  0.00    -0.328 N 
ATOM     16  C   UNL     1       0.586   6.060   0.159  1.00  0.00     0.262 C 
ATOM     17  C   UNL     1      -0.947   7.642  -0.867  1.00  0.00     0.262 C 
ATOM     18  H   UNL     1      -1.147   6.682   0.935  1.00  0.00     0.348 HD
ATOM     19  C   UNL     1       1.440   7.205   0.711  1.00  0.00     0.062 C 
ATOM     20  C   UNL     1      -0.136   8.824  -0.338  1.00  0.00     0.062 C 
ATOM     21  C   UNL     1       1.328   8.446  -0.163  1.00  0.00     0.012 C 
ENDBRANCH  14  15
ENDBRANCH   7   9
ENDBRANCH   5   7
ENDBRANCH   3   5
ENDBRANCH   2   3
ENDBRANCH   1   2
BRANCH   1  22
ATOM     22  C   UNL     1      -4.111   1.158   4.560  1.00  0.00     0.275 C 
BRANCH  22  23
ATOM     23  O   UNL     1      -3.135   0.101   4.583  1.00  0.00    -0.458 OA
BRANCH  23  24
ATOM     24  C   UNL     1      -3.591  -1.143   4.317  1.00  0.00     0.338 C 
ATOM     25  O   UNL     1      -4.759  -1.502   4.268  1.00  0.00    -0.246 OA
BRANCH  24  26
ATOM     26  C   UNL     1      -2.454  -2.049   4.034  1.00  0.00     0.060 A 
ATOM     27  C   UNL     1      -1.277  -1.571   3.455  1.00  0.00     0.016 A 
ATOM     28  C   UNL     1      -2.595  -3.418   4.262  1.00  0.00     0.016 A 
ATOM     29  C   UNL     1      -0.283  -2.450   3.030  1.00  0.00     0.010 A 
ATOM     30  C   UNL     1      -1.547  -4.288   3.942  1.00  0.00     0.010 A 
ATOM     31  C   UNL     1      -0.384  -3.818   3.303  1.00  0.00    -0.014 A 
BRANCH  31  32
ATOM     32  C   UNL     1       0.708  -4.762   2.936  1.00  0.00     0.031 A 
ATOM     33  C   UNL     1       0.404  -5.978   2.102  1.00  0.00     0.074 A 
ATOM     34  C   UNL     1       1.968  -4.565   3.374  1.00  0.00     0.049 A 
ATOM     35  N   UNL     1       1.120  -7.059   1.924  1.00  0.00    -0.248 NA
ATOM     36  C   UNL     1      -0.885  -5.987   1.392  1.00  0.00     0.031 C 
ATOM     37  C   UNL     1       2.441  -3.409   4.139  1.00  0.00     0.029 A 
ATOM     38  N   UNL     1       3.089  -5.349   3.240  1.00  0.00    -0.354 N 
ATOM     39  C   UNL     1       0.335  -7.909   1.155  1.00  0.00     0.074 A 
ATOM     40  C   UNL     1      -0.903  -7.211   0.881  1.00  0.00     0.031 C 
ATOM     41  C   UNL     1       3.755  -3.540   4.373  1.00  0.00     0.029 A 
ATOM     42  C   UNL     1       4.195  -4.835   3.873  1.00  0.00     0.049 A 
ATOM     43  H   UNL     1       3.099  -6.196   2.738  1.00  0.00     0.167 HD
ATOM     44  C   UNL     1       0.617  -9.165   0.731  1.00  0.00     0.031 A 
ATOM     45  C   UNL     1       5.413  -5.366   4.088  1.00  0.00     0.031 A 
ATOM     46  C   UNL     1       1.870  -9.835   0.955  1.00  0.00     0.049 A 
ATOM     47  C   UNL     1       5.696  -6.767   3.633  1.00  0.00     0.074 A 
ATOM     48  C   UNL     1       2.255 -11.103   0.554  1.00  0.00     0.029 A 
ATOM     49  N   UNL     1       2.951  -9.281   1.621  1.00  0.00    -0.354 N 
ATOM     50  N   UNL     1       4.915  -7.597   2.987  1.00  0.00    -0.248 NA
ATOM     51  C   UNL     1       7.019  -7.313   3.965  1.00  0.00     0.031 C 
ATOM     52  C   UNL     1       3.562 -11.326   1.003  1.00  0.00     0.029 A 
ATOM     53  C   UNL     1       4.002 -10.182   1.647  1.00  0.00     0.049 A 
ATOM     54  H   UNL     1       2.970  -8.379   2.017  1.00  0.00     0.167 HD
ATOM     55  C   UNL     1       5.652  -8.762   2.830  1.00  0.00     0.074 A 
ATOM     56  C   UNL     1       6.949  -8.524   3.429  1.00  0.00     0.031 C 
ATOM     57  C   UNL     1       5.284  -9.929   2.248  1.00  0.00     0.031 A 
BRANCH  44  58
ATOM     58  C   UNL     1      -0.474  -9.919   0.026  1.00  0.00    -0.014 A 
ATOM     59  C   UNL     1      -0.831  -9.634  -1.300  1.00  0.00     0.009 A 
ATOM     60  C   UNL     1      -1.129 -10.964   0.698  1.00  0.00     0.009 A 
ATOM     61  C   UNL     1      -1.845 -10.362  -1.928  1.00  0.00     0.001 A 
ATOM     62  C   UNL     1      -2.125 -11.705   0.060  1.00  0.00     0.001 A 
ATOM     63  C   UNL     1      -2.487 -11.399  -1.250  1.00  0.00     0.000 A 
ENDBRANCH  44  58
BRANCH  45  64
ATOM     64  C   UNL     1       6.437  -4.590   4.835  1.00  0.00    -0.014 A 
ATOM     65  C   UNL     1       7.557  -4.070   4.170  1.00  0.00     0.009 A 
ATOM     66  C   UNL     1       6.292  -4.355   6.211  1.00  0.00     0.009 A 
ATOM     67  C   UNL     1       8.517  -3.338   4.872  1.00  0.00     0.001 A 
ATOM     68  C   UNL     1       7.239  -3.599   6.905  1.00  0.00     0.001 A 
ATOM     69  C   UNL     1       8.353  -3.097   6.236  1.00  0.00     0.000 A 
ENDBRANCH  45  64
BRANCH  57  70
ATOM     70  C   UNL     1       6.312 -11.019   2.206  1.00  0.00    -0.014 A 
ATOM     71  C   UNL     1       6.612 -11.777   3.348  1.00  0.00     0.009 A 
ATOM     72  C   UNL     1       6.974 -11.304   1.002  1.00  0.00     0.009 A 
ATOM     73  C   UNL     1       7.578 -12.782   3.291  1.00  0.00     0.001 A 
ATOM     74  C   UNL     1       7.924 -12.323   0.943  1.00  0.00     0.001 A 
ATOM     75  C   UNL     1       8.231 -13.056   2.089  1.00  0.00     0.000 A 
ENDBRANCH  57  70
ENDBRANCH  31  32
ENDBRANCH  24  26
ENDBRANCH  23  24
ENDBRANCH  22  23
ENDBRANCH   1  22
TORSDOF 14
