REMARK SMILES Cc1ccc(Cl)c(Nc2ccccc2C(=O)NCC(=O)OCCOC(=O)c2ccc(-c3c4nc(c(-c5ccccc5)c5ccc([nH]5)c(-c5ccccc5)c5nc(c(-c6ccccc6)c6ccc3[nH]6)C=C5)C=C4)cc2)c1Cl
REMARK SMILES IDX 22 1 21 2 19 3 20 4 18 5 17 6 15 7 16 8 14 10 9 11 10 12
REMARK SMILES IDX 11 13 13 14 12 15 8 16 7 18 1 19 2 20 3 21 75 22 4 23 76 24
REMARK SMILES IDX 5 25 6 26 23 27 24 28 25 29 26 30 27 31 28 32 74 33 29 34
REMARK SMILES IDX 73 35 30 36 31 37 32 38 67 39 33 40 72 41 66 42 68 43 34 44
REMARK SMILES IDX 71 45 65 46 64 47 35 49 57 50 42 51 56 52 43 53 46 54 55 55
REMARK SMILES IDX 69 56 44 57 45 58 54 60 70 61 47 62 36 63 37 64 41 65 38 66
REMARK SMILES IDX 40 67 39 68 58 69 59 70 63 71 60 72 62 73 61 74 48 75 49 76
REMARK SMILES IDX 53 77 50 78 52 79 51 80
REMARK H PARENT 17 9 8 17 68 48 46 59
REMARK Flexibility Score: inf
ROOT
ATOM      1  C   UNL     1      -3.917  -2.434   3.331  1.00  0.00     0.274 C 
ENDROOT
BRANCH   1   2
ATOM      2  O   UNL     1      -2.528  -2.244   3.003  1.00  0.00    -0.461 OA
BRANCH   2   3
ATOM      3  C   UNL     1      -2.323  -1.931   1.702  1.00  0.00     0.325 C 
ATOM      4  O   UNL     1      -3.208  -1.860   0.851  1.00  0.00    -0.250 OA
BRANCH   3   5
ATOM      5  C   UNL     1      -0.909  -1.508   1.375  1.00  0.00     0.239 C 
BRANCH   5   6
ATOM      6  N   UNL     1       0.241  -1.773   2.206  1.00  0.00    -0.341 N 
ATOM      7  C   UNL     1       1.452  -2.326   1.854  1.00  0.00     0.253 C 
ATOM      8  O   UNL     1       2.408  -2.114   2.603  1.00  0.00    -0.269 OA
ATOM      9  H   UNL     1       0.147  -1.526   3.154  1.00  0.00     0.164 HD
BRANCH   7  10
ATOM     10  C   UNL     1       1.615  -3.320   0.745  1.00  0.00     0.063 A 
ATOM     11  C   UNL     1       1.222  -3.226  -0.607  1.00  0.00     0.051 A 
ATOM     12  C   UNL     1       1.375  -4.375  -1.420  1.00  0.00     0.027 A 
ATOM     13  C   UNL     1       1.973  -5.545  -0.953  1.00  0.00     0.002 A 
ATOM     14  C   UNL     1       2.253  -4.503   1.188  1.00  0.00     0.016 A 
ATOM     15  C   UNL     1       2.442  -5.599   0.348  1.00  0.00     0.001 A 
BRANCH  11  16
ATOM     16  N   UNL     1       0.789  -2.075  -1.303  1.00  0.00    -0.352 N 
ATOM     17  H   UNL     1       0.158  -2.280  -2.030  1.00  0.00     0.167 HD
BRANCH  16  18
ATOM     18  C   UNL     1       1.066  -0.693  -1.182  1.00  0.00     0.077 A 
ATOM     19  C   UNL     1       3.686   1.807   0.105  1.00  0.00     0.046 C 
ATOM     20  C   UNL     1       2.410   1.223  -0.436  1.00  0.00    -0.030 A 
ATOM     21  C   UNL     1       1.340   2.084  -0.709  1.00  0.00     0.006 A 
ATOM     22  C   UNL     1       2.281  -0.158  -0.706  1.00  0.00     0.069 A 
ATOM     23  C   UNL     1       0.170   1.590  -1.268  1.00  0.00     0.023 A 
ATOM     24  Cl  UNL     1       3.705  -1.152  -0.608  1.00  0.00    -0.082 Cl
ATOM     25  C   UNL     1       0.033   0.222  -1.494  1.00  0.00     0.066 A 
ATOM     26  Cl  UNL     1      -1.475  -0.329  -2.156  1.00  0.00    -0.082 Cl
ENDBRANCH  16  18
ENDBRANCH  11  16
ENDBRANCH   7  10
ENDBRANCH   5   6
ENDBRANCH   3   5
ENDBRANCH   2   3
ENDBRANCH   1   2
BRANCH   1  27
ATOM     27  C   UNL     1      -4.541  -1.134   3.842  1.00  0.00     0.275 C 
BRANCH  27  28
ATOM     28  O   UNL     1      -4.437  -0.068   2.872  1.00  0.00    -0.458 OA
BRANCH  28  29
ATOM     29  C   UNL     1      -3.629   0.959   3.216  1.00  0.00     0.338 C 
ATOM     30  O   UNL     1      -2.962   1.060   4.240  1.00  0.00    -0.246 OA
BRANCH  29  31
ATOM     31  C   UNL     1      -3.651   2.028   2.200  1.00  0.00     0.060 A 
ATOM     32  C   UNL     1      -3.293   1.777   0.877  1.00  0.00     0.016 A 
ATOM     33  C   UNL     1      -3.896   3.341   2.611  1.00  0.00     0.016 A 
ATOM     34  C   UNL     1      -3.098   2.851  -0.003  1.00  0.00     0.010 A 
ATOM     35  C   UNL     1      -3.773   4.401   1.702  1.00  0.00     0.010 A 
ATOM     36  C   UNL     1      -3.317   4.184   0.390  1.00  0.00    -0.014 A 
BRANCH  36  37
ATOM     37  C   UNL     1      -3.013   5.350  -0.512  1.00  0.00     0.031 A 
ATOM     38  C   UNL     1      -2.167   6.506  -0.014  1.00  0.00     0.074 A 
ATOM     39  C   UNL     1      -3.461   5.419  -1.784  1.00  0.00     0.049 A 
ATOM     40  N   UNL     1      -2.024   7.710  -0.516  1.00  0.00    -0.248 NA
ATOM     41  C   UNL     1      -1.394   6.282   1.218  1.00  0.00     0.031 C 
ATOM     42  C   UNL     1      -4.234   4.392  -2.480  1.00  0.00     0.029 A 
ATOM     43  N   UNL     1      -3.315   6.414  -2.727  1.00  0.00    -0.354 N 
ATOM     44  C   UNL     1      -1.237   8.414   0.391  1.00  0.00     0.074 A 
ATOM     45  C   UNL     1      -0.907   7.492   1.458  1.00  0.00     0.031 C 
ATOM     46  C   UNL     1      -4.438   4.777  -3.749  1.00  0.00     0.029 A 
ATOM     47  C   UNL     1      -3.918   6.129  -3.928  1.00  0.00     0.049 A 
ATOM     48  H   UNL     1      -2.825   7.250  -2.556  1.00  0.00     0.167 HD
ATOM     49  C   UNL     1      -0.837   9.709   0.353  1.00  0.00     0.031 A 
ATOM     50  C   UNL     1      -4.098   6.875  -5.037  1.00  0.00     0.031 A 
ATOM     51  C   UNL     1      -1.072  10.615  -0.742  1.00  0.00     0.049 A 
ATOM     52  C   UNL     1      -3.648   8.306  -5.070  1.00  0.00     0.074 A 
ATOM     53  C   UNL     1      -0.682  11.939  -0.866  1.00  0.00     0.029 A 
ATOM     54  N   UNL     1      -1.725  10.283  -1.917  1.00  0.00    -0.354 N 
ATOM     55  N   UNL     1      -3.023   8.996  -4.148  1.00  0.00    -0.248 NA
ATOM     56  C   UNL     1      -3.964   9.073  -6.285  1.00  0.00     0.031 C 
ATOM     57  C   UNL     1      -1.124  12.417  -2.105  1.00  0.00     0.029 A 
ATOM     58  C   UNL     1      -1.752  11.377  -2.768  1.00  0.00     0.049 A 
ATOM     59  H   UNL     1      -2.112   9.401  -2.118  1.00  0.00     0.167 HD
ATOM     60  C   UNL     1      -2.884  10.278  -4.666  1.00  0.00     0.074 A 
ATOM     61  C   UNL     1      -3.459  10.264  -5.994  1.00  0.00     0.031 C 
ATOM     62  C   UNL     1      -2.339  11.371  -4.080  1.00  0.00     0.031 A 
BRANCH  49  63
ATOM     63  C   UNL     1      -0.145  10.259   1.570  1.00  0.00    -0.014 A 
ATOM     64  C   UNL     1       1.188   9.948   1.874  1.00  0.00     0.009 A 
ATOM     65  C   UNL     1      -0.841  11.154   2.401  1.00  0.00     0.009 A 
ATOM     66  C   UNL     1       1.798  10.496   3.006  1.00  0.00     0.001 A 
ATOM     67  C   UNL     1      -0.221  11.722   3.514  1.00  0.00     0.001 A 
ATOM     68  C   UNL     1       1.096  11.385   3.821  1.00  0.00     0.000 A 
ENDBRANCH  49  63
BRANCH  50  69
ATOM     69  C   UNL     1      -4.822   6.291  -6.196  1.00  0.00    -0.014 A 
ATOM     70  C   UNL     1      -4.134   5.948  -7.369  1.00  0.00     0.009 A 
ATOM     71  C   UNL     1      -6.203   6.047  -6.119  1.00  0.00     0.009 A 
ATOM     72  C   UNL     1      -4.816   5.367  -8.441  1.00  0.00     0.001 A 
ATOM     73  C   UNL     1      -6.875   5.439  -7.179  1.00  0.00     0.001 A 
ATOM     74  C   UNL     1      -6.181   5.103  -8.341  1.00  0.00     0.000 A 
ENDBRANCH  50  69
BRANCH  62  75
ATOM     75  C   UNL     1      -2.329  12.644  -4.875  1.00  0.00    -0.014 A 
ATOM     76  C   UNL     1      -3.498  13.406  -5.032  1.00  0.00     0.009 A 
ATOM     77  C   UNL     1      -1.136  13.101  -5.455  1.00  0.00     0.009 A 
ATOM     78  C   UNL     1      -3.476  14.587  -5.778  1.00  0.00     0.001 A 
ATOM     79  C   UNL     1      -1.113  14.291  -6.184  1.00  0.00     0.001 A 
ATOM     80  C   UNL     1      -2.284  15.029  -6.351  1.00  0.00     0.000 A 
ENDBRANCH  62  75
ENDBRANCH  36  37
ENDBRANCH  29  31
ENDBRANCH  28  29
ENDBRANCH  27  28
ENDBRANCH   1  27
TORSDOF 15
