REMARK SMILES O=C(CN1C(=O)/C(=C2\SC(N3CCN(c4ccccc4F)CC3)=[NH+]C2=O)c2ccccc21)OCCOC(=O)c1ccc(-c2c3nc(c(-c4ccccc4)c4ccc([nH]4)c(-c4ccccc4)c4nc(c(-c5ccccc5)c5ccc2[nH]5)C=C4)C=C3)cc1
REMARK SMILES IDX 34 1 33 2 2 3 1 4 3 5 4 6 5 7 32 8 6 9 7 10 27 11 31 12 8 13
REMARK SMILES IDX 28 14 30 15 9 16 25 17 29 18 10 19 24 20 26 21 11 22 12 24
REMARK SMILES IDX 23 25 13 26 22 27 14 28 15 29 16 30 20 31 17 32 19 33 21 34
REMARK SMILES IDX 18 35 35 36 36 37 37 38 38 39 39 40 40 41 86 42 41 43 85 44
REMARK SMILES IDX 42 45 43 46 44 47 79 48 45 49 84 50 78 51 80 52 46 53 83 54
REMARK SMILES IDX 77 55 76 56 47 58 69 59 54 60 68 61 55 62 58 63 67 64 81 65
REMARK SMILES IDX 56 66 57 67 66 69 82 70 59 71 48 72 49 73 53 74 50 75 52 76
REMARK SMILES IDX 51 77 70 78 71 79 75 80 72 81 74 82 73 83 60 84 61 85 65 86
REMARK SMILES IDX 62 87 64 88 63 89
REMARK H PARENT 24 23 80 57 58 68
REMARK Flexibility Score: inf
ROOT
ATOM      1  C   UNL     1       3.863   1.496  -0.093  1.00  0.00     0.274 C 
ENDROOT
BRANCH   1   2
ATOM      2  O   UNL     1       2.555   0.927  -0.315  1.00  0.00    -0.461 OA
BRANCH   2   3
ATOM      3  C   UNL     1       2.422  -0.386  -0.649  1.00  0.00     0.326 C 
ATOM      4  O   UNL     1       1.629  -0.735  -1.520  1.00  0.00    -0.250 OA
BRANCH   3   5
ATOM      5  C   UNL     1       3.151  -1.396   0.231  1.00  0.00     0.248 C 
BRANCH   5   6
ATOM      6  N   UNL     1       3.837  -2.409  -0.528  1.00  0.00    -0.296 N 
ATOM      7  C   UNL     1       5.083  -2.163  -1.078  1.00  0.00     0.260 C 
ATOM      8  C   UNL     1       3.485  -3.756  -0.651  1.00  0.00     0.053 A 
ATOM      9  O   UNL     1       5.692  -1.113  -1.004  1.00  0.00    -0.269 OA
ATOM     10  C   UNL     1       5.501  -3.453  -1.739  1.00  0.00     0.071 C 
ATOM     11  C   UNL     1       4.495  -4.454  -1.339  1.00  0.00     0.012 A 
ATOM     12  C   UNL     1       2.379  -4.394  -0.114  1.00  0.00     0.027 A 
ATOM     13  C   UNL     1       6.556  -3.483  -2.569  1.00  0.00     0.122 C 
ATOM     14  C   UNL     1       4.449  -5.837  -1.393  1.00  0.00     0.011 A 
ATOM     15  C   UNL     1       2.317  -5.783  -0.212  1.00  0.00     0.002 A 
ATOM     16  S   UNL     1       7.671  -2.181  -2.783  1.00  0.00     0.007 SA
ATOM     17  C   UNL     1       6.986  -4.590  -3.484  1.00  0.00     0.347 C 
ATOM     18  C   UNL     1       3.354  -6.500  -0.826  1.00  0.00     0.001 A 
ATOM     19  C   UNL     1       8.640  -3.135  -3.861  1.00  0.00     0.319 C 
ATOM     20  N   UNL     1       8.162  -4.295  -4.148  1.00  0.00    -0.200 N 
ATOM     21  O   UNL     1       6.361  -5.618  -3.656  1.00  0.00    -0.240 OA
ATOM     22  N   UNL     1       9.798  -2.591  -4.337  1.00  0.00    -0.252 N 
ATOM     23  H   UNL     1       8.593  -4.914  -4.781  1.00  0.00     0.316 HD
ATOM     24  C   UNL     1      10.648  -1.663  -3.565  1.00  0.00     0.258 C 
ATOM     25  C   UNL     1      10.266  -2.868  -5.703  1.00  0.00     0.258 C 
ATOM     26  C   UNL     1      12.114  -2.148  -3.555  1.00  0.00     0.162 C 
ATOM     27  C   UNL     1      11.742  -3.303  -5.718  1.00  0.00     0.162 C 
ATOM     28  N   UNL     1      12.548  -2.353  -4.938  1.00  0.00    -0.361 N 
BRANCH  28  29
ATOM     29  C   UNL     1      13.823  -2.016  -5.342  1.00  0.00     0.073 A 
ATOM     30  C   UNL     1      13.999  -1.377  -6.578  1.00  0.00     0.029 A 
ATOM     31  C   UNL     1      14.968  -2.231  -4.560  1.00  0.00     0.146 A 
ATOM     32  C   UNL     1      15.261  -0.957  -7.008  1.00  0.00     0.002 A 
ATOM     33  C   UNL     1      16.235  -1.835  -4.988  1.00  0.00     0.041 A 
ATOM     34  F   UNL     1      14.867  -2.847  -3.370  1.00  0.00    -0.205 F 
ATOM     35  C   UNL     1      16.381  -1.191  -6.214  1.00  0.00     0.003 A 
ENDBRANCH  28  29
ENDBRANCH   5   6
ENDBRANCH   3   5
ENDBRANCH   2   3
ENDBRANCH   1   2
BRANCH   1  36
ATOM     36  C   UNL     1       4.052   2.001   1.339  1.00  0.00     0.275 C 
BRANCH  36  37
ATOM     37  O   UNL     1       3.828   0.952   2.297  1.00  0.00    -0.458 OA
BRANCH  37  38
ATOM     38  C   UNL     1       2.558   0.860   2.768  1.00  0.00     0.338 C 
ATOM     39  O   UNL     1       1.643   1.633   2.547  1.00  0.00    -0.246 OA
BRANCH  38  40
ATOM     40  C   UNL     1       2.377  -0.438   3.464  1.00  0.00     0.060 A 
ATOM     41  C   UNL     1       3.423  -1.077   4.136  1.00  0.00     0.016 A 
ATOM     42  C   UNL     1       1.111  -1.037   3.413  1.00  0.00     0.016 A 
ATOM     43  C   UNL     1       3.191  -2.297   4.780  1.00  0.00     0.010 A 
ATOM     44  C   UNL     1       0.879  -2.255   4.060  1.00  0.00     0.010 A 
ATOM     45  C   UNL     1       1.913  -2.884   4.765  1.00  0.00    -0.014 A 
BRANCH  45  46
ATOM     46  C   UNL     1       1.633  -4.061   5.625  1.00  0.00     0.031 A 
ATOM     47  C   UNL     1       1.548  -5.452   5.078  1.00  0.00     0.074 A 
ATOM     48  C   UNL     1       1.453  -3.854   6.944  1.00  0.00     0.049 A 
ATOM     49  N   UNL     1       1.473  -6.584   5.732  1.00  0.00    -0.248 NA
ATOM     50  C   UNL     1       1.543  -5.598   3.617  1.00  0.00     0.031 C 
ATOM     51  C   UNL     1       1.474  -2.544   7.597  1.00  0.00     0.029 A 
ATOM     52  N   UNL     1       1.234  -4.739   7.969  1.00  0.00    -0.354 N 
ATOM     53  C   UNL     1       1.444  -7.580   4.767  1.00  0.00     0.074 A 
ATOM     54  C   UNL     1       1.458  -6.916   3.480  1.00  0.00     0.031 C 
ATOM     55  C   UNL     1       1.313  -2.714   8.918  1.00  0.00     0.029 A 
ATOM     56  C   UNL     1       1.160  -4.139   9.201  1.00  0.00     0.049 A 
ATOM     57  H   UNL     1       1.140  -5.710   7.833  1.00  0.00     0.167 HD
ATOM     58  C   UNL     1       1.424  -8.923   4.940  1.00  0.00     0.031 A 
ATOM     59  C   UNL     1       1.007  -4.671  10.429  1.00  0.00     0.031 A 
ATOM     60  C   UNL     1       1.373  -9.581   6.220  1.00  0.00     0.049 A 
ATOM     61  C   UNL     1       0.936  -6.162  10.591  1.00  0.00     0.074 A 
ATOM     62  C   UNL     1       1.408 -10.940   6.487  1.00  0.00     0.029 A 
ATOM     63  N   UNL     1       1.250  -8.938   7.441  1.00  0.00    -0.354 N 
ATOM     64  N   UNL     1       1.034  -7.095   9.677  1.00  0.00    -0.248 NA
ATOM     65  C   UNL     1       0.756  -6.674  11.958  1.00  0.00     0.031 C 
ATOM     66  C   UNL     1       1.234 -11.121   7.861  1.00  0.00     0.029 A 
ATOM     67  C   UNL     1       1.164  -9.874   8.459  1.00  0.00     0.049 A 
ATOM     68  H   UNL     1       1.227  -7.962   7.566  1.00  0.00     0.167 HD
ATOM     69  C   UNL     1       0.961  -8.303  10.358  1.00  0.00     0.074 A 
ATOM     70  C   UNL     1       0.817  -7.985  11.764  1.00  0.00     0.031 C 
ATOM     71  C   UNL     1       1.018  -9.560   9.857  1.00  0.00     0.031 A 
BRANCH  58  72
ATOM     72  C   UNL     1       1.472  -9.798   3.718  1.00  0.00    -0.014 A 
ATOM     73  C   UNL     1       0.361 -10.583   3.372  1.00  0.00     0.009 A 
ATOM     74  C   UNL     1       2.664  -9.949   2.993  1.00  0.00     0.009 A 
ATOM     75  C   UNL     1       0.447 -11.515   2.336  1.00  0.00     0.001 A 
ATOM     76  C   UNL     1       2.740 -10.866   1.942  1.00  0.00     0.001 A 
ATOM     77  C   UNL     1       1.636 -11.655   1.622  1.00  0.00     0.000 A 
ENDBRANCH  58  72
BRANCH  59  78
ATOM     78  C   UNL     1       0.979  -3.769  11.608  1.00  0.00    -0.014 A 
ATOM     79  C   UNL     1      -0.117  -2.921  11.834  1.00  0.00     0.009 A 
ATOM     80  C   UNL     1       2.075  -3.712  12.481  1.00  0.00     0.009 A 
ATOM     81  C   UNL     1      -0.105  -2.020  12.900  1.00  0.00     0.001 A 
ATOM     82  C   UNL     1       2.072  -2.829  13.562  1.00  0.00     0.001 A 
ATOM     83  C   UNL     1       0.987  -1.978  13.765  1.00  0.00     0.000 A 
ENDBRANCH  59  78
BRANCH  71  84
ATOM     84  C   UNL     1       0.946 -10.711  10.822  1.00  0.00    -0.014 A 
ATOM     85  C   UNL     1       2.074 -11.525  11.018  1.00  0.00     0.009 A 
ATOM     86  C   UNL     1      -0.257 -11.056  11.455  1.00  0.00     0.009 A 
ATOM     87  C   UNL     1       1.995 -12.669  11.814  1.00  0.00     0.001 A 
ATOM     88  C   UNL     1      -0.326 -12.186  12.274  1.00  0.00     0.001 A 
ATOM     89  C   UNL     1       0.796 -12.996  12.444  1.00  0.00     0.000 A 
ENDBRANCH  71  84
ENDBRANCH  45  46
ENDBRANCH  38  40
ENDBRANCH  37  38
ENDBRANCH  36  37
ENDBRANCH   1  36
TORSDOF 13
