REMARK SMILES Cc1ccc(-c2cc(Cl)ccc2Cl)c(C(=O)OCCOC(=O)c2ccc(-c3c4nc(c(-c5ccccc5)c5ccc([nH]5)c(-c5ccccc5)c5nc(c(-c6ccccc6)c6ccc3[nH]6)C=C5)C=C4)cc2)c1
REMARK SMILES IDX 19 1 18 2 17 3 15 4 16 5 14 6 1 7 2 8 3 9 71 10 4 11 5 12
REMARK SMILES IDX 6 13 7 14 12 15 8 16 11 17 13 18 9 19 10 20 20 21 21 22
REMARK SMILES IDX 22 23 23 24 24 25 70 26 25 27 69 28 26 29 27 30 28 31 63 32
REMARK SMILES IDX 29 33 68 34 62 35 64 36 30 37 67 38 61 39 60 40 31 42 53 43
REMARK SMILES IDX 38 44 52 45 39 46 42 47 51 48 65 49 40 50 41 51 50 53 66 54
REMARK SMILES IDX 43 55 32 56 33 57 37 58 34 59 36 60 35 61 54 62 55 63 59 64
REMARK SMILES IDX 56 65 58 66 57 67 44 68 45 69 49 70 46 71 48 72 47 73
REMARK H PARENT 64 41 42 52
REMARK Flexibility Score: inf
ROOT
ATOM      1  C   UNL     1      -2.179   5.105  -2.554  1.00  0.00     0.275 C 
ENDROOT
BRANCH   1   2
ATOM      2  C   UNL     1      -1.127   4.270  -1.798  1.00  0.00     0.275 C 
BRANCH   2   3
ATOM      3  O   UNL     1      -1.259   2.824  -1.907  1.00  0.00    -0.458 OA
BRANCH   3   4
ATOM      4  C   UNL     1      -0.738   2.185  -0.820  1.00  0.00     0.338 C 
ATOM      5  O   UNL     1      -0.307   2.774   0.169  1.00  0.00    -0.246 OA
BRANCH   4   6
ATOM      6  C   UNL     1      -0.378   0.752  -0.952  1.00  0.00     0.068 A 
ATOM      7  C   UNL     1       3.113  -0.621  -0.186  1.00  0.00     0.044 C 
ATOM      8  C   UNL     1       1.658  -0.577  -0.535  1.00  0.00    -0.050 A 
ATOM      9  C   UNL     1       0.889  -1.728  -0.533  1.00  0.00     0.004 A 
ATOM     10  C   UNL     1       1.031   0.633  -0.818  1.00  0.00     0.019 A 
ATOM     11  C   UNL     1      -0.488  -1.643  -0.746  1.00  0.00     0.010 A 
ATOM     12  C   UNL     1      -1.185  -0.409  -0.868  1.00  0.00    -0.002 A 
BRANCH  12  13
ATOM     13  C   UNL     1      -2.671  -0.538  -0.799  1.00  0.00     0.003 A 
ATOM     14  C   UNL     1      -3.498  -0.117  -1.860  1.00  0.00     0.030 A 
ATOM     15  C   UNL     1      -3.317  -1.238   0.265  1.00  0.00     0.049 A 
ATOM     16  C   UNL     1      -4.882  -0.375  -1.851  1.00  0.00     0.041 A 
ATOM     17  C   UNL     1      -4.691  -1.522   0.246  1.00  0.00     0.023 A 
ATOM     18  Cl  UNL     1      -2.474  -1.761   1.695  1.00  0.00    -0.084 Cl
ATOM     19  Cl  UNL     1      -5.884   0.164  -3.143  1.00  0.00    -0.084 Cl
ATOM     20  C   UNL     1      -5.478  -1.078  -0.807  1.00  0.00     0.022 A 
ENDBRANCH  12  13
ENDBRANCH   4   6
ENDBRANCH   3   4
ENDBRANCH   2   3
ENDBRANCH   1   2
BRANCH   1  21
ATOM     21  O   UNL     1      -3.590   4.942  -2.283  1.00  0.00    -0.458 OA
BRANCH  21  22
ATOM     22  C   UNL     1      -4.019   3.833  -1.657  1.00  0.00     0.338 C 
ATOM     23  O   UNL     1      -4.609   2.914  -2.210  1.00  0.00    -0.246 OA
BRANCH  22  24
ATOM     24  C   UNL     1      -3.704   3.853  -0.224  1.00  0.00     0.060 A 
ATOM     25  C   UNL     1      -3.485   2.627   0.419  1.00  0.00     0.016 A 
ATOM     26  C   UNL     1      -3.433   5.064   0.404  1.00  0.00     0.016 A 
ATOM     27  C   UNL     1      -2.889   2.579   1.663  1.00  0.00     0.010 A 
ATOM     28  C   UNL     1      -2.812   5.029   1.622  1.00  0.00     0.010 A 
ATOM     29  C   UNL     1      -2.583   3.791   2.251  1.00  0.00    -0.014 A 
BRANCH  29  30
ATOM     30  C   UNL     1      -2.303   3.906   3.660  1.00  0.00     0.031 A 
ATOM     31  C   UNL     1      -0.922   3.773   4.158  1.00  0.00     0.074 A 
ATOM     32  C   UNL     1      -3.389   4.424   4.282  1.00  0.00     0.049 A 
ATOM     33  N   UNL     1      -0.609   3.726   5.404  1.00  0.00    -0.248 NA
ATOM     34  C   UNL     1       0.255   3.612   3.295  1.00  0.00     0.031 C 
ATOM     35  C   UNL     1      -3.492   5.232   5.477  1.00  0.00     0.029 A 
ATOM     36  N   UNL     1      -4.735   4.258   3.904  1.00  0.00    -0.354 N 
ATOM     37  C   UNL     1       0.746   3.994   5.478  1.00  0.00     0.074 A 
ATOM     38  C   UNL     1       1.264   3.703   4.171  1.00  0.00     0.031 C 
ATOM     39  C   UNL     1      -4.772   5.201   5.904  1.00  0.00     0.029 A 
ATOM     40  C   UNL     1      -5.469   4.215   5.089  1.00  0.00     0.049 A 
ATOM     41  H   UNL     1      -5.088   4.187   2.987  1.00  0.00     0.167 HD
ATOM     42  C   UNL     1       1.204   4.674   6.567  1.00  0.00     0.031 A 
ATOM     43  C   UNL     1      -5.990   3.038   5.564  1.00  0.00     0.031 A 
ATOM     44  C   UNL     1       0.110   4.850   7.521  1.00  0.00     0.049 A 
ATOM     45  C   UNL     1      -5.282   2.649   6.843  1.00  0.00     0.074 A 
ATOM     46  C   UNL     1      -0.754   5.910   7.734  1.00  0.00     0.029 A 
ATOM     47  N   UNL     1      -0.488   3.724   8.072  1.00  0.00    -0.354 N 
ATOM     48  N   UNL     1      -4.025   2.905   7.092  1.00  0.00    -0.248 NA
ATOM     49  C   UNL     1      -5.967   2.004   7.955  1.00  0.00     0.031 C 
ATOM     50  C   UNL     1      -1.938   5.381   8.320  1.00  0.00     0.029 A 
ATOM     51  C   UNL     1      -1.783   4.011   8.462  1.00  0.00     0.049 A 
ATOM     52  H   UNL     1      -0.053   2.846   8.172  1.00  0.00     0.167 HD
ATOM     53  C   UNL     1      -3.773   2.632   8.408  1.00  0.00     0.074 A 
ATOM     54  C   UNL     1      -5.004   2.025   8.892  1.00  0.00     0.031 C 
ATOM     55  C   UNL     1      -2.615   2.970   9.047  1.00  0.00     0.031 A 
BRANCH  42  56
ATOM     56  C   UNL     1       2.492   5.465   6.652  1.00  0.00    -0.014 A 
ATOM     57  C   UNL     1       2.642   6.390   7.708  1.00  0.00     0.009 A 
ATOM     58  C   UNL     1       3.550   5.421   5.729  1.00  0.00     0.009 A 
ATOM     59  C   UNL     1       3.748   7.244   7.812  1.00  0.00     0.001 A 
ATOM     60  C   UNL     1       4.665   6.273   5.827  1.00  0.00     0.001 A 
ATOM     61  C   UNL     1       4.760   7.190   6.866  1.00  0.00     0.000 A 
ENDBRANCH  42  56
BRANCH  43  62
ATOM     62  C   UNL     1      -6.360   2.063   4.495  1.00  0.00    -0.014 A 
ATOM     63  C   UNL     1      -7.369   2.439   3.580  1.00  0.00     0.009 A 
ATOM     64  C   UNL     1      -5.436   1.084   4.117  1.00  0.00     0.009 A 
ATOM     65  C   UNL     1      -7.304   2.030   2.248  1.00  0.00     0.001 A 
ATOM     66  C   UNL     1      -5.389   0.673   2.787  1.00  0.00     0.001 A 
ATOM     67  C   UNL     1      -6.276   1.193   1.843  1.00  0.00     0.000 A 
ENDBRANCH  43  62
BRANCH  55  68
ATOM     68  C   UNL     1      -2.193   2.415  10.378  1.00  0.00    -0.014 A 
ATOM     69  C   UNL     1      -2.673   1.209  10.898  1.00  0.00     0.009 A 
ATOM     70  C   UNL     1      -1.147   3.048  11.087  1.00  0.00     0.009 A 
ATOM     71  C   UNL     1      -2.199   0.707  12.112  1.00  0.00     0.001 A 
ATOM     72  C   UNL     1      -0.620   2.512  12.258  1.00  0.00     0.001 A 
ATOM     73  C   UNL     1      -1.168   1.352  12.786  1.00  0.00     0.000 A 
ENDBRANCH  55  68
ENDBRANCH  29  30
ENDBRANCH  22  24
ENDBRANCH  21  22
ENDBRANCH   1  21
TORSDOF 12
