REMARK SMILES COc1cc(C(C)C)cc([C@H]([NH3+])C(=O)OCCOC(=O)c2ccc(-c3c4nc(c(-c5ccccc5)c5ccc([nH]5)c(-c5ccccc5)c5nc(c(-c6ccccc6)c6ccc3[nH]6)C=C5)C=C4)cc2)c1O
REMARK SMILES IDX 16 1 15 2 13 3 14 4 11 5 10 6 3 7 4 8 69 9 5 10 9 11 2 12
REMARK SMILES IDX 1 13 70 14 6 16 7 17 8 18 12 19 17 23 18 24 19 25 20 26
REMARK SMILES IDX 21 27 22 28 68 29 23 30 67 31 24 32 25 33 26 34 61 35 27 36
REMARK SMILES IDX 66 37 60 38 62 39 28 40 65 41 59 42 58 43 29 45 51 46 36 47
REMARK SMILES IDX 50 48 37 49 40 50 49 51 63 52 38 53 39 54 48 56 64 57 41 58
REMARK SMILES IDX 30 59 31 60 35 61 32 62 34 63 33 64 52 65 53 66 57 67 54 68
REMARK SMILES IDX 56 69 55 70 42 71 43 72 47 73 44 74 46 75 45 76
REMARK H PARENT 70 15 12 20 12 21 12 22 62 44 40 55
REMARK Flexibility Score: inf
ROOT
ATOM      1  C   UNL     1       3.904  -6.912  -2.603  1.00  0.00     0.274 C 
ENDROOT
BRANCH   1   2
ATOM      2  O   UNL     1       2.725  -6.186  -2.212  1.00  0.00    -0.457 OA
BRANCH   2   3
ATOM      3  C   UNL     1       2.387  -6.263  -0.887  1.00  0.00     0.370 C 
ATOM      4  O   UNL     1       2.981  -6.951  -0.063  1.00  0.00    -0.245 OA
BRANCH   3   5
ATOM      5  C   UNL     1       1.150  -5.398  -0.561  1.00  0.00     0.327 C 
BRANCH   5   6
ATOM      6  C   UNL     1      -0.087  -6.250  -0.377  1.00  0.00     0.067 A 
ATOM      7  C   UNL     1      -1.598  -7.482   1.097  1.00  0.00     0.161 A 
ATOM      8  C   UNL     1      -2.377  -7.815  -0.018  1.00  0.00     0.054 A 
ATOM      9  C   UNL     1      -0.473  -6.675   0.908  1.00  0.00     0.167 A 
ATOM     10  C   UNL     1      -2.037  -7.381  -1.310  1.00  0.00    -0.041 A 
ATOM     11  C   UNL     1      -0.872  -6.625  -1.478  1.00  0.00     0.018 A 
BRANCH   7  12
ATOM     12  O   UNL     1      -2.093  -7.954   2.282  1.00  0.00    -0.493 OA
ATOM     13  C   UNL     1      -1.180  -8.207   3.344  1.00  0.00     0.278 C 
ENDBRANCH   7  12
BRANCH   9  14
ATOM     14  O   UNL     1       0.257  -6.201   1.964  1.00  0.00    -0.504 OA
ATOM     15  H   UNL     1       0.037  -6.457   2.838  1.00  0.00     0.293 HD
ENDBRANCH   9  14
BRANCH  10  16
ATOM     16  C   UNL     1      -2.904  -7.685  -2.517  1.00  0.00     0.013 C 
ATOM     17  C   UNL     1      -2.950  -9.183  -2.813  1.00  0.00     0.012 C 
ATOM     18  C   UNL     1      -4.311  -7.105  -2.353  1.00  0.00     0.012 C 
ENDBRANCH  10  16
ENDBRANCH   5   6
BRANCH   5  19
ATOM     19  N   UNL     1       0.972  -4.289  -1.530  1.00  0.00    -0.342 N 
ATOM     20  H   UNL     1       0.800  -4.674  -2.459  1.00  0.00     0.345 HD
ATOM     21  H   UNL     1       1.815  -3.716  -1.550  1.00  0.00     0.345 HD
ATOM     22  H   UNL     1       0.177  -3.715  -1.248  1.00  0.00     0.345 HD
ENDBRANCH   5  19
ENDBRANCH   3   5
ENDBRANCH   2   3
ENDBRANCH   1   2
BRANCH   1  23
ATOM     23  C   UNL     1       5.130  -5.999  -2.664  1.00  0.00     0.275 C 
BRANCH  23  24
ATOM     24  O   UNL     1       5.459  -5.478  -1.362  1.00  0.00    -0.458 OA
BRANCH  24  25
ATOM     25  C   UNL     1       5.070  -4.200  -1.142  1.00  0.00     0.338 C 
ATOM     26  O   UNL     1       4.544  -3.437  -1.932  1.00  0.00    -0.246 OA
BRANCH  25  27
ATOM     27  C   UNL     1       5.285  -3.854   0.271  1.00  0.00     0.060 A 
ATOM     28  C   UNL     1       4.168  -3.776   1.103  1.00  0.00     0.016 A 
ATOM     29  C   UNL     1       6.542  -3.477   0.743  1.00  0.00     0.016 A 
ATOM     30  C   UNL     1       4.288  -3.307   2.405  1.00  0.00     0.010 A 
ATOM     31  C   UNL     1       6.666  -3.002   2.055  1.00  0.00     0.010 A 
ATOM     32  C   UNL     1       5.535  -2.890   2.885  1.00  0.00    -0.014 A 
BRANCH  32  33
ATOM     33  C   UNL     1       5.608  -2.230   4.210  1.00  0.00     0.031 A 
ATOM     34  C   UNL     1       5.780  -0.737   4.285  1.00  0.00     0.074 A 
ATOM     35  C   UNL     1       5.446  -2.946   5.338  1.00  0.00     0.049 A 
ATOM     36  N   UNL     1       5.893   0.031   5.339  1.00  0.00    -0.248 NA
ATOM     37  C   UNL     1       5.831  -0.013   3.004  1.00  0.00     0.031 C 
ATOM     38  C   UNL     1       5.205  -4.388   5.401  1.00  0.00     0.029 A 
ATOM     39  N   UNL     1       5.445  -2.548   6.652  1.00  0.00    -0.354 N 
ATOM     40  C   UNL     1       6.064   1.320   4.849  1.00  0.00     0.074 A 
ATOM     41  C   UNL     1       6.044   1.232   3.405  1.00  0.00     0.031 C 
ATOM     42  C   UNL     1       5.062  -4.751   6.687  1.00  0.00     0.029 A 
ATOM     43  C   UNL     1       5.243  -3.578   7.537  1.00  0.00     0.049 A 
ATOM     44  H   UNL     1       5.576  -1.613   6.933  1.00  0.00     0.167 HD
ATOM     45  C   UNL     1       6.223   2.473   5.540  1.00  0.00     0.031 A 
ATOM     46  C   UNL     1       5.224  -3.577   8.883  1.00  0.00     0.031 A 
ATOM     47  C   UNL     1       6.211   2.572   6.974  1.00  0.00     0.049 A 
ATOM     48  C   UNL     1       5.446  -2.288   9.624  1.00  0.00     0.074 A 
ATOM     49  C   UNL     1       6.344   3.702   7.762  1.00  0.00     0.029 A 
ATOM     50  N   UNL     1       6.050   1.498   7.834  1.00  0.00    -0.354 N 
ATOM     51  N   UNL     1       5.615  -1.078   9.148  1.00  0.00    -0.248 NA
ATOM     52  C   UNL     1       5.479  -2.367  11.092  1.00  0.00     0.031 C 
ATOM     53  C   UNL     1       6.301   3.306   9.104  1.00  0.00     0.029 A 
ATOM     54  C   UNL     1       6.101   1.936   9.147  1.00  0.00     0.049 A 
ATOM     55  H   UNL     1       5.919   0.564   7.554  1.00  0.00     0.167 HD
ATOM     56  C   UNL     1       5.757  -0.252  10.255  1.00  0.00     0.074 A 
ATOM     57  C   UNL     1       5.634  -1.094  11.427  1.00  0.00     0.031 C 
ATOM     58  C   UNL     1       5.974   1.084  10.299  1.00  0.00     0.031 A 
BRANCH  45  59
ATOM     59  C   UNL     1       6.467   3.724   4.746  1.00  0.00    -0.014 A 
ATOM     60  C   UNL     1       5.428   4.377   4.068  1.00  0.00     0.009 A 
ATOM     61  C   UNL     1       7.758   4.274   4.710  1.00  0.00     0.009 A 
ATOM     62  C   UNL     1       5.683   5.545   3.346  1.00  0.00     0.001 A 
ATOM     63  C   UNL     1       8.006   5.453   4.005  1.00  0.00     0.001 A 
ATOM     64  C   UNL     1       6.970   6.084   3.319  1.00  0.00     0.000 A 
ENDBRANCH  45  59
BRANCH  46  65
ATOM     65  C   UNL     1       5.019  -4.845   9.631  1.00  0.00    -0.014 A 
ATOM     66  C   UNL     1       3.836  -5.066  10.352  1.00  0.00     0.009 A 
ATOM     67  C   UNL     1       6.023  -5.824   9.655  1.00  0.00     0.009 A 
ATOM     68  C   UNL     1       3.675  -6.232  11.104  1.00  0.00     0.001 A 
ATOM     69  C   UNL     1       5.848  -7.001  10.386  1.00  0.00     0.001 A 
ATOM     70  C   UNL     1       4.679  -7.199  11.118  1.00  0.00     0.000 A 
ENDBRANCH  46  65
BRANCH  58  71
ATOM     71  C   UNL     1       6.064   1.715  11.657  1.00  0.00    -0.014 A 
ATOM     72  C   UNL     1       7.208   1.557  12.454  1.00  0.00     0.009 A 
ATOM     73  C   UNL     1       5.001   2.496  12.135  1.00  0.00     0.009 A 
ATOM     74  C   UNL     1       7.271   2.143  13.720  1.00  0.00     0.001 A 
ATOM     75  C   UNL     1       5.076   3.100  13.390  1.00  0.00     0.001 A 
ATOM     76  C   UNL     1       6.207   2.916  14.185  1.00  0.00     0.000 A 
ENDBRANCH  58  71
ENDBRANCH  32  33
ENDBRANCH  25  27
ENDBRANCH  24  25
ENDBRANCH  23  24
ENDBRANCH   1  23
TORSDOF 16
