REMARK SMILES Cc1nc(CCc2ccc(S(=O)(=O)N3CCCC3)cc2)ncc1C(=O)OCCOC(=O)c1ccc(-c2c3nc(c(-c4ccccc4)c4ccc([nH]4)c(-c4ccccc4)c4nc(c(-c5ccccc5)c5ccc2[nH]5)C=C4)C=C3)cc1
REMARK SMILES IDX 26 1 24 2 25 3 23 4 1 5 2 6 3 7 4 8 22 9 21 10 5 11 6 12
REMARK SMILES IDX 7 13 8 14 20 15 9 16 19 17 10 18 11 19 12 20 13 21 14 22
REMARK SMILES IDX 15 23 18 24 16 25 17 26 27 27 28 28 29 29 30 30 31 31 32 32
REMARK SMILES IDX 33 33 79 34 34 35 78 36 35 37 36 38 37 39 72 40 38 41 77 42
REMARK SMILES IDX 71 43 73 44 39 45 76 46 70 47 69 48 40 50 62 51 47 52 61 53
REMARK SMILES IDX 48 54 51 55 60 56 74 57 49 58 50 59 59 61 75 62 52 63 41 64
REMARK SMILES IDX 42 65 46 66 43 67 45 68 44 69 63 70 64 71 68 72 65 73 67 74
REMARK SMILES IDX 66 75 53 76 54 77 58 78 55 79 57 80 56 81
REMARK H PARENT 73 49 51 60
REMARK Flexibility Score: inf
ROOT
ATOM      1  O   UNL     1      -1.598  -2.585  -0.001  1.00  0.00    -0.458 OA
ENDROOT
BRANCH   1   2
ATOM      2  C   UNL     1      -0.586  -2.374   0.881  1.00  0.00     0.341 C 
ATOM      3  O   UNL     1      -0.160  -3.163   1.706  1.00  0.00    -0.246 OA
BRANCH   2   4
ATOM      4  C   UNL     1      -0.016  -1.030   0.696  1.00  0.00     0.099 A 
ATOM      5  C   UNL     1      -2.252   0.033   0.995  1.00  0.00     0.068 C 
ATOM      6  C   UNL     1      -0.782   0.104   0.811  1.00  0.00     0.056 A 
ATOM      7  N   UNL     1      -0.276   1.346   0.658  1.00  0.00    -0.237 NA
ATOM      8  C   UNL     1       1.017   1.462   0.318  1.00  0.00     0.128 A 
ATOM      9  C   UNL     1       1.322  -0.802   0.465  1.00  0.00     0.130 A 
ATOM     10  N   UNL     1       1.859   0.420   0.230  1.00  0.00    -0.240 NA
BRANCH   8  11
ATOM     11  C   UNL     1       1.502   2.834  -0.062  1.00  0.00     0.082 C 
BRANCH  11  12
ATOM     12  C   UNL     1       0.976   3.291  -1.434  1.00  0.00     0.043 C 
BRANCH  12  13
ATOM     13  C   UNL     1      -0.524   3.509  -1.499  1.00  0.00    -0.047 A 
ATOM     14  C   UNL     1      -1.094   4.699  -1.034  1.00  0.00     0.005 A 
ATOM     15  C   UNL     1      -1.376   2.497  -1.974  1.00  0.00     0.005 A 
ATOM     16  C   UNL     1      -2.484   4.859  -1.014  1.00  0.00     0.022 A 
ATOM     17  C   UNL     1      -2.770   2.650  -1.949  1.00  0.00     0.022 A 
ATOM     18  C   UNL     1      -3.327   3.830  -1.458  1.00  0.00     0.082 A 
BRANCH  18  19
ATOM     19  S   UNL     1      -5.094   4.105  -1.398  1.00  0.00     0.243 S 
ATOM     20  O   UNL     1      -5.317   5.081  -0.348  1.00  0.00    -0.207 OA
ATOM     21  O   UNL     1      -5.525   4.350  -2.756  1.00  0.00    -0.207 OA
BRANCH  19  22
ATOM     22  N   UNL     1      -5.822   2.689  -0.871  1.00  0.00    -0.198 NA
ATOM     23  C   UNL     1      -5.534   2.132   0.454  1.00  0.00     0.102 C 
ATOM     24  C   UNL     1      -6.222   1.626  -1.812  1.00  0.00     0.102 C 
ATOM     25  C   UNL     1      -5.309   0.663   0.148  1.00  0.00     0.018 C 
ATOM     26  C   UNL     1      -6.292   0.361  -0.958  1.00  0.00     0.018 C 
ENDBRANCH  19  22
ENDBRANCH  18  19
ENDBRANCH  12  13
ENDBRANCH  11  12
ENDBRANCH   8  11
ENDBRANCH   2   4
ENDBRANCH   1   2
BRANCH   1  27
ATOM     27  C   UNL     1      -2.347  -3.818   0.116  1.00  0.00     0.275 C 
BRANCH  27  28
ATOM     28  C   UNL     1      -2.198  -4.692  -1.131  1.00  0.00     0.275 C 
BRANCH  28  29
ATOM     29  O   UNL     1      -0.840  -5.144  -1.252  1.00  0.00    -0.458 OA
BRANCH  29  30
ATOM     30  C   UNL     1      -0.080  -4.410  -2.093  1.00  0.00     0.338 C 
ATOM     31  O   UNL     1      -0.435  -3.498  -2.821  1.00  0.00    -0.246 OA
BRANCH  30  32
ATOM     32  C   UNL     1       1.334  -4.718  -1.863  1.00  0.00     0.060 A 
ATOM     33  C   UNL     1       1.949  -4.047  -0.817  1.00  0.00     0.016 A 
ATOM     34  C   UNL     1       2.091  -5.467  -2.753  1.00  0.00     0.016 A 
ATOM     35  C   UNL     1       3.327  -3.980  -0.732  1.00  0.00     0.010 A 
ATOM     36  C   UNL     1       3.481  -5.520  -2.579  1.00  0.00     0.010 A 
ATOM     37  C   UNL     1       4.119  -4.739  -1.594  1.00  0.00    -0.014 A 
BRANCH  37  38
ATOM     38  C   UNL     1       5.600  -4.665  -1.478  1.00  0.00     0.031 A 
ATOM     39  C   UNL     1       6.427  -4.282  -2.675  1.00  0.00     0.074 A 
ATOM     40  C   UNL     1       6.204  -4.898  -0.293  1.00  0.00     0.049 A 
ATOM     41  N   UNL     1       7.723  -4.354  -2.840  1.00  0.00    -0.248 NA
ATOM     42  C   UNL     1       5.702  -3.765  -3.848  1.00  0.00     0.031 C 
ATOM     43  C   UNL     1       5.523  -5.192   0.973  1.00  0.00     0.029 A 
ATOM     44  N   UNL     1       7.534  -4.909   0.046  1.00  0.00    -0.354 N 
ATOM     45  C   UNL     1       7.959  -3.966  -4.154  1.00  0.00     0.074 A 
ATOM     46  C   UNL     1       6.675  -3.658  -4.743  1.00  0.00     0.031 C 
ATOM     47  C   UNL     1       6.432  -5.301   1.952  1.00  0.00     0.029 A 
ATOM     48  C   UNL     1       7.761  -5.216   1.367  1.00  0.00     0.049 A 
ATOM     49  H   UNL     1       8.256  -4.717  -0.596  1.00  0.00     0.167 HD
ATOM     50  C   UNL     1       9.142  -3.885  -4.808  1.00  0.00     0.031 A 
ATOM     51  C   UNL     1       8.907  -5.467   2.027  1.00  0.00     0.031 A 
ATOM     52  C   UNL     1      10.417  -4.150  -4.195  1.00  0.00     0.049 A 
ATOM     53  C   UNL     1      10.196  -5.444   1.260  1.00  0.00     0.074 A 
ATOM     54  C   UNL     1      11.677  -4.089  -4.764  1.00  0.00     0.029 A 
ATOM     55  N   UNL     1      10.593  -4.513  -2.868  1.00  0.00    -0.354 N 
ATOM     56  N   UNL     1      10.403  -5.141   0.002  1.00  0.00    -0.248 NA
ATOM     57  C   UNL     1      11.408  -5.815   2.001  1.00  0.00     0.031 C 
ATOM     58  C   UNL     1      12.611  -4.473  -3.797  1.00  0.00     0.029 A 
ATOM     59  C   UNL     1      11.939  -4.704  -2.607  1.00  0.00     0.049 A 
ATOM     60  H   UNL     1       9.869  -4.619  -2.210  1.00  0.00     0.167 HD
ATOM     61  C   UNL     1      11.771  -5.262  -0.195  1.00  0.00     0.074 A 
ATOM     62  C   UNL     1      12.345  -5.644   1.079  1.00  0.00     0.031 C 
ATOM     63  C   UNL     1      12.489  -5.078  -1.329  1.00  0.00     0.031 A 
BRANCH  50  64
ATOM     64  C   UNL     1       9.111  -3.553  -6.275  1.00  0.00    -0.014 A 
ATOM     65  C   UNL     1       8.781  -2.272  -6.743  1.00  0.00     0.009 A 
ATOM     66  C   UNL     1       9.461  -4.544  -7.207  1.00  0.00     0.009 A 
ATOM     67  C   UNL     1       8.772  -2.001  -8.114  1.00  0.00     0.001 A 
ATOM     68  C   UNL     1       9.481  -4.262  -8.574  1.00  0.00     0.001 A 
ATOM     69  C   UNL     1       9.128  -2.993  -9.027  1.00  0.00     0.000 A 
ENDBRANCH  50  64
BRANCH  51  70
ATOM     70  C   UNL     1       8.879  -5.842   3.467  1.00  0.00    -0.014 A 
ATOM     71  C   UNL     1       9.462  -5.011   4.435  1.00  0.00     0.009 A 
ATOM     72  C   UNL     1       8.277  -7.043   3.881  1.00  0.00     0.009 A 
ATOM     73  C   UNL     1       9.468  -5.388   5.781  1.00  0.00     0.001 A 
ATOM     74  C   UNL     1       8.249  -7.398   5.231  1.00  0.00     0.001 A 
ATOM     75  C   UNL     1       8.856  -6.576   6.178  1.00  0.00     0.000 A 
ENDBRANCH  51  70
BRANCH  63  76
ATOM     76  C   UNL     1      13.979  -5.234  -1.224  1.00  0.00    -0.014 A 
ATOM     77  C   UNL     1      14.574  -6.492  -1.050  1.00  0.00     0.009 A 
ATOM     78  C   UNL     1      14.799  -4.099  -1.329  1.00  0.00     0.009 A 
ATOM     79  C   UNL     1      15.961  -6.606  -0.945  1.00  0.00     0.001 A 
ATOM     80  C   UNL     1      16.186  -4.220  -1.258  1.00  0.00     0.001 A 
ATOM     81  C   UNL     1      16.765  -5.472  -1.054  1.00  0.00     0.000 A 
ENDBRANCH  63  76
ENDBRANCH  37  38
ENDBRANCH  30  32
ENDBRANCH  29  30
ENDBRANCH  28  29
ENDBRANCH  27  28
ENDBRANCH   1  27
TORSDOF 16
