REMARK SMILES C[N@H+]1CC[C@@H](Cc2nccnc2C(=O)OCCOC(=O)c2ccc(-c3c4nc(c(-c5ccccc5)c5ccc([nH]5)c(-c5ccccc5)c5nc(c(-c6ccccc6)c6ccc3[nH]6)C=C5)C=C4)cc2)C1
REMARK SMILES IDX 16 1 15 2 13 3 14 4 12 5 7 6 8 7 9 8 11 9 10 10 6 11 5 12
REMARK SMILES IDX 1 13 2 14 3 15 69 16 4 18 17 19 18 20 19 21 20 22 21 23
REMARK SMILES IDX 22 24 68 25 23 26 67 27 24 28 25 29 26 30 61 31 27 32 66 33
REMARK SMILES IDX 60 34 62 35 28 36 65 37 59 38 58 39 29 41 51 42 36 43 50 44
REMARK SMILES IDX 37 45 40 46 49 47 63 48 38 49 39 50 48 52 64 53 41 54 30 55
REMARK SMILES IDX 31 56 35 57 32 58 34 59 33 60 52 61 53 62 57 63 54 64 56 65
REMARK SMILES IDX 55 66 42 67 43 68 47 69 44 70 46 71 45 72
REMARK H PARENT 2 17 62 40 40 51
REMARK Flexibility Score: inf
ROOT
ATOM      1  C   UNL     1       1.586  -1.050   4.534  1.00  0.00     0.275 C 
ENDROOT
BRANCH   1   2
ATOM      2  O   UNL     1       1.805  -1.656   3.243  1.00  0.00    -0.457 OA
BRANCH   2   3
ATOM      3  C   UNL     1       2.730  -2.648   3.175  1.00  0.00     0.358 C 
ATOM      4  O   UNL     1       3.406  -3.050   4.107  1.00  0.00    -0.244 OA
BRANCH   3   5
ATOM      5  C   UNL     1       2.737  -3.272   1.816  1.00  0.00     0.169 A 
ATOM      6  C   UNL     1       2.662  -2.566   0.612  1.00  0.00     0.074 A 
ATOM      7  N   UNL     1       2.648  -3.228  -0.585  1.00  0.00    -0.257 NA
ATOM      8  C   UNL     1       2.704  -4.577  -0.542  1.00  0.00     0.131 A 
ATOM      9  N   UNL     1       2.835  -4.638   1.840  1.00  0.00    -0.246 NA
ATOM     10  C   UNL     1       2.804  -5.266   0.646  1.00  0.00     0.132 A 
BRANCH   6  11
ATOM     11  C   UNL     1       2.675  -1.065   0.493  1.00  0.00     0.068 C 
BRANCH  11  12
ATOM     12  C   UNL     1       1.495  -0.506  -0.311  1.00  0.00     0.056 C 
ATOM     13  C   UNL     1      -2.096   0.004   0.178  1.00  0.00     0.332 C 
ATOM     14  N   UNL     1      -0.745   0.091  -0.355  1.00  0.00    -0.337 N 
ATOM     15  C   UNL     1      -0.066   1.331   0.017  1.00  0.00     0.262 C 
ATOM     16  C   UNL     1       0.118  -0.977   0.154  1.00  0.00     0.266 C 
ATOM     17  H   UNL     1      -0.875   0.030  -1.365  1.00  0.00     0.347 HD
ATOM     18  C   UNL     1       1.406   1.025  -0.245  1.00  0.00     0.071 C 
ENDBRANCH  11  12
ENDBRANCH   6  11
ENDBRANCH   3   5
ENDBRANCH   2   3
ENDBRANCH   1   2
BRANCH   1  19
ATOM     19  C   UNL     1       0.116  -1.180   4.939  1.00  0.00     0.275 C 
BRANCH  19  20
ATOM     20  O   UNL     1      -0.215  -2.551   5.230  1.00  0.00    -0.458 OA
BRANCH  20  21
ATOM     21  C   UNL     1      -0.636  -3.271   4.166  1.00  0.00     0.338 C 
ATOM     22  O   UNL     1      -0.838  -2.867   3.030  1.00  0.00    -0.246 OA
BRANCH  21  23
ATOM     23  C   UNL     1      -0.689  -4.695   4.523  1.00  0.00     0.060 A 
ATOM     24  C   UNL     1       0.102  -5.571   3.777  1.00  0.00     0.016 A 
ATOM     25  C   UNL     1      -1.548  -5.181   5.509  1.00  0.00     0.016 A 
ATOM     26  C   UNL     1       0.026  -6.941   3.994  1.00  0.00     0.010 A 
ATOM     27  C   UNL     1      -1.625  -6.562   5.729  1.00  0.00     0.010 A 
ATOM     28  C   UNL     1      -0.852  -7.450   4.958  1.00  0.00    -0.014 A 
BRANCH  28  29
ATOM     29  C   UNL     1      -1.010  -8.918   5.086  1.00  0.00     0.031 A 
ATOM     30  C   UNL     1      -2.234  -9.586   4.530  1.00  0.00     0.074 A 
ATOM     31  C   UNL     1      -0.031  -9.657   5.640  1.00  0.00     0.049 A 
ATOM     32  N   UNL     1      -2.573 -10.850   4.561  1.00  0.00    -0.248 NA
ATOM     33  C   UNL     1      -3.204  -8.718   3.843  1.00  0.00     0.031 C 
ATOM     34  C   UNL     1       1.234  -9.134   6.159  1.00  0.00     0.029 A 
ATOM     35  N   UNL     1       0.056 -11.011   5.842  1.00  0.00    -0.354 N 
ATOM     36  C   UNL     1      -3.804 -10.926   3.922  1.00  0.00     0.074 A 
ATOM     37  C   UNL     1      -4.158  -9.581   3.523  1.00  0.00     0.031 C 
ATOM     38  C   UNL     1       1.978 -10.160   6.606  1.00  0.00     0.029 A 
ATOM     39  C   UNL     1       1.226 -11.401   6.444  1.00  0.00     0.049 A 
ATOM     40  H   UNL     1      -0.653 -11.642   5.580  1.00  0.00     0.167 HD
ATOM     41  C   UNL     1      -4.569 -12.018   3.688  1.00  0.00     0.031 A 
ATOM     42  C   UNL     1       1.639 -12.621   6.838  1.00  0.00     0.031 A 
ATOM     43  C   UNL     1      -4.216 -13.357   4.074  1.00  0.00     0.049 A 
ATOM     44  C   UNL     1       0.744 -13.808   6.618  1.00  0.00     0.074 A 
ATOM     45  C   UNL     1      -4.929 -14.528   3.882  1.00  0.00     0.029 A 
ATOM     46  N   UNL     1      -3.045 -13.703   4.730  1.00  0.00    -0.354 N 
ATOM     47  N   UNL     1      -0.426 -13.863   6.030  1.00  0.00    -0.248 NA
ATOM     48  C   UNL     1       1.228 -15.102   7.121  1.00  0.00     0.031 C 
ATOM     49  C   UNL     1      -4.205 -15.579   4.455  1.00  0.00     0.029 A 
ATOM     50  C   UNL     1      -3.023 -15.067   4.966  1.00  0.00     0.049 A 
ATOM     51  H   UNL     1      -2.335 -13.073   4.989  1.00  0.00     0.167 HD
ATOM     52  C   UNL     1      -0.813 -15.195   6.081  1.00  0.00     0.074 A 
ATOM     53  C   UNL     1       0.255 -15.919   6.740  1.00  0.00     0.031 C 
ATOM     54  C   UNL     1      -1.954 -15.768   5.626  1.00  0.00     0.031 A 
BRANCH  41  55
ATOM     55  C   UNL     1      -5.891 -11.796   3.012  1.00  0.00    -0.014 A 
ATOM     56  C   UNL     1      -5.972 -11.524   1.638  1.00  0.00     0.009 A 
ATOM     57  C   UNL     1      -7.075 -11.882   3.761  1.00  0.00     0.009 A 
ATOM     58  C   UNL     1      -7.214 -11.311   1.034  1.00  0.00     0.001 A 
ATOM     59  C   UNL     1      -8.315 -11.691   3.150  1.00  0.00     0.001 A 
ATOM     60  C   UNL     1      -8.383 -11.398   1.789  1.00  0.00     0.000 A 
ENDBRANCH  41  55
BRANCH  42  61
ATOM     61  C   UNL     1       2.954 -12.778   7.509  1.00  0.00    -0.014 A 
ATOM     62  C   UNL     1       4.021 -13.411   6.854  1.00  0.00     0.009 A 
ATOM     63  C   UNL     1       3.145 -12.300   8.815  1.00  0.00     0.009 A 
ATOM     64  C   UNL     1       5.248 -13.576   7.500  1.00  0.00     0.001 A 
ATOM     65  C   UNL     1       4.380 -12.444   9.449  1.00  0.00     0.001 A 
ATOM     66  C   UNL     1       5.428 -13.089   8.794  1.00  0.00     0.000 A 
ENDBRANCH  42  61
BRANCH  54  67
ATOM     67  C   UNL     1      -2.091 -17.252   5.806  1.00  0.00    -0.014 A 
ATOM     68  C   UNL     1      -2.397 -17.803   7.060  1.00  0.00     0.009 A 
ATOM     69  C   UNL     1      -1.950 -18.105   4.701  1.00  0.00     0.009 A 
ATOM     70  C   UNL     1      -2.531 -19.184   7.208  1.00  0.00     0.001 A 
ATOM     71  C   UNL     1      -2.106 -19.483   4.848  1.00  0.00     0.001 A 
ATOM     72  C   UNL     1      -2.389 -20.022   6.102  1.00  0.00     0.000 A 
ENDBRANCH  54  67
ENDBRANCH  28  29
ENDBRANCH  21  23
ENDBRANCH  20  21
ENDBRANCH  19  20
ENDBRANCH   1  19
TORSDOF 13
