REMARK SMILES Cc1sc(NC(=O)[C@@H]2[C@@H](C(=O)OCCOC(=O)c3ccc(-c4c5nc(c(-c6ccccc6)c6ccc([nH]6)c(-c6ccccc6)c6nc(c(-c7ccccc7)c7ccc4[nH]7)C=C6)C=C5)cc3)[C@@H]3C=C[C@H]2C3)c(C#N)c1C
REMARK SMILES IDX 13 1 12 2 10 3 11 4 9 5 8 6 69 7 66 8 68 9 70 10 67 11 6 12
REMARK SMILES IDX 5 13 7 15 4 16 1 17 2 18 3 19 74 20 71 21 75 22 72 23 73 24
REMARK SMILES IDX 14 25 15 26 16 27 17 28 18 29 19 30 65 31 20 32 64 33 21 34
REMARK SMILES IDX 22 35 23 36 58 37 24 38 63 39 57 40 59 41 25 42 62 43 56 44
REMARK SMILES IDX 55 45 26 47 48 48 33 49 47 50 34 51 37 52 46 53 60 54 35 55
REMARK SMILES IDX 36 56 45 58 61 59 38 60 27 61 28 62 32 63 29 64 31 65 30 66
REMARK SMILES IDX 49 67 50 68 54 69 51 70 53 71 52 72 39 73 40 74 44 75 41 76
REMARK SMILES IDX 43 77 42 78
REMARK H PARENT 5 14 59 46 37 57
REMARK Flexibility Score: inf
ROOT
ATOM      1  C   UNL     1       0.960  -3.596  -2.598  1.00  0.00     0.274 C 
ENDROOT
BRANCH   1   2
ATOM      2  O   UNL     1       1.041  -4.662  -1.635  1.00  0.00    -0.462 OA
BRANCH   2   3
ATOM      3  C   UNL     1       0.391  -4.456  -0.460  1.00  0.00     0.310 C 
ATOM      4  O   UNL     1      -0.165  -3.406  -0.156  1.00  0.00    -0.252 OA
BRANCH   3   5
ATOM      5  C   UNL     1       0.359  -5.663   0.443  1.00  0.00     0.119 C 
ATOM      6  C   UNL     1       1.423  -5.524   1.574  1.00  0.00     0.100 C 
ATOM      7  C   UNL     1       2.206  -6.867   1.424  1.00  0.00     0.025 C 
ATOM      8  C   UNL     1       0.755  -6.982  -0.273  1.00  0.00     0.027 C 
ATOM      9  C   UNL     1       1.316  -8.066   1.666  1.00  0.00    -0.027 C 
ATOM     10  C   UNL     1       2.280  -6.979  -0.106  1.00  0.00     0.017 C 
ATOM     11  C   UNL     1       0.436  -8.128   0.656  1.00  0.00    -0.027 C 
BRANCH   6  12
ATOM     12  C   UNL     1       0.799  -5.289   2.950  1.00  0.00     0.229 C 
ATOM     13  N   UNL     1       0.351  -4.083   3.408  1.00  0.00    -0.316 N 
ATOM     14  H   UNL     1      -0.170  -4.165   4.240  1.00  0.00     0.170 HD
ATOM     15  O   UNL     1       0.600  -6.234   3.724  1.00  0.00    -0.274 OA
BRANCH  13  16
ATOM     16  C   UNL     1       0.456  -2.772   2.976  1.00  0.00     0.113 A 
ATOM     17  C   UNL     1       1.110  -0.032   0.324  1.00  0.00     0.057 C 
ATOM     18  C   UNL     1       0.813  -0.787   1.577  1.00  0.00     0.008 A 
ATOM     19  S   UNL     1       1.629  -2.266   1.863  1.00  0.00    -0.122 S 
ATOM     20  C   UNL     1      -0.043  -0.493   2.627  1.00  0.00    -0.017 A 
ATOM     21  C   UNL     1      -0.232  -1.667   3.450  1.00  0.00     0.090 A 
ATOM     22  C   UNL     1      -0.739   0.814   2.853  1.00  0.00     0.047 C 
BRANCH  21  23
ATOM     23  C   UNL     1      -1.109  -1.711   4.592  1.00  0.00     0.103 C 
ATOM     24  N   UNL     1      -1.797  -1.740   5.515  1.00  0.00    -0.192 NA
ENDBRANCH  21  23
ENDBRANCH  13  16
ENDBRANCH   6  12
ENDBRANCH   3   5
ENDBRANCH   2   3
ENDBRANCH   1   2
BRANCH   1  25
ATOM     25  C   UNL     1      -0.343  -3.627  -3.389  1.00  0.00     0.275 C 
BRANCH  25  26
ATOM     26  O   UNL     1      -1.458  -3.329  -2.557  1.00  0.00    -0.458 OA
BRANCH  26  27
ATOM     27  C   UNL     1      -2.042  -4.377  -1.931  1.00  0.00     0.338 C 
ATOM     28  O   UNL     1      -1.689  -5.544  -1.950  1.00  0.00    -0.246 OA
BRANCH  27  29
ATOM     29  C   UNL     1      -3.295  -3.915  -1.326  1.00  0.00     0.060 A 
ATOM     30  C   UNL     1      -4.076  -4.861  -0.658  1.00  0.00     0.016 A 
ATOM     31  C   UNL     1      -3.829  -2.718  -1.801  1.00  0.00     0.016 A 
ATOM     32  C   UNL     1      -5.443  -4.785  -0.822  1.00  0.00     0.010 A 
ATOM     33  C   UNL     1      -5.183  -2.634  -1.936  1.00  0.00     0.010 A 
ATOM     34  C   UNL     1      -5.953  -3.746  -1.605  1.00  0.00    -0.014 A 
BRANCH  34  35
ATOM     35  C   UNL     1      -7.355  -3.688  -1.960  1.00  0.00     0.031 A 
ATOM     36  C   UNL     1      -8.117  -3.109  -0.830  1.00  0.00     0.074 A 
ATOM     37  C   UNL     1      -7.816  -3.948  -3.204  1.00  0.00     0.049 A 
ATOM     38  N   UNL     1      -8.777  -3.776   0.059  1.00  0.00    -0.248 NA
ATOM     39  C   UNL     1      -7.850  -1.706  -0.447  1.00  0.00     0.031 C 
ATOM     40  C   UNL     1      -7.086  -4.308  -4.426  1.00  0.00     0.029 A 
ATOM     41  N   UNL     1      -9.095  -3.862  -3.662  1.00  0.00    -0.354 N 
ATOM     42  C   UNL     1      -9.230  -2.811   0.948  1.00  0.00     0.074 A 
ATOM     43  C   UNL     1      -8.362  -1.680   0.784  1.00  0.00     0.031 C 
ATOM     44  C   UNL     1      -7.899  -4.163  -5.507  1.00  0.00     0.029 A 
ATOM     45  C   UNL     1      -9.237  -3.832  -5.051  1.00  0.00     0.049 A 
ATOM     46  H   UNL     1      -9.869  -3.823  -3.054  1.00  0.00     0.167 HD
ATOM     47  C   UNL     1     -10.514  -2.843   1.398  1.00  0.00     0.031 A 
ATOM     48  C   UNL     1     -10.373  -3.507  -5.734  1.00  0.00     0.031 A 
ATOM     49  C   UNL     1     -11.109  -4.135   1.154  1.00  0.00     0.049 A 
ATOM     50  C   UNL     1     -11.504  -3.657  -4.780  1.00  0.00     0.074 A 
ATOM     51  C   UNL     1     -10.810  -5.429   1.531  1.00  0.00     0.029 A 
ATOM     52  N   UNL     1     -11.903  -4.231   0.035  1.00  0.00    -0.354 N 
ATOM     53  N   UNL     1     -11.866  -4.815  -4.304  1.00  0.00    -0.248 NA
ATOM     54  C   UNL     1     -11.831  -2.503  -3.955  1.00  0.00     0.031 C 
ATOM     55  C   UNL     1     -11.054  -6.216   0.367  1.00  0.00     0.029 A 
ATOM     56  C   UNL     1     -11.601  -5.396  -0.620  1.00  0.00     0.049 A 
ATOM     57  H   UNL     1     -12.577  -3.572  -0.248  1.00  0.00     0.167 HD
ATOM     58  C   UNL     1     -12.030  -4.593  -2.944  1.00  0.00     0.074 A 
ATOM     59  C   UNL     1     -12.038  -3.134  -2.794  1.00  0.00     0.031 C 
ATOM     60  C   UNL     1     -11.806  -5.591  -2.038  1.00  0.00     0.031 A 
BRANCH  47  61
ATOM     61  C   UNL     1     -11.356  -1.595   1.549  1.00  0.00    -0.014 A 
ATOM     62  C   UNL     1     -12.672  -1.744   2.011  1.00  0.00     0.009 A 
ATOM     63  C   UNL     1     -11.022  -0.338   1.002  1.00  0.00     0.009 A 
ATOM     64  C   UNL     1     -13.617  -0.723   1.857  1.00  0.00     0.001 A 
ATOM     65  C   UNL     1     -11.951   0.696   0.879  1.00  0.00     0.001 A 
ATOM     66  C   UNL     1     -13.258   0.493   1.283  1.00  0.00     0.000 A 
ENDBRANCH  47  61
BRANCH  48  67
ATOM     67  C   UNL     1     -10.534  -2.721  -6.989  1.00  0.00    -0.014 A 
ATOM     68  C   UNL     1     -11.761  -2.675  -7.681  1.00  0.00     0.009 A 
ATOM     69  C   UNL     1      -9.567  -1.763  -7.341  1.00  0.00     0.009 A 
ATOM     70  C   UNL     1     -12.014  -1.694  -8.659  1.00  0.00     0.001 A 
ATOM     71  C   UNL     1      -9.820  -0.782  -8.311  1.00  0.00     0.001 A 
ATOM     72  C   UNL     1     -11.048  -0.739  -8.961  1.00  0.00     0.000 A 
ENDBRANCH  48  67
BRANCH  60  73
ATOM     73  C   UNL     1     -11.579  -6.990  -2.561  1.00  0.00    -0.014 A 
ATOM     74  C   UNL     1     -10.478  -7.376  -3.351  1.00  0.00     0.009 A 
ATOM     75  C   UNL     1     -12.443  -7.990  -2.096  1.00  0.00     0.009 A 
ATOM     76  C   UNL     1     -10.274  -8.723  -3.681  1.00  0.00     0.001 A 
ATOM     77  C   UNL     1     -12.228  -9.332  -2.408  1.00  0.00     0.001 A 
ATOM     78  C   UNL     1     -11.148  -9.699  -3.206  1.00  0.00     0.000 A 
ENDBRANCH  60  73
ENDBRANCH  34  35
ENDBRANCH  27  29
ENDBRANCH  26  27
ENDBRANCH  25  26
ENDBRANCH   1  25
TORSDOF 14
