REMARK SMILES CCc1ccc(NC(=O)c2c(C(=O)OCCOC(=O)c3ccc(-c4c5nc(c(-c6ccccc6)c6ccc([nH]6)c(-c6ccccc6)c6nc(c(-c7ccccc7)c7ccc4[nH]7)C=C6)C=C5)cc3)cnn2C)cc1
REMARK SMILES IDX 15 1 14 2 12 3 13 4 11 5 10 6 70 7 68 8 69 9 71 10 8 11 7 12
REMARK SMILES IDX 9 14 6 15 3 16 4 17 73 18 5 19 72 20 2 21 1 22 16 23 17 24
REMARK SMILES IDX 18 25 19 26 20 27 21 28 67 29 22 30 66 31 23 32 24 33 25 34
REMARK SMILES IDX 60 35 26 36 65 37 59 38 61 39 27 40 64 41 58 42 57 43 28 45
REMARK SMILES IDX 50 46 35 47 49 48 36 49 39 50 48 51 62 52 37 53 38 54 47 56
REMARK SMILES IDX 63 57 40 58 29 59 30 60 34 61 31 62 33 63 32 64 51 65 52 66
REMARK SMILES IDX 56 67 53 68 55 69 54 70 41 71 42 72 46 73 43 74 45 75 44 76
REMARK H PARENT 7 13 61 44 39 55
REMARK Flexibility Score: inf
ROOT
ATOM      1  C   UNL     1       3.016  -8.917  -3.666  1.00  0.00     0.275 C 
ENDROOT
BRANCH   1   2
ATOM      2  O   UNL     1       2.173  -7.752  -3.724  1.00  0.00    -0.458 OA
BRANCH   2   3
ATOM      3  C   UNL     1       0.849  -7.959  -3.479  1.00  0.00     0.342 C 
ATOM      4  O   UNL     1       0.372  -9.031  -3.139  1.00  0.00    -0.246 OA
BRANCH   3   5
ATOM      5  C   UNL     1       0.031  -6.762  -3.585  1.00  0.00     0.111 A 
ATOM      6  C   UNL     1       0.302  -5.527  -4.171  1.00  0.00     0.140 A 
ATOM      7  N   UNL     1      -0.865  -4.806  -4.031  1.00  0.00    -0.262 N 
ATOM      8  C   UNL     1      -1.280  -6.636  -3.078  1.00  0.00     0.151 A 
ATOM      9  N   UNL     1      -1.805  -5.434  -3.296  1.00  0.00    -0.180 NA
ATOM     10  C   UNL     1      -1.232  -3.537  -4.621  1.00  0.00     0.174 C 
BRANCH   6  11
ATOM     11  C   UNL     1       1.472  -5.134  -4.921  1.00  0.00     0.274 C 
ATOM     12  N   UNL     1       2.055  -3.898  -4.751  1.00  0.00    -0.321 N 
ATOM     13  H   UNL     1       2.729  -3.678  -5.435  1.00  0.00     0.170 HD
ATOM     14  O   UNL     1       1.933  -5.850  -5.812  1.00  0.00    -0.267 OA
BRANCH  12  15
ATOM     15  C   UNL     1       1.873  -2.892  -3.790  1.00  0.00     0.041 A 
ATOM     16  C   UNL     1       1.252  -0.715  -2.108  1.00  0.00    -0.048 A 
ATOM     17  C   UNL     1       1.040  -2.033  -1.684  1.00  0.00     0.006 A 
ATOM     18  C   UNL     1       1.856  -0.505  -3.353  1.00  0.00     0.006 A 
ATOM     19  C   UNL     1       1.367  -3.114  -2.511  1.00  0.00     0.026 A 
ATOM     20  C   UNL     1       2.182  -1.585  -4.178  1.00  0.00     0.026 A 
BRANCH  16  21
ATOM     21  C   UNL     1       0.759   0.466  -1.306  1.00  0.00     0.032 C 
ATOM     22  C   UNL     1       1.122   0.435   0.171  1.00  0.00     0.009 C 
ENDBRANCH  16  21
ENDBRANCH  12  15
ENDBRANCH   6  11
ENDBRANCH   3   5
ENDBRANCH   2   3
ENDBRANCH   1   2
BRANCH   1  23
ATOM     23  C   UNL     1       3.799  -8.991  -2.353  1.00  0.00     0.275 C 
BRANCH  23  24
ATOM     24  O   UNL     1       2.934  -9.218  -1.224  1.00  0.00    -0.458 OA
BRANCH  24  25
ATOM     25  C   UNL     1       2.543  -8.100  -0.570  1.00  0.00     0.338 C 
ATOM     26  O   UNL     1       2.868  -6.949  -0.808  1.00  0.00    -0.246 OA
BRANCH  25  27
ATOM     27  C   UNL     1       1.508  -8.439   0.418  1.00  0.00     0.060 A 
ATOM     28  C   UNL     1       0.230  -7.920   0.208  1.00  0.00     0.016 A 
ATOM     29  C   UNL     1       1.798  -9.165   1.575  1.00  0.00     0.016 A 
ATOM     30  C   UNL     1      -0.771  -8.118   1.153  1.00  0.00     0.010 A 
ATOM     31  C   UNL     1       0.790  -9.363   2.528  1.00  0.00     0.010 A 
ATOM     32  C   UNL     1      -0.497  -8.829   2.328  1.00  0.00    -0.014 A 
BRANCH  32  33
ATOM     33  C   UNL     1      -1.551  -8.945   3.365  1.00  0.00     0.031 A 
ATOM     34  C   UNL     1      -1.454  -8.142   4.631  1.00  0.00     0.074 A 
ATOM     35  C   UNL     1      -2.621  -9.733   3.154  1.00  0.00     0.049 A 
ATOM     36  N   UNL     1      -2.252  -8.133   5.669  1.00  0.00    -0.248 NA
ATOM     37  C   UNL     1      -0.305  -7.231   4.745  1.00  0.00     0.031 C 
ATOM     38  C   UNL     1      -2.858 -10.531   1.951  1.00  0.00     0.029 A 
ATOM     39  N   UNL     1      -3.713  -9.985   3.946  1.00  0.00    -0.354 N 
ATOM     40  C   UNL     1      -1.685  -7.245   6.573  1.00  0.00     0.074 A 
ATOM     41  C   UNL     1      -0.473  -6.739   5.965  1.00  0.00     0.031 C 
ATOM     42  C   UNL     1      -4.030 -11.174   2.079  1.00  0.00     0.029 A 
ATOM     43  C   UNL     1      -4.602 -10.870   3.388  1.00  0.00     0.049 A 
ATOM     44  H   UNL     1      -3.846  -9.570   4.829  1.00  0.00     0.167 HD
ATOM     45  C   UNL     1      -2.131  -6.886   7.801  1.00  0.00     0.031 A 
ATOM     46  C   UNL     1      -5.738 -11.396   3.883  1.00  0.00     0.031 A 
ATOM     47  C   UNL     1      -3.346  -7.371   8.401  1.00  0.00     0.049 A 
ATOM     48  C   UNL     1      -6.199 -11.005   5.258  1.00  0.00     0.074 A 
ATOM     49  C   UNL     1      -3.894  -7.041   9.628  1.00  0.00     0.029 A 
ATOM     50  N   UNL     1      -4.202  -8.292   7.816  1.00  0.00    -0.354 N 
ATOM     51  N   UNL     1      -5.652 -10.165   6.103  1.00  0.00    -0.248 NA
ATOM     52  C   UNL     1      -7.433 -11.636   5.747  1.00  0.00     0.031 C 
ATOM     53  C   UNL     1      -5.059  -7.796   9.806  1.00  0.00     0.029 A 
ATOM     54  C   UNL     1      -5.260  -8.561   8.668  1.00  0.00     0.049 A 
ATOM     55  H   UNL     1      -4.076  -8.694   6.926  1.00  0.00     0.167 HD
ATOM     56  C   UNL     1      -6.476 -10.163   7.221  1.00  0.00     0.074 A 
ATOM     57  C   UNL     1      -7.572 -11.068   6.937  1.00  0.00     0.031 C 
ATOM     58  C   UNL     1      -6.334  -9.475   8.380  1.00  0.00     0.031 A 
BRANCH  45  59
ATOM     59  C   UNL     1      -1.265  -5.954   8.599  1.00  0.00    -0.014 A 
ATOM     60  C   UNL     1      -1.163  -4.591   8.283  1.00  0.00     0.009 A 
ATOM     61  C   UNL     1      -0.546  -6.454   9.697  1.00  0.00     0.009 A 
ATOM     62  C   UNL     1      -0.328  -3.755   9.029  1.00  0.00     0.001 A 
ATOM     63  C   UNL     1       0.268  -5.612  10.455  1.00  0.00     0.001 A 
ATOM     64  C   UNL     1       0.384  -4.265  10.114  1.00  0.00     0.000 A 
ENDBRANCH  45  59
BRANCH  46  65
ATOM     65  C   UNL     1      -6.497 -12.385   3.077  1.00  0.00    -0.014 A 
ATOM     66  C   UNL     1      -7.720 -12.042   2.483  1.00  0.00     0.009 A 
ATOM     67  C   UNL     1      -5.983 -13.677   2.879  1.00  0.00     0.009 A 
ATOM     68  C   UNL     1      -8.417 -12.977   1.714  1.00  0.00     0.001 A 
ATOM     69  C   UNL     1      -6.670 -14.600   2.090  1.00  0.00     0.001 A 
ATOM     70  C   UNL     1      -7.888 -14.251   1.512  1.00  0.00     0.000 A 
ENDBRANCH  46  65
BRANCH  58  71
ATOM     71  C   UNL     1      -7.396  -9.669   9.424  1.00  0.00    -0.014 A 
ATOM     72  C   UNL     1      -7.450 -10.843  10.191  1.00  0.00     0.009 A 
ATOM     73  C   UNL     1      -8.329  -8.650   9.669  1.00  0.00     0.009 A 
ATOM     74  C   UNL     1      -8.439 -11.004  11.164  1.00  0.00     0.001 A 
ATOM     75  C   UNL     1      -9.302  -8.805  10.658  1.00  0.00     0.001 A 
ATOM     76  C   UNL     1      -9.361  -9.985  11.399  1.00  0.00     0.000 A 
ENDBRANCH  58  71
ENDBRANCH  32  33
ENDBRANCH  25  27
ENDBRANCH  24  25
ENDBRANCH  23  24
ENDBRANCH   1  23
TORSDOF 14
