REMARK SMILES Cc1ccc(Cl)c(Nc2ccccc2C(=O)N[C@@H](C)C(=O)OCCOC(=O)c2ccc(-c3c4nc(c(-c5ccccc5)c5ccc([nH]5)c(-c5ccccc5)c5nc(c(-c6ccccc6)c6ccc3[nH]6)C=C5)C=C4)cc2)c1Cl
REMARK SMILES IDX 23 1 22 2 20 3 21 4 18 5 19 6 17 7 15 8 16 9 14 11 9 12
REMARK SMILES IDX 10 13 11 14 13 15 12 16 8 17 7 19 1 20 2 21 3 22 76 23 4 24
REMARK SMILES IDX 77 25 5 26 6 27 24 28 25 29 26 30 27 31 28 32 29 33 75 34
REMARK SMILES IDX 30 35 74 36 31 37 32 38 33 39 68 40 34 41 73 42 67 43 69 44
REMARK SMILES IDX 35 45 72 46 66 47 65 48 36 50 58 51 43 52 57 53 44 54 47 55
REMARK SMILES IDX 56 56 70 57 45 58 46 59 55 61 71 62 48 63 37 64 38 65 42 66
REMARK SMILES IDX 39 67 41 68 40 69 59 70 60 71 64 72 61 73 63 74 62 75 49 76
REMARK SMILES IDX 50 77 54 78 51 79 53 80 52 81
REMARK H PARENT 17 10 8 18 69 49 47 60
REMARK Flexibility Score: inf
ROOT
ATOM      1  C   UNL     1      -1.133   3.025   0.162  1.00  0.00     0.274 C 
ENDROOT
BRANCH   1   2
ATOM      2  O   UNL     1      -1.314   1.650   0.699  1.00  0.00    -0.461 OA
BRANCH   2   3
ATOM      3  C   UNL     1      -0.750   1.167   1.869  1.00  0.00     0.328 C 
ATOM      4  O   UNL     1      -0.126   1.864   2.640  1.00  0.00    -0.250 OA
BRANCH   3   5
ATOM      5  C   UNL     1      -0.988  -0.429   2.085  1.00  0.00     0.189 C 
ATOM      6  C   UNL     1      -2.249  -0.661   2.915  1.00  0.00     0.043 C 
BRANCH   5   7
ATOM      7  N   UNL     1       0.194  -1.084   2.730  1.00  0.00    -0.339 N 
ATOM      8  C   UNL     1       0.969  -2.229   2.798  1.00  0.00     0.254 C 
ATOM      9  O   UNL     1       1.798  -2.105   3.721  1.00  0.00    -0.269 OA
ATOM     10  H   UNL     1       0.577  -0.436   3.365  1.00  0.00     0.164 HD
BRANCH   8  11
ATOM     11  C   UNL     1       1.061  -3.569   2.034  1.00  0.00     0.063 A 
ATOM     12  C   UNL     1       0.390  -4.084   0.899  1.00  0.00     0.051 A 
ATOM     13  C   UNL     1       0.710  -5.359   0.343  1.00  0.00     0.027 A 
ATOM     14  C   UNL     1       1.800  -6.084   0.780  1.00  0.00     0.002 A 
ATOM     15  C   UNL     1       2.140  -4.389   2.474  1.00  0.00     0.016 A 
ATOM     16  C   UNL     1       2.529  -5.587   1.842  1.00  0.00     0.001 A 
BRANCH  12  17
ATOM     17  N   UNL     1      -0.292  -3.304  -0.029  1.00  0.00    -0.352 N 
ATOM     18  H   UNL     1      -1.222  -3.544  -0.246  1.00  0.00     0.167 HD
BRANCH  17  19
ATOM     19  C   UNL     1       0.276  -2.187  -0.675  1.00  0.00     0.077 A 
ATOM     20  C   UNL     1       3.279   0.085   0.148  1.00  0.00     0.046 C 
ATOM     21  C   UNL     1       1.950  -0.445  -0.299  1.00  0.00    -0.030 A 
ATOM     22  C   UNL     1       0.924   0.439  -0.512  1.00  0.00     0.006 A 
ATOM     23  C   UNL     1       1.635  -1.778  -0.488  1.00  0.00     0.069 A 
ATOM     24  C   UNL     1      -0.327   0.033  -1.023  1.00  0.00     0.023 A 
ATOM     25  Cl  UNL     1       2.947  -2.902  -0.565  1.00  0.00    -0.082 Cl
ATOM     26  C   UNL     1      -0.659  -1.282  -1.131  1.00  0.00     0.066 A 
ATOM     27  Cl  UNL     1      -2.283  -1.712  -1.538  1.00  0.00    -0.082 Cl
ENDBRANCH  17  19
ENDBRANCH  12  17
ENDBRANCH   8  11
ENDBRANCH   5   7
ENDBRANCH   3   5
ENDBRANCH   2   3
ENDBRANCH   1   2
BRANCH   1  28
ATOM     28  C   UNL     1      -0.132   3.356  -1.077  1.00  0.00     0.275 C 
BRANCH  28  29
ATOM     29  O   UNL     1      -0.056   2.435  -2.239  1.00  0.00    -0.458 OA
BRANCH  29  30
ATOM     30  C   UNL     1       1.169   2.283  -2.891  1.00  0.00     0.338 C 
ATOM     31  O   UNL     1       2.096   3.069  -2.765  1.00  0.00    -0.246 OA
BRANCH  30  32
ATOM     32  C   UNL     1       1.370   0.930  -3.607  1.00  0.00     0.060 A 
ATOM     33  C   UNL     1       0.328   0.039  -3.798  1.00  0.00     0.016 A 
ATOM     34  C   UNL     1       2.653   0.430  -3.924  1.00  0.00     0.016 A 
ATOM     35  C   UNL     1       0.582  -1.328  -4.078  1.00  0.00     0.010 A 
ATOM     36  C   UNL     1       2.865  -0.909  -4.413  1.00  0.00     0.010 A 
ATOM     37  C   UNL     1       1.820  -1.840  -4.510  1.00  0.00    -0.014 A 
BRANCH  37  38
ATOM     38  C   UNL     1       1.913  -3.245  -5.136  1.00  0.00     0.031 A 
ATOM     39  C   UNL     1       3.096  -4.214  -4.978  1.00  0.00     0.074 A 
ATOM     40  C   UNL     1       0.903  -3.717  -5.919  1.00  0.00     0.049 A 
ATOM     41  N   UNL     1       3.383  -5.296  -5.681  1.00  0.00    -0.248 NA
ATOM     42  C   UNL     1       4.053  -3.969  -3.893  1.00  0.00     0.031 C 
ATOM     43  C   UNL     1      -0.365  -3.039  -6.198  1.00  0.00     0.029 A 
ATOM     44  N   UNL     1       0.779  -4.895  -6.641  1.00  0.00    -0.354 N 
ATOM     45  C   UNL     1       4.563  -5.827  -5.154  1.00  0.00     0.074 A 
ATOM     46  C   UNL     1       4.922  -4.966  -4.045  1.00  0.00     0.031 C 
ATOM     47  C   UNL     1      -1.157  -3.825  -6.928  1.00  0.00     0.029 A 
ATOM     48  C   UNL     1      -0.386  -4.970  -7.374  1.00  0.00     0.049 A 
ATOM     49  H   UNL     1       1.457  -5.609  -6.631  1.00  0.00     0.167 HD
ATOM     50  C   UNL     1       5.294  -6.905  -5.557  1.00  0.00     0.031 A 
ATOM     51  C   UNL     1      -0.795  -5.752  -8.394  1.00  0.00     0.031 A 
ATOM     52  C   UNL     1       4.962  -7.800  -6.648  1.00  0.00     0.049 A 
ATOM     53  C   UNL     1       0.100  -6.802  -8.957  1.00  0.00     0.074 A 
ATOM     54  C   UNL     1       5.674  -8.901  -7.111  1.00  0.00     0.029 A 
ATOM     55  N   UNL     1       3.838  -7.707  -7.446  1.00  0.00    -0.354 N 
ATOM     56  N   UNL     1       1.270  -7.195  -8.531  1.00  0.00    -0.248 NA
ATOM     57  C   UNL     1      -0.368  -7.487 -10.172  1.00  0.00     0.031 C 
ATOM     58  C   UNL     1       5.015  -9.429  -8.227  1.00  0.00     0.029 A 
ATOM     59  C   UNL     1       3.860  -8.697  -8.421  1.00  0.00     0.049 A 
ATOM     60  H   UNL     1       3.124  -7.037  -7.339  1.00  0.00     0.167 HD
ATOM     61  C   UNL     1       1.682  -8.171  -9.426  1.00  0.00     0.074 A 
ATOM     62  C   UNL     1       0.628  -8.330 -10.404  1.00  0.00     0.031 C 
ATOM     63  C   UNL     1       2.845  -8.862  -9.425  1.00  0.00     0.031 A 
BRANCH  50  64
ATOM     64  C   UNL     1       6.615  -7.179  -4.871  1.00  0.00    -0.014 A 
ATOM     65  C   UNL     1       6.690  -7.818  -3.625  1.00  0.00     0.009 A 
ATOM     66  C   UNL     1       7.811  -6.921  -5.568  1.00  0.00     0.009 A 
ATOM     67  C   UNL     1       7.933  -8.173  -3.085  1.00  0.00     0.001 A 
ATOM     68  C   UNL     1       9.047  -7.297  -5.038  1.00  0.00     0.001 A 
ATOM     69  C   UNL     1       9.108  -7.918  -3.793  1.00  0.00     0.000 A 
ENDBRANCH  50  64
BRANCH  51  70
ATOM     70  C   UNL     1      -2.085  -5.433  -9.068  1.00  0.00    -0.014 A 
ATOM     71  C   UNL     1      -3.194  -6.278  -8.942  1.00  0.00     0.009 A 
ATOM     72  C   UNL     1      -2.213  -4.242  -9.808  1.00  0.00     0.009 A 
ATOM     73  C   UNL     1      -4.410  -5.929  -9.533  1.00  0.00     0.001 A 
ATOM     74  C   UNL     1      -3.440  -3.877 -10.360  1.00  0.00     0.001 A 
ATOM     75  C   UNL     1      -4.537  -4.724 -10.225  1.00  0.00     0.000 A 
ENDBRANCH  51  70
BRANCH  63  76
ATOM     76  C   UNL     1       3.033  -9.877 -10.515  1.00  0.00    -0.014 A 
ATOM     77  C   UNL     1       3.314  -9.480 -11.832  1.00  0.00     0.009 A 
ATOM     78  C   UNL     1       2.906 -11.246 -10.231  1.00  0.00     0.009 A 
ATOM     79  C   UNL     1       3.432 -10.431 -12.848  1.00  0.00     0.001 A 
ATOM     80  C   UNL     1       3.047 -12.196 -11.245  1.00  0.00     0.001 A 
ATOM     81  C   UNL     1       3.300 -11.788 -12.554  1.00  0.00     0.000 A 
ENDBRANCH  63  76
ENDBRANCH  37  38
ENDBRANCH  30  32
ENDBRANCH  29  30
ENDBRANCH  28  29
ENDBRANCH   1  28
TORSDOF 15
