REMARK SMILES C[C@H](C(=O)OCCOC(=O)c1ccc(-c2c3nc(c(-c4ccccc4)c4ccc([nH]4)c(-c4ccccc4)c4nc(c(-c5ccccc5)c5ccc2[nH]5)C=C4)C=C3)cc1)c1ccc2c3cc(Cl)ccc3n(C(=O)c3ccc(Cl)cc3)c2c1
REMARK SMILES IDX 6 1 5 2 3 3 4 4 2 5 1 6 59 7 60 8 81 9 61 10 80 11 62 12
REMARK SMILES IDX 70 13 63 14 69 15 64 16 68 17 65 18 67 19 66 20 71 21 72 22
REMARK SMILES IDX 73 23 74 24 79 25 75 26 78 27 76 28 77 29 7 30 8 31 9 32
REMARK SMILES IDX 10 33 11 34 12 35 58 36 13 37 57 38 14 39 15 40 16 41 51 42
REMARK SMILES IDX 17 43 56 44 50 45 52 46 18 47 55 48 49 49 48 50 19 52 41 53
REMARK SMILES IDX 26 54 40 55 27 56 30 57 39 58 53 59 28 60 29 61 38 63 54 64
REMARK SMILES IDX 31 65 20 66 21 67 25 68 22 69 24 70 23 71 42 72 43 73 47 74
REMARK SMILES IDX 44 75 46 76 45 77 32 78 33 79 37 80 34 81 36 82 35 83
REMARK H PARENT 52 51 30 62
REMARK Flexibility Score: inf
ROOT
ATOM      1  C   UNL     1       1.022  -1.872  -0.897  1.00  0.00     0.274 C 
ENDROOT
BRANCH   1   2
ATOM      2  O   UNL     1       0.488  -1.088   0.187  1.00  0.00    -0.462 OA
BRANCH   2   3
ATOM      3  C   UNL     1       1.286  -0.122   0.727  1.00  0.00     0.313 C 
ATOM      4  O   UNL     1       2.450   0.073   0.398  1.00  0.00    -0.252 OA
BRANCH   3   5
ATOM      5  C   UNL     1       0.575   0.645   1.851  1.00  0.00     0.126 C 
ATOM      6  C   UNL     1       1.296   1.955   2.187  1.00  0.00     0.025 C 
BRANCH   5   7
ATOM      7  C   UNL     1      -0.925   0.809   1.619  1.00  0.00    -0.032 A 
ATOM      8  C   UNL     1      -1.524   1.943   1.070  1.00  0.00     0.005 A 
ATOM      9  C   UNL     1      -1.736  -0.289   1.946  1.00  0.00     0.032 A 
ATOM     10  C   UNL     1      -2.913   1.994   0.858  1.00  0.00     0.011 A 
ATOM     11  C   UNL     1      -3.124  -0.245   1.727  1.00  0.00     0.057 A 
ATOM     12  C   UNL     1      -3.725   0.884   1.185  1.00  0.00     0.008 A 
ATOM     13  N   UNL     1      -4.101  -1.230   1.912  1.00  0.00    -0.276 N 
ATOM     14  C   UNL     1      -5.125   0.625   1.123  1.00  0.00     0.009 A 
ATOM     15  C   UNL     1      -5.349  -0.663   1.631  1.00  0.00     0.057 A 
ATOM     16  C   UNL     1      -6.225   1.414   0.718  1.00  0.00     0.031 A 
ATOM     17  C   UNL     1      -6.662  -1.136   1.832  1.00  0.00     0.029 A 
ATOM     18  C   UNL     1      -7.519   0.919   0.875  1.00  0.00     0.041 A 
ATOM     19  C   UNL     1      -7.737  -0.333   1.435  1.00  0.00     0.023 A 
ATOM     20  Cl  UNL     1      -8.861   1.889   0.404  1.00  0.00    -0.084 Cl
BRANCH  13  21
ATOM     21  C   UNL     1      -3.801  -2.544   2.359  1.00  0.00     0.262 C 
ATOM     22  O   UNL     1      -2.826  -2.652   3.107  1.00  0.00    -0.268 OA
BRANCH  21  23
ATOM     23  C   UNL     1      -4.478  -3.825   2.003  1.00  0.00     0.040 A 
ATOM     24  C   UNL     1      -4.093  -4.972   2.728  1.00  0.00     0.015 A 
ATOM     25  C   UNL     1      -5.361  -3.979   0.930  1.00  0.00     0.015 A 
ATOM     26  C   UNL     1      -4.605  -6.232   2.417  1.00  0.00     0.021 A 
ATOM     27  C   UNL     1      -5.903  -5.241   0.640  1.00  0.00     0.021 A 
ATOM     28  C   UNL     1      -5.522  -6.359   1.382  1.00  0.00     0.041 A 
ATOM     29  Cl  UNL     1      -6.167  -7.907   1.002  1.00  0.00    -0.084 Cl
ENDBRANCH  21  23
ENDBRANCH  13  21
ENDBRANCH   5   7
ENDBRANCH   3   5
ENDBRANCH   2   3
ENDBRANCH   1   2
BRANCH   1  30
ATOM     30  C   UNL     1       0.479  -1.357  -2.227  1.00  0.00     0.275 C 
BRANCH  30  31
ATOM     31  O   UNL     1       1.000  -0.038  -2.454  1.00  0.00    -0.458 OA
BRANCH  31  32
ATOM     32  C   UNL     1       0.096   0.928  -2.714  1.00  0.00     0.338 C 
ATOM     33  O   UNL     1      -1.110   0.807  -2.891  1.00  0.00    -0.246 OA
BRANCH  32  34
ATOM     34  C   UNL     1       0.796   2.217  -2.766  1.00  0.00     0.060 A 
ATOM     35  C   UNL     1       1.420   2.707  -1.619  1.00  0.00     0.016 A 
ATOM     36  C   UNL     1       0.776   2.973  -3.934  1.00  0.00     0.016 A 
ATOM     37  C   UNL     1       1.984   3.979  -1.615  1.00  0.00     0.010 A 
ATOM     38  C   UNL     1       1.402   4.222  -3.951  1.00  0.00     0.010 A 
ATOM     39  C   UNL     1       1.988   4.748  -2.785  1.00  0.00    -0.014 A 
BRANCH  39  40
ATOM     40  C   UNL     1       2.555   6.121  -2.783  1.00  0.00     0.031 A 
ATOM     41  C   UNL     1       1.659   7.298  -3.057  1.00  0.00     0.074 A 
ATOM     42  C   UNL     1       3.864   6.322  -2.537  1.00  0.00     0.049 A 
ATOM     43  N   UNL     1       1.978   8.550  -3.268  1.00  0.00    -0.248 NA
ATOM     44  C   UNL     1       0.213   7.028  -3.110  1.00  0.00     0.031 C 
ATOM     45  C   UNL     1       4.837   5.282  -2.200  1.00  0.00     0.029 A 
ATOM     46  N   UNL     1       4.601   7.481  -2.532  1.00  0.00    -0.354 N 
ATOM     47  C   UNL     1       0.781   9.204  -3.534  1.00  0.00     0.074 A 
ATOM     48  C   UNL     1      -0.271   8.213  -3.455  1.00  0.00     0.031 C 
ATOM     49  C   UNL     1       6.036   5.851  -1.995  1.00  0.00     0.029 A 
ATOM     50  C   UNL     1       5.932   7.283  -2.258  1.00  0.00     0.049 A 
ATOM     51  H   UNL     1       4.213   8.368  -2.708  1.00  0.00     0.167 HD
ATOM     52  C   UNL     1       0.578  10.511  -3.823  1.00  0.00     0.031 A 
ATOM     53  C   UNL     1       6.963   8.149  -2.255  1.00  0.00     0.031 A 
ATOM     54  C   UNL     1       1.617  11.504  -3.866  1.00  0.00     0.049 A 
ATOM     55  C   UNL     1       6.718   9.586  -2.617  1.00  0.00     0.074 A 
ATOM     56  C   UNL     1       1.508  12.856  -4.139  1.00  0.00     0.029 A 
ATOM     57  N   UNL     1       2.956  11.253  -3.613  1.00  0.00    -0.354 N 
ATOM     58  N   UNL     1       5.589  10.181  -2.915  1.00  0.00    -0.248 NA
ATOM     59  C   UNL     1       7.895  10.466  -2.658  1.00  0.00     0.031 C 
ATOM     60  C   UNL     1       2.788  13.418  -4.086  1.00  0.00     0.029 A 
ATOM     61  C   UNL     1       3.686  12.422  -3.738  1.00  0.00     0.049 A 
ATOM     62  H   UNL     1       3.332  10.374  -3.380  1.00  0.00     0.167 HD
ATOM     63  C   UNL     1       5.917  11.506  -3.168  1.00  0.00     0.074 A 
ATOM     64  C   UNL     1       7.346  11.632  -2.970  1.00  0.00     0.031 C 
ATOM     65  C   UNL     1       5.107  12.527  -3.538  1.00  0.00     0.031 A 
BRANCH  52  66
ATOM     66  C   UNL     1      -0.823  10.933  -4.162  1.00  0.00    -0.014 A 
ATOM     67  C   UNL     1      -1.809  11.066  -3.174  1.00  0.00     0.009 A 
ATOM     68  C   UNL     1      -1.148  11.231  -5.495  1.00  0.00     0.009 A 
ATOM     69  C   UNL     1      -3.104  11.461  -3.520  1.00  0.00     0.001 A 
ATOM     70  C   UNL     1      -2.436  11.649  -5.834  1.00  0.00     0.001 A 
ATOM     71  C   UNL     1      -3.414  11.756  -4.848  1.00  0.00     0.000 A 
ENDBRANCH  52  66
BRANCH  53  72
ATOM     72  C   UNL     1       8.333   7.671  -1.938  1.00  0.00    -0.014 A 
ATOM     73  C   UNL     1       8.954   8.036  -0.734  1.00  0.00     0.009 A 
ATOM     74  C   UNL     1       9.028   6.850  -2.840  1.00  0.00     0.009 A 
ATOM     75  C   UNL     1      10.249   7.599  -0.447  1.00  0.00     0.001 A 
ATOM     76  C   UNL     1      10.312   6.392  -2.537  1.00  0.00     0.001 A 
ATOM     77  C   UNL     1      10.924   6.773  -1.345  1.00  0.00     0.000 A 
ENDBRANCH  53  72
BRANCH  65  78
ATOM     78  C   UNL     1       5.747  13.872  -3.723  1.00  0.00    -0.014 A 
ATOM     79  C   UNL     1       6.512  14.159  -4.864  1.00  0.00     0.009 A 
ATOM     80  C   UNL     1       5.555  14.872  -2.758  1.00  0.00     0.009 A 
ATOM     81  C   UNL     1       7.098  15.416  -5.019  1.00  0.00     0.001 A 
ATOM     82  C   UNL     1       6.125  16.134  -2.927  1.00  0.00     0.001 A 
ATOM     83  C   UNL     1       6.902  16.403  -4.053  1.00  0.00     0.000 A 
ENDBRANCH  65  78
ENDBRANCH  39  40
ENDBRANCH  32  34
ENDBRANCH  31  32
ENDBRANCH  30  31
ENDBRANCH   1  30
TORSDOF 14
