REMARK SMILES O=C(OCCOC(=O)c1nnn(-c2ccccc2C(F)(F)F)c1-c1cccc(Cl)c1)c1ccc(-c2c3nc(c(-c4ccccc4)c4ccc([nH]4)c(-c4ccccc4)c4nc(c(-c5ccccc5)c5ccc2[nH]5)C=C4)C=C3)cc1
REMARK SMILES IDX 4 1 3 2 2 3 1 4 31 5 32 6 78 7 33 8 77 9 34 10 35 11 36 12
REMARK SMILES IDX 71 13 37 14 76 15 70 16 72 17 38 18 75 19 69 20 68 21 39 23
REMARK SMILES IDX 61 24 46 25 60 26 47 27 50 28 59 29 73 30 48 31 49 32 58 34
REMARK SMILES IDX 74 35 51 36 40 37 41 38 45 39 42 40 44 41 43 42 62 43 63 44
REMARK SMILES IDX 67 45 64 46 66 47 65 48 52 49 53 50 57 51 54 52 56 53 55 54
REMARK SMILES IDX 5 55 6 56 7 57 8 58 9 59 10 60 23 61 11 62 12 63 24 64 25 65
REMARK SMILES IDX 30 66 26 67 28 68 27 69 29 70 13 71 14 72 18 73 15 74 17 75
REMARK SMILES IDX 16 76 19 77 20 78 21 79 22 80
REMARK H PARENT 72 22 50 33
REMARK Flexibility Score: inf
ROOT
ATOM      1  C   UNL     1       4.647   0.954  -0.525  1.00  0.00     0.275 C 
ENDROOT
BRANCH   1   2
ATOM      2  O   UNL     1       3.452   0.899  -1.333  1.00  0.00    -0.458 OA
BRANCH   2   3
ATOM      3  C   UNL     1       2.344   0.265  -0.892  1.00  0.00     0.338 C 
ATOM      4  O   UNL     1       1.391   0.847  -0.398  1.00  0.00    -0.246 OA
BRANCH   3   5
ATOM      5  C   UNL     1       2.277  -1.162  -1.302  1.00  0.00     0.060 A 
ATOM      6  C   UNL     1       3.396  -1.885  -1.729  1.00  0.00     0.016 A 
ATOM      7  C   UNL     1       1.018  -1.780  -1.279  1.00  0.00     0.016 A 
ATOM      8  C   UNL     1       3.240  -3.171  -2.228  1.00  0.00     0.010 A 
ATOM      9  C   UNL     1       0.863  -3.069  -1.769  1.00  0.00     0.010 A 
ATOM     10  C   UNL     1       1.964  -3.736  -2.300  1.00  0.00    -0.014 A 
BRANCH  10  11
ATOM     11  C   UNL     1       1.825  -5.055  -2.908  1.00  0.00     0.031 A 
ATOM     12  C   UNL     1       2.534  -6.161  -2.204  1.00  0.00     0.074 A 
ATOM     13  C   UNL     1       1.030  -5.282  -3.975  1.00  0.00     0.049 A 
ATOM     14  N   UNL     1       3.483  -6.913  -2.658  1.00  0.00    -0.248 NA
ATOM     15  C   UNL     1       2.205  -6.403  -0.790  1.00  0.00     0.031 C 
ATOM     16  C   UNL     1       0.072  -4.369  -4.607  1.00  0.00     0.029 A 
ATOM     17  N   UNL     1       0.838  -6.440  -4.667  1.00  0.00    -0.354 N 
ATOM     18  C   UNL     1       3.766  -7.837  -1.653  1.00  0.00     0.074 A 
ATOM     19  C   UNL     1       3.029  -7.410  -0.490  1.00  0.00     0.031 C 
ATOM     20  C   UNL     1      -0.760  -5.074  -5.408  1.00  0.00     0.029 A 
ATOM     21  C   UNL     1      -0.296  -6.448  -5.470  1.00  0.00     0.049 A 
ATOM     22  H   UNL     1       1.452  -7.207  -4.603  1.00  0.00     0.167 HD
ATOM     23  C   UNL     1       4.436  -8.996  -1.909  1.00  0.00     0.031 A 
ATOM     24  C   UNL     1      -0.841  -7.519  -6.101  1.00  0.00     0.031 A 
ATOM     25  C   UNL     1       5.133  -8.946  -3.165  1.00  0.00     0.049 A 
ATOM     26  C   UNL     1       0.210  -8.557  -6.200  1.00  0.00     0.074 A 
ATOM     27  C   UNL     1       6.157  -8.177  -3.681  1.00  0.00     0.029 A 
ATOM     28  N   UNL     1       4.531  -9.544  -4.245  1.00  0.00    -0.354 N 
ATOM     29  N   UNL     1       1.276  -8.425  -6.936  1.00  0.00    -0.248 NA
ATOM     30  C   UNL     1       0.303  -9.534  -5.127  1.00  0.00     0.031 C 
ATOM     31  C   UNL     1       5.788  -7.952  -5.040  1.00  0.00     0.029 A 
ATOM     32  C   UNL     1       4.611  -8.660  -5.288  1.00  0.00     0.049 A 
ATOM     33  H   UNL     1       4.120 -10.439  -4.266  1.00  0.00     0.167 HD
ATOM     34  C   UNL     1       2.300  -8.953  -6.164  1.00  0.00     0.074 A 
ATOM     35  C   UNL     1       1.629  -9.700  -5.100  1.00  0.00     0.031 C 
ATOM     36  C   UNL     1       3.583  -8.504  -6.290  1.00  0.00     0.031 A 
BRANCH  23  37
ATOM     37  C   UNL     1       4.136 -10.309  -1.229  1.00  0.00    -0.014 A 
ATOM     38  C   UNL     1       4.890 -11.444  -1.588  1.00  0.00     0.009 A 
ATOM     39  C   UNL     1       2.959 -10.539  -0.494  1.00  0.00     0.009 A 
ATOM     40  C   UNL     1       4.436 -12.739  -1.311  1.00  0.00     0.001 A 
ATOM     41  C   UNL     1       2.523 -11.830  -0.182  1.00  0.00     0.001 A 
ATOM     42  C   UNL     1       3.245 -12.931  -0.620  1.00  0.00     0.000 A 
ENDBRANCH  23  37
BRANCH  24  43
ATOM     43  C   UNL     1      -2.271  -7.826  -6.329  1.00  0.00    -0.014 A 
ATOM     44  C   UNL     1      -2.669  -8.787  -7.272  1.00  0.00     0.009 A 
ATOM     45  C   UNL     1      -3.238  -7.374  -5.411  1.00  0.00     0.009 A 
ATOM     46  C   UNL     1      -3.976  -9.299  -7.274  1.00  0.00     0.001 A 
ATOM     47  C   UNL     1      -4.541  -7.885  -5.412  1.00  0.00     0.001 A 
ATOM     48  C   UNL     1      -4.906  -8.858  -6.336  1.00  0.00     0.000 A 
ENDBRANCH  24  43
BRANCH  36  49
ATOM     49  C   UNL     1       3.900  -7.555  -7.420  1.00  0.00    -0.014 A 
ATOM     50  C   UNL     1       3.337  -6.270  -7.522  1.00  0.00     0.009 A 
ATOM     51  C   UNL     1       4.939  -7.898  -8.296  1.00  0.00     0.009 A 
ATOM     52  C   UNL     1       3.794  -5.363  -8.485  1.00  0.00     0.001 A 
ATOM     53  C   UNL     1       5.409  -6.987  -9.243  1.00  0.00     0.001 A 
ATOM     54  C   UNL     1       4.836  -5.721  -9.339  1.00  0.00     0.000 A 
ENDBRANCH  36  49
ENDBRANCH  10  11
ENDBRANCH   3   5
ENDBRANCH   2   3
ENDBRANCH   1   2
BRANCH   1  55
ATOM     55  C   UNL     1       4.490   0.856   0.990  1.00  0.00     0.275 C 
BRANCH  55  56
ATOM     56  O   UNL     1       4.069  -0.469   1.345  1.00  0.00    -0.457 OA
BRANCH  56  57
ATOM     57  C   UNL     1       2.900  -0.561   2.048  1.00  0.00     0.361 C 
ATOM     58  O   UNL     1       2.232   0.377   2.439  1.00  0.00    -0.244 OA
BRANCH  57  59
ATOM     59  C   UNL     1       2.599  -1.938   2.362  1.00  0.00     0.198 A 
ATOM     60  N   UNL     1       1.705  -2.713   1.674  1.00  0.00    -0.122 NA
ATOM     61  C   UNL     1       3.190  -2.681   3.367  1.00  0.00     0.109 A 
ATOM     62  N   UNL     1       1.711  -3.923   2.218  1.00  0.00    -0.061 NA
ATOM     63  N   UNL     1       2.455  -3.854   3.344  1.00  0.00    -0.211 N 
BRANCH  61  64
ATOM     64  C   UNL     1       4.258  -2.342   4.300  1.00  0.00     0.004 A 
ATOM     65  C   UNL     1       5.342  -3.206   4.500  1.00  0.00     0.010 A 
ATOM     66  C   UNL     1       4.193  -1.145   5.026  1.00  0.00     0.031 A 
ATOM     67  C   UNL     1       6.315  -2.906   5.455  1.00  0.00     0.002 A 
ATOM     68  C   UNL     1       5.162  -0.856   5.982  1.00  0.00     0.041 A 
ATOM     69  C   UNL     1       6.216  -1.736   6.207  1.00  0.00     0.020 A 
ATOM     70  Cl  UNL     1       5.031   0.584   6.913  1.00  0.00    -0.084 Cl
ENDBRANCH  61  64
BRANCH  63  71
ATOM     71  C   UNL     1       2.432  -4.894   4.295  1.00  0.00     0.079 A 
ATOM     72  C   UNL     1       2.684  -6.194   3.831  1.00  0.00     0.029 A 
ATOM     73  C   UNL     1       2.212  -4.641   5.665  1.00  0.00     0.081 A 
ATOM     74  C   UNL     1       2.818  -7.239   4.743  1.00  0.00     0.002 A 
ATOM     75  C   UNL     1       2.371  -5.713   6.562  1.00  0.00     0.015 A 
ATOM     76  C   UNL     1       2.682  -6.995   6.107  1.00  0.00     0.001 A 
BRANCH  73  77
ATOM     77  C   UNL     1       1.714  -3.331   6.238  1.00  0.00     0.418 C 
ATOM     78  F   UNL     1       0.650  -3.512   7.071  1.00  0.00    -0.166 F 
ATOM     79  F   UNL     1       2.659  -2.703   6.988  1.00  0.00    -0.166 F 
ATOM     80  F   UNL     1       1.289  -2.426   5.317  1.00  0.00    -0.166 F 
ENDBRANCH  73  77
ENDBRANCH  63  71
ENDBRANCH  57  59
ENDBRANCH  56  57
ENDBRANCH  55  56
ENDBRANCH   1  55
TORSDOF 14
