REMARK SMILES C[C@@]1(C(=O)OCCOC(=O)c2ccc(-c3c4nc(c(-c5ccccc5)c5ccc([nH]5)c(-c5ccccc5)c5nc(c(-c6ccccc6)c6ccc3[nH]6)C=C5)C=C4)cc2)CCCN(C(=O)[C@@H]2CCCCC[C@@H]2[NH3+])C1
REMARK SMILES IDX 5 1 3 2 4 3 2 4 1 5 59 6 73 7 60 8 62 9 61 10 63 11 64 12
REMARK SMILES IDX 65 13 66 14 67 15 68 16 71 18 70 19 69 20 72 22 6 26 7 27
REMARK SMILES IDX 8 28 9 29 10 30 11 31 12 32 58 33 13 34 57 35 14 36 15 37
REMARK SMILES IDX 16 38 51 39 17 40 56 41 50 42 52 43 18 44 55 45 49 46 48 47
REMARK SMILES IDX 19 49 41 50 26 51 40 52 27 53 30 54 39 55 53 56 28 57 29 58
REMARK SMILES IDX 38 60 54 61 31 62 20 63 21 64 25 65 22 66 24 67 23 68 42 69
REMARK SMILES IDX 43 70 47 71 44 72 46 73 45 74 32 75 33 76 37 77 34 78 36 79
REMARK SMILES IDX 35 80
REMARK H PARENT 72 23 72 24 72 25 52 48 30 59
REMARK Flexibility Score: 90.00
ROOT
ATOM      1  O   UNL     1      -0.993  -1.231  -2.749  1.00  0.00    -0.462 OA
ENDROOT
BRANCH   1   2
ATOM      2  C   UNL     1       0.214  -0.692  -2.424  1.00  0.00     0.313 C 
ATOM      3  O   UNL     1       0.652   0.347  -2.906  1.00  0.00    -0.252 OA
BRANCH   2   4
ATOM      4  C   UNL     1       1.007  -1.560  -1.445  1.00  0.00     0.083 C 
ATOM      5  C   UNL     1       1.845  -0.610  -0.559  1.00  0.00     0.025 C 
ATOM      6  C   UNL     1       1.950  -2.467  -2.264  1.00  0.00     0.022 C 
ATOM      7  C   UNL     1       0.089  -2.457  -0.584  1.00  0.00     0.138 C 
ATOM      8  C   UNL     1       2.741  -3.419  -1.363  1.00  0.00     0.023 C 
ATOM      9  N   UNL     1       0.881  -3.319   0.296  1.00  0.00    -0.341 N 
ATOM     10  C   UNL     1       1.830  -4.189  -0.407  1.00  0.00     0.119 C 
BRANCH   9  11
ATOM     11  C   UNL     1       0.868  -3.325   1.681  1.00  0.00     0.231 C 
ATOM     12  O   UNL     1       1.802  -3.846   2.307  1.00  0.00    -0.274 OA
BRANCH  11  13
ATOM     13  C   UNL     1      -0.312  -2.769   2.506  1.00  0.00     0.136 C 
BRANCH  13  14
ATOM     14  C   UNL     1      -1.688  -3.304   2.095  1.00  0.00     0.020 C 
BRANCH  14  15
ATOM     15  C   UNL     1      -2.636  -3.413   3.292  1.00  0.00     0.001 C 
BRANCH  15  16
ATOM     16  C   UNL     1      -3.393  -2.140   3.648  1.00  0.00     0.000 CG0
ATOM     17  G   UNL     1      -2.618  -0.843   3.877  1.00  0.00     0.000 G0
ENDBRANCH  15  16
ENDBRANCH  14  15
ENDBRANCH  13  14
BRANCH  13  18
ATOM     18  C   UNL     1      -0.242  -1.275   2.859  1.00  0.00     0.193 C 
BRANCH  18  19
ATOM     19  C   UNL     1      -1.103  -0.926   4.097  1.00  0.00     0.066 C 
BRANCH  19  20
ATOM     20  C   UNL     1      -2.618  -0.843   3.877  1.00  0.00     0.006 CG0
ATOM     21  G   UNL     1      -3.393  -2.140   3.648  1.00  0.00     0.000 G0
ENDBRANCH  19  20
ENDBRANCH  18  19
BRANCH  18  22
ATOM     22  N   UNL     1      -0.591  -0.367   1.768  1.00  0.00    -0.354 N 
ATOM     23  H   UNL     1      -1.576  -0.485   1.530  1.00  0.00     0.344 HD
ATOM     24  H   UNL     1      -0.016  -0.579   0.953  1.00  0.00     0.344 HD
ATOM     25  H   UNL     1      -0.425   0.596   2.060  1.00  0.00     0.344 HD
ENDBRANCH  18  22
ENDBRANCH  13  18
ENDBRANCH  11  13
ENDBRANCH   9  11
ENDBRANCH   2   4
ENDBRANCH   1   2
BRANCH   1  26
ATOM     26  C   UNL     1      -1.770  -0.502  -3.722  1.00  0.00     0.274 C 
BRANCH  26  27
ATOM     27  C   UNL     1      -2.871   0.306  -3.041  1.00  0.00     0.275 C 
BRANCH  27  28
ATOM     28  O   UNL     1      -2.288   1.304  -2.185  1.00  0.00    -0.458 OA
BRANCH  28  29
ATOM     29  C   UNL     1      -2.809   1.380  -0.942  1.00  0.00     0.338 C 
ATOM     30  O   UNL     1      -3.731   0.719  -0.484  1.00  0.00    -0.246 OA
BRANCH  29  31
ATOM     31  C   UNL     1      -2.088   2.372  -0.124  1.00  0.00     0.060 A 
ATOM     32  C   UNL     1      -0.700   2.321  -0.026  1.00  0.00     0.016 A 
ATOM     33  C   UNL     1      -2.815   3.210   0.723  1.00  0.00     0.016 A 
ATOM     34  C   UNL     1      -0.059   2.970   1.034  1.00  0.00     0.010 A 
ATOM     35  C   UNL     1      -2.154   3.949   1.710  1.00  0.00     0.010 A 
ATOM     36  C   UNL     1      -0.778   3.770   1.938  1.00  0.00    -0.014 A 
BRANCH  36  37
ATOM     37  C   UNL     1      -0.133   4.314   3.174  1.00  0.00     0.031 A 
ATOM     38  C   UNL     1      -0.714   4.011   4.541  1.00  0.00     0.074 A 
ATOM     39  C   UNL     1       0.998   5.046   3.111  1.00  0.00     0.049 A 
ATOM     40  N   UNL     1      -0.393   4.513   5.710  1.00  0.00    -0.248 NA
ATOM     41  C   UNL     1      -1.809   3.028   4.602  1.00  0.00     0.031 C 
ATOM     42  C   UNL     1       1.720   5.399   1.889  1.00  0.00     0.029 A 
ATOM     43  N   UNL     1       1.756   5.602   4.115  1.00  0.00    -0.354 N 
ATOM     44  C   UNL     1      -1.296   3.975   6.620  1.00  0.00     0.074 A 
ATOM     45  C   UNL     1      -2.169   3.093   5.876  1.00  0.00     0.031 C 
ATOM     46  C   UNL     1       2.850   6.045   2.218  1.00  0.00     0.029 A 
ATOM     47  C   UNL     1       2.892   6.228   3.665  1.00  0.00     0.049 A 
ATOM     48  H   UNL     1       1.507   5.556   5.067  1.00  0.00     0.167 HD
ATOM     49  C   UNL     1      -1.402   4.195   7.954  1.00  0.00     0.031 A 
ATOM     50  C   UNL     1       3.854   6.896   4.329  1.00  0.00     0.031 A 
ATOM     51  C   UNL     1      -0.498   5.001   8.728  1.00  0.00     0.049 A 
ATOM     52  C   UNL     1       3.747   7.089   5.813  1.00  0.00     0.074 A 
ATOM     53  C   UNL     1      -0.536   5.284  10.084  1.00  0.00     0.029 A 
ATOM     54  N   UNL     1       0.631   5.622   8.223  1.00  0.00    -0.354 N 
ATOM     55  N   UNL     1       2.824   6.660   6.636  1.00  0.00    -0.248 NA
ATOM     56  C   UNL     1       4.808   7.881   6.453  1.00  0.00     0.031 C 
ATOM     57  C   UNL     1       0.567   6.087  10.397  1.00  0.00     0.029 A 
ATOM     58  C   UNL     1       1.303   6.278   9.241  1.00  0.00     0.049 A 
ATOM     59  H   UNL     1       0.915   5.600   7.280  1.00  0.00     0.167 HD
ATOM     60  C   UNL     1       3.186   7.137   7.888  1.00  0.00     0.074 A 
ATOM     61  C   UNL     1       4.429   7.860   7.724  1.00  0.00     0.031 C 
ATOM     62  C   UNL     1       2.534   7.000   9.068  1.00  0.00     0.031 A 
BRANCH  49  63
ATOM     63  C   UNL     1      -2.575   3.580   8.663  1.00  0.00    -0.014 A 
ATOM     64  C   UNL     1      -2.598   2.221   9.007  1.00  0.00     0.009 A 
ATOM     65  C   UNL     1      -3.662   4.394   9.023  1.00  0.00     0.009 A 
ATOM     66  C   UNL     1      -3.702   1.683   9.673  1.00  0.00     0.001 A 
ATOM     67  C   UNL     1      -4.753   3.858   9.708  1.00  0.00     0.001 A 
ATOM     68  C   UNL     1      -4.776   2.501  10.026  1.00  0.00     0.000 A 
ENDBRANCH  49  63
BRANCH  50  69
ATOM     69  C   UNL     1       5.001   7.466   3.579  1.00  0.00    -0.014 A 
ATOM     70  C   UNL     1       6.267   6.867   3.660  1.00  0.00     0.009 A 
ATOM     71  C   UNL     1       4.831   8.599   2.769  1.00  0.00     0.009 A 
ATOM     72  C   UNL     1       7.344   7.400   2.950  1.00  0.00     0.001 A 
ATOM     73  C   UNL     1       5.904   9.115   2.042  1.00  0.00     0.001 A 
ATOM     74  C   UNL     1       7.161   8.518   2.137  1.00  0.00     0.000 A 
ENDBRANCH  50  69
BRANCH  62  75
ATOM     75  C   UNL     1       3.161   7.639  10.270  1.00  0.00    -0.014 A 
ATOM     76  C   UNL     1       3.054   9.022  10.485  1.00  0.00     0.009 A 
ATOM     77  C   UNL     1       3.849   6.852  11.204  1.00  0.00     0.009 A 
ATOM     78  C   UNL     1       3.654   9.610  11.600  1.00  0.00     0.001 A 
ATOM     79  C   UNL     1       4.434   7.441  12.327  1.00  0.00     0.001 A 
ATOM     80  C   UNL     1       4.342   8.819  12.520  1.00  0.00     0.000 A 
ENDBRANCH  62  75
ENDBRANCH  36  37
ENDBRANCH  29  31
ENDBRANCH  28  29
ENDBRANCH  27  28
ENDBRANCH  26  27
ENDBRANCH   1  26
TORSDOF 14
