REMARK SMILES CC(C)CCc1cc2c(cc1Cl)C=C(C(=O)OCCOC(=O)c1ccc(-c3c4nc(c(-c5ccccc5)c5ccc([nH]5)c(-c5ccccc5)c5nc(c(-c6ccccc6)c6ccc3[nH]6)C=C5)C=C4)cc1)[C@H](C(F)(F)F)O2
REMARK SMILES IDX 18 1 17 2 15 3 16 4 14 5 6 6 7 7 11 8 8 9 10 10 12 11 9 12
REMARK SMILES IDX 76 13 13 14 71 15 5 16 4 17 2 18 1 19 3 20 72 21 73 22 74 23
REMARK SMILES IDX 75 24 19 25 20 26 21 27 22 28 23 29 24 30 70 31 25 32 69 33
REMARK SMILES IDX 26 34 27 35 28 36 63 37 29 38 68 39 62 40 64 41 30 42 67 43
REMARK SMILES IDX 61 44 60 45 31 47 53 48 38 49 52 50 39 51 42 52 51 53 65 54
REMARK SMILES IDX 40 55 41 56 50 58 66 59 43 60 32 61 33 62 37 63 34 64 36 65
REMARK SMILES IDX 35 66 54 67 55 68 59 69 56 70 58 71 57 72 44 73 45 74 49 75
REMARK SMILES IDX 46 76 48 77 47 78
REMARK H PARENT 64 46 42 57
REMARK Flexibility Score: inf
ROOT
ATOM      1  C   UNL     1       0.558   6.501   9.299  1.00  0.00     0.275 C 
ENDROOT
BRANCH   1   2
ATOM      2  O   UNL     1       0.119   6.051   7.999  1.00  0.00    -0.459 OA
BRANCH   2   3
ATOM      3  C   UNL     1       0.848   5.067   7.433  1.00  0.00     0.338 C 
ATOM      4  O   UNL     1       1.894   4.617   7.870  1.00  0.00    -0.246 OA
BRANCH   3   5
ATOM      5  C   UNL     1       0.158   4.507   6.249  1.00  0.00     0.087 C 
ATOM      6  C   UNL     1      -1.276   1.436   2.532  1.00  0.00    -0.026 A 
ATOM      7  C   UNL     1      -1.375   2.830   2.749  1.00  0.00     0.052 A 
ATOM      8  C   UNL     1      -0.709   0.639   3.542  1.00  0.00     0.045 A 
ATOM      9  C   UNL     1      -0.843   3.415   3.896  1.00  0.00     0.128 A 
ATOM     10  C   UNL     1      -0.153   1.231   4.675  1.00  0.00     0.032 A 
ATOM     11  Cl  UNL     1      -0.631  -1.084   3.447  1.00  0.00    -0.084 Cl
ATOM     12  C   UNL     1      -0.186   2.618   4.826  1.00  0.00     0.019 A 
ATOM     13  O   UNL     1      -0.915   4.779   4.028  1.00  0.00    -0.475 OA
ATOM     14  C   UNL     1       0.506   3.254   5.924  1.00  0.00     0.027 C 
ATOM     15  C   UNL     1      -0.800   5.306   5.400  1.00  0.00     0.316 C 
BRANCH   6  16
ATOM     16  C   UNL     1      -1.724   0.864   1.204  1.00  0.00     0.037 C 
BRANCH  16  17
ATOM     17  C   UNL     1      -1.014   1.497  -0.007  1.00  0.00     0.008 C 
BRANCH  17  18
ATOM     18  C   UNL     1       0.529   1.451   0.029  1.00  0.00    -0.017 C 
ATOM     19  C   UNL     1       1.075   0.028  -0.078  1.00  0.00     0.007 C 
ATOM     20  C   UNL     1       1.098   2.312  -1.101  1.00  0.00     0.007 C 
ENDBRANCH  17  18
ENDBRANCH  16  17
ENDBRANCH   6  16
BRANCH  15  21
ATOM     21  C   UNL     1      -2.217   5.528   5.961  1.00  0.00     0.430 C 
ATOM     22  F   UNL     1      -2.927   4.382   6.038  1.00  0.00    -0.167 F 
ATOM     23  F   UNL     1      -2.226   6.104   7.181  1.00  0.00    -0.167 F 
ATOM     24  F   UNL     1      -2.907   6.371   5.146  1.00  0.00    -0.167 F 
ENDBRANCH  15  21
ENDBRANCH   3   5
ENDBRANCH   2   3
ENDBRANCH   1   2
BRANCH   1  25
ATOM     25  C   UNL     1      -0.296   5.894  10.419  1.00  0.00     0.275 C 
BRANCH  25  26
ATOM     26  O   UNL     1       0.032   4.506  10.646  1.00  0.00    -0.458 OA
BRANCH  26  27
ATOM     27  C   UNL     1      -0.827   3.608  10.112  1.00  0.00     0.338 C 
ATOM     28  O   UNL     1      -1.832   3.841   9.460  1.00  0.00    -0.246 OA
BRANCH  27  29
ATOM     29  C   UNL     1      -0.284   2.250  10.267  1.00  0.00     0.060 A 
ATOM     30  C   UNL     1      -0.453   1.489  11.419  1.00  0.00     0.016 A 
ATOM     31  C   UNL     1       0.323   1.690   9.148  1.00  0.00     0.016 A 
ATOM     32  C   UNL     1       0.020   0.166  11.436  1.00  0.00     0.010 A 
ATOM     33  C   UNL     1       0.746   0.366   9.142  1.00  0.00     0.010 A 
ATOM     34  C   UNL     1       0.616  -0.412  10.295  1.00  0.00    -0.014 A 
BRANCH  34  35
ATOM     35  C   UNL     1       1.061  -1.831  10.274  1.00  0.00     0.031 A 
ATOM     36  C   UNL     1       2.507  -2.194  10.047  1.00  0.00     0.074 A 
ATOM     37  C   UNL     1       0.144  -2.812  10.390  1.00  0.00     0.049 A 
ATOM     38  N   UNL     1       3.066  -3.380  10.042  1.00  0.00    -0.248 NA
ATOM     39  C   UNL     1       3.442  -1.095   9.756  1.00  0.00     0.031 C 
ATOM     40  C   UNL     1      -1.301  -2.606  10.504  1.00  0.00     0.029 A 
ATOM     41  N   UNL     1       0.290  -4.177  10.445  1.00  0.00    -0.354 N 
ATOM     42  C   UNL     1       4.405  -3.169   9.735  1.00  0.00     0.074 A 
ATOM     43  C   UNL     1       4.566  -1.751   9.504  1.00  0.00     0.031 C 
ATOM     44  C   UNL     1      -1.900  -3.792  10.686  1.00  0.00     0.029 A 
ATOM     45  C   UNL     1      -0.889  -4.845  10.673  1.00  0.00     0.049 A 
ATOM     46  H   UNL     1       1.156  -4.632  10.332  1.00  0.00     0.167 HD
ATOM     47  C   UNL     1       5.418  -4.068   9.683  1.00  0.00     0.031 A 
ATOM     48  C   UNL     1      -1.131  -6.155  10.877  1.00  0.00     0.031 A 
ATOM     49  C   UNL     1       5.265  -5.474   9.947  1.00  0.00     0.049 A 
ATOM     50  C   UNL     1       0.014  -7.127  10.883  1.00  0.00     0.074 A 
ATOM     51  C   UNL     1       6.247  -6.447  10.007  1.00  0.00     0.029 A 
ATOM     52  N   UNL     1       4.058  -6.104  10.201  1.00  0.00    -0.354 N 
ATOM     53  N   UNL     1       1.290  -6.896  10.695  1.00  0.00    -0.248 NA
ATOM     54  C   UNL     1      -0.310  -8.537  11.147  1.00  0.00     0.031 C 
ATOM     55  C   UNL     1       5.630  -7.675  10.255  1.00  0.00     0.029 A 
ATOM     56  C   UNL     1       4.269  -7.457  10.405  1.00  0.00     0.049 A 
ATOM     57  H   UNL     1       3.182  -5.657  10.232  1.00  0.00     0.167 HD
ATOM     58  C   UNL     1       1.923  -8.124  10.831  1.00  0.00     0.074 A 
ATOM     59  C   UNL     1       0.894  -9.096  11.139  1.00  0.00     0.031 C 
ATOM     60  C   UNL     1       3.240  -8.416  10.709  1.00  0.00     0.031 A 
BRANCH  47  61
ATOM     61  C   UNL     1       6.798  -3.562   9.362  1.00  0.00    -0.014 A 
ATOM     62  C   UNL     1       7.433  -3.949   8.171  1.00  0.00     0.009 A 
ATOM     63  C   UNL     1       7.510  -2.776  10.283  1.00  0.00     0.009 A 
ATOM     64  C   UNL     1       8.750  -3.565   7.911  1.00  0.00     0.001 A 
ATOM     65  C   UNL     1       8.816  -2.368  10.007  1.00  0.00     0.001 A 
ATOM     66  C   UNL     1       9.438  -2.770   8.826  1.00  0.00     0.000 A 
ENDBRANCH  47  61
BRANCH  48  67
ATOM     67  C   UNL     1      -2.517  -6.597  11.180  1.00  0.00    -0.014 A 
ATOM     68  C   UNL     1      -3.507  -6.600  10.186  1.00  0.00     0.009 A 
ATOM     69  C   UNL     1      -2.869  -6.958  12.490  1.00  0.00     0.009 A 
ATOM     70  C   UNL     1      -4.826  -6.934  10.502  1.00  0.00     0.001 A 
ATOM     71  C   UNL     1      -4.183  -7.316  12.798  1.00  0.00     0.001 A 
ATOM     72  C   UNL     1      -5.162  -7.295  11.806  1.00  0.00     0.000 A 
ENDBRANCH  48  67
BRANCH  60  73
ATOM     73  C   UNL     1       3.667  -9.842  10.912  1.00  0.00    -0.014 A 
ATOM     74  C   UNL     1       4.422 -10.189  12.044  1.00  0.00     0.009 A 
ATOM     75  C   UNL     1       3.424 -10.814   9.931  1.00  0.00     0.009 A 
ATOM     76  C   UNL     1       4.938 -11.479  12.183  1.00  0.00     0.001 A 
ATOM     77  C   UNL     1       3.919 -12.111  10.085  1.00  0.00     0.001 A 
ATOM     78  C   UNL     1       4.684 -12.438  11.204  1.00  0.00     0.000 A 
ENDBRANCH  60  73
ENDBRANCH  34  35
ENDBRANCH  27  29
ENDBRANCH  26  27
ENDBRANCH  25  26
ENDBRANCH   1  25
TORSDOF 15
