REMARK SMILES O=C(OCCOC(=O)[C@@H]1CCCC[C@@H]1NS(=O)(=O)c1ccc2ccccc2c1)c1ccc(-c2c3nc(c(-c4ccccc4)c4ccc([nH]4)c(-c4ccccc4)c4nc(c(-c5ccccc5)c5ccc2[nH]5)C=C4)C=C3)cc1
REMARK SMILES IDX 5 1 4 2 3 3 2 4 1 5 29 6 30 7 76 8 31 9 75 10 32 11 33 12
REMARK SMILES IDX 34 13 69 14 35 15 74 16 68 17 70 18 36 19 73 20 67 21 66 22
REMARK SMILES IDX 37 24 59 25 44 26 58 27 45 28 48 29 57 30 71 31 46 32 47 33
REMARK SMILES IDX 56 35 72 36 49 37 38 38 39 39 43 40 40 41 42 42 41 43 60 44
REMARK SMILES IDX 61 45 65 46 62 47 64 48 63 49 50 50 51 51 55 52 52 53 54 54
REMARK SMILES IDX 53 55 6 56 7 57 8 58 9 59 10 60 14 61 11 62 13 63 12 64
REMARK SMILES IDX 15 65 16 67 17 68 18 69 19 70 20 71 28 72 21 73 27 74 22 75
REMARK SMILES IDX 26 76 23 77 25 78 24 79
REMARK H PARENT 70 23 48 34 15 66
REMARK Flexibility Score: inf
ROOT
ATOM      1  C   UNL     1       3.417  -0.180  -1.790  1.00  0.00     0.274 C 
ENDROOT
BRANCH   1   2
ATOM      2  C   UNL     1       2.647  -0.766  -0.579  1.00  0.00     0.275 C 
BRANCH   2   3
ATOM      3  O   UNL     1       2.105   0.256   0.297  1.00  0.00    -0.458 OA
BRANCH   3   4
ATOM      4  C   UNL     1       1.456  -0.164   1.431  1.00  0.00     0.338 C 
ATOM      5  O   UNL     1       0.719  -1.129   1.513  1.00  0.00    -0.246 OA
BRANCH   4   6
ATOM      6  C   UNL     1       1.985   0.621   2.599  1.00  0.00     0.060 A 
ATOM      7  C   UNL     1       3.341   0.483   2.833  1.00  0.00     0.016 A 
ATOM      8  C   UNL     1       1.290   1.514   3.420  1.00  0.00     0.016 A 
ATOM      9  C   UNL     1       4.022   1.347   3.700  1.00  0.00     0.010 A 
ATOM     10  C   UNL     1       1.999   2.365   4.345  1.00  0.00     0.010 A 
ATOM     11  C   UNL     1       3.405   2.344   4.439  1.00  0.00    -0.014 A 
BRANCH  11  12
ATOM     12  C   UNL     1       4.344   3.216   5.261  1.00  0.00     0.031 A 
ATOM     13  C   UNL     1       4.962   2.591   6.483  1.00  0.00     0.074 A 
ATOM     14  C   UNL     1       5.034   4.305   4.819  1.00  0.00     0.049 A 
ATOM     15  N   UNL     1       6.021   2.977   7.148  1.00  0.00    -0.248 NA
ATOM     16  C   UNL     1       4.423   1.287   6.894  1.00  0.00     0.031 C 
ATOM     17  C   UNL     1       5.121   4.758   3.450  1.00  0.00     0.029 A 
ATOM     18  N   UNL     1       5.888   5.199   5.446  1.00  0.00    -0.354 N 
ATOM     19  C   UNL     1       6.361   1.908   7.952  1.00  0.00     0.074 A 
ATOM     20  C   UNL     1       5.348   0.889   7.753  1.00  0.00     0.031 C 
ATOM     21  C   UNL     1       5.771   5.918   3.335  1.00  0.00     0.029 A 
ATOM     22  C   UNL     1       6.292   6.249   4.638  1.00  0.00     0.049 A 
ATOM     23  H   UNL     1       6.180   5.097   6.380  1.00  0.00     0.167 HD
ATOM     24  C   UNL     1       7.437   1.768   8.759  1.00  0.00     0.031 A 
ATOM     25  C   UNL     1       7.070   7.329   4.833  1.00  0.00     0.031 A 
ATOM     26  C   UNL     1       8.381   2.802   9.082  1.00  0.00     0.049 A 
ATOM     27  C   UNL     1       7.875   7.383   6.078  1.00  0.00     0.074 A 
ATOM     28  C   UNL     1       9.367   2.785  10.054  1.00  0.00     0.029 A 
ATOM     29  N   UNL     1       8.435   4.052   8.484  1.00  0.00    -0.354 N 
ATOM     30  N   UNL     1       8.118   6.402   6.906  1.00  0.00    -0.248 NA
ATOM     31  C   UNL     1       8.560   8.641   6.392  1.00  0.00     0.031 C 
ATOM     32  C   UNL     1       9.947   4.059  10.116  1.00  0.00     0.029 A 
ATOM     33  C   UNL     1       9.366   4.850   9.139  1.00  0.00     0.049 A 
ATOM     34  H   UNL     1       7.895   4.332   7.710  1.00  0.00     0.167 HD
ATOM     35  C   UNL     1       9.034   6.900   7.809  1.00  0.00     0.074 A 
ATOM     36  C   UNL     1       9.293   8.277   7.437  1.00  0.00     0.031 C 
ATOM     37  C   UNL     1       9.620   6.235   8.831  1.00  0.00     0.031 A 
BRANCH  24  38
ATOM     38  C   UNL     1       7.548   0.441   9.436  1.00  0.00    -0.014 A 
ATOM     39  C   UNL     1       8.111  -0.662   8.777  1.00  0.00     0.009 A 
ATOM     40  C   UNL     1       6.992   0.279  10.713  1.00  0.00     0.009 A 
ATOM     41  C   UNL     1       8.085  -1.920   9.379  1.00  0.00     0.001 A 
ATOM     42  C   UNL     1       6.975  -0.978  11.312  1.00  0.00     0.001 A 
ATOM     43  C   UNL     1       7.513  -2.076  10.643  1.00  0.00     0.000 A 
ENDBRANCH  24  38
BRANCH  25  44
ATOM     44  C   UNL     1       7.129   8.435   3.833  1.00  0.00    -0.014 A 
ATOM     45  C   UNL     1       8.316   8.790   3.174  1.00  0.00     0.009 A 
ATOM     46  C   UNL     1       5.974   9.201   3.593  1.00  0.00     0.009 A 
ATOM     47  C   UNL     1       8.352   9.908   2.332  1.00  0.00     0.001 A 
ATOM     48  C   UNL     1       6.009  10.306   2.739  1.00  0.00     0.001 A 
ATOM     49  C   UNL     1       7.202  10.667   2.120  1.00  0.00     0.000 A 
ENDBRANCH  25  44
BRANCH  37  50
ATOM     50  C   UNL     1      10.606   7.005   9.652  1.00  0.00    -0.014 A 
ATOM     51  C   UNL     1      10.183   8.041  10.499  1.00  0.00     0.009 A 
ATOM     52  C   UNL     1      11.973   6.698   9.580  1.00  0.00     0.009 A 
ATOM     53  C   UNL     1      11.114   8.775  11.235  1.00  0.00     0.001 A 
ATOM     54  C   UNL     1      12.898   7.413  10.340  1.00  0.00     0.001 A 
ATOM     55  C   UNL     1      12.469   8.457  11.160  1.00  0.00     0.000 A 
ENDBRANCH  37  50
ENDBRANCH  11  12
ENDBRANCH   4   6
ENDBRANCH   3   4
ENDBRANCH   2   3
ENDBRANCH   1   2
BRANCH   1  56
ATOM     56  O   UNL     1       4.056   1.050  -1.438  1.00  0.00    -0.462 OA
BRANCH  56  57
ATOM     57  C   UNL     1       3.446   2.153  -1.949  1.00  0.00     0.310 C 
ATOM     58  O   UNL     1       3.023   2.255  -3.092  1.00  0.00    -0.252 OA
BRANCH  57  59
ATOM     59  C   UNL     1       3.146   3.140  -0.859  1.00  0.00     0.117 C 
ATOM     60  C   UNL     1       3.253   4.623  -1.265  1.00  0.00     0.017 C 
ATOM     61  C   UNL     1       3.822   2.832   0.503  1.00  0.00     0.084 C 
ATOM     62  C   UNL     1       2.465   5.500  -0.286  1.00  0.00     0.001 C 
ATOM     63  C   UNL     1       3.019   3.768   1.440  1.00  0.00     0.021 C 
ATOM     64  C   UNL     1       2.968   5.263   1.121  1.00  0.00     0.002 C 
BRANCH  61  65
ATOM     65  N   UNL     1       5.326   2.866   0.408  1.00  0.00    -0.207 NA
ATOM     66  H   UNL     1       5.549   3.828   0.663  1.00  0.00     0.141 HD
BRANCH  65  67
ATOM     67  S   UNL     1       6.603   1.961   1.148  1.00  0.00     0.240 S 
ATOM     68  O   UNL     1       7.630   1.960   0.100  1.00  0.00    -0.207 OA
ATOM     69  O   UNL     1       6.886   2.582   2.399  1.00  0.00    -0.207 OA
BRANCH  67  70
ATOM     70  C   UNL     1       6.364   0.203   1.519  1.00  0.00     0.083 A 
ATOM     71  C   UNL     1       6.527  -0.237   2.851  1.00  0.00     0.022 A 
ATOM     72  C   UNL     1       6.203  -0.790   0.555  1.00  0.00     0.030 A 
ATOM     73  C   UNL     1       6.099  -1.512   3.256  1.00  0.00     0.010 A 
ATOM     74  C   UNL     1       5.882  -2.130   0.938  1.00  0.00    -0.017 A 
ATOM     75  C   UNL     1       5.691  -2.445   2.305  1.00  0.00    -0.018 A 
ATOM     76  C   UNL     1       5.691  -3.168   0.008  1.00  0.00     0.009 A 
ATOM     77  C   UNL     1       5.111  -3.673   2.682  1.00  0.00     0.009 A 
ATOM     78  C   UNL     1       5.170  -4.410   0.397  1.00  0.00     0.001 A 
ATOM     79  C   UNL     1       4.824  -4.642   1.724  1.00  0.00     0.001 A 
ENDBRANCH  67  70
ENDBRANCH  65  67
ENDBRANCH  61  65
ENDBRANCH  57  59
ENDBRANCH  56  57
ENDBRANCH   1  56
TORSDOF 14
