REMARK SMILES Cc1nn(C)c(C)c1C[C@@H](C)C(=O)N[C@@H](C(=O)OCCOC(=O)c1ccc(-c2c3nc(c(-c4ccccc4)c4ccc([nH]4)c(-c4ccccc4)c4nc(c(-c5ccccc5)c5ccc2[nH]5)C=C4)C=C3)cc1)c1ccccc1Cl
REMARK SMILES IDX 19 1 18 2 16 3 17 4 15 5 14 6 12 7 13 8 10 10 11 11 9 12
REMARK SMILES IDX 8 13 1 14 2 15 3 16 4 17 6 18 5 19 7 20 72 21 73 22 77 23
REMARK SMILES IDX 74 24 76 25 78 26 75 27 20 28 21 29 22 30 23 31 24 32 25 33
REMARK SMILES IDX 71 34 26 35 70 36 27 37 28 38 29 39 64 40 30 41 69 42 63 43
REMARK SMILES IDX 65 44 31 45 68 46 62 47 61 48 32 50 54 51 39 52 53 53 40 54
REMARK SMILES IDX 43 55 52 56 66 57 41 58 42 59 51 61 67 62 44 63 33 64 34 65
REMARK SMILES IDX 38 66 35 67 37 68 36 69 55 70 56 71 60 72 57 73 59 74 58 75
REMARK SMILES IDX 45 76 46 77 50 78 47 79 49 80 48 81
REMARK H PARENT 14 9 65 49 43 60
REMARK Flexibility Score: inf
ROOT
ATOM      1  C   UNL     1      -1.856   5.144  -3.153  1.00  0.00     0.274 C 
ENDROOT
BRANCH   1   2
ATOM      2  O   UNL     1      -1.202   5.282  -1.873  1.00  0.00    -0.460 OA
BRANCH   2   3
ATOM      3  C   UNL     1       0.139   5.034  -1.844  1.00  0.00     0.333 C 
ATOM      4  O   UNL     1       0.806   4.714  -2.823  1.00  0.00    -0.249 OA
BRANCH   3   5
ATOM      5  C   UNL     1       0.722   5.097  -0.416  1.00  0.00     0.224 C 
BRANCH   5   6
ATOM      6  N   UNL     1      -0.260   5.380   0.627  1.00  0.00    -0.339 N 
ATOM      7  C   UNL     1      -0.933   4.539   1.456  1.00  0.00     0.224 C 
ATOM      8  O   UNL     1      -1.842   5.012   2.142  1.00  0.00    -0.275 OA
ATOM      9  H   UNL     1      -0.468   6.335   0.749  1.00  0.00     0.164 HD
BRANCH   7  10
ATOM     10  C   UNL     1      -0.570   3.060   1.573  1.00  0.00     0.080 C 
ATOM     11  C   UNL     1       0.832   2.908   2.170  1.00  0.00     0.018 C 
BRANCH  10  12
ATOM     12  C   UNL     1      -0.885   2.312   0.266  1.00  0.00     0.052 C 
BRANCH  12  13
ATOM     13  C   UNL     1      -0.503   0.870   0.223  1.00  0.00    -0.003 A 
ATOM     14  C   UNL     1      -2.851  -0.296   0.396  1.00  0.00     0.069 C 
ATOM     15  C   UNL     1      -1.370  -0.256   0.294  1.00  0.00     0.063 A 
ATOM     16  N   UNL     1      -0.696  -1.406   0.204  1.00  0.00    -0.178 NA
ATOM     17  N   UNL     1       0.584  -1.034   0.052  1.00  0.00    -0.272 N 
ATOM     18  C   UNL     1       0.751   0.324  -0.021  1.00  0.00     0.038 A 
ATOM     19  C   UNL     1       1.589  -2.065  -0.057  1.00  0.00     0.174 C 
ATOM     20  C   UNL     1       2.063   0.956  -0.319  1.00  0.00     0.066 C 
ENDBRANCH  12  13
ENDBRANCH  10  12
ENDBRANCH   7  10
ENDBRANCH   5   6
BRANCH   5  21
ATOM     21  C   UNL     1       2.007   5.904  -0.299  1.00  0.00     0.004 A 
ATOM     22  C   UNL     1       3.215   5.240  -0.622  1.00  0.00     0.008 A 
ATOM     23  C   UNL     1       2.094   7.244   0.107  1.00  0.00     0.046 A 
ATOM     24  C   UNL     1       4.454   5.867  -0.489  1.00  0.00     0.000 A 
ATOM     25  C   UNL     1       3.342   7.864   0.261  1.00  0.00     0.021 A 
ATOM     26  Cl  UNL     1       0.700   8.224   0.391  1.00  0.00    -0.084 Cl
ATOM     27  C   UNL     1       4.520   7.176  -0.030  1.00  0.00     0.002 A 
ENDBRANCH   5  21
ENDBRANCH   3   5
ENDBRANCH   2   3
ENDBRANCH   1   2
BRANCH   1  28
ATOM     28  C   UNL     1      -2.112   6.514  -3.773  1.00  0.00     0.275 C 
BRANCH  28  29
ATOM     29  O   UNL     1      -0.850   7.167  -3.984  1.00  0.00    -0.458 OA
BRANCH  29  30
ATOM     30  C   UNL     1      -0.702   8.384  -3.416  1.00  0.00     0.338 C 
ATOM     31  O   UNL     1      -1.561   9.047  -2.853  1.00  0.00    -0.246 OA
BRANCH  30  32
ATOM     32  C   UNL     1       0.701   8.820  -3.544  1.00  0.00     0.060 A 
ATOM     33  C   UNL     1       1.741   7.918  -3.328  1.00  0.00     0.016 A 
ATOM     34  C   UNL     1       0.992  10.164  -3.772  1.00  0.00     0.016 A 
ATOM     35  C   UNL     1       3.054   8.367  -3.236  1.00  0.00     0.010 A 
ATOM     36  C   UNL     1       2.324  10.594  -3.784  1.00  0.00     0.010 A 
ATOM     37  C   UNL     1       3.371   9.709  -3.471  1.00  0.00    -0.014 A 
BRANCH  37  38
ATOM     38  C   UNL     1       4.774  10.191  -3.324  1.00  0.00     0.031 A 
ATOM     39  C   UNL     1       5.082  11.339  -2.397  1.00  0.00     0.074 A 
ATOM     40  C   UNL     1       5.792   9.594  -3.976  1.00  0.00     0.049 A 
ATOM     41  N   UNL     1       6.178  12.050  -2.298  1.00  0.00    -0.248 NA
ATOM     42  C   UNL     1       4.015  11.751  -1.471  1.00  0.00     0.031 C 
ATOM     43  C   UNL     1       5.684   8.417  -4.841  1.00  0.00     0.029 A 
ATOM     44  N   UNL     1       7.135   9.885  -3.988  1.00  0.00    -0.354 N 
ATOM     45  C   UNL     1       5.897  13.049  -1.373  1.00  0.00     0.074 A 
ATOM     46  C   UNL     1       4.539  12.836  -0.920  1.00  0.00     0.031 C 
ATOM     47  C   UNL     1       6.911   8.040  -5.229  1.00  0.00     0.029 A 
ATOM     48  C   UNL     1       7.881   9.014  -4.742  1.00  0.00     0.049 A 
ATOM     49  H   UNL     1       7.525  10.647  -3.501  1.00  0.00     0.167 HD
ATOM     50  C   UNL     1       6.693  14.062  -0.954  1.00  0.00     0.031 A 
ATOM     51  C   UNL     1       9.190   9.016  -5.053  1.00  0.00     0.031 A 
ATOM     52  C   UNL     1       8.066  14.235  -1.349  1.00  0.00     0.049 A 
ATOM     53  C   UNL     1      10.049  10.162  -4.606  1.00  0.00     0.074 A 
ATOM     54  C   UNL     1       8.954  15.230  -0.978  1.00  0.00     0.029 A 
ATOM     55  N   UNL     1       8.758  13.371  -2.182  1.00  0.00    -0.354 N 
ATOM     56  N   UNL     1       9.736  11.177  -3.839  1.00  0.00    -0.248 NA
ATOM     57  C   UNL     1      11.430  10.183  -5.108  1.00  0.00     0.031 C 
ATOM     58  C   UNL     1      10.179  14.982  -1.609  1.00  0.00     0.029 A 
ATOM     59  C   UNL     1      10.061  13.812  -2.341  1.00  0.00     0.049 A 
ATOM     60  H   UNL     1       8.380  12.564  -2.600  1.00  0.00     0.167 HD
ATOM     61  C   UNL     1      10.877  11.964  -3.773  1.00  0.00     0.074 A 
ATOM     62  C   UNL     1      11.898  11.293  -4.554  1.00  0.00     0.031 C 
ATOM     63  C   UNL     1      11.059  13.143  -3.133  1.00  0.00     0.031 A 
BRANCH  50  64
ATOM     64  C   UNL     1       6.072  15.101  -0.065  1.00  0.00    -0.014 A 
ATOM     65  C   UNL     1       5.800  14.854   1.288  1.00  0.00     0.009 A 
ATOM     66  C   UNL     1       5.766  16.363  -0.602  1.00  0.00     0.009 A 
ATOM     67  C   UNL     1       5.202  15.839   2.078  1.00  0.00     0.001 A 
ATOM     68  C   UNL     1       5.192  17.354   0.196  1.00  0.00     0.001 A 
ATOM     69  C   UNL     1       4.901  17.088   1.532  1.00  0.00     0.000 A 
ENDBRANCH  50  64
BRANCH  51  70
ATOM     70  C   UNL     1       9.757   7.921  -5.879  1.00  0.00    -0.014 A 
ATOM     71  C   UNL     1      10.607   6.968  -5.299  1.00  0.00     0.009 A 
ATOM     72  C   UNL     1       9.435   7.808  -7.241  1.00  0.00     0.009 A 
ATOM     73  C   UNL     1      11.124   5.923  -6.068  1.00  0.00     0.001 A 
ATOM     74  C   UNL     1       9.932   6.747  -8.000  1.00  0.00     0.001 A 
ATOM     75  C   UNL     1      10.779   5.808  -7.414  1.00  0.00     0.000 A 
ENDBRANCH  51  70
BRANCH  63  76
ATOM     76  C   UNL     1      12.416  13.772  -3.243  1.00  0.00    -0.014 A 
ATOM     77  C   UNL     1      12.805  14.445  -4.411  1.00  0.00     0.009 A 
ATOM     78  C   UNL     1      13.308  13.704  -2.163  1.00  0.00     0.009 A 
ATOM     79  C   UNL     1      14.075  15.015  -4.505  1.00  0.00     0.001 A 
ATOM     80  C   UNL     1      14.570  14.291  -2.252  1.00  0.00     0.001 A 
ATOM     81  C   UNL     1      14.956  14.939  -3.425  1.00  0.00     0.000 A 
ENDBRANCH  63  76
ENDBRANCH  37  38
ENDBRANCH  30  32
ENDBRANCH  29  30
ENDBRANCH  28  29
ENDBRANCH   1  28
TORSDOF 16
