REMARK SMILES CC(=O)c1c[nH]c(C(=O)N[C@H]2C=C[C@H](C(=O)OCCOC(=O)c3ccc(-c4c5nc(c(-c6ccccc6)c6ccc([nH]6)c(-c6ccccc6)c6nc(c(-c7ccccc7)c7ccc4[nH]7)C=C6)C=C5)cc3)C2)c1
REMARK SMILES IDX 18 1 17 2 15 3 16 4 14 5 11 6 12 7 71 8 13 9 10 10 8 11 9 12
REMARK SMILES IDX 7 14 4 15 5 16 72 17 6 18 2 20 1 21 3 22 19 23 20 24 21 25
REMARK SMILES IDX 22 26 23 27 24 28 70 29 25 30 69 31 26 32 27 33 28 34 63 35
REMARK SMILES IDX 29 36 68 37 62 38 64 39 30 40 67 41 61 42 60 43 31 45 53 46
REMARK SMILES IDX 38 47 52 48 39 49 42 50 51 51 65 52 40 53 41 54 50 56 66 57
REMARK SMILES IDX 43 58 32 59 33 60 37 61 34 62 36 63 35 64 54 65 55 66 59 67
REMARK SMILES IDX 56 68 58 69 57 70 44 71 45 72 49 73 46 74 48 75 47 76
REMARK H PARENT 10 13 6 19 64 44 42 55
REMARK Flexibility Score: inf
ROOT
ATOM      1  C   UNL     1      -5.873  -0.510  -2.382  1.00  0.00     0.274 C 
ENDROOT
BRANCH   1   2
ATOM      2  O   UNL     1      -4.700  -0.136  -3.125  1.00  0.00    -0.462 OA
BRANCH   2   3
ATOM      3  C   UNL     1      -4.210   1.117  -2.892  1.00  0.00     0.312 C 
ATOM      4  O   UNL     1      -4.786   1.968  -2.222  1.00  0.00    -0.252 OA
BRANCH   3   5
ATOM      5  C   UNL     1      -2.789   1.279  -3.436  1.00  0.00     0.124 C 
ATOM      6  C   UNL     1      -2.102   2.955  -5.090  1.00  0.00     0.106 C 
ATOM      7  C   UNL     1      -2.172   1.598  -5.692  1.00  0.00    -0.006 C 
ATOM      8  C   UNL     1      -2.371   2.755  -3.598  1.00  0.00     0.048 C 
ATOM      9  C   UNL     1      -2.582   0.690  -4.801  1.00  0.00    -0.014 C 
BRANCH   6  10
ATOM     10  N   UNL     1      -0.895   3.654  -5.474  1.00  0.00    -0.345 N 
ATOM     11  C   UNL     1       0.422   3.644  -5.091  1.00  0.00     0.268 C 
ATOM     12  O   UNL     1       1.130   4.527  -5.553  1.00  0.00    -0.268 OA
ATOM     13  H   UNL     1      -1.062   4.304  -6.195  1.00  0.00     0.164 HD
BRANCH  11  14
ATOM     14  C   UNL     1       0.941   2.709  -4.120  1.00  0.00     0.105 A 
ATOM     15  C   UNL     1       1.405   1.017  -2.656  1.00  0.00     0.035 A 
ATOM     16  C   UNL     1       2.221   2.091  -2.362  1.00  0.00     0.094 A 
ATOM     17  C   UNL     1       0.683   1.385  -3.829  1.00  0.00     0.045 A 
ATOM     18  N   UNL     1       1.984   3.072  -3.290  1.00  0.00    -0.356 N 
ATOM     19  H   UNL     1       2.486   3.916  -3.356  1.00  0.00     0.166 HD
BRANCH  15  20
ATOM     20  C   UNL     1       1.289  -0.244  -1.926  1.00  0.00     0.161 C 
ATOM     21  C   UNL     1       1.944  -0.356  -0.574  1.00  0.00     0.093 C 
ATOM     22  O   UNL     1       0.662  -1.193  -2.393  1.00  0.00    -0.294 OA
ENDBRANCH  15  20
ENDBRANCH  11  14
ENDBRANCH   6  10
ENDBRANCH   3   5
ENDBRANCH   2   3
ENDBRANCH   1   2
BRANCH   1  23
ATOM     23  C   UNL     1      -5.537  -1.235  -1.078  1.00  0.00     0.275 C 
BRANCH  23  24
ATOM     24  O   UNL     1      -4.825  -0.433  -0.127  1.00  0.00    -0.458 OA
BRANCH  24  25
ATOM     25  C   UNL     1      -3.490  -0.498  -0.294  1.00  0.00     0.338 C 
ATOM     26  O   UNL     1      -2.885  -0.880  -1.290  1.00  0.00    -0.246 OA
BRANCH  25  27
ATOM     27  C   UNL     1      -2.768  -0.294   0.952  1.00  0.00     0.060 A 
ATOM     28  C   UNL     1      -1.458   0.185   0.855  1.00  0.00     0.016 A 
ATOM     29  C   UNL     1      -3.248  -0.925   2.105  1.00  0.00     0.016 A 
ATOM     30  C   UNL     1      -0.582  -0.076   1.887  1.00  0.00     0.010 A 
ATOM     31  C   UNL     1      -2.359  -1.215   3.124  1.00  0.00     0.010 A 
ATOM     32  C   UNL     1      -1.022  -0.820   2.989  1.00  0.00    -0.014 A 
BRANCH  32  33
ATOM     33  C   UNL     1      -0.101  -0.942   4.125  1.00  0.00     0.031 A 
ATOM     34  C   UNL     1      -0.164   0.332   4.979  1.00  0.00     0.074 A 
ATOM     35  C   UNL     1       0.654  -2.082   4.204  1.00  0.00     0.049 A 
ATOM     36  N   UNL     1       0.662   0.752   5.879  1.00  0.00    -0.248 NA
ATOM     37  C   UNL     1      -1.279   1.309   4.782  1.00  0.00     0.031 C 
ATOM     38  C   UNL     1       0.582  -3.217   3.252  1.00  0.00     0.029 A 
ATOM     39  N   UNL     1       1.631  -2.526   5.075  1.00  0.00    -0.354 N 
ATOM     40  C   UNL     1       0.095   1.897   6.474  1.00  0.00     0.074 A 
ATOM     41  C   UNL     1      -1.046   2.252   5.694  1.00  0.00     0.031 C 
ATOM     42  C   UNL     1       1.511  -4.158   3.545  1.00  0.00     0.029 A 
ATOM     43  C   UNL     1       2.250  -3.758   4.728  1.00  0.00     0.049 A 
ATOM     44  H   UNL     1       1.881  -2.021   5.882  1.00  0.00     0.167 HD
ATOM     45  C   UNL     1       0.527   2.389   7.668  1.00  0.00     0.031 A 
ATOM     46  C   UNL     1       3.298  -4.399   5.338  1.00  0.00     0.031 A 
ATOM     47  C   UNL     1       1.701   1.699   8.078  1.00  0.00     0.049 A 
ATOM     48  C   UNL     1       3.514  -3.690   6.605  1.00  0.00     0.074 A 
ATOM     49  C   UNL     1       2.975   1.692   7.572  1.00  0.00     0.029 A 
ATOM     50  N   UNL     1       1.507   0.582   8.854  1.00  0.00    -0.354 N 
ATOM     51  N   UNL     1       2.735  -3.774   7.639  1.00  0.00    -0.248 NA
ATOM     52  C   UNL     1       4.668  -2.791   6.734  1.00  0.00     0.031 C 
ATOM     53  C   UNL     1       3.334   0.333   7.645  1.00  0.00     0.029 A 
ATOM     54  C   UNL     1       2.394  -0.364   8.413  1.00  0.00     0.049 A 
ATOM     55  H   UNL     1       0.856   0.481   9.586  1.00  0.00     0.167 HD
ATOM     56  C   UNL     1       3.067  -2.639   8.332  1.00  0.00     0.074 A 
ATOM     57  C   UNL     1       4.424  -2.307   7.950  1.00  0.00     0.031 C 
ATOM     58  C   UNL     1       2.084  -1.754   8.643  1.00  0.00     0.031 A 
BRANCH  45  59
ATOM     59  C   UNL     1      -0.155   3.271   8.667  1.00  0.00    -0.014 A 
ATOM     60  C   UNL     1       0.624   3.727   9.757  1.00  0.00     0.009 A 
ATOM     61  C   UNL     1      -1.544   3.380   8.777  1.00  0.00     0.009 A 
ATOM     62  C   UNL     1       0.040   4.138  10.954  1.00  0.00     0.001 A 
ATOM     63  C   UNL     1      -2.131   3.834   9.965  1.00  0.00     0.001 A 
ATOM     64  C   UNL     1      -1.342   4.171  11.064  1.00  0.00     0.000 A 
ENDBRANCH  45  59
BRANCH  46  65
ATOM     65  C   UNL     1       4.256  -5.543   5.090  1.00  0.00    -0.014 A 
ATOM     66  C   UNL     1       4.242  -6.417   4.004  1.00  0.00     0.009 A 
ATOM     67  C   UNL     1       5.352  -5.710   5.988  1.00  0.00     0.009 A 
ATOM     68  C   UNL     1       5.306  -7.326   3.789  1.00  0.00     0.001 A 
ATOM     69  C   UNL     1       6.432  -6.564   5.754  1.00  0.00     0.001 A 
ATOM     70  C   UNL     1       6.415  -7.371   4.637  1.00  0.00     0.000 A 
ENDBRANCH  46  65
BRANCH  58  71
ATOM     71  C   UNL     1       0.687  -2.348   8.761  1.00  0.00    -0.014 A 
ATOM     72  C   UNL     1       0.454  -3.404   9.659  1.00  0.00     0.009 A 
ATOM     73  C   UNL     1      -0.382  -1.978   7.925  1.00  0.00     0.009 A 
ATOM     74  C   UNL     1      -0.775  -4.077   9.701  1.00  0.00     0.001 A 
ATOM     75  C   UNL     1      -1.616  -2.649   7.963  1.00  0.00     0.001 A 
ATOM     76  C   UNL     1      -1.810  -3.703   8.851  1.00  0.00     0.000 A 
ENDBRANCH  58  71
ENDBRANCH  32  33
ENDBRANCH  25  27
ENDBRANCH  24  25
ENDBRANCH  23  24
ENDBRANCH   1  23
TORSDOF 14
