REMARK SMILES Cn1c(C(=O)N2CCC[C@@H](C(=O)OCCOC(=O)c3ccc(-c4c5nc(c(-c6ccccc6)c6ccc([nH]6)c(-c6ccccc6)c6nc(c(-c7ccccc7)c7ccc4[nH]7)C=C6)C=C5)cc3)C2)cc2sccc21
REMARK SMILES IDX 14 1 13 2 11 3 12 4 10 5 6 6 7 7 67 8 8 9 9 10 4 11 5 12
REMARK SMILES IDX 3 13 1 14 2 15 73 16 68 17 69 18 72 19 70 20 71 21 15 22
REMARK SMILES IDX 16 23 17 24 18 25 19 26 20 27 66 28 21 29 65 30 22 31 23 32
REMARK SMILES IDX 24 33 59 34 25 35 64 36 58 37 60 38 26 39 63 40 57 41 56 42
REMARK SMILES IDX 27 44 49 45 34 46 48 47 35 48 38 49 47 50 61 51 36 52 37 53
REMARK SMILES IDX 46 55 62 56 39 57 28 58 29 59 33 60 30 61 32 62 31 63 50 64
REMARK SMILES IDX 51 65 55 66 52 67 54 68 53 69 40 70 41 71 45 72 42 73 44 74
REMARK SMILES IDX 43 75
REMARK H PARENT 60 43 38 54
REMARK Flexibility Score: inf
ROOT
ATOM      1  C   UNL     1       1.986   0.939   8.698  1.00  0.00     0.274 C 
ENDROOT
BRANCH   1   2
ATOM      2  O   UNL     1       1.340   1.426   7.503  1.00  0.00    -0.462 OA
BRANCH   2   3
ATOM      3  C   UNL     1       0.455   0.570   6.918  1.00  0.00     0.310 C 
ATOM      4  O   UNL     1       0.178  -0.542   7.350  1.00  0.00    -0.252 OA
BRANCH   3   5
ATOM      5  C   UNL     1      -0.161   1.167   5.663  1.00  0.00     0.119 C 
ATOM      6  N   UNL     1      -1.327   0.467   3.588  1.00  0.00    -0.337 N 
ATOM      7  C   UNL     1      -2.522   1.234   3.901  1.00  0.00     0.120 C 
ATOM      8  C   UNL     1      -0.538   0.007   4.732  1.00  0.00     0.135 C 
ATOM      9  C   UNL     1      -2.182   2.437   4.761  1.00  0.00     0.022 C 
ATOM     10  C   UNL     1      -1.393   2.011   5.996  1.00  0.00     0.019 C 
BRANCH   6  11
ATOM     11  C   UNL     1      -1.001   0.242   2.256  1.00  0.00     0.270 C 
ATOM     12  O   UNL     1      -1.367   1.020   1.376  1.00  0.00    -0.267 OA
BRANCH  11  13
ATOM     13  C   UNL     1      -0.291  -0.990   1.939  1.00  0.00     0.108 A 
ATOM     14  C   UNL     1       0.996  -0.163  -0.090  1.00  0.00     0.150 C 
ATOM     15  N   UNL     1       0.538  -1.158   0.848  1.00  0.00    -0.339 N 
ATOM     16  C   UNL     1       0.858  -2.494   0.733  1.00  0.00     0.059 A 
ATOM     17  C   UNL     1      -0.416  -2.225   2.569  1.00  0.00     0.053 A 
ATOM     18  C   UNL     1       0.314  -3.158   1.789  1.00  0.00     0.053 A 
ATOM     19  C   UNL     1       1.559  -3.343  -0.167  1.00  0.00     0.038 A 
ATOM     20  S   UNL     1       0.666  -4.851   1.767  1.00  0.00    -0.142 S 
ATOM     21  C   UNL     1       1.505  -4.647   0.280  1.00  0.00     0.068 A 
ENDBRANCH  11  13
ENDBRANCH   6  11
ENDBRANCH   3   5
ENDBRANCH   2   3
ENDBRANCH   1   2
BRANCH   1  22
ATOM     22  C   UNL     1       1.250   1.310   9.984  1.00  0.00     0.275 C 
BRANCH  22  23
ATOM     23  O   UNL     1      -0.056   0.735  10.054  1.00  0.00    -0.458 OA
BRANCH  23  24
ATOM     24  C   UNL     1      -1.012   1.519   9.528  1.00  0.00     0.338 C 
ATOM     25  O   UNL     1      -0.843   2.560   8.888  1.00  0.00    -0.246 OA
BRANCH  24  26
ATOM     26  C   UNL     1      -2.343   1.100   9.950  1.00  0.00     0.060 A 
ATOM     27  C   UNL     1      -3.437   1.554   9.200  1.00  0.00     0.016 A 
ATOM     28  C   UNL     1      -2.497   0.560  11.229  1.00  0.00     0.016 A 
ATOM     29  C   UNL     1      -4.681   1.607   9.785  1.00  0.00     0.010 A 
ATOM     30  C   UNL     1      -3.735   0.639  11.824  1.00  0.00     0.010 A 
ATOM     31  C   UNL     1      -4.792   1.228  11.119  1.00  0.00    -0.014 A 
BRANCH  31  32
ATOM     32  C   UNL     1      -6.057   1.457  11.792  1.00  0.00     0.031 A 
ATOM     33  C   UNL     1      -7.126   0.472  11.495  1.00  0.00     0.074 A 
ATOM     34  C   UNL     1      -6.123   2.387  12.765  1.00  0.00     0.049 A 
ATOM     35  N   UNL     1      -8.389   0.686  11.314  1.00  0.00    -0.248 NA
ATOM     36  C   UNL     1      -6.723  -0.936  11.322  1.00  0.00     0.031 C 
ATOM     37  C   UNL     1      -5.018   3.212  13.271  1.00  0.00     0.029 A 
ATOM     38  N   UNL     1      -7.137   2.655  13.634  1.00  0.00    -0.354 N 
ATOM     39  C   UNL     1      -8.965  -0.572  11.165  1.00  0.00     0.074 A 
ATOM     40  C   UNL     1      -7.889  -1.522  11.068  1.00  0.00     0.031 C 
ATOM     41  C   UNL     1      -5.339   3.663  14.501  1.00  0.00     0.029 A 
ATOM     42  C   UNL     1      -6.691   3.232  14.817  1.00  0.00     0.049 A 
ATOM     43  H   UNL     1      -8.084   2.460  13.445  1.00  0.00     0.167 HD
ATOM     44  C   UNL     1     -10.292  -0.791  11.351  1.00  0.00     0.031 A 
ATOM     45  C   UNL     1      -7.333   3.248  16.010  1.00  0.00     0.031 A 
ATOM     46  C   UNL     1     -11.076   0.400  11.202  1.00  0.00     0.049 A 
ATOM     47  C   UNL     1      -8.753   2.905  15.771  1.00  0.00     0.074 A 
ATOM     48  C   UNL     1     -11.283   1.293  10.170  1.00  0.00     0.029 A 
ATOM     49  N   UNL     1     -11.543   1.013  12.337  1.00  0.00    -0.354 N 
ATOM     50  N   UNL     1      -9.599   3.693  15.174  1.00  0.00    -0.248 NA
ATOM     51  C   UNL     1      -9.155   1.508  15.848  1.00  0.00     0.031 C 
ATOM     52  C   UNL     1     -11.436   2.559  10.801  1.00  0.00     0.029 A 
ATOM     53  C   UNL     1     -11.340   2.360  12.179  1.00  0.00     0.049 A 
ATOM     54  H   UNL     1     -11.948   0.570  13.117  1.00  0.00     0.167 HD
ATOM     55  C   UNL     1     -10.406   2.845  14.430  1.00  0.00     0.074 A 
ATOM     56  C   UNL     1     -10.177   1.517  14.988  1.00  0.00     0.031 C 
ATOM     57  C   UNL     1     -10.955   3.254  13.247  1.00  0.00     0.031 A 
BRANCH  44  58
ATOM     58  C   UNL     1     -10.807  -2.031  12.030  1.00  0.00    -0.014 A 
ATOM     59  C   UNL     1     -12.189  -2.267  12.072  1.00  0.00     0.009 A 
ATOM     60  C   UNL     1      -9.996  -2.828  12.866  1.00  0.00     0.009 A 
ATOM     61  C   UNL     1     -12.733  -3.219  12.942  1.00  0.00     0.001 A 
ATOM     62  C   UNL     1     -10.532  -3.808  13.702  1.00  0.00     0.001 A 
ATOM     63  C   UNL     1     -11.905  -3.986  13.759  1.00  0.00     0.000 A 
ENDBRANCH  44  58
BRANCH  45  64
ATOM     64  C   UNL     1      -6.742   3.305  17.365  1.00  0.00    -0.014 A 
ATOM     65  C   UNL     1      -7.528   3.648  18.474  1.00  0.00     0.009 A 
ATOM     66  C   UNL     1      -5.443   2.821  17.612  1.00  0.00     0.009 A 
ATOM     67  C   UNL     1      -7.037   3.499  19.779  1.00  0.00     0.001 A 
ATOM     68  C   UNL     1      -4.945   2.687  18.911  1.00  0.00     0.001 A 
ATOM     69  C   UNL     1      -5.748   3.015  19.996  1.00  0.00     0.000 A 
ENDBRANCH  45  64
BRANCH  57  70
ATOM     70  C   UNL     1     -10.851   4.718  12.892  1.00  0.00    -0.014 A 
ATOM     71  C   UNL     1      -9.614   5.374  12.756  1.00  0.00     0.009 A 
ATOM     72  C   UNL     1     -12.013   5.412  12.525  1.00  0.00     0.009 A 
ATOM     73  C   UNL     1      -9.546   6.696  12.307  1.00  0.00     0.001 A 
ATOM     74  C   UNL     1     -11.943   6.725  12.053  1.00  0.00     0.001 A 
ATOM     75  C   UNL     1     -10.711   7.369  11.951  1.00  0.00     0.000 A 
ENDBRANCH  57  70
ENDBRANCH  31  32
ENDBRANCH  24  26
ENDBRANCH  23  24
ENDBRANCH  22  23
ENDBRANCH   1  22
TORSDOF 13
