REMARK SMILES O=C(OCCOC(=O)c1sc2ccccc2c1CSC[C@H](O)CO)c1ccc(-c2c3nc(c(-c4ccccc4)c4ccc([nH]4)c(-c4ccccc4)c4nc(c(-c5ccccc5)c5ccc2[nH]5)C=C4)C=C3)cc1
REMARK SMILES IDX 7 1 8 2 6 3 5 4 4 5 3 6 2 7 1 8 25 9 26 10 72 11 27 12 71 13
REMARK SMILES IDX 28 14 29 15 30 16 65 17 31 18 70 19 64 20 66 21 32 22 69 23
REMARK SMILES IDX 63 24 62 25 33 27 55 28 40 29 54 30 41 31 44 32 53 33 67 34
REMARK SMILES IDX 42 35 43 36 52 38 68 39 45 40 34 41 35 42 39 43 36 44 38 45
REMARK SMILES IDX 37 46 56 47 57 48 61 49 58 50 60 51 59 52 46 53 47 54 51 55
REMARK SMILES IDX 48 56 50 57 49 58 9 59 10 60 17 61 11 62 16 63 12 64 15 65
REMARK SMILES IDX 13 66 14 67 18 68 19 69 20 70 21 71 23 72 24 73 22 75
REMARK H PARENT 66 26 44 37 24 74 22 76
REMARK Flexibility Score: inf
ROOT
ATOM      1  C   UNL     1      -0.941  -2.822   5.109  1.00  0.00     0.348 C 
ATOM      2  O   UNL     1      -0.022  -2.027   5.256  1.00  0.00    -0.245 OA
ENDROOT
BRANCH   1   3
ATOM      3  O   UNL     1      -0.886  -4.143   5.466  1.00  0.00    -0.458 OA
BRANCH   3   4
ATOM      4  C   UNL     1       0.406  -4.590   5.899  1.00  0.00     0.275 C 
BRANCH   4   5
ATOM      5  C   UNL     1       1.216  -5.193   4.748  1.00  0.00     0.275 C 
BRANCH   5   6
ATOM      6  O   UNL     1       0.924  -4.562   3.491  1.00  0.00    -0.458 OA
BRANCH   6   7
ATOM      7  C   UNL     1       0.453  -5.328   2.474  1.00  0.00     0.338 C 
ATOM      8  O   UNL     1       0.995  -5.398   1.381  1.00  0.00    -0.246 OA
BRANCH   7   9
ATOM      9  C   UNL     1      -0.955  -5.758   2.644  1.00  0.00     0.060 A 
ATOM     10  C   UNL     1      -1.321  -6.798   3.500  1.00  0.00     0.016 A 
ATOM     11  C   UNL     1      -1.922  -5.144   1.839  1.00  0.00     0.016 A 
ATOM     12  C   UNL     1      -2.655  -7.202   3.575  1.00  0.00     0.010 A 
ATOM     13  C   UNL     1      -3.261  -5.527   1.933  1.00  0.00     0.010 A 
ATOM     14  C   UNL     1      -3.628  -6.578   2.784  1.00  0.00    -0.014 A 
BRANCH  14  15
ATOM     15  C   UNL     1      -4.995  -7.141   2.730  1.00  0.00     0.031 A 
ATOM     16  C   UNL     1      -5.362  -8.043   1.589  1.00  0.00     0.074 A 
ATOM     17  C   UNL     1      -5.886  -6.886   3.704  1.00  0.00     0.049 A 
ATOM     18  N   UNL     1      -6.453  -8.742   1.410  1.00  0.00    -0.248 NA
ATOM     19  C   UNL     1      -4.362  -8.197   0.519  1.00  0.00     0.031 C 
ATOM     20  C   UNL     1      -5.641  -6.048   4.874  1.00  0.00     0.029 A 
ATOM     21  N   UNL     1      -7.181  -7.309   3.859  1.00  0.00    -0.354 N 
ATOM     22  C   UNL     1      -6.251  -9.451   0.235  1.00  0.00     0.074 A 
ATOM     23  C   UNL     1      -4.968  -9.046  -0.295  1.00  0.00     0.031 C 
ATOM     24  C   UNL     1      -6.764  -5.981   5.609  1.00  0.00     0.029 A 
ATOM     25  C   UNL     1      -7.796  -6.792   4.971  1.00  0.00     0.049 A 
ATOM     26  H   UNL     1      -7.626  -7.923   3.232  1.00  0.00     0.167 HD
ATOM     27  C   UNL     1      -7.044 -10.388  -0.333  1.00  0.00     0.031 A 
ATOM     28  C   UNL     1      -9.050  -6.965   5.428  1.00  0.00     0.031 A 
ATOM     29  C   UNL     1      -8.333 -10.767   0.170  1.00  0.00     0.049 A 
ATOM     30  C   UNL     1      -9.961  -7.926   4.720  1.00  0.00     0.074 A 
ATOM     31  C   UNL     1      -9.209 -11.719  -0.318  1.00  0.00     0.029 A 
ATOM     32  N   UNL     1      -8.940 -10.189   1.274  1.00  0.00    -0.354 N 
ATOM     33  N   UNL     1      -9.720  -8.662   3.661  1.00  0.00    -0.248 NA
ATOM     34  C   UNL     1     -11.303  -8.111   5.291  1.00  0.00     0.031 C 
ATOM     35  C   UNL     1     -10.364 -11.692   0.472  1.00  0.00     0.029 A 
ATOM     36  C   UNL     1     -10.191 -10.745   1.470  1.00  0.00     0.049 A 
ATOM     37  H   UNL     1      -8.539  -9.486   1.836  1.00  0.00     0.167 HD
ATOM     38  C   UNL     1     -10.860  -9.429   3.466  1.00  0.00     0.074 A 
ATOM     39  C   UNL     1     -11.797  -9.062   4.509  1.00  0.00     0.031 C 
ATOM     40  C   UNL     1     -11.102 -10.367   2.518  1.00  0.00     0.031 A 
BRANCH  27  41
ATOM     41  C   UNL     1      -6.508 -11.061  -1.561  1.00  0.00    -0.014 A 
ATOM     42  C   UNL     1      -5.486 -12.020  -1.458  1.00  0.00     0.009 A 
ATOM     43  C   UNL     1      -6.997 -10.716  -2.828  1.00  0.00     0.009 A 
ATOM     44  C   UNL     1      -4.938 -12.592  -2.606  1.00  0.00     0.001 A 
ATOM     45  C   UNL     1      -6.458 -11.304  -3.973  1.00  0.00     0.001 A 
ATOM     46  C   UNL     1      -5.423 -12.233  -3.863  1.00  0.00     0.000 A 
ENDBRANCH  27  41
BRANCH  28  47
ATOM     47  C   UNL     1      -9.504  -6.233   6.637  1.00  0.00    -0.014 A 
ATOM     48  C   UNL     1      -9.636  -6.892   7.868  1.00  0.00     0.009 A 
ATOM     49  C   UNL     1      -9.809  -4.865   6.559  1.00  0.00     0.009 A 
ATOM     50  C   UNL     1     -10.084  -6.198   8.994  1.00  0.00     0.001 A 
ATOM     51  C   UNL     1     -10.241  -4.171   7.691  1.00  0.00     0.001 A 
ATOM     52  C   UNL     1     -10.384  -4.839   8.905  1.00  0.00     0.000 A 
ENDBRANCH  28  47
BRANCH  40  53
ATOM     53  C   UNL     1     -12.414 -11.089   2.593  1.00  0.00    -0.014 A 
ATOM     54  C   UNL     1     -13.600 -10.486   2.151  1.00  0.00     0.009 A 
ATOM     55  C   UNL     1     -12.452 -12.408   3.072  1.00  0.00     0.009 A 
ATOM     56  C   UNL     1     -14.806 -11.184   2.208  1.00  0.00     0.001 A 
ATOM     57  C   UNL     1     -13.656 -13.110   3.109  1.00  0.00     0.001 A 
ATOM     58  C   UNL     1     -14.833 -12.496   2.682  1.00  0.00     0.000 A 
ENDBRANCH  40  53
ENDBRANCH  14  15
ENDBRANCH   7   9
ENDBRANCH   6   7
ENDBRANCH   5   6
ENDBRANCH   4   5
ENDBRANCH   3   4
ENDBRANCH   1   3
BRANCH   1  59
ATOM     59  C   UNL     1      -2.204  -2.540   4.464  1.00  0.00     0.117 A 
ATOM     60  S   UNL     1      -3.641  -2.813   5.333  1.00  0.00    -0.128 S 
ATOM     61  C   UNL     1      -2.439  -2.009   3.201  1.00  0.00    -0.005 A 
ATOM     62  C   UNL     1      -4.630  -2.436   3.985  1.00  0.00     0.035 A 
ATOM     63  C   UNL     1      -3.866  -2.017   2.893  1.00  0.00    -0.003 A 
ATOM     64  C   UNL     1      -6.035  -2.527   3.924  1.00  0.00     0.019 A 
ATOM     65  C   UNL     1      -4.566  -1.696   1.698  1.00  0.00     0.010 A 
ATOM     66  C   UNL     1      -6.687  -2.214   2.732  1.00  0.00     0.001 A 
ATOM     67  C   UNL     1      -5.960  -1.802   1.627  1.00  0.00     0.001 A 
BRANCH  61  68
ATOM     68  C   UNL     1      -1.370  -1.601   2.221  1.00  0.00     0.107 C 
BRANCH  68  69
ATOM     69  S   UNL     1      -0.384  -0.145   2.687  1.00  0.00    -0.154 SA
BRANCH  69  70
ATOM     70  C   UNL     1      -1.669   0.995   3.304  1.00  0.00     0.104 C 
BRANCH  70  71
ATOM     71  C   UNL     1      -2.502   1.560   2.157  1.00  0.00     0.149 C 
BRANCH  71  72
ATOM     72  C   UNL     1      -3.635   2.437   2.692  1.00  0.00     0.188 C 
BRANCH  72  73
ATOM     73  O   UNL     1      -4.357   2.990   1.593  1.00  0.00    -0.394 OA
ATOM     74  H   UNL     1      -3.758   3.524   1.048  1.00  0.00     0.210 HD
ENDBRANCH  72  73
ENDBRANCH  71  72
BRANCH  71  75
ATOM     75  O   UNL     1      -1.687   2.374   1.296  1.00  0.00    -0.390 OA
ATOM     76  H   UNL     1      -1.331   3.122   1.801  1.00  0.00     0.211 HD
ENDBRANCH  71  75
ENDBRANCH  70  71
ENDBRANCH  69  70
ENDBRANCH  68  69
ENDBRANCH  61  68
ENDBRANCH   1  59
TORSDOF 18
