REMARK SMILES Cc1ccc(Br)cc1C(=O)N1CCO[C@H](CC(=O)OCCOC(=O)c2ccc(-c3c4nc(c(-c5ccccc5)c5ccc([nH]5)c(-c5ccccc5)c5nc(c(-c6ccccc6)c6ccc3[nH]6)C=C5)C=C4)cc2)C1
REMARK SMILES IDX 20 1 19 2 17 3 18 4 16 5 15 6 11 7 12 8 73 9 13 10 14 11
REMARK SMILES IDX 9 12 10 13 8 14 1 15 2 16 3 17 4 18 7 19 5 20 6 21 21 22
REMARK SMILES IDX 22 23 23 24 24 25 25 26 26 27 72 28 27 29 71 30 28 31 29 32
REMARK SMILES IDX 30 33 65 34 31 35 70 36 64 37 66 38 32 39 69 40 63 41 62 42
REMARK SMILES IDX 33 44 55 45 40 46 54 47 41 48 44 49 53 50 67 51 42 52 43 53
REMARK SMILES IDX 52 55 68 56 45 57 34 58 35 59 39 60 36 61 38 62 37 63 56 64
REMARK SMILES IDX 57 65 61 66 58 67 60 68 59 69 46 70 47 71 51 72 48 73 50 74
REMARK SMILES IDX 49 75
REMARK H PARENT 66 43 44 54
REMARK Flexibility Score: inf
ROOT
ATOM      1  C   UNL     1       7.833  -0.344   4.885  1.00  0.00     0.274 C 
ENDROOT
BRANCH   1   2
ATOM      2  O   UNL     1       7.592   0.156   3.555  1.00  0.00    -0.462 OA
BRANCH   2   3
ATOM      3  C   UNL     1       6.297   0.132   3.156  1.00  0.00     0.308 C 
ATOM      4  O   UNL     1       5.352  -0.203   3.862  1.00  0.00    -0.252 OA
BRANCH   3   5
ATOM      5  C   UNL     1       6.137   0.422   1.692  1.00  0.00     0.156 C 
BRANCH   5   6
ATOM      6  C   UNL     1       6.475   1.844   1.219  1.00  0.00     0.148 C 
ATOM      7  N   UNL     1       4.396   2.060  -0.055  1.00  0.00    -0.334 N 
ATOM      8  C   UNL     1       5.088   1.924  -1.334  1.00  0.00     0.148 C 
ATOM      9  C   UNL     1       5.224   2.702   0.967  1.00  0.00     0.152 C 
ATOM     10  C   UNL     1       6.505   1.329  -1.157  1.00  0.00     0.182 C 
ATOM     11  O   UNL     1       7.236   1.823  -0.017  1.00  0.00    -0.374 OA
BRANCH   7  12
ATOM     12  C   UNL     1       3.020   2.123   0.103  1.00  0.00     0.254 C 
ATOM     13  O   UNL     1       2.527   3.079   0.711  1.00  0.00    -0.269 OA
BRANCH  12  14
ATOM     14  C   UNL     1       2.092   0.990  -0.277  1.00  0.00     0.044 A 
ATOM     15  C   UNL     1       3.744  -1.027  -0.483  1.00  0.00     0.045 C 
ATOM     16  C   UNL     1       2.394  -0.383  -0.437  1.00  0.00    -0.038 A 
ATOM     17  C   UNL     1       1.333  -1.319  -0.521  1.00  0.00     0.005 A 
ATOM     18  C   UNL     1       0.000  -0.930  -0.453  1.00  0.00     0.016 A 
ATOM     19  C   UNL     1       0.724   1.360  -0.251  1.00  0.00     0.029 A 
ATOM     20  C   UNL     1      -0.300   0.414  -0.329  1.00  0.00     0.018 A 
ATOM     21  Br  UNL     1      -2.106   0.958  -0.206  1.00  0.00    -0.051 Br
ENDBRANCH  12  14
ENDBRANCH   7  12
ENDBRANCH   5   6
ENDBRANCH   3   5
ENDBRANCH   2   3
ENDBRANCH   1   2
BRANCH   1  22
ATOM     22  C   UNL     1       7.864   0.763   5.943  1.00  0.00     0.275 C 
BRANCH  22  23
ATOM     23  O   UNL     1       6.562   1.320   6.206  1.00  0.00    -0.458 OA
BRANCH  23  24
ATOM     24  C   UNL     1       6.223   2.364   5.416  1.00  0.00     0.338 C 
ATOM     25  O   UNL     1       6.900   2.873   4.537  1.00  0.00    -0.246 OA
BRANCH  24  26
ATOM     26  C   UNL     1       4.831   2.768   5.658  1.00  0.00     0.060 A 
ATOM     27  C   UNL     1       3.936   2.658   4.593  1.00  0.00     0.016 A 
ATOM     28  C   UNL     1       4.437   3.373   6.849  1.00  0.00     0.016 A 
ATOM     29  C   UNL     1       2.668   3.218   4.674  1.00  0.00     0.010 A 
ATOM     30  C   UNL     1       3.142   3.896   6.952  1.00  0.00     0.010 A 
ATOM     31  C   UNL     1       2.261   3.847   5.855  1.00  0.00    -0.014 A 
BRANCH  31  32
ATOM     32  C   UNL     1       0.914   4.460   5.928  1.00  0.00     0.031 A 
ATOM     33  C   UNL     1       0.761   5.953   5.948  1.00  0.00     0.074 A 
ATOM     34  C   UNL     1      -0.174   3.669   5.955  1.00  0.00     0.049 A 
ATOM     35  N   UNL     1      -0.327   6.669   6.080  1.00  0.00    -0.248 NA
ATOM     36  C   UNL     1       1.992   6.747   5.809  1.00  0.00     0.031 C 
ATOM     37  C   UNL     1      -0.159   2.206   5.897  1.00  0.00     0.029 A 
ATOM     38  N   UNL     1      -1.505   3.988   6.038  1.00  0.00    -0.354 N 
ATOM     39  C   UNL     1       0.088   7.994   6.062  1.00  0.00     0.074 A 
ATOM     40  C   UNL     1       1.529   7.984   5.924  1.00  0.00     0.031 C 
ATOM     41  C   UNL     1      -1.422   1.755   5.942  1.00  0.00     0.029 A 
ATOM     42  C   UNL     1      -2.328   2.891   6.076  1.00  0.00     0.049 A 
ATOM     43  H   UNL     1      -1.837   4.914   6.068  1.00  0.00     0.167 HD
ATOM     44  C   UNL     1      -0.665   9.117   6.152  1.00  0.00     0.031 A 
ATOM     45  C   UNL     1      -3.663   2.807   6.227  1.00  0.00     0.031 A 
ATOM     46  C   UNL     1      -2.099   9.128   6.275  1.00  0.00     0.049 A 
ATOM     47  C   UNL     1      -4.468   4.065   6.372  1.00  0.00     0.074 A 
ATOM     48  C   UNL     1      -2.950  10.217   6.348  1.00  0.00     0.029 A 
ATOM     49  N   UNL     1      -2.893   7.994   6.339  1.00  0.00    -0.354 N 
ATOM     50  N   UNL     1      -4.063   5.312   6.356  1.00  0.00    -0.248 NA
ATOM     51  C   UNL     1      -5.917   3.903   6.559  1.00  0.00     0.031 C 
ATOM     52  C   UNL     1      -4.257   9.742   6.502  1.00  0.00     0.029 A 
ATOM     53  C   UNL     1      -4.223   8.357   6.479  1.00  0.00     0.049 A 
ATOM     54  H   UNL     1      -2.562   7.068   6.293  1.00  0.00     0.167 HD
ATOM     55  C   UNL     1      -5.205   6.083   6.516  1.00  0.00     0.074 A 
ATOM     56  C   UNL     1      -6.322   5.165   6.609  1.00  0.00     0.031 C 
ATOM     57  C   UNL     1      -5.319   7.431   6.582  1.00  0.00     0.031 A 
BRANCH  44  58
ATOM     58  C   UNL     1       0.056  10.434   6.159  1.00  0.00    -0.014 A 
ATOM     59  C   UNL     1       0.605  10.973   4.986  1.00  0.00     0.009 A 
ATOM     60  C   UNL     1       0.150  11.165   7.354  1.00  0.00     0.009 A 
ATOM     61  C   UNL     1       1.258  12.208   5.016  1.00  0.00     0.001 A 
ATOM     62  C   UNL     1       0.784  12.408   7.376  1.00  0.00     0.001 A 
ATOM     63  C   UNL     1       1.343  12.925   6.209  1.00  0.00     0.000 A 
ENDBRANCH  44  58
BRANCH  45  64
ATOM     64  C   UNL     1      -4.316   1.476   6.285  1.00  0.00    -0.014 A 
ATOM     65  C   UNL     1      -5.109   1.022   5.221  1.00  0.00     0.009 A 
ATOM     66  C   UNL     1      -4.147   0.653   7.409  1.00  0.00     0.009 A 
ATOM     67  C   UNL     1      -5.738  -0.223   5.293  1.00  0.00     0.001 A 
ATOM     68  C   UNL     1      -4.756  -0.602   7.467  1.00  0.00     0.001 A 
ATOM     69  C   UNL     1      -5.557  -1.035   6.413  1.00  0.00     0.000 A 
ENDBRANCH  45  64
BRANCH  57  70
ATOM     70  C   UNL     1      -6.703   7.989   6.749  1.00  0.00    -0.014 A 
ATOM     71  C   UNL     1      -7.366   7.920   7.984  1.00  0.00     0.009 A 
ATOM     72  C   UNL     1      -7.340   8.610   5.665  1.00  0.00     0.009 A 
ATOM     73  C   UNL     1      -8.656   8.436   8.120  1.00  0.00     0.001 A 
ATOM     74  C   UNL     1      -8.621   9.146   5.811  1.00  0.00     0.001 A 
ATOM     75  C   UNL     1      -9.280   9.051   7.035  1.00  0.00     0.000 A 
ENDBRANCH  57  70
ENDBRANCH  31  32
ENDBRANCH  24  26
ENDBRANCH  23  24
ENDBRANCH  22  23
ENDBRANCH   1  22
TORSDOF 14
