REMARK SMILES O=C(Cn1c2ccccc2c(=O)c2ccccc21)N[C@@H](Cc1ccccc1)C(=O)OCCOC(=O)c1ccc(-c2c3nc(c(-c4ccccc4)c4ccc([nH]4)c(-c4ccccc4)c4nc(c(-c5ccccc5)c5ccc2[nH]5)C=C4)C=C3)cc1
REMARK SMILES IDX 31 1 30 2 28 3 29 4 20 5 19 6 1 7 2 8 3 10 4 11 5 12 18 13
REMARK SMILES IDX 6 14 10 15 13 16 17 17 7 18 9 19 11 20 14 21 16 22 8 23
REMARK SMILES IDX 12 24 15 25 21 26 22 27 23 28 27 29 24 30 26 31 25 32 32 33
REMARK SMILES IDX 33 34 34 35 35 36 36 37 37 38 83 39 38 40 82 41 39 42 40 43
REMARK SMILES IDX 41 44 76 45 42 46 81 47 75 48 77 49 43 50 80 51 74 52 73 53
REMARK SMILES IDX 44 55 66 56 51 57 65 58 52 59 55 60 64 61 78 62 53 63 54 64
REMARK SMILES IDX 63 66 79 67 56 68 45 69 46 70 50 71 47 72 49 73 48 74 67 75
REMARK SMILES IDX 68 76 72 77 69 78 71 79 70 80 57 81 58 82 62 83 59 84 61 85
REMARK SMILES IDX 60 86
REMARK H PARENT 19 9 77 54 55 65
REMARK Flexibility Score: inf
ROOT
ATOM      1  C   UNL     1       4.116   4.270   2.917  1.00  0.00     0.274 C 
ENDROOT
BRANCH   1   2
ATOM      2  O   UNL     1       3.912   2.884   2.577  1.00  0.00    -0.461 OA
BRANCH   2   3
ATOM      3  C   UNL     1       2.836   2.275   3.152  1.00  0.00     0.329 C 
ATOM      4  O   UNL     1       2.140   2.783   4.027  1.00  0.00    -0.250 OA
BRANCH   3   5
ATOM      5  C   UNL     1       2.651   0.821   2.691  1.00  0.00     0.196 C 
BRANCH   5   6
ATOM      6  N   UNL     1       3.221   0.463   1.378  1.00  0.00    -0.341 N 
ATOM      7  O   UNL     1       1.216  -0.209   0.506  1.00  0.00    -0.273 OA
ATOM      8  C   UNL     1       2.427  -0.026   0.357  1.00  0.00     0.240 C 
ATOM      9  H   UNL     1       4.188   0.574   1.225  1.00  0.00     0.164 HD
BRANCH   8  10
ATOM     10  C   UNL     1       3.134  -0.512  -0.920  1.00  0.00     0.222 C 
BRANCH  10  11
ATOM     11  N   UNL     1       3.848   0.508  -1.718  1.00  0.00    -0.331 N 
ATOM     12  C   UNL     1       3.241   1.740  -2.042  1.00  0.00     0.053 A 
ATOM     13  C   UNL     1       5.063   0.141  -2.347  1.00  0.00     0.053 A 
ATOM     14  C   UNL     1       1.857   1.961  -2.037  1.00  0.00     0.027 A 
ATOM     15  C   UNL     1       4.053   2.814  -2.463  1.00  0.00     0.046 A 
ATOM     16  C   UNL     1       5.909   1.149  -2.849  1.00  0.00     0.046 A 
ATOM     17  C   UNL     1       5.444  -1.189  -2.592  1.00  0.00     0.027 A 
ATOM     18  C   UNL     1       1.321   3.219  -2.358  1.00  0.00     0.002 A 
ATOM     19  C   UNL     1       3.530   4.084  -2.742  1.00  0.00     0.014 A 
ATOM     20  C   UNL     1       5.491   2.560  -2.701  1.00  0.00     0.197 A 
ATOM     21  C   UNL     1       7.090   0.853  -3.544  1.00  0.00     0.014 A 
ATOM     22  C   UNL     1       6.614  -1.492  -3.302  1.00  0.00     0.002 A 
ATOM     23  C   UNL     1       2.157   4.287  -2.679  1.00  0.00     0.001 A 
ATOM     24  O   UNL     1       6.288   3.478  -2.857  1.00  0.00    -0.288 OA
ATOM     25  C   UNL     1       7.437  -0.474  -3.776  1.00  0.00     0.001 A 
ENDBRANCH  10  11
ENDBRANCH   8  10
ENDBRANCH   5   6
BRANCH   5  26
ATOM     26  C   UNL     1       3.115  -0.123   3.819  1.00  0.00     0.072 C 
BRANCH  26  27
ATOM     27  C   UNL     1       4.604  -0.087   4.083  1.00  0.00    -0.045 A 
ATOM     28  C   UNL     1       5.181   0.979   4.789  1.00  0.00     0.004 A 
ATOM     29  C   UNL     1       5.433  -1.102   3.591  1.00  0.00     0.004 A 
ATOM     30  C   UNL     1       6.565   1.066   4.937  1.00  0.00     0.000 A 
ATOM     31  C   UNL     1       6.815  -1.028   3.765  1.00  0.00     0.000 A 
ATOM     32  C   UNL     1       7.382   0.064   4.421  1.00  0.00     0.000 A 
ENDBRANCH  26  27
ENDBRANCH   5  26
ENDBRANCH   3   5
ENDBRANCH   2   3
ENDBRANCH   1   2
BRANCH   1  33
ATOM     33  C   UNL     1       3.649   5.208   1.796  1.00  0.00     0.275 C 
BRANCH  33  34
ATOM     34  O   UNL     1       2.213   5.238   1.656  1.00  0.00    -0.458 OA
BRANCH  34  35
ATOM     35  C   UNL     1       1.717   4.183   0.974  1.00  0.00     0.338 C 
ATOM     36  O   UNL     1       2.373   3.261   0.511  1.00  0.00    -0.246 OA
BRANCH  35  37
ATOM     37  C   UNL     1       0.249   4.166   0.954  1.00  0.00     0.060 A 
ATOM     38  C   UNL     1      -0.498   5.311   0.678  1.00  0.00     0.016 A 
ATOM     39  C   UNL     1      -0.384   2.930   1.136  1.00  0.00     0.016 A 
ATOM     40  C   UNL     1      -1.889   5.214   0.607  1.00  0.00     0.010 A 
ATOM     41  C   UNL     1      -1.767   2.833   1.069  1.00  0.00     0.010 A 
ATOM     42  C   UNL     1      -2.527   3.979   0.815  1.00  0.00    -0.014 A 
BRANCH  42  43
ATOM     43  C   UNL     1      -3.998   3.878   0.772  1.00  0.00     0.031 A 
ATOM     44  C   UNL     1      -4.781   3.890   2.048  1.00  0.00     0.074 A 
ATOM     45  C   UNL     1      -4.617   3.758  -0.415  1.00  0.00     0.049 A 
ATOM     46  N   UNL     1      -6.077   3.950   2.215  1.00  0.00    -0.248 NA
ATOM     47  C   UNL     1      -4.011   3.823   3.301  1.00  0.00     0.031 C 
ATOM     48  C   UNL     1      -3.943   3.679  -1.711  1.00  0.00     0.029 A 
ATOM     49  N   UNL     1      -5.951   3.688  -0.722  1.00  0.00    -0.354 N 
ATOM     50  C   UNL     1      -6.276   3.964   3.588  1.00  0.00     0.074 A 
ATOM     51  C   UNL     1      -4.976   3.844   4.210  1.00  0.00     0.031 C 
ATOM     52  C   UNL     1      -4.870   3.597  -2.679  1.00  0.00     0.029 A 
ATOM     53  C   UNL     1      -6.198   3.615  -2.070  1.00  0.00     0.049 A 
ATOM     54  H   UNL     1      -6.662   3.689  -0.041  1.00  0.00     0.167 HD
ATOM     55  C   UNL     1      -7.441   4.092   4.263  1.00  0.00     0.031 A 
ATOM     56  C   UNL     1      -7.367   3.591  -2.738  1.00  0.00     0.031 A 
ATOM     57  C   UNL     1      -8.729   4.169   3.631  1.00  0.00     0.049 A 
ATOM     58  C   UNL     1      -8.652   3.701  -1.966  1.00  0.00     0.074 A 
ATOM     59  C   UNL     1      -9.970   4.333   4.221  1.00  0.00     0.029 A 
ATOM     60  N   UNL     1      -8.942   4.069   2.264  1.00  0.00    -0.354 N 
ATOM     61  N   UNL     1      -8.825   3.824  -0.671  1.00  0.00    -0.248 NA
ATOM     62  C   UNL     1      -9.899   3.695  -2.743  1.00  0.00     0.031 C 
ATOM     63  C   UNL     1     -10.938   4.280   3.215  1.00  0.00     0.029 A 
ATOM     64  C   UNL     1     -10.297   4.140   1.993  1.00  0.00     0.049 A 
ATOM     65  H   UNL     1      -8.235   3.963   1.588  1.00  0.00     0.167 HD
ATOM     66  C   UNL     1     -10.196   3.932  -0.480  1.00  0.00     0.074 A 
ATOM     67  C   UNL     1     -10.808   3.872  -1.792  1.00  0.00     0.031 C 
ATOM     68  C   UNL     1     -10.884   4.073   0.679  1.00  0.00     0.031 A 
BRANCH  55  69
ATOM     69  C   UNL     1      -7.373   4.170   5.761  1.00  0.00    -0.014 A 
ATOM     70  C   UNL     1      -7.875   3.123   6.549  1.00  0.00     0.009 A 
ATOM     71  C   UNL     1      -6.869   5.317   6.395  1.00  0.00     0.009 A 
ATOM     72  C   UNL     1      -7.876   3.225   7.941  1.00  0.00     0.001 A 
ATOM     73  C   UNL     1      -6.849   5.406   7.788  1.00  0.00     0.001 A 
ATOM     74  C   UNL     1      -7.359   4.363   8.560  1.00  0.00     0.000 A 
ENDBRANCH  55  69
BRANCH  56  75
ATOM     75  C   UNL     1      -7.356   3.530  -4.221  1.00  0.00    -0.014 A 
ATOM     76  C   UNL     1      -6.979   2.353  -4.887  1.00  0.00     0.009 A 
ATOM     77  C   UNL     1      -7.665   4.669  -4.980  1.00  0.00     0.009 A 
ATOM     78  C   UNL     1      -6.897   2.322  -6.281  1.00  0.00     0.001 A 
ATOM     79  C   UNL     1      -7.605   4.628  -6.375  1.00  0.00     0.001 A 
ATOM     80  C   UNL     1      -7.213   3.458  -7.024  1.00  0.00     0.000 A 
ENDBRANCH  56  75
BRANCH  68  81
ATOM     81  C   UNL     1     -12.380   4.177   0.596  1.00  0.00    -0.014 A 
ATOM     82  C   UNL     1     -13.009   5.398   0.887  1.00  0.00     0.009 A 
ATOM     83  C   UNL     1     -13.169   3.045   0.344  1.00  0.00     0.009 A 
ATOM     84  C   UNL     1     -14.401   5.480   0.945  1.00  0.00     0.001 A 
ATOM     85  C   UNL     1     -14.561   3.136   0.378  1.00  0.00     0.001 A 
ATOM     86  C   UNL     1     -15.175   4.350   0.688  1.00  0.00     0.000 A 
ENDBRANCH  68  81
ENDBRANCH  42  43
ENDBRANCH  35  37
ENDBRANCH  34  35
ENDBRANCH  33  34
ENDBRANCH   1  33
TORSDOF 16
