REMARK SMILES C[NH+]1CCC(NC(=O)N[C@@H]2C=C[C@H](C(=O)OCCOC(=O)c3ccc(-c4c5nc(c(-c6ccccc6)c6ccc([nH]6)c(-c6ccccc6)c6nc(c(-c7ccccc7)c7ccc4[nH]7)C=C6)C=C5)cc3)C2)CC1
REMARK SMILES IDX 17 1 16 2 14 3 15 4 13 5 10 6 11 7 70 8 12 9 9 10 6 11 7 12
REMARK SMILES IDX 8 14 5 16 1 17 2 18 3 19 72 20 4 22 71 23 18 24 19 25 20 26
REMARK SMILES IDX 21 27 22 28 23 29 69 30 24 31 68 32 25 33 26 34 27 35 62 36
REMARK SMILES IDX 28 37 67 38 61 39 63 40 29 41 66 42 60 43 59 44 30 46 52 47
REMARK SMILES IDX 37 48 51 49 38 50 41 51 50 52 64 53 39 54 40 55 49 57 65 58
REMARK SMILES IDX 42 59 31 60 32 61 36 62 33 63 35 64 34 65 53 66 54 67 58 68
REMARK SMILES IDX 55 69 57 70 56 71 43 72 44 73 48 74 45 75 47 76 46 77
REMARK H PARENT 6 13 9 15 2 21 63 45 41 56
REMARK Flexibility Score: inf
ROOT
ATOM      1  C   UNL     1      -2.832   1.459  -3.136  1.00  0.00     0.274 C 
ENDROOT
BRANCH   1   2
ATOM      2  O   UNL     1      -1.811   1.271  -2.135  1.00  0.00    -0.462 OA
BRANCH   2   3
ATOM      3  C   UNL     1      -0.898   0.280  -2.343  1.00  0.00     0.312 C 
ATOM      4  O   UNL     1      -0.820  -0.417  -3.345  1.00  0.00    -0.252 OA
BRANCH   3   5
ATOM      5  C   UNL     1       0.059   0.217  -1.160  1.00  0.00     0.124 C 
ATOM      6  C   UNL     1       2.403  -0.298  -1.726  1.00  0.00     0.107 C 
ATOM      7  C   UNL     1       1.730  -1.437  -1.031  1.00  0.00    -0.006 C 
ATOM      8  C   UNL     1       1.406   0.853  -1.513  1.00  0.00     0.048 C 
ATOM      9  C   UNL     1       0.444  -1.178  -0.766  1.00  0.00    -0.014 C 
BRANCH   6  10
ATOM     10  N   UNL     1       2.583  -0.731  -3.097  1.00  0.00    -0.332 N 
ATOM     11  N   UNL     1       4.885  -1.257  -3.368  1.00  0.00    -0.335 N 
ATOM     12  C   UNL     1       3.622  -1.190  -3.818  1.00  0.00     0.315 C 
ATOM     13  H   UNL     1       5.562  -1.380  -4.072  1.00  0.00     0.165 HD
ATOM     14  O   UNL     1       3.405  -1.553  -4.975  1.00  0.00    -0.249 OA
ATOM     15  H   UNL     1       1.753  -0.678  -3.623  1.00  0.00     0.165 HD
BRANCH  11  16
ATOM     16  C   UNL     1       5.421  -1.180  -2.031  1.00  0.00     0.095 C 
ATOM     17  C   UNL     1       7.036  -0.910   1.773  1.00  0.00     0.332 C 
ATOM     18  N   UNL     1       7.091  -0.941   0.305  1.00  0.00    -0.337 N 
ATOM     19  C   UNL     1       6.367   0.224  -0.230  1.00  0.00     0.264 C 
ATOM     20  C   UNL     1       6.608  -2.248  -0.175  1.00  0.00     0.264 C 
ATOM     21  H   UNL     1       8.047  -0.859  -0.040  1.00  0.00     0.347 HD
ATOM     22  C   UNL     1       6.101   0.150  -1.733  1.00  0.00     0.086 C 
ATOM     23  C   UNL     1       6.399  -2.296  -1.692  1.00  0.00     0.086 C 
ENDBRANCH  11  16
ENDBRANCH   6  10
ENDBRANCH   3   5
ENDBRANCH   2   3
ENDBRANCH   1   2
BRANCH   1  24
ATOM     24  C   UNL     1      -2.611   2.777  -3.874  1.00  0.00     0.275 C 
BRANCH  24  25
ATOM     25  O   UNL     1      -1.494   2.631  -4.769  1.00  0.00    -0.458 OA
BRANCH  25  26
ATOM     26  C   UNL     1      -0.464   3.484  -4.588  1.00  0.00     0.338 C 
ATOM     27  O   UNL     1      -0.383   4.407  -3.793  1.00  0.00    -0.246 OA
BRANCH  26  28
ATOM     28  C   UNL     1       0.642   3.079  -5.465  1.00  0.00     0.060 A 
ATOM     29  C   UNL     1       1.328   1.914  -5.146  1.00  0.00     0.016 A 
ATOM     30  C   UNL     1       1.083   3.888  -6.513  1.00  0.00     0.016 A 
ATOM     31  C   UNL     1       2.505   1.604  -5.811  1.00  0.00     0.010 A 
ATOM     32  C   UNL     1       2.221   3.514  -7.246  1.00  0.00     0.010 A 
ATOM     33  C   UNL     1       2.960   2.376  -6.882  1.00  0.00    -0.014 A 
BRANCH  33  34
ATOM     34  C   UNL     1       4.229   1.981  -7.551  1.00  0.00     0.031 A 
ATOM     35  C   UNL     1       5.443   2.862  -7.450  1.00  0.00     0.074 A 
ATOM     36  C   UNL     1       4.342   0.775  -8.146  1.00  0.00     0.049 A 
ATOM     37  N   UNL     1       6.611   2.728  -8.027  1.00  0.00    -0.248 NA
ATOM     38  C   UNL     1       5.337   4.041  -6.576  1.00  0.00     0.031 C 
ATOM     39  C   UNL     1       3.294  -0.246  -8.197  1.00  0.00     0.029 A 
ATOM     40  N   UNL     1       5.410   0.183  -8.777  1.00  0.00    -0.354 N 
ATOM     41  C   UNL     1       7.357   3.830  -7.633  1.00  0.00     0.074 A 
ATOM     42  C   UNL     1       6.521   4.613  -6.747  1.00  0.00     0.031 C 
ATOM     43  C   UNL     1       3.790  -1.358  -8.763  1.00  0.00     0.029 A 
ATOM     44  C   UNL     1       5.155  -1.100  -9.202  1.00  0.00     0.049 A 
ATOM     45  H   UNL     1       6.274   0.634  -8.912  1.00  0.00     0.167 HD
ATOM     46  C   UNL     1       8.616   4.170  -7.995  1.00  0.00     0.031 A 
ATOM     47  C   UNL     1       5.920  -1.964  -9.896  1.00  0.00     0.031 A 
ATOM     48  C   UNL     1       9.460   3.381  -8.851  1.00  0.00     0.049 A 
ATOM     49  C   UNL     1       7.284  -1.529 -10.351  1.00  0.00     0.074 A 
ATOM     50  C   UNL     1      10.730   3.675  -9.319  1.00  0.00     0.029 A 
ATOM     51  N   UNL     1       9.127   2.135  -9.354  1.00  0.00    -0.354 N 
ATOM     52  N   UNL     1       7.939  -0.432 -10.064  1.00  0.00    -0.248 NA
ATOM     53  C   UNL     1       7.998  -2.439 -11.259  1.00  0.00     0.031 C 
ATOM     54  C   UNL     1      11.147   2.624 -10.142  1.00  0.00     0.029 A 
ATOM     55  C   UNL     1      10.155   1.657 -10.149  1.00  0.00     0.049 A 
ATOM     56  H   UNL     1       8.284   1.659  -9.174  1.00  0.00     0.167 HD
ATOM     57  C   UNL     1       9.136  -0.514 -10.761  1.00  0.00     0.074 A 
ATOM     58  C   UNL     1       9.136  -1.786 -11.454  1.00  0.00     0.031 C 
ATOM     59  C   UNL     1      10.138   0.394 -10.837  1.00  0.00     0.031 A 
BRANCH  46  60
ATOM     60  C   UNL     1       9.125   5.504  -7.535  1.00  0.00    -0.014 A 
ATOM     61  C   UNL     1       9.609   5.705  -6.236  1.00  0.00     0.009 A 
ATOM     62  C   UNL     1       9.143   6.573  -8.446  1.00  0.00     0.009 A 
ATOM     63  C   UNL     1      10.084   6.962  -5.851  1.00  0.00     0.001 A 
ATOM     64  C   UNL     1       9.635   7.821  -8.065  1.00  0.00     0.001 A 
ATOM     65  C   UNL     1      10.100   8.016  -6.766  1.00  0.00     0.000 A 
ENDBRANCH  46  60
BRANCH  47  66
ATOM     66  C   UNL     1       5.389  -3.299 -10.282  1.00  0.00    -0.014 A 
ATOM     67  C   UNL     1       5.956  -4.475  -9.768  1.00  0.00     0.009 A 
ATOM     68  C   UNL     1       4.329  -3.404 -11.197  1.00  0.00     0.009 A 
ATOM     69  C   UNL     1       5.486  -5.725 -10.178  1.00  0.00     0.001 A 
ATOM     70  C   UNL     1       3.840  -4.653 -11.582  1.00  0.00     0.001 A 
ATOM     71  C   UNL     1       4.425  -5.813 -11.080  1.00  0.00     0.000 A 
ENDBRANCH  47  66
BRANCH  59  72
ATOM     72  C   UNL     1      11.313   0.044 -11.702  1.00  0.00    -0.014 A 
ATOM     73  C   UNL     1      11.218   0.108 -13.101  1.00  0.00     0.009 A 
ATOM     74  C   UNL     1      12.535  -0.315 -11.114  1.00  0.00     0.009 A 
ATOM     75  C   UNL     1      12.321  -0.207 -13.896  1.00  0.00     0.001 A 
ATOM     76  C   UNL     1      13.642  -0.607 -11.913  1.00  0.00     0.001 A 
ATOM     77  C   UNL     1      13.532  -0.560 -13.302  1.00  0.00     0.000 A 
ENDBRANCH  59  72
ENDBRANCH  33  34
ENDBRANCH  26  28
ENDBRANCH  25  26
ENDBRANCH  24  25
ENDBRANCH   1  24
TORSDOF 13
