REMARK SMILES O=C(OCCOC(=O)c1cnccc1C(=O)N1CCC(Cc2ccccc2)CC1)c1ccc(-c2c3nc(c(-c4ccccc4)c4ccc([nH]4)c(-c4ccccc4)c4nc(c(-c5ccccc5)c5ccc2[nH]5)C=C4)C=C3)cc1
REMARK SMILES IDX 5 1 4 2 3 3 2 4 1 5 30 6 31 7 77 8 32 9 76 10 33 11 34 12
REMARK SMILES IDX 35 13 70 14 36 15 75 16 69 17 71 18 37 19 74 20 68 21 67 22
REMARK SMILES IDX 38 24 60 25 45 26 59 27 46 28 49 29 58 30 72 31 47 32 48 33
REMARK SMILES IDX 57 35 73 36 50 37 39 38 40 39 44 40 41 41 43 42 42 43 61 44
REMARK SMILES IDX 62 45 66 46 63 47 65 48 64 49 51 50 52 51 56 52 53 53 55 54
REMARK SMILES IDX 54 55 6 56 7 57 8 58 9 59 10 60 14 61 11 62 13 63 12 64
REMARK SMILES IDX 15 65 16 66 17 67 18 68 29 69 19 70 28 71 20 72 21 73 22 74
REMARK SMILES IDX 23 75 27 76 24 77 26 78 25 79
REMARK H PARENT 71 23 49 34
REMARK Flexibility Score: inf
ROOT
ATOM      1  C   UNL     1       3.840   1.608  -0.293  1.00  0.00     0.275 C 
ENDROOT
BRANCH   1   2
ATOM      2  C   UNL     1       4.046   0.646  -1.459  1.00  0.00     0.275 C 
BRANCH   2   3
ATOM      3  O   UNL     1       3.008  -0.340  -1.601  1.00  0.00    -0.458 OA
BRANCH   3   4
ATOM      4  C   UNL     1       2.630  -1.336  -0.768  1.00  0.00     0.338 C 
ATOM      5  O   UNL     1       1.502  -1.808  -0.909  1.00  0.00    -0.246 OA
BRANCH   4   6
ATOM      6  C   UNL     1       3.482  -1.894   0.338  1.00  0.00     0.060 A 
ATOM      7  C   UNL     1       4.825  -1.594   0.571  1.00  0.00     0.016 A 
ATOM      8  C   UNL     1       2.848  -2.777   1.237  1.00  0.00     0.016 A 
ATOM      9  C   UNL     1       5.492  -2.082   1.695  1.00  0.00     0.010 A 
ATOM     10  C   UNL     1       3.515  -3.287   2.357  1.00  0.00     0.010 A 
ATOM     11  C   UNL     1       4.845  -2.937   2.587  1.00  0.00    -0.014 A 
BRANCH  11  12
ATOM     12  C   UNL     1       5.660  -3.578   3.640  1.00  0.00     0.031 A 
ATOM     13  C   UNL     1       6.280  -4.897   3.329  1.00  0.00     0.074 A 
ATOM     14  C   UNL     1       5.972  -2.921   4.770  1.00  0.00     0.049 A 
ATOM     15  N   UNL     1       7.171  -5.560   4.013  1.00  0.00    -0.248 NA
ATOM     16  C   UNL     1       5.888  -5.526   2.057  1.00  0.00     0.031 C 
ATOM     17  C   UNL     1       5.510  -1.581   5.088  1.00  0.00     0.029 A 
ATOM     18  N   UNL     1       6.763  -3.254   5.837  1.00  0.00    -0.354 N 
ATOM     19  C   UNL     1       7.484  -6.659   3.232  1.00  0.00     0.074 A 
ATOM     20  C   UNL     1       6.652  -6.606   2.050  1.00  0.00     0.031 C 
ATOM     21  C   UNL     1       5.998  -1.199   6.278  1.00  0.00     0.029 A 
ATOM     22  C   UNL     1       6.816  -2.279   6.808  1.00  0.00     0.049 A 
ATOM     23  H   UNL     1       7.247  -4.109   5.903  1.00  0.00     0.167 HD
ATOM     24  C   UNL     1       8.405  -7.616   3.476  1.00  0.00     0.031 A 
ATOM     25  C   UNL     1       7.458  -2.262   7.990  1.00  0.00     0.031 A 
ATOM     26  C   UNL     1       9.165  -7.694   4.691  1.00  0.00     0.049 A 
ATOM     27  C   UNL     1       8.345  -3.432   8.313  1.00  0.00     0.074 A 
ATOM     28  C   UNL     1      10.050  -8.674   5.095  1.00  0.00     0.029 A 
ATOM     29  N   UNL     1       9.107  -6.755   5.714  1.00  0.00    -0.354 N 
ATOM     30  N   UNL     1       8.630  -4.475   7.568  1.00  0.00    -0.248 NA
ATOM     31  C   UNL     1       9.018  -3.416   9.616  1.00  0.00     0.031 C 
ATOM     32  C   UNL     1      10.483  -8.359   6.388  1.00  0.00     0.029 A 
ATOM     33  C   UNL     1       9.922  -7.146   6.761  1.00  0.00     0.049 A 
ATOM     34  H   UNL     1       8.567  -5.932   5.695  1.00  0.00     0.167 HD
ATOM     35  C   UNL     1       9.537  -5.225   8.299  1.00  0.00     0.074 A 
ATOM     36  C   UNL     1       9.776  -4.500   9.533  1.00  0.00     0.031 C 
ATOM     37  C   UNL     1      10.122  -6.407   7.983  1.00  0.00     0.031 A 
BRANCH  24  38
ATOM     38  C   UNL     1       8.564  -8.668   2.420  1.00  0.00    -0.014 A 
ATOM     39  C   UNL     1       9.172  -8.373   1.188  1.00  0.00     0.009 A 
ATOM     40  C   UNL     1       8.048  -9.953   2.636  1.00  0.00     0.009 A 
ATOM     41  C   UNL     1       9.226  -9.336   0.179  1.00  0.00     0.001 A 
ATOM     42  C   UNL     1       8.127 -10.921   1.635  1.00  0.00     0.001 A 
ATOM     43  C   UNL     1       8.705 -10.610   0.405  1.00  0.00     0.000 A 
ENDBRANCH  24  38
BRANCH  25  44
ATOM     44  C   UNL     1       7.274  -1.139   8.953  1.00  0.00    -0.014 A 
ATOM     45  C   UNL     1       8.344  -0.317   9.339  1.00  0.00     0.009 A 
ATOM     46  C   UNL     1       6.016  -0.919   9.540  1.00  0.00     0.009 A 
ATOM     47  C   UNL     1       8.169   0.665  10.321  1.00  0.00     0.001 A 
ATOM     48  C   UNL     1       5.836   0.083  10.496  1.00  0.00     0.001 A 
ATOM     49  C   UNL     1       6.917   0.864  10.899  1.00  0.00     0.000 A 
ENDBRANCH  25  44
BRANCH  37  50
ATOM     50  C   UNL     1      11.088  -6.965   8.988  1.00  0.00    -0.014 A 
ATOM     51  C   UNL     1      10.649  -7.460  10.225  1.00  0.00     0.009 A 
ATOM     52  C   UNL     1      12.457  -7.010   8.679  1.00  0.00     0.009 A 
ATOM     53  C   UNL     1      11.569  -7.946  11.155  1.00  0.00     0.001 A 
ATOM     54  C   UNL     1      13.369  -7.532   9.595  1.00  0.00     0.001 A 
ATOM     55  C   UNL     1      12.927  -7.986  10.836  1.00  0.00     0.000 A 
ENDBRANCH  37  50
ENDBRANCH  11  12
ENDBRANCH   4   6
ENDBRANCH   3   4
ENDBRANCH   2   3
ENDBRANCH   1   2
BRANCH   1  56
ATOM     56  O   UNL     1       3.478   0.930   0.923  1.00  0.00    -0.458 OA
BRANCH  56  57
ATOM     57  C   UNL     1       2.348   1.343   1.541  1.00  0.00     0.340 C 
ATOM     58  O   UNL     1       1.577   2.213   1.163  1.00  0.00    -0.246 OA
BRANCH  57  59
ATOM     59  C   UNL     1       2.099   0.540   2.732  1.00  0.00     0.091 A 
ATOM     60  C   UNL     1       1.040  -0.359   2.623  1.00  0.00     0.127 A 
ATOM     61  C   UNL     1       2.768   0.634   3.954  1.00  0.00     0.057 A 
ATOM     62  N   UNL     1       0.653  -1.206   3.606  1.00  0.00    -0.264 NA
ATOM     63  C   UNL     1       2.345  -0.219   4.994  1.00  0.00     0.035 A 
ATOM     64  C   UNL     1       1.319  -1.122   4.771  1.00  0.00     0.112 A 
BRANCH  61  65
ATOM     65  C   UNL     1       3.938   1.515   4.287  1.00  0.00     0.254 C 
ATOM     66  O   UNL     1       4.332   1.590   5.449  1.00  0.00    -0.269 OA
ATOM     67  N   UNL     1       4.645   2.115   3.263  1.00  0.00    -0.339 N 
ATOM     68  C   UNL     1       5.995   1.638   2.953  1.00  0.00     0.120 C 
ATOM     69  C   UNL     1       4.218   3.420   2.778  1.00  0.00     0.120 C 
ATOM     70  C   UNL     1       7.070   2.725   2.926  1.00  0.00     0.025 C 
ATOM     71  C   UNL     1       5.312   4.468   2.824  1.00  0.00     0.025 C 
ATOM     72  C   UNL     1       6.589   3.952   2.142  1.00  0.00    -0.003 C 
BRANCH  72  73
ATOM     73  C   UNL     1       7.607   5.099   2.083  1.00  0.00     0.039 C 
BRANCH  73  74
ATOM     74  C   UNL     1       8.948   4.777   1.474  1.00  0.00    -0.048 A 
ATOM     75  C   UNL     1      10.105   4.897   2.257  1.00  0.00     0.004 A 
ATOM     76  C   UNL     1       9.078   4.432   0.122  1.00  0.00     0.004 A 
ATOM     77  C   UNL     1      11.366   4.696   1.699  1.00  0.00     0.000 A 
ATOM     78  C   UNL     1      10.343   4.228  -0.435  1.00  0.00     0.000 A 
ATOM     79  C   UNL     1      11.486   4.367   0.351  1.00  0.00     0.000 A 
ENDBRANCH  73  74
ENDBRANCH  72  73
ENDBRANCH  61  65
ENDBRANCH  57  59
ENDBRANCH  56  57
ENDBRANCH   1  56
TORSDOF 14
