REMARK SMILES CN(C)c1cc(C(F)(F)F)cc(-c2cccc(/C=C/C(=O)OCCOC(=O)c3ccc(-c4c5nc(c(-c6ccccc6)c6ccc([nH]6)c(-c6ccccc6)c6nc(c(-c7ccccc7)c7ccc4[nH]7)C=C6)C=C5)cc3)c2)n1
REMARK SMILES IDX 23 1 22 2 20 3 21 4 19 5 18 6 17 7 13 8 14 9 76 10 15 11
REMARK SMILES IDX 16 12 12 13 4 14 5 15 77 16 6 17 11 18 2 19 1 20 3 21 7 22
REMARK SMILES IDX 8 23 9 24 10 25 24 26 25 27 26 28 27 29 28 30 29 31 75 32
REMARK SMILES IDX 30 33 74 34 31 35 32 36 33 37 68 38 34 39 73 40 67 41 69 42
REMARK SMILES IDX 35 43 72 44 66 45 65 46 36 48 58 49 43 50 57 51 44 52 47 53
REMARK SMILES IDX 56 54 70 55 45 56 46 57 55 59 71 60 48 61 37 62 38 63 42 64
REMARK SMILES IDX 39 65 41 66 40 67 59 68 60 69 64 70 61 71 63 72 62 73 49 74
REMARK SMILES IDX 50 75 54 76 51 77 53 78 52 79
REMARK H PARENT 69 47 47 58
REMARK Flexibility Score: inf
ROOT
ATOM      1  C   UNL     1      -1.354  -9.844  -8.426  1.00  0.00     0.275 C 
ENDROOT
BRANCH   1   2
ATOM      2  O   UNL     1      -1.281  -8.487  -7.953  1.00  0.00    -0.459 OA
BRANCH   2   3
ATOM      3  C   UNL     1      -1.819  -7.544  -8.762  1.00  0.00     0.330 C 
ATOM      4  O   UNL     1      -2.282  -7.728  -9.879  1.00  0.00    -0.247 OA
BRANCH   3   5
ATOM      5  C   UNL     1      -1.860  -6.210  -8.129  1.00  0.00     0.094 C 
ATOM      6  C   UNL     1      -1.494  -5.947  -6.866  1.00  0.00     0.015 C 
BRANCH   6   7
ATOM      7  C   UNL     1      -1.642  -4.623  -6.247  1.00  0.00    -0.025 A 
ATOM      8  C   UNL     1      -0.727  -2.891  -4.774  1.00  0.00     0.001 A 
ATOM      9  C   UNL     1      -1.919  -2.166  -4.923  1.00  0.00     0.010 A 
ATOM     10  C   UNL     1      -0.612  -4.128  -5.437  1.00  0.00     0.018 A 
ATOM     11  C   UNL     1      -2.954  -2.648  -5.725  1.00  0.00     0.001 A 
ATOM     12  C   UNL     1      -2.816  -3.871  -6.383  1.00  0.00     0.008 A 
BRANCH   8  13
ATOM     13  C   UNL     1       0.376  -2.364  -3.962  1.00  0.00     0.073 A 
ATOM     14  C   UNL     1       1.045  -1.577  -1.863  1.00  0.00     0.129 A 
ATOM     15  C   UNL     1       2.334  -1.363  -2.346  1.00  0.00     0.060 A 
ATOM     16  N   UNL     1       0.083  -2.075  -2.671  1.00  0.00    -0.231 NA
ATOM     17  C   UNL     1       2.649  -1.666  -3.675  1.00  0.00     0.061 A 
ATOM     18  C   UNL     1       1.642  -2.169  -4.496  1.00  0.00     0.042 A 
BRANCH  14  19
ATOM     19  N   UNL     1       0.742  -1.312  -0.529  1.00  0.00    -0.363 N 
ATOM     20  C   UNL     1       1.051   0.019  -0.029  1.00  0.00     0.144 C 
ATOM     21  C   UNL     1      -0.453  -1.962  -0.011  1.00  0.00     0.144 C 
ENDBRANCH  14  19
BRANCH  17  22
ATOM     22  C   UNL     1       4.036  -1.473  -4.217  1.00  0.00     0.416 C 
ATOM     23  F   UNL     1       4.559  -2.624  -4.722  1.00  0.00    -0.166 F 
ATOM     24  F   UNL     1       4.074  -0.569  -5.234  1.00  0.00    -0.166 F 
ATOM     25  F   UNL     1       4.930  -1.031  -3.291  1.00  0.00    -0.166 F 
ENDBRANCH  17  22
ENDBRANCH   8  13
ENDBRANCH   6   7
ENDBRANCH   3   5
ENDBRANCH   2   3
ENDBRANCH   1   2
BRANCH   1  26
ATOM     26  C   UNL     1      -2.486 -10.613  -7.737  1.00  0.00     0.275 C 
BRANCH  26  27
ATOM     27  O   UNL     1      -3.782 -10.107  -8.110  1.00  0.00    -0.458 OA
BRANCH  27  28
ATOM     28  C   UNL     1      -4.276  -9.141  -7.299  1.00  0.00     0.338 C 
ATOM     29  O   UNL     1      -3.764  -8.693  -6.288  1.00  0.00    -0.246 OA
BRANCH  28  30
ATOM     30  C   UNL     1      -5.513  -8.587  -7.879  1.00  0.00     0.060 A 
ATOM     31  C   UNL     1      -5.603  -7.199  -8.023  1.00  0.00     0.016 A 
ATOM     32  C   UNL     1      -6.593  -9.406  -8.218  1.00  0.00     0.016 A 
ATOM     33  C   UNL     1      -6.775  -6.623  -8.508  1.00  0.00     0.010 A 
ATOM     34  C   UNL     1      -7.771  -8.825  -8.701  1.00  0.00     0.010 A 
ATOM     35  C   UNL     1      -7.872  -7.430  -8.840  1.00  0.00    -0.014 A 
BRANCH  35  36
ATOM     36  C   UNL     1      -9.133  -6.803  -9.304  1.00  0.00     0.031 A 
ATOM     37  C   UNL     1     -10.298  -6.669  -8.367  1.00  0.00     0.074 A 
ATOM     38  C   UNL     1      -9.224  -6.334 -10.562  1.00  0.00     0.049 A 
ATOM     39  N   UNL     1     -11.483  -6.160  -8.591  1.00  0.00    -0.248 NA
ATOM     40  C   UNL     1     -10.105  -7.171  -6.998  1.00  0.00     0.031 C 
ATOM     41  C   UNL     1      -8.153  -6.376 -11.558  1.00  0.00     0.029 A 
ATOM     42  N   UNL     1     -10.268  -5.728 -11.213  1.00  0.00    -0.354 N 
ATOM     43  C   UNL     1     -12.180  -6.286  -7.396  1.00  0.00     0.074 A 
ATOM     44  C   UNL     1     -11.293  -6.940  -6.457  1.00  0.00     0.031 C 
ATOM     45  C   UNL     1      -8.595  -5.812 -12.695  1.00  0.00     0.029 A 
ATOM     46  C   UNL     1      -9.986  -5.404 -12.517  1.00  0.00     0.049 A 
ATOM     47  H   UNL     1     -11.136  -5.543 -10.787  1.00  0.00     0.167 HD
ATOM     48  C   UNL     1     -13.443  -5.890  -7.107  1.00  0.00     0.031 A 
ATOM     49  C   UNL     1     -10.766  -4.855 -13.468  1.00  0.00     0.031 A 
ATOM     50  C   UNL     1     -14.332  -5.250  -8.040  1.00  0.00     0.049 A 
ATOM     51  C   UNL     1     -12.186  -4.488 -13.140  1.00  0.00     0.074 A 
ATOM     52  C   UNL     1     -15.623  -4.797  -7.830  1.00  0.00     0.029 A 
ATOM     53  N   UNL     1     -14.025  -4.982  -9.365  1.00  0.00    -0.354 N 
ATOM     54  N   UNL     1     -12.823  -4.591 -12.000  1.00  0.00    -0.248 NA
ATOM     55  C   UNL     1     -12.992  -3.926 -14.234  1.00  0.00     0.031 C 
ATOM     56  C   UNL     1     -16.115  -4.298  -9.042  1.00  0.00     0.029 A 
ATOM     57  C   UNL     1     -15.111  -4.395  -9.992  1.00  0.00     0.049 A 
ATOM     58  H   UNL     1     -13.162  -5.179  -9.796  1.00  0.00     0.167 HD
ATOM     59  C   UNL     1     -14.098  -4.091 -12.232  1.00  0.00     0.074 A 
ATOM     60  C   UNL     1     -14.139  -3.671 -13.618  1.00  0.00     0.031 C 
ATOM     61  C   UNL     1     -15.142  -3.990 -11.373  1.00  0.00     0.031 A 
BRANCH  48  62
ATOM     62  C   UNL     1     -13.951  -6.171  -5.721  1.00  0.00    -0.014 A 
ATOM     63  C   UNL     1     -13.504  -5.431  -4.617  1.00  0.00     0.009 A 
ATOM     64  C   UNL     1     -14.917  -7.171  -5.524  1.00  0.00     0.009 A 
ATOM     65  C   UNL     1     -13.989  -5.708  -3.337  1.00  0.00     0.001 A 
ATOM     66  C   UNL     1     -15.418  -7.430  -4.248  1.00  0.00     0.001 A 
ATOM     67  C   UNL     1     -14.948  -6.705  -3.154  1.00  0.00     0.000 A 
ENDBRANCH  48  62
BRANCH  49  68
ATOM     68  C   UNL     1     -10.223  -4.636 -14.833  1.00  0.00    -0.014 A 
ATOM     69  C   UNL     1      -9.956  -3.340 -15.297  1.00  0.00     0.009 A 
ATOM     70  C   UNL     1      -9.973  -5.728 -15.680  1.00  0.00     0.009 A 
ATOM     71  C   UNL     1      -9.465  -3.140 -16.589  1.00  0.00     0.001 A 
ATOM     72  C   UNL     1      -9.459  -5.527 -16.961  1.00  0.00     0.001 A 
ATOM     73  C   UNL     1      -9.212  -4.233 -17.418  1.00  0.00     0.000 A 
ENDBRANCH  49  68
BRANCH  61  74
ATOM     74  C   UNL     1     -16.409  -3.381 -11.903  1.00  0.00    -0.014 A 
ATOM     75  C   UNL     1     -17.249  -4.095 -12.771  1.00  0.00     0.009 A 
ATOM     76  C   UNL     1     -16.782  -2.089 -11.501  1.00  0.00     0.009 A 
ATOM     77  C   UNL     1     -18.426  -3.514 -13.249  1.00  0.00     0.001 A 
ATOM     78  C   UNL     1     -17.971  -1.521 -11.961  1.00  0.00     0.001 A 
ATOM     79  C   UNL     1     -18.788  -2.230 -12.840  1.00  0.00     0.000 A 
ENDBRANCH  61  74
ENDBRANCH  35  36
ENDBRANCH  28  30
ENDBRANCH  27  28
ENDBRANCH  26  27
ENDBRANCH   1  26
TORSDOF 15
