REMARK SMILES C[C@H](C(=O)Nc1ccc(C(F)(F)F)cc1)n1nc(C(=O)OCCOC(=O)c2ccc(-c3c4nc(c(-c5ccccc5)c5ccc([nH]5)c(-c5ccccc5)c5nc(c(-c6ccccc6)c6ccc3[nH]6)C=C5)C=C4)cc2)c2ccccc2c1=O
REMARK SMILES IDX 22 1 21 2 19 3 20 4 18 5 16 6 17 7 81 8 80 9 82 10 75 11
REMARK SMILES IDX 79 12 76 13 78 14 77 15 2 16 1 17 3 18 4 19 5 20 6 22 7 23
REMARK SMILES IDX 15 24 8 25 14 26 9 27 10 28 11 29 12 30 13 31 23 32 24 33
REMARK SMILES IDX 25 34 26 35 27 36 28 37 74 38 29 39 73 40 30 41 31 42 32 43
REMARK SMILES IDX 67 44 33 45 72 46 66 47 68 48 34 49 71 50 65 51 64 52 35 54
REMARK SMILES IDX 57 55 42 56 56 57 43 58 46 59 55 60 69 61 44 62 45 63 54 65
REMARK SMILES IDX 70 66 47 67 36 68 37 69 41 70 38 71 40 72 39 73 58 74 59 75
REMARK SMILES IDX 63 76 60 77 62 78 61 79 48 80 49 81 53 82 50 83 52 84 51 85
REMARK H PARENT 5 21 68 53 46 64
REMARK Flexibility Score: inf
ROOT
ATOM      1  C   UNL     1      -4.017  -1.387   3.528  1.00  0.00     0.275 C 
ENDROOT
BRANCH   1   2
ATOM      2  O   UNL     1      -3.257  -0.221   3.174  1.00  0.00    -0.457 OA
BRANCH   2   3
ATOM      3  C   UNL     1      -3.494   0.230   1.933  1.00  0.00     0.359 C 
ATOM      4  O   UNL     1      -4.160  -0.317   1.069  1.00  0.00    -0.244 OA
BRANCH   3   5
ATOM      5  C   UNL     1      -2.626   1.420   1.574  1.00  0.00     0.176 A 
ATOM      6  N   UNL     1      -0.651   1.083   0.567  1.00  0.00    -0.216 N 
ATOM      7  N   UNL     1      -1.367   1.184   1.748  1.00  0.00    -0.161 NA
ATOM      8  C   UNL     1      -1.265   1.220  -0.695  1.00  0.00     0.275 A 
ATOM      9  C   UNL     1      -2.483   2.065  -0.706  1.00  0.00     0.051 A 
ATOM     10  O   UNL     1      -0.879   0.732  -1.748  1.00  0.00    -0.267 OA
ATOM     11  C   UNL     1      -3.085   2.316   0.515  1.00  0.00     0.022 A 
ATOM     12  C   UNL     1      -2.967   2.684  -1.859  1.00  0.00     0.014 A 
ATOM     13  C   UNL     1      -4.027   3.330   0.662  1.00  0.00     0.011 A 
ATOM     14  C   UNL     1      -3.965   3.655  -1.744  1.00  0.00     0.001 A 
ATOM     15  C   UNL     1      -4.453   4.016  -0.481  1.00  0.00     0.001 A 
BRANCH   6  16
ATOM     16  C   UNL     1       0.706   0.573   0.791  1.00  0.00     0.197 C 
ATOM     17  C   UNL     1       1.583   1.683   1.373  1.00  0.00     0.044 C 
BRANCH  16  18
ATOM     18  C   UNL     1       1.384  -0.077  -0.412  1.00  0.00     0.249 C 
ATOM     19  O   UNL     1       1.962   0.604  -1.267  1.00  0.00    -0.272 OA
ATOM     20  N   UNL     1       1.443  -1.440  -0.536  1.00  0.00    -0.324 N 
ATOM     21  H   UNL     1       1.963  -1.744  -1.316  1.00  0.00     0.170 HD
BRANCH  20  22
ATOM     22  C   UNL     1       0.909  -2.491   0.228  1.00  0.00     0.041 A 
ATOM     23  C   UNL     1       1.644  -3.680   0.243  1.00  0.00     0.027 A 
ATOM     24  C   UNL     1      -0.286  -2.435   0.945  1.00  0.00     0.027 A 
ATOM     25  C   UNL     1       1.247  -4.759   1.037  1.00  0.00     0.015 A 
ATOM     26  C   UNL     1      -0.697  -3.520   1.733  1.00  0.00     0.015 A 
ATOM     27  C   UNL     1       0.080  -4.685   1.808  1.00  0.00     0.056 A 
BRANCH  27  28
ATOM     28  C   UNL     1      -0.316  -5.844   2.689  1.00  0.00     0.416 C 
ATOM     29  F   UNL     1      -0.561  -6.981   1.981  1.00  0.00    -0.166 F 
ATOM     30  F   UNL     1       0.657  -6.168   3.588  1.00  0.00    -0.166 F 
ATOM     31  F   UNL     1      -1.438  -5.612   3.426  1.00  0.00    -0.166 F 
ENDBRANCH  27  28
ENDBRANCH  20  22
ENDBRANCH  16  18
ENDBRANCH   6  16
ENDBRANCH   3   5
ENDBRANCH   2   3
ENDBRANCH   1   2
BRANCH   1  32
ATOM     32  C   UNL     1      -5.267  -0.955   4.289  1.00  0.00     0.275 C 
BRANCH  32  33
ATOM     33  O   UNL     1      -6.192  -0.263   3.422  1.00  0.00    -0.458 OA
BRANCH  33  34
ATOM     34  C   UNL     1      -6.056   1.080   3.382  1.00  0.00     0.338 C 
ATOM     35  O   UNL     1      -5.247   1.768   3.991  1.00  0.00    -0.246 OA
BRANCH  34  36
ATOM     36  C   UNL     1      -6.967   1.673   2.398  1.00  0.00     0.060 A 
ATOM     37  C   UNL     1      -6.674   1.571   1.042  1.00  0.00     0.016 A 
ATOM     38  C   UNL     1      -7.984   2.519   2.831  1.00  0.00     0.016 A 
ATOM     39  C   UNL     1      -7.321   2.393   0.129  1.00  0.00     0.010 A 
ATOM     40  C   UNL     1      -8.724   3.242   1.889  1.00  0.00     0.010 A 
ATOM     41  C   UNL     1      -8.382   3.211   0.526  1.00  0.00    -0.014 A 
BRANCH  41  42
ATOM     42  C   UNL     1      -9.134   4.008  -0.482  1.00  0.00     0.031 A 
ATOM     43  C   UNL     1      -9.351   5.486  -0.293  1.00  0.00     0.074 A 
ATOM     44  C   UNL     1      -9.646   3.399  -1.572  1.00  0.00     0.049 A 
ATOM     45  N   UNL     1     -10.180   6.285  -0.917  1.00  0.00    -0.248 NA
ATOM     46  C   UNL     1      -8.544   6.149   0.743  1.00  0.00     0.031 C 
ATOM     47  C   UNL     1      -9.471   1.987  -1.923  1.00  0.00     0.029 A 
ATOM     48  N   UNL     1     -10.429   3.892  -2.587  1.00  0.00    -0.354 N 
ATOM     49  C   UNL     1     -10.043   7.527  -0.308  1.00  0.00     0.074 A 
ATOM     50  C   UNL     1      -9.052   7.375   0.736  1.00  0.00     0.031 C 
ATOM     51  C   UNL     1     -10.088   1.738  -3.083  1.00  0.00     0.029 A 
ATOM     52  C   UNL     1     -10.817   2.930  -3.488  1.00  0.00     0.049 A 
ATOM     53  H   UNL     1     -10.686   4.840  -2.662  1.00  0.00     0.167 HD
ATOM     54  C   UNL     1     -10.697   8.681  -0.588  1.00  0.00     0.031 A 
ATOM     55  C   UNL     1     -11.723   2.960  -4.481  1.00  0.00     0.031 A 
ATOM     56  C   UNL     1     -11.667   8.824  -1.645  1.00  0.00     0.049 A 
ATOM     57  C   UNL     1     -12.492   4.220  -4.724  1.00  0.00     0.074 A 
ATOM     58  C   UNL     1     -12.376   9.953  -2.020  1.00  0.00     0.029 A 
ATOM     59  N   UNL     1     -12.062   7.805  -2.499  1.00  0.00    -0.354 N 
ATOM     60  N   UNL     1     -12.402   5.371  -4.103  1.00  0.00    -0.248 NA
ATOM     61  C   UNL     1     -13.501   4.180  -5.789  1.00  0.00     0.031 C 
ATOM     62  C   UNL     1     -13.243   9.601  -3.060  1.00  0.00     0.029 A 
ATOM     63  C   UNL     1     -13.026   8.270  -3.380  1.00  0.00     0.049 A 
ATOM     64  H   UNL     1     -11.709   6.886  -2.483  1.00  0.00     0.167 HD
ATOM     65  C   UNL     1     -13.340   6.197  -4.704  1.00  0.00     0.074 A 
ATOM     66  C   UNL     1     -13.967   5.421  -5.757  1.00  0.00     0.031 C 
ATOM     67  C   UNL     1     -13.657   7.481  -4.407  1.00  0.00     0.031 A 
BRANCH  54  68
ATOM     68  C   UNL     1     -10.430   9.867   0.302  1.00  0.00    -0.014 A 
ATOM     69  C   UNL     1      -9.198  10.541   0.296  1.00  0.00     0.009 A 
ATOM     70  C   UNL     1     -11.450  10.336   1.149  1.00  0.00     0.009 A 
ATOM     71  C   UNL     1      -8.980  11.627   1.149  1.00  0.00     0.001 A 
ATOM     72  C   UNL     1     -11.241  11.442   1.975  1.00  0.00     0.001 A 
ATOM     73  C   UNL     1     -10.002  12.079   1.984  1.00  0.00     0.000 A 
ENDBRANCH  54  68
BRANCH  55  74
ATOM     74  C   UNL     1     -12.004   1.715  -5.245  1.00  0.00    -0.014 A 
ATOM     75  C   UNL     1     -11.616   1.591  -6.585  1.00  0.00     0.009 A 
ATOM     76  C   UNL     1     -12.607   0.616  -4.607  1.00  0.00     0.009 A 
ATOM     77  C   UNL     1     -11.827   0.393  -7.271  1.00  0.00     0.001 A 
ATOM     78  C   UNL     1     -12.782  -0.591  -5.284  1.00  0.00     0.001 A 
ATOM     79  C   UNL     1     -12.396  -0.700  -6.618  1.00  0.00     0.000 A 
ENDBRANCH  55  74
BRANCH  67  80
ATOM     80  C   UNL     1     -14.719   8.128  -5.249  1.00  0.00    -0.014 A 
ATOM     81  C   UNL     1     -16.069   7.767  -5.122  1.00  0.00     0.009 A 
ATOM     82  C   UNL     1     -14.364   9.127  -6.169  1.00  0.00     0.009 A 
ATOM     83  C   UNL     1     -17.039   8.370  -5.926  1.00  0.00     0.001 A 
ATOM     84  C   UNL     1     -15.340   9.749  -6.949  1.00  0.00     0.001 A 
ATOM     85  C   UNL     1     -16.674   9.363  -6.834  1.00  0.00     0.000 A 
ENDBRANCH  67  80
ENDBRANCH  41  42
ENDBRANCH  34  36
ENDBRANCH  33  34
ENDBRANCH  32  33
ENDBRANCH   1  32
TORSDOF 15
