REMARK SMILES CS(=O)(=O)Nc1ccc(-c2cc(Cl)cc3c2O[C@H](C(F)(F)F)C(C(=O)OCCOC(=O)c2ccc(-c4c5nc(c(-c6ccccc6)c6ccc([nH]6)c(-c6ccccc6)c6nc(c(-c7ccccc7)c7ccc4[nH]7)C=C6)C=C5)cc2)=C3)cc1
REMARK SMILES IDX 27 1 26 2 24 3 25 4 23 5 10 6 11 7 16 8 12 9 15 10 17 11
REMARK SMILES IDX 13 12 14 13 80 14 18 15 9 16 6 17 7 18 82 19 8 20 81 21 5 22
REMARK SMILES IDX 2 24 1 25 3 26 4 27 19 28 20 29 21 30 22 31 28 32 29 33
REMARK SMILES IDX 30 34 31 35 32 36 33 37 79 38 34 39 78 40 35 41 36 42 37 43
REMARK SMILES IDX 72 44 38 45 77 46 71 47 73 48 39 49 76 50 70 51 69 52 40 54
REMARK SMILES IDX 62 55 47 56 61 57 48 58 51 59 60 60 74 61 49 62 50 63 59 65
REMARK SMILES IDX 75 66 52 67 41 68 42 69 46 70 43 71 45 72 44 73 63 74 64 75
REMARK SMILES IDX 68 76 65 77 67 78 66 79 53 80 54 81 58 82 55 83 57 84 56 85
REMARK H PARENT 5 23 73 53 51 64
REMARK Flexibility Score: inf
ROOT
ATOM      1  C   UNL     1       8.087  -7.258   7.776  1.00  0.00     0.275 C 
ENDROOT
BRANCH   1   2
ATOM      2  O   UNL     1       8.397  -6.063   7.010  1.00  0.00    -0.459 OA
BRANCH   2   3
ATOM      3  C   UNL     1       8.724  -6.331   5.717  1.00  0.00     0.338 C 
ATOM      4  O   UNL     1       8.740  -7.458   5.233  1.00  0.00    -0.246 OA
BRANCH   3   5
ATOM      5  C   UNL     1       9.029  -5.132   4.889  1.00  0.00     0.087 C 
ATOM      6  C   UNL     1       5.930  -2.797   3.775  1.00  0.00     0.026 A 
ATOM      7  C   UNL     1       4.908  -3.763   3.946  1.00  0.00     0.033 A 
ATOM      8  C   UNL     1       7.218  -3.347   3.817  1.00  0.00     0.135 A 
ATOM      9  C   UNL     1       5.136  -5.145   3.935  1.00  0.00     0.042 A 
ATOM     10  C   UNL     1       7.400  -4.721   3.509  1.00  0.00     0.019 A 
ATOM     11  O   UNL     1       8.298  -2.738   4.464  1.00  0.00    -0.475 OA
ATOM     12  Cl  UNL     1       4.027  -6.331   4.487  1.00  0.00    -0.084 Cl
ATOM     13  C   UNL     1       6.355  -5.621   3.542  1.00  0.00     0.032 A 
ATOM     14  C   UNL     1       8.757  -5.293   3.582  1.00  0.00     0.027 C 
ATOM     15  C   UNL     1       9.035  -3.698   5.388  1.00  0.00     0.316 C 
BRANCH   6  16
ATOM     16  C   UNL     1       5.444  -1.442   3.316  1.00  0.00    -0.014 A 
ATOM     17  C   UNL     1       3.441   0.422   2.362  1.00  0.00     0.048 A 
ATOM     18  C   UNL     1       3.814   0.375   3.706  1.00  0.00     0.027 A 
ATOM     19  C   UNL     1       4.168  -0.362   1.474  1.00  0.00     0.027 A 
ATOM     20  C   UNL     1       4.840  -0.498   4.162  1.00  0.00     0.011 A 
ATOM     21  C   UNL     1       5.141  -1.280   1.946  1.00  0.00     0.011 A 
BRANCH  17  22
ATOM     22  N   UNL     1       2.243   1.120   2.008  1.00  0.00    -0.284 N 
ATOM     23  H   UNL     1       1.523   1.143   2.680  1.00  0.00     0.180 HD
BRANCH  22  24
ATOM     24  S   UNL     1       1.953   1.901   0.561  1.00  0.00     0.229 S 
ATOM     25  C   UNL     1       1.498   0.579  -0.539  1.00  0.00     0.183 C 
ATOM     26  O   UNL     1       3.169   2.503   0.075  1.00  0.00    -0.207 OA
ATOM     27  O   UNL     1       0.755   2.698   0.764  1.00  0.00    -0.207 OA
ENDBRANCH  22  24
ENDBRANCH  17  22
ENDBRANCH   6  16
BRANCH  15  28
ATOM     28  C   UNL     1      10.521  -3.332   5.501  1.00  0.00     0.430 C 
ATOM     29  F   UNL     1      11.119  -3.290   4.284  1.00  0.00    -0.167 F 
ATOM     30  F   UNL     1      10.716  -2.138   6.097  1.00  0.00    -0.167 F 
ATOM     31  F   UNL     1      11.195  -4.257   6.235  1.00  0.00    -0.167 F 
ENDBRANCH  15  28
ENDBRANCH   3   5
ENDBRANCH   2   3
ENDBRANCH   1   2
BRANCH   1  32
ATOM     32  C   UNL     1       7.113  -7.014   8.935  1.00  0.00     0.275 C 
BRANCH  32  33
ATOM     33  O   UNL     1       5.898  -6.380   8.492  1.00  0.00    -0.458 OA
BRANCH  33  34
ATOM     34  C   UNL     1       5.901  -5.030   8.620  1.00  0.00     0.338 C 
ATOM     35  O   UNL     1       6.809  -4.356   9.083  1.00  0.00    -0.246 OA
BRANCH  34  36
ATOM     36  C   UNL     1       4.702  -4.423   7.986  1.00  0.00     0.060 A 
ATOM     37  C   UNL     1       4.867  -3.149   7.457  1.00  0.00     0.016 A 
ATOM     38  C   UNL     1       3.446  -5.037   7.881  1.00  0.00     0.016 A 
ATOM     39  C   UNL     1       3.813  -2.543   6.770  1.00  0.00     0.010 A 
ATOM     40  C   UNL     1       2.390  -4.414   7.164  1.00  0.00     0.010 A 
ATOM     41  C   UNL     1       2.574  -3.171   6.546  1.00  0.00    -0.014 A 
BRANCH  41  42
ATOM     42  C   UNL     1       1.559  -2.452   5.679  1.00  0.00     0.031 A 
ATOM     43  C   UNL     1       1.111  -1.074   6.080  1.00  0.00     0.074 A 
ATOM     44  C   UNL     1       1.192  -2.870   4.441  1.00  0.00     0.049 A 
ATOM     45  N   UNL     1       0.431  -0.196   5.386  1.00  0.00    -0.248 NA
ATOM     46  C   UNL     1       1.496  -0.621   7.425  1.00  0.00     0.031 C 
ATOM     47  C   UNL     1       1.601  -4.122   3.839  1.00  0.00     0.029 A 
ATOM     48  N   UNL     1       0.492  -2.263   3.414  1.00  0.00    -0.354 N 
ATOM     49  C   UNL     1       0.295   0.906   6.215  1.00  0.00     0.074 A 
ATOM     50  C   UNL     1       1.005   0.608   7.441  1.00  0.00     0.031 C 
ATOM     51  C   UNL     1       1.368  -4.109   2.518  1.00  0.00     0.029 A 
ATOM     52  C   UNL     1       0.564  -2.938   2.205  1.00  0.00     0.049 A 
ATOM     53  H   UNL     1      -0.013  -1.426   3.531  1.00  0.00     0.167 HD
ATOM     54  C   UNL     1      -0.399   2.046   6.001  1.00  0.00     0.031 A 
ATOM     55  C   UNL     1       0.012  -2.693   0.995  1.00  0.00     0.031 A 
ATOM     56  C   UNL     1      -1.203   2.318   4.842  1.00  0.00     0.049 A 
ATOM     57  C   UNL     1      -0.950  -1.542   0.885  1.00  0.00     0.074 A 
ATOM     58  C   UNL     1      -1.962   3.445   4.577  1.00  0.00     0.029 A 
ATOM     59  N   UNL     1      -1.396   1.450   3.781  1.00  0.00    -0.354 N 
ATOM     60  N   UNL     1      -1.139  -0.551   1.720  1.00  0.00    -0.248 NA
ATOM     61  C   UNL     1      -1.787  -1.482  -0.323  1.00  0.00     0.031 C 
ATOM     62  C   UNL     1      -2.663   3.231   3.386  1.00  0.00     0.029 A 
ATOM     63  C   UNL     1      -2.266   2.013   2.861  1.00  0.00     0.049 A 
ATOM     64  H   UNL     1      -0.978   0.563   3.694  1.00  0.00     0.167 HD
ATOM     65  C   UNL     1      -2.106   0.256   1.134  1.00  0.00     0.074 A 
ATOM     66  C   UNL     1      -2.442  -0.344  -0.140  1.00  0.00     0.031 C 
ATOM     67  C   UNL     1      -2.647   1.403   1.612  1.00  0.00     0.031 A 
BRANCH  54  68
ATOM     68  C   UNL     1      -0.404   3.035   7.126  1.00  0.00    -0.014 A 
ATOM     69  C   UNL     1       0.723   3.816   7.422  1.00  0.00     0.009 A 
ATOM     70  C   UNL     1      -1.554   3.158   7.922  1.00  0.00     0.009 A 
ATOM     71  C   UNL     1       0.711   4.674   8.523  1.00  0.00     0.001 A 
ATOM     72  C   UNL     1      -1.571   4.034   9.005  1.00  0.00     0.001 A 
ATOM     73  C   UNL     1      -0.435   4.782   9.312  1.00  0.00     0.000 A 
ENDBRANCH  54  68
BRANCH  55  74
ATOM     74  C   UNL     1       0.264  -3.562  -0.204  1.00  0.00    -0.014 A 
ATOM     75  C   UNL     1       0.781  -3.021  -1.397  1.00  0.00     0.009 A 
ATOM     76  C   UNL     1      -0.068  -4.925  -0.201  1.00  0.00     0.009 A 
ATOM     77  C   UNL     1       0.952  -3.809  -2.541  1.00  0.00     0.001 A 
ATOM     78  C   UNL     1       0.139  -5.723  -1.332  1.00  0.00     0.001 A 
ATOM     79  C   UNL     1       0.641  -5.163  -2.504  1.00  0.00     0.000 A 
ENDBRANCH  55  74
BRANCH  67  80
ATOM     80  C   UNL     1      -3.631   2.123   0.731  1.00  0.00    -0.014 A 
ATOM     81  C   UNL     1      -4.914   1.614   0.478  1.00  0.00     0.009 A 
ATOM     82  C   UNL     1      -3.267   3.355   0.164  1.00  0.00     0.009 A 
ATOM     83  C   UNL     1      -5.801   2.312  -0.348  1.00  0.00     0.001 A 
ATOM     84  C   UNL     1      -4.167   4.068  -0.628  1.00  0.00     0.001 A 
ATOM     85  C   UNL     1      -5.430   3.541  -0.892  1.00  0.00     0.000 A 
ENDBRANCH  67  80
ENDBRANCH  41  42
ENDBRANCH  34  36
ENDBRANCH  33  34
ENDBRANCH  32  33
ENDBRANCH   1  32
TORSDOF 15
