REMARK SMILES CC1(C)C[C@@]([NH2+]CCN=[N+]=[N-])(C(=O)OCCOC(=O)c2ccc(-c3c4nc(c(-c5ccccc5)c5ccc([nH]5)c(-c5ccccc5)c5nc(c(-c6ccccc6)c6ccc3[nH]6)C=C5)C=C4)cc2)C(C)(C)O1
REMARK SMILES IDX 15 1 14 2 12 3 13 4 5 5 1 6 2 7 3 8 4 9 71 10 68 11 69 12
REMARK SMILES IDX 70 13 6 14 7 17 8 18 9 19 10 20 11 21 16 22 17 23 18 24
REMARK SMILES IDX 19 25 20 26 21 27 67 28 22 29 66 30 23 31 24 32 25 33 60 34
REMARK SMILES IDX 26 35 65 36 59 37 61 38 27 39 64 40 58 41 57 42 28 44 50 45
REMARK SMILES IDX 35 46 49 47 36 48 39 49 48 50 62 51 37 52 38 53 47 55 63 56
REMARK SMILES IDX 40 57 29 58 30 59 34 60 31 61 33 62 32 63 51 64 52 65 56 66
REMARK SMILES IDX 53 67 55 68 54 69 41 70 42 71 46 72 43 73 45 74 44 75
REMARK H PARENT 6 15 6 16 61 43 39 54
REMARK Flexibility Score: inf
ROOT
ATOM      1  C   UNL     1       4.599   3.592   3.313  1.00  0.00     0.274 C 
ENDROOT
BRANCH   1   2
ATOM      2  O   UNL     1       3.512   3.088   2.497  1.00  0.00    -0.457 OA
BRANCH   2   3
ATOM      3  C   UNL     1       2.287   3.391   3.006  1.00  0.00     0.371 C 
ATOM      4  O   UNL     1       2.184   4.138   3.978  1.00  0.00    -0.245 OA
BRANCH   3   5
ATOM      5  C   UNL     1       1.056   2.655   2.354  1.00  0.00     0.225 C 
ATOM      6  C   UNL     1       1.134  -0.304   0.032  1.00  0.00     0.042 C 
ATOM      7  C   UNL     1       0.479   0.765   0.906  1.00  0.00     0.070 C 
ATOM      8  C   UNL     1      -0.928   0.297   1.293  1.00  0.00     0.042 C 
ATOM      9  C   UNL     1       1.369   1.173   2.079  1.00  0.00     0.119 C 
ATOM     10  O   UNL     1       0.341   1.934   0.106  1.00  0.00    -0.362 OA
ATOM     11  C   UNL     1       0.640   3.127   0.885  1.00  0.00     0.129 C 
ATOM     12  C   UNL     1       1.725   3.826   0.061  1.00  0.00     0.050 C 
ATOM     13  C   UNL     1      -0.646   3.965   0.763  1.00  0.00     0.050 C 
BRANCH   5  14
ATOM     14  N   UNL     1      -0.113   2.780   3.309  1.00  0.00    -0.329 N 
ATOM     15  H   UNL     1      -0.865   2.192   2.950  1.00  0.00     0.347 HD
ATOM     16  H   UNL     1      -0.319   3.778   3.341  1.00  0.00     0.347 HD
BRANCH  14  17
ATOM     17  C   UNL     1       0.117   2.396   4.714  1.00  0.00     0.267 C 
BRANCH  17  18
ATOM     18  C   UNL     1      -1.150   2.583   5.562  1.00  0.00     0.152 C 
BRANCH  18  19
ATOM     19  N   UNL     1      -2.096   1.489   5.313  1.00  0.00    -0.088 NA
ATOM     20  N   UNL     1      -2.959   1.706   4.444  1.00  0.00     0.001 N 
ATOM     21  N   UNL     1      -3.729   1.895   3.631  1.00  0.00    -0.003 NA
ENDBRANCH  18  19
ENDBRANCH  17  18
ENDBRANCH  14  17
ENDBRANCH   5  14
ENDBRANCH   3   5
ENDBRANCH   2   3
ENDBRANCH   1   2
BRANCH   1  22
ATOM     22  C   UNL     1       4.996   5.043   2.999  1.00  0.00     0.275 C 
BRANCH  22  23
ATOM     23  O   UNL     1       3.882   5.954   3.108  1.00  0.00    -0.458 OA
BRANCH  23  24
ATOM     24  C   UNL     1       3.403   6.423   1.933  1.00  0.00     0.338 C 
ATOM     25  O   UNL     1       3.895   6.244   0.830  1.00  0.00    -0.246 OA
BRANCH  24  26
ATOM     26  C   UNL     1       2.147   7.190   2.094  1.00  0.00     0.060 A 
ATOM     27  C   UNL     1       0.988   6.596   2.588  1.00  0.00     0.016 A 
ATOM     28  C   UNL     1       2.062   8.458   1.524  1.00  0.00     0.016 A 
ATOM     29  C   UNL     1      -0.251   7.217   2.445  1.00  0.00     0.010 A 
ATOM     30  C   UNL     1       0.830   9.127   1.476  1.00  0.00     0.010 A 
ATOM     31  C   UNL     1      -0.349   8.505   1.918  1.00  0.00    -0.014 A 
BRANCH  31  32
ATOM     32  C   UNL     1      -1.670   9.187   1.851  1.00  0.00     0.031 A 
ATOM     33  C   UNL     1      -2.191   9.735   0.549  1.00  0.00     0.074 A 
ATOM     34  C   UNL     1      -2.409   9.328   2.971  1.00  0.00     0.049 A 
ATOM     35  N   UNL     1      -3.197  10.548   0.340  1.00  0.00    -0.248 NA
ATOM     36  C   UNL     1      -1.486   9.327  -0.676  1.00  0.00     0.031 C 
ATOM     37  C   UNL     1      -2.072   8.783   4.291  1.00  0.00     0.029 A 
ATOM     38  N   UNL     1      -3.598   9.981   3.183  1.00  0.00    -0.354 N 
ATOM     39  C   UNL     1      -3.210  10.794  -1.028  1.00  0.00     0.074 A 
ATOM     40  C   UNL     1      -2.111  10.046  -1.600  1.00  0.00     0.031 C 
ATOM     41  C   UNL     1      -3.040   9.100   5.161  1.00  0.00     0.029 A 
ATOM     42  C   UNL     1      -4.000   9.968   4.497  1.00  0.00     0.049 A 
ATOM     43  H   UNL     1      -4.112  10.417   2.464  1.00  0.00     0.167 HD
ATOM     44  C   UNL     1      -4.056  11.582  -1.736  1.00  0.00     0.031 A 
ATOM     45  C   UNL     1      -4.986  10.632   5.126  1.00  0.00     0.031 A 
ATOM     46  C   UNL     1      -5.160  12.309  -1.160  1.00  0.00     0.049 A 
ATOM     47  C   UNL     1      -5.847  11.573   4.339  1.00  0.00     0.074 A 
ATOM     48  C   UNL     1      -6.082  13.125  -1.796  1.00  0.00     0.029 A 
ATOM     49  N   UNL     1      -5.495  12.306   0.186  1.00  0.00    -0.354 N 
ATOM     50  N   UNL     1      -5.821  11.838   3.056  1.00  0.00    -0.248 NA
ATOM     51  C   UNL     1      -6.865  12.317   5.090  1.00  0.00     0.031 C 
ATOM     52  C   UNL     1      -6.929  13.669  -0.826  1.00  0.00     0.029 A 
ATOM     53  C   UNL     1      -6.587  13.132   0.404  1.00  0.00     0.049 A 
ATOM     54  H   UNL     1      -5.027  11.793   0.884  1.00  0.00     0.167 HD
ATOM     55  C   UNL     1      -6.836  12.760   2.841  1.00  0.00     0.074 A 
ATOM     56  C   UNL     1      -7.470  12.991   4.123  1.00  0.00     0.031 C 
ATOM     57  C   UNL     1      -7.207  13.361   1.685  1.00  0.00     0.031 A 
BRANCH  44  58
ATOM     58  C   UNL     1      -3.791  11.754  -3.209  1.00  0.00    -0.014 A 
ATOM     59  C   UNL     1      -3.993  10.713  -4.128  1.00  0.00     0.009 A 
ATOM     60  C   UNL     1      -3.382  13.009  -3.692  1.00  0.00     0.009 A 
ATOM     61  C   UNL     1      -3.757  10.915  -5.491  1.00  0.00     0.001 A 
ATOM     62  C   UNL     1      -3.181  13.219  -5.058  1.00  0.00     0.001 A 
ATOM     63  C   UNL     1      -3.359  12.169  -5.955  1.00  0.00     0.000 A 
ENDBRANCH  44  58
BRANCH  45  64
ATOM     64  C   UNL     1      -5.159  10.482   6.596  1.00  0.00    -0.014 A 
ATOM     65  C   UNL     1      -6.306   9.871   7.122  1.00  0.00     0.009 A 
ATOM     66  C   UNL     1      -4.171  10.945   7.482  1.00  0.00     0.009 A 
ATOM     67  C   UNL     1      -6.468   9.744   8.504  1.00  0.00     0.001 A 
ATOM     68  C   UNL     1      -4.316  10.781   8.860  1.00  0.00     0.001 A 
ATOM     69  C   UNL     1      -5.470  10.191   9.370  1.00  0.00     0.000 A 
ENDBRANCH  45  64
BRANCH  57  70
ATOM     70  C   UNL     1      -8.386  14.292   1.748  1.00  0.00    -0.014 A 
ATOM     71  C   UNL     1      -8.307  15.534   2.398  1.00  0.00     0.009 A 
ATOM     72  C   UNL     1      -9.592  13.923   1.133  1.00  0.00     0.009 A 
ATOM     73  C   UNL     1      -9.425  16.367   2.466  1.00  0.00     0.001 A 
ATOM     74  C   UNL     1     -10.697  14.774   1.170  1.00  0.00     0.001 A 
ATOM     75  C   UNL     1     -10.617  15.989   1.847  1.00  0.00     0.000 A 
ENDBRANCH  57  70
ENDBRANCH  31  32
ENDBRANCH  24  26
ENDBRANCH  23  24
ENDBRANCH  22  23
ENDBRANCH   1  22
TORSDOF 15
