REMARK SMILES CC(C)CS(=O)(=O)Cc1c(C(=O)OCCOC(=O)c2ccc(-c3c4nc(c(-c5ccccc5)c5ccc([nH]5)c(-c5ccccc5)c5nc(c(-c6ccccc6)c6ccc3[nH]6)C=C5)C=C4)cc2)oc2ccccc12
REMARK SMILES IDX 14 1 13 2 11 3 12 4 10 5 9 6 73 7 67 8 68 9 72 10 69 11
REMARK SMILES IDX 71 12 70 13 8 14 5 15 6 16 7 17 4 18 2 19 1 20 3 21 15 22
REMARK SMILES IDX 16 23 17 24 18 25 19 26 20 27 66 28 21 29 65 30 22 31 23 32
REMARK SMILES IDX 24 33 59 34 25 35 64 36 58 37 60 38 26 39 63 40 57 41 56 42
REMARK SMILES IDX 27 44 49 45 34 46 48 47 35 48 38 49 47 50 61 51 36 52 37 53
REMARK SMILES IDX 46 55 62 56 39 57 28 58 29 59 33 60 30 61 32 62 31 63 50 64
REMARK SMILES IDX 51 65 55 66 52 67 54 68 53 69 40 70 41 71 45 72 42 73 44 74
REMARK SMILES IDX 43 75
REMARK H PARENT 60 43 38 54
REMARK Flexibility Score: inf
ROOT
ATOM      1  C   UNL     1      -3.905  -2.697  -5.100  1.00  0.00     0.275 C 
ENDROOT
BRANCH   1   2
ATOM      2  O   UNL     1      -3.470  -1.452  -4.514  1.00  0.00    -0.456 OA
BRANCH   2   3
ATOM      3  C   UNL     1      -3.443  -1.396  -3.148  1.00  0.00     0.374 C 
ATOM      4  O   UNL     1      -3.734  -2.327  -2.413  1.00  0.00    -0.242 OA
BRANCH   3   5
ATOM      5  C   UNL     1      -2.918  -0.113  -2.702  1.00  0.00     0.217 A 
ATOM      6  C   UNL     1      -2.258   0.261  -1.522  1.00  0.00     0.028 A 
ATOM      7  C   UNL     1      -1.832   1.617  -1.736  1.00  0.00     0.025 A 
ATOM      8  O   UNL     1      -2.988   0.951  -3.555  1.00  0.00    -0.449 OA
ATOM      9  C   UNL     1      -2.329   1.985  -2.981  1.00  0.00     0.135 A 
ATOM     10  C   UNL     1      -1.035   2.566  -1.067  1.00  0.00     0.012 A 
ATOM     11  C   UNL     1      -2.131   3.231  -3.577  1.00  0.00     0.048 A 
ATOM     12  C   UNL     1      -0.818   3.829  -1.631  1.00  0.00     0.001 A 
ATOM     13  C   UNL     1      -1.363   4.157  -2.868  1.00  0.00     0.004 A 
BRANCH   6  14
ATOM     14  C   UNL     1      -1.875  -0.686  -0.428  1.00  0.00     0.177 C 
BRANCH  14  15
ATOM     15  S   UNL     1      -2.279  -0.416   1.280  1.00  0.00     0.154 S 
ATOM     16  O   UNL     1      -2.084  -1.689   1.954  1.00  0.00    -0.228 OA
ATOM     17  O   UNL     1      -3.578   0.230   1.336  1.00  0.00    -0.228 OA
BRANCH  15  18
ATOM     18  C   UNL     1      -1.106   0.708   2.005  1.00  0.00     0.140 C 
BRANCH  18  19
ATOM     19  C   UNL     1       0.381   0.319   2.113  1.00  0.00    -0.002 C 
ATOM     20  C   UNL     1       1.124  -0.026   0.825  1.00  0.00     0.008 C 
ATOM     21  C   UNL     1       1.125   1.493   2.768  1.00  0.00     0.008 C 
ENDBRANCH  18  19
ENDBRANCH  15  18
ENDBRANCH  14  15
ENDBRANCH   6  14
ENDBRANCH   3   5
ENDBRANCH   2   3
ENDBRANCH   1   2
BRANCH   1  22
ATOM     22  C   UNL     1      -2.716  -3.572  -5.506  1.00  0.00     0.275 C 
BRANCH  22  23
ATOM     23  O   UNL     1      -2.064  -4.078  -4.327  1.00  0.00    -0.458 OA
BRANCH  23  24
ATOM     24  C   UNL     1      -0.714  -4.000  -4.304  1.00  0.00     0.338 C 
ATOM     25  O   UNL     1       0.032  -3.603  -5.179  1.00  0.00    -0.246 OA
BRANCH  24  26
ATOM     26  C   UNL     1      -0.261  -4.352  -2.950  1.00  0.00     0.060 A 
ATOM     27  C   UNL     1      -0.370  -3.372  -1.971  1.00  0.00     0.016 A 
ATOM     28  C   UNL     1       0.326  -5.582  -2.651  1.00  0.00     0.016 A 
ATOM     29  C   UNL     1       0.094  -3.621  -0.683  1.00  0.00     0.010 A 
ATOM     30  C   UNL     1       0.808  -5.822  -1.352  1.00  0.00     0.010 A 
ATOM     31  C   UNL     1       0.711  -4.832  -0.360  1.00  0.00    -0.014 A 
BRANCH  31  32
ATOM     32  C   UNL     1       1.342  -4.958   0.982  1.00  0.00     0.031 A 
ATOM     33  C   UNL     1       2.835  -4.822   1.116  1.00  0.00     0.074 A 
ATOM     34  C   UNL     1       0.591  -5.022   2.099  1.00  0.00     0.049 A 
ATOM     35  N   UNL     1       3.581  -4.895   2.190  1.00  0.00    -0.248 NA
ATOM     36  C   UNL     1       3.583  -4.539  -0.119  1.00  0.00     0.031 C 
ATOM     37  C   UNL     1      -0.871  -4.994   2.139  1.00  0.00     0.029 A 
ATOM     38  N   UNL     1       0.961  -5.079   3.422  1.00  0.00    -0.354 N 
ATOM     39  C   UNL     1       4.886  -4.698   1.758  1.00  0.00     0.074 A 
ATOM     40  C   UNL     1       4.831  -4.492   0.327  1.00  0.00     0.031 C 
ATOM     41  C   UNL     1      -1.272  -4.999   3.421  1.00  0.00     0.029 A 
ATOM     42  C   UNL     1      -0.104  -5.098   4.291  1.00  0.00     0.049 A 
ATOM     43  H   UNL     1       1.899  -5.103   3.718  1.00  0.00     0.167 HD
ATOM     44  C   UNL     1       6.031  -4.702   2.483  1.00  0.00     0.031 A 
ATOM     45  C   UNL     1      -0.139  -5.209   5.634  1.00  0.00     0.031 A 
ATOM     46  C   UNL     1       6.101  -4.907   3.905  1.00  0.00     0.049 A 
ATOM     47  C   UNL     1       1.149  -5.338   6.401  1.00  0.00     0.074 A 
ATOM     48  C   UNL     1       7.225  -4.990   4.710  1.00  0.00     0.029 A 
ATOM     49  N   UNL     1       5.003  -5.059   4.736  1.00  0.00    -0.354 N 
ATOM     50  N   UNL     1       2.383  -5.240   5.971  1.00  0.00    -0.248 NA
ATOM     51  C   UNL     1       1.036  -5.614   7.842  1.00  0.00     0.031 C 
ATOM     52  C   UNL     1       6.808  -5.240   6.022  1.00  0.00     0.029 A 
ATOM     53  C   UNL     1       5.424  -5.259   6.041  1.00  0.00     0.049 A 
ATOM     54  H   UNL     1       4.064  -5.029   4.443  1.00  0.00     0.167 HD
ATOM     55  C   UNL     1       3.190  -5.431   7.086  1.00  0.00     0.074 A 
ATOM     56  C   UNL     1       2.307  -5.622   8.218  1.00  0.00     0.031 C 
ATOM     57  C   UNL     1       4.543  -5.454   7.162  1.00  0.00     0.031 A 
BRANCH  44  58
ATOM     58  C   UNL     1       7.318  -4.558   1.725  1.00  0.00    -0.014 A 
ATOM     59  C   UNL     1       7.748  -3.317   1.231  1.00  0.00     0.009 A 
ATOM     60  C   UNL     1       8.123  -5.690   1.523  1.00  0.00     0.009 A 
ATOM     61  C   UNL     1       8.948  -3.221   0.523  1.00  0.00     0.001 A 
ATOM     62  C   UNL     1       9.332  -5.586   0.835  1.00  0.00     0.001 A 
ATOM     63  C   UNL     1       9.739  -4.354   0.328  1.00  0.00     0.000 A 
ENDBRANCH  44  58
BRANCH  45  64
ATOM     64  C   UNL     1      -1.441  -5.272   6.351  1.00  0.00    -0.014 A 
ATOM     65  C   UNL     1      -1.823  -4.258   7.242  1.00  0.00     0.009 A 
ATOM     66  C   UNL     1      -2.287  -6.381   6.184  1.00  0.00     0.009 A 
ATOM     67  C   UNL     1      -3.013  -4.364   7.968  1.00  0.00     0.001 A 
ATOM     68  C   UNL     1      -3.490  -6.470   6.888  1.00  0.00     0.001 A 
ATOM     69  C   UNL     1      -3.846  -5.468   7.787  1.00  0.00     0.000 A 
ENDBRANCH  45  64
BRANCH  57  70
ATOM     70  C   UNL     1       5.155  -5.677   8.516  1.00  0.00    -0.014 A 
ATOM     71  C   UNL     1       5.123  -6.940   9.128  1.00  0.00     0.009 A 
ATOM     72  C   UNL     1       5.804  -4.619   9.172  1.00  0.00     0.009 A 
ATOM     73  C   UNL     1       5.703  -7.131  10.385  1.00  0.00     0.001 A 
ATOM     74  C   UNL     1       6.406  -4.820  10.416  1.00  0.00     0.001 A 
ATOM     75  C   UNL     1       6.348  -6.073  11.025  1.00  0.00     0.000 A 
ENDBRANCH  57  70
ENDBRANCH  31  32
ENDBRANCH  24  26
ENDBRANCH  23  24
ENDBRANCH  22  23
ENDBRANCH   1  22
TORSDOF 15
