REMARK SMILES COc1ccc2[nH]c(C(=O)c3cc(C)ccn3)c(CC(=O)OCCOC(=O)c3ccc(-c4c5nc(c(-c6ccccc6)c6ccc([nH]6)c(-c6ccccc6)c6nc(c(-c7ccccc7)c7ccc4[nH]7)C=C6)C=C5)cc3)c2c1
REMARK SMILES IDX 23 1 22 2 20 3 21 4 19 5 18 6 3 7 4 8 77 9 5 10 76 11 6 12
REMARK SMILES IDX 7 13 8 14 2 16 1 17 9 18 10 19 11 20 12 21 17 22 13 23 16 24
REMARK SMILES IDX 14 25 15 26 24 27 25 28 26 29 27 30 28 31 29 32 75 33 30 34
REMARK SMILES IDX 74 35 31 36 32 37 33 38 68 39 34 40 73 41 67 42 69 43 35 44
REMARK SMILES IDX 72 45 66 46 65 47 36 49 58 50 43 51 57 52 44 53 47 54 56 55
REMARK SMILES IDX 70 56 45 57 46 58 55 60 71 61 48 62 37 63 38 64 42 65 39 66
REMARK SMILES IDX 41 67 40 68 59 69 60 70 64 71 61 72 63 73 62 74 49 75 50 76
REMARK SMILES IDX 54 77 51 78 53 79 52 80
REMARK H PARENT 7 15 69 48 47 59
REMARK Flexibility Score: inf
ROOT
ATOM      1  C   UNL     1      -3.126  -6.306   2.198  1.00  0.00     0.274 C 
ENDROOT
BRANCH   1   2
ATOM      2  O   UNL     1      -2.142  -5.453   2.820  1.00  0.00    -0.462 OA
BRANCH   2   3
ATOM      3  C   UNL     1      -2.635  -4.510   3.667  1.00  0.00     0.310 C 
ATOM      4  O   UNL     1      -3.834  -4.333   3.875  1.00  0.00    -0.252 OA
BRANCH   3   5
ATOM      5  C   UNL     1      -1.590  -3.692   4.396  1.00  0.00     0.161 C 
BRANCH   5   6
ATOM      6  C   UNL     1      -0.165  -3.879   3.970  1.00  0.00     0.000 A 
ATOM      7  C   UNL     1       1.093  -1.204   1.556  1.00  0.00     0.119 A 
ATOM      8  C   UNL     1       2.408  -1.661   1.499  1.00  0.00     0.048 A 
ATOM      9  C   UNL     1       0.138  -1.888   2.311  1.00  0.00     0.057 A 
ATOM     10  C   UNL     1       2.794  -2.831   2.167  1.00  0.00     0.030 A 
ATOM     11  C   UNL     1       0.513  -3.040   3.029  1.00  0.00     0.008 A 
ATOM     12  C   UNL     1       1.825  -3.489   2.932  1.00  0.00     0.046 A 
ATOM     13  N   UNL     1       1.921  -4.608   3.726  1.00  0.00    -0.352 N 
ATOM     14  C   UNL     1       0.795  -4.734   4.513  1.00  0.00     0.093 A 
ATOM     15  H   UNL     1       2.685  -5.229   3.732  1.00  0.00     0.167 HD
BRANCH   7  16
ATOM     16  O   UNL     1       0.660  -0.036   0.987  1.00  0.00    -0.497 OA
ATOM     17  C   UNL     1       1.126   0.167  -0.341  1.00  0.00     0.278 C 
ENDBRANCH   7  16
BRANCH  14  18
ATOM     18  C   UNL     1       0.724  -5.542   5.722  1.00  0.00     0.227 C 
ATOM     19  O   UNL     1      -0.068  -5.317   6.634  1.00  0.00    -0.285 OA
BRANCH  18  20
ATOM     20  C   UNL     1       1.738  -6.598   5.950  1.00  0.00     0.113 A 
ATOM     21  C   UNL     1       2.809  -6.344   6.798  1.00  0.00     0.036 A 
ATOM     22  N   UNL     1       1.526  -7.780   5.328  1.00  0.00    -0.253 NA
ATOM     23  C   UNL     1       3.722  -7.375   7.033  1.00  0.00    -0.047 A 
ATOM     24  C   UNL     1       2.380  -8.778   5.625  1.00  0.00     0.112 A 
ATOM     25  C   UNL     1       4.923  -7.169   7.906  1.00  0.00     0.044 C 
ATOM     26  C   UNL     1       3.481  -8.625   6.455  1.00  0.00     0.023 A 
ENDBRANCH  18  20
ENDBRANCH  14  18
ENDBRANCH   5   6
ENDBRANCH   3   5
ENDBRANCH   2   3
ENDBRANCH   1   2
BRANCH   1  27
ATOM     27  C   UNL     1      -3.200  -7.656   2.907  1.00  0.00     0.275 C 
BRANCH  27  28
ATOM     28  O   UNL     1      -3.359  -7.452   4.321  1.00  0.00    -0.458 OA
BRANCH  28  29
ATOM     29  C   UNL     1      -2.379  -7.979   5.090  1.00  0.00     0.338 C 
ATOM     30  O   UNL     1      -1.465  -8.702   4.718  1.00  0.00    -0.246 OA
BRANCH  29  31
ATOM     31  C   UNL     1      -2.587  -7.620   6.505  1.00  0.00     0.060 A 
ATOM     32  C   UNL     1      -2.911  -6.319   6.891  1.00  0.00     0.016 A 
ATOM     33  C   UNL     1      -2.357  -8.598   7.475  1.00  0.00     0.016 A 
ATOM     34  C   UNL     1      -2.918  -5.976   8.243  1.00  0.00     0.010 A 
ATOM     35  C   UNL     1      -2.465  -8.275   8.829  1.00  0.00     0.010 A 
ATOM     36  C   UNL     1      -2.718  -6.953   9.229  1.00  0.00    -0.014 A 
BRANCH  36  37
ATOM     37  C   UNL     1      -2.788  -6.608  10.674  1.00  0.00     0.031 A 
ATOM     38  C   UNL     1      -1.608  -6.836  11.580  1.00  0.00     0.074 A 
ATOM     39  C   UNL     1      -3.932  -6.112  11.187  1.00  0.00     0.049 A 
ATOM     40  N   UNL     1      -1.546  -6.765  12.888  1.00  0.00    -0.248 NA
ATOM     41  C   UNL     1      -0.336  -7.204  10.938  1.00  0.00     0.031 C 
ATOM     42  C   UNL     1      -5.146  -5.812  10.426  1.00  0.00     0.029 A 
ATOM     43  N   UNL     1      -4.257  -5.774  12.477  1.00  0.00    -0.354 N 
ATOM     44  C   UNL     1      -0.248  -7.126  13.227  1.00  0.00     0.074 A 
ATOM     45  C   UNL     1       0.446  -7.417  11.990  1.00  0.00     0.031 C 
ATOM     46  C   UNL     1      -6.069  -5.301  11.253  1.00  0.00     0.029 A 
ATOM     47  C   UNL     1      -5.543  -5.312  12.613  1.00  0.00     0.049 A 
ATOM     48  H   UNL     1      -3.630  -5.854  13.232  1.00  0.00     0.167 HD
ATOM     49  C   UNL     1       0.312  -7.210  14.458  1.00  0.00     0.031 A 
ATOM     50  C   UNL     1      -6.243  -4.969  13.709  1.00  0.00     0.031 A 
ATOM     51  C   UNL     1      -0.361  -6.884  15.688  1.00  0.00     0.049 A 
ATOM     52  C   UNL     1      -5.608  -5.095  15.061  1.00  0.00     0.074 A 
ATOM     53  C   UNL     1       0.136  -6.923  16.981  1.00  0.00     0.029 A 
ATOM     54  N   UNL     1      -1.672  -6.444  15.779  1.00  0.00    -0.354 N 
ATOM     55  N   UNL     1      -4.396  -5.485  15.369  1.00  0.00    -0.248 NA
ATOM     56  C   UNL     1      -6.446  -4.749  16.217  1.00  0.00     0.031 C 
ATOM     57  C   UNL     1      -0.885  -6.536  17.857  1.00  0.00     0.029 A 
ATOM     58  C   UNL     1      -2.004  -6.220  17.105  1.00  0.00     0.049 A 
ATOM     59  H   UNL     1      -2.277  -6.311  15.014  1.00  0.00     0.167 HD
ATOM     60  C   UNL     1      -4.323  -5.427  16.753  1.00  0.00     0.074 A 
ATOM     61  C   UNL     1      -5.605  -4.944  17.223  1.00  0.00     0.031 C 
ATOM     62  C   UNL     1      -3.285  -5.750  17.561  1.00  0.00     0.031 A 
BRANCH  49  63
ATOM     63  C   UNL     1       1.728  -7.706  14.544  1.00  0.00    -0.014 A 
ATOM     64  C   UNL     1       2.813  -6.883  14.210  1.00  0.00     0.009 A 
ATOM     65  C   UNL     1       1.978  -9.002  15.024  1.00  0.00     0.009 A 
ATOM     66  C   UNL     1       4.122  -7.356  14.333  1.00  0.00     0.001 A 
ATOM     67  C   UNL     1       3.287  -9.465  15.166  1.00  0.00     0.001 A 
ATOM     68  C   UNL     1       4.357  -8.644  14.815  1.00  0.00     0.000 A 
ENDBRANCH  49  63
BRANCH  50  69
ATOM     69  C   UNL     1      -7.647  -4.511  13.568  1.00  0.00    -0.014 A 
ATOM     70  C   UNL     1      -7.975  -3.160  13.748  1.00  0.00     0.009 A 
ATOM     71  C   UNL     1      -8.661  -5.421  13.228  1.00  0.00     0.009 A 
ATOM     72  C   UNL     1      -9.295  -2.730  13.599  1.00  0.00     0.001 A 
ATOM     73  C   UNL     1      -9.974  -4.984  13.056  1.00  0.00     0.001 A 
ATOM     74  C   UNL     1     -10.292  -3.641  13.248  1.00  0.00     0.000 A 
ENDBRANCH  50  69
BRANCH  62  75
ATOM     75  C   UNL     1      -3.496  -5.572  19.035  1.00  0.00    -0.014 A 
ATOM     76  C   UNL     1      -4.257  -6.493  19.771  1.00  0.00     0.009 A 
ATOM     77  C   UNL     1      -2.920  -4.477  19.695  1.00  0.00     0.009 A 
ATOM     78  C   UNL     1      -4.462  -6.302  21.139  1.00  0.00     0.001 A 
ATOM     79  C   UNL     1      -3.111  -4.299  21.066  1.00  0.00     0.001 A 
ATOM     80  C   UNL     1      -3.888  -5.207  21.785  1.00  0.00     0.000 A 
ENDBRANCH  62  75
ENDBRANCH  36  37
ENDBRANCH  29  31
ENDBRANCH  28  29
ENDBRANCH  27  28
ENDBRANCH   1  27
TORSDOF 15
