REMARK SMILES CCN(c1cccc(F)c1)c1cc(C)c(N)c(C(=O)OCCOC(=O)c2ccc(-c3c4nc(c(-c5ccccc5)c5ccc([nH]5)c(-c5ccccc5)c5nc(c(-c6ccccc6)c6ccc3[nH]6)C=C5)C=C4)cc2)c1
REMARK SMILES IDX 21 1 20 2 18 3 19 4 17 5 11 6 12 7 74 8 13 9 14 10 15 11
REMARK SMILES IDX 3 12 2 13 1 14 4 15 5 16 10 17 6 18 8 19 7 20 9 21 16 22
REMARK SMILES IDX 22 25 23 26 24 27 25 28 26 29 27 30 73 31 28 32 72 33 29 34
REMARK SMILES IDX 30 35 31 36 66 37 32 38 71 39 65 40 67 41 33 42 70 43 64 44
REMARK SMILES IDX 63 45 34 47 56 48 41 49 55 50 42 51 45 52 54 53 68 54 43 55
REMARK SMILES IDX 44 56 53 58 69 59 46 60 35 61 36 62 40 63 37 64 39 65 38 66
REMARK SMILES IDX 57 67 58 68 62 69 59 70 61 71 60 72 47 73 48 74 52 75 49 76
REMARK SMILES IDX 51 77 50 78
REMARK H PARENT 16 23 16 24 67 46 45 57
REMARK Flexibility Score: inf
ROOT
ATOM      1  C   UNL     1       4.570   4.265  -6.160  1.00  0.00     0.275 C 
ENDROOT
BRANCH   1   2
ATOM      2  O   UNL     1       4.043   3.397  -5.134  1.00  0.00    -0.458 OA
BRANCH   2   3
ATOM      3  C   UNL     1       4.491   2.113  -5.141  1.00  0.00     0.340 C 
ATOM      4  O   UNL     1       5.259   1.620  -5.955  1.00  0.00    -0.246 OA
BRANCH   3   5
ATOM      5  C   UNL     1       3.993   1.390  -3.940  1.00  0.00     0.085 A 
ATOM      6  C   UNL     1       2.180   1.000  -2.343  1.00  0.00     0.042 A 
ATOM      7  C   UNL     1       3.034   0.143  -1.646  1.00  0.00     0.031 A 
ATOM      8  C   UNL     1       2.714   1.680  -3.449  1.00  0.00     0.044 A 
ATOM      9  C   UNL     1       4.330  -0.151  -2.110  1.00  0.00    -0.025 A 
ATOM     10  C   UNL     1       5.210  -1.052  -1.284  1.00  0.00     0.047 C 
ATOM     11  C   UNL     1       4.764   0.373  -3.340  1.00  0.00     0.049 A 
BRANCH   6  12
ATOM     12  N   UNL     1       0.798   1.114  -2.067  1.00  0.00    -0.342 N 
BRANCH  12  13
ATOM     13  C   UNL     1       0.366   1.405  -0.685  1.00  0.00     0.119 C 
ATOM     14  C   UNL     1       0.373   0.187   0.231  1.00  0.00     0.027 C 
ENDBRANCH  12  13
BRANCH  12  15
ATOM     15  C   UNL     1      -0.180   1.062  -3.093  1.00  0.00     0.044 A 
ATOM     16  C   UNL     1      -1.274   1.939  -3.156  1.00  0.00     0.026 A 
ATOM     17  C   UNL     1      -0.013   0.162  -4.164  1.00  0.00     0.065 A 
ATOM     18  C   UNL     1      -2.158   1.925  -4.244  1.00  0.00     0.005 A 
ATOM     19  C   UNL     1      -0.888   0.159  -5.245  1.00  0.00     0.125 A 
ATOM     20  C   UNL     1      -1.961   1.035  -5.296  1.00  0.00     0.039 A 
ATOM     21  F   UNL     1      -0.681  -0.692  -6.259  1.00  0.00    -0.207 F 
ENDBRANCH  12  15
ENDBRANCH   6  12
BRANCH  11  22
ATOM     22  N   UNL     1       5.994  -0.025  -3.870  1.00  0.00    -0.398 N 
ATOM     23  H   UNL     1       6.512  -0.738  -3.431  1.00  0.00     0.156 HD
ATOM     24  H   UNL     1       6.343   0.407  -4.683  1.00  0.00     0.156 HD
ENDBRANCH  11  22
ENDBRANCH   3   5
ENDBRANCH   2   3
ENDBRANCH   1   2
BRANCH   1  25
ATOM     25  C   UNL     1       5.617   5.208  -5.566  1.00  0.00     0.275 C 
BRANCH  25  26
ATOM     26  O   UNL     1       6.707   4.423  -5.059  1.00  0.00    -0.458 OA
BRANCH  26  27
ATOM     27  C   UNL     1       7.383   4.946  -4.007  1.00  0.00     0.338 C 
ATOM     28  O   UNL     1       7.257   6.061  -3.533  1.00  0.00    -0.246 OA
BRANCH  27  29
ATOM     29  C   UNL     1       8.326   3.927  -3.490  1.00  0.00     0.060 A 
ATOM     30  C   UNL     1       7.945   2.588  -3.445  1.00  0.00     0.016 A 
ATOM     31  C   UNL     1       9.567   4.303  -2.976  1.00  0.00     0.016 A 
ATOM     32  C   UNL     1       8.774   1.630  -2.861  1.00  0.00     0.010 A 
ATOM     33  C   UNL     1      10.432   3.326  -2.457  1.00  0.00     0.010 A 
ATOM     34  C   UNL     1      10.037   1.978  -2.372  1.00  0.00    -0.014 A 
BRANCH  34  35
ATOM     35  C   UNL     1      10.893   0.949  -1.708  1.00  0.00     0.031 A 
ATOM     36  C   UNL     1      11.328   1.138  -0.277  1.00  0.00     0.074 A 
ATOM     37  C   UNL     1      11.250  -0.186  -2.345  1.00  0.00     0.049 A 
ATOM     38  N   UNL     1      12.200   0.455   0.423  1.00  0.00    -0.248 NA
ATOM     39  C   UNL     1      10.708   2.250   0.461  1.00  0.00     0.031 C 
ATOM     40  C   UNL     1      10.862  -0.559  -3.706  1.00  0.00     0.029 A 
ATOM     41  N   UNL     1      12.009  -1.251  -1.916  1.00  0.00    -0.354 N 
ATOM     42  C   UNL     1      12.287   1.097   1.652  1.00  0.00     0.074 A 
ATOM     43  C   UNL     1      11.374   2.219   1.606  1.00  0.00     0.031 C 
ATOM     44  C   UNL     1      11.334  -1.787  -3.978  1.00  0.00     0.029 A 
ATOM     45  C   UNL     1      12.134  -2.252  -2.849  1.00  0.00     0.049 A 
ATOM     46  H   UNL     1      12.424  -1.291  -1.024  1.00  0.00     0.167 HD
ATOM     47  C   UNL     1      13.059   0.788   2.722  1.00  0.00     0.031 A 
ATOM     48  C   UNL     1      12.841  -3.399  -2.825  1.00  0.00     0.031 A 
ATOM     49  C   UNL     1      13.929  -0.356   2.801  1.00  0.00     0.049 A 
ATOM     50  C   UNL     1      13.703  -3.716  -1.635  1.00  0.00     0.074 A 
ATOM     51  C   UNL     1      14.760  -0.738   3.840  1.00  0.00     0.029 A 
ATOM     52  N   UNL     1      14.058  -1.317   1.812  1.00  0.00    -0.354 N 
ATOM     53  N   UNL     1      13.852  -3.043  -0.521  1.00  0.00    -0.248 NA
ATOM     54  C   UNL     1      14.514  -4.941  -1.714  1.00  0.00     0.031 C 
ATOM     55  C   UNL     1      15.414  -1.919   3.468  1.00  0.00     0.029 A 
ATOM     56  C   UNL     1      14.957  -2.292   2.215  1.00  0.00     0.049 A 
ATOM     57  H   UNL     1      13.581  -1.310   0.951  1.00  0.00     0.167 HD
ATOM     58  C   UNL     1      14.781  -3.754   0.228  1.00  0.00     0.074 A 
ATOM     59  C   UNL     1      15.130  -4.931  -0.540  1.00  0.00     0.031 C 
ATOM     60  C   UNL     1      15.309  -3.449   1.438  1.00  0.00     0.031 A 
BRANCH  47  61
ATOM     61  C   UNL     1      13.034   1.741   3.883  1.00  0.00    -0.014 A 
ATOM     62  C   UNL     1      11.941   1.808   4.760  1.00  0.00     0.009 A 
ATOM     63  C   UNL     1      14.141   2.575   4.111  1.00  0.00     0.009 A 
ATOM     64  C   UNL     1      11.943   2.717   5.821  1.00  0.00     0.001 A 
ATOM     65  C   UNL     1      14.152   3.463   5.187  1.00  0.00     0.001 A 
ATOM     66  C   UNL     1      13.049   3.540   6.035  1.00  0.00     0.000 A 
ENDBRANCH  47  61
BRANCH  48  67
ATOM     67  C   UNL     1      12.814  -4.312  -3.998  1.00  0.00    -0.014 A 
ATOM     68  C   UNL     1      12.184  -5.563  -3.918  1.00  0.00     0.009 A 
ATOM     69  C   UNL     1      13.422  -3.934  -5.206  1.00  0.00     0.009 A 
ATOM     70  C   UNL     1      12.170  -6.419  -5.023  1.00  0.00     0.001 A 
ATOM     71  C   UNL     1      13.380  -4.778  -6.317  1.00  0.00     0.001 A 
ATOM     72  C   UNL     1      12.760  -6.023  -6.223  1.00  0.00     0.000 A 
ENDBRANCH  48  67
BRANCH  60  73
ATOM     73  C   UNL     1      16.316  -4.409   2.003  1.00  0.00    -0.014 A 
ATOM     74  C   UNL     1      17.624  -4.466   1.495  1.00  0.00     0.009 A 
ATOM     75  C   UNL     1      15.960  -5.254   3.066  1.00  0.00     0.009 A 
ATOM     76  C   UNL     1      18.545  -5.375   2.018  1.00  0.00     0.001 A 
ATOM     77  C   UNL     1      16.890  -6.146   3.601  1.00  0.00     0.001 A 
ATOM     78  C   UNL     1      18.179  -6.213   3.071  1.00  0.00     0.000 A 
ENDBRANCH  60  73
ENDBRANCH  34  35
ENDBRANCH  27  29
ENDBRANCH  26  27
ENDBRANCH  25  26
ENDBRANCH   1  25
TORSDOF 15
