REMARK SMILES O=C(OCCOC(=O)[C@@H]1C=C[C@@H](NS(=O)(=O)c2ccc(F)c(F)c2F)C1)c1ccc(-c2c3nc(c(-c4ccccc4)c4ccc([nH]4)c(-c4ccccc4)c4nc(c(-c5ccccc5)c5ccc2[nH]5)C=C4)C=C3)cc1
REMARK SMILES IDX 5 1 4 2 3 3 2 4 1 5 27 6 28 7 74 8 29 9 73 10 30 11 31 12
REMARK SMILES IDX 32 13 67 14 33 15 72 16 66 17 68 18 34 19 71 20 65 21 64 22
REMARK SMILES IDX 35 24 57 25 42 26 56 27 43 28 46 29 55 30 69 31 44 32 45 33
REMARK SMILES IDX 54 35 70 36 47 37 36 38 37 39 41 40 38 41 40 42 39 43 58 44
REMARK SMILES IDX 59 45 63 46 60 47 62 48 61 49 48 50 49 51 53 52 50 53 52 54
REMARK SMILES IDX 51 55 6 56 7 57 8 58 9 59 10 60 26 61 11 62 12 63 13 64
REMARK SMILES IDX 14 66 15 67 16 68 17 69 18 70 24 71 19 72 22 73 25 74 20 75
REMARK SMILES IDX 23 76 21 77
REMARK H PARENT 68 23 46 34 13 65
REMARK Flexibility Score: inf
ROOT
ATOM      1  C   UNL     1       4.418  -2.656  -4.900  1.00  0.00     0.274 C 
ENDROOT
BRANCH   1   2
ATOM      2  C   UNL     1       5.394  -1.928  -5.911  1.00  0.00     0.275 C 
BRANCH   2   3
ATOM      3  O   UNL     1       6.086  -0.857  -5.318  1.00  0.00    -0.458 OA
BRANCH   3   4
ATOM      4  C   UNL     1       5.371   0.201  -4.912  1.00  0.00     0.338 C 
ATOM      5  O   UNL     1       5.832   0.911  -4.018  1.00  0.00    -0.246 OA
BRANCH   4   6
ATOM      6  C   UNL     1       3.968   0.480  -5.431  1.00  0.00     0.060 A 
ATOM      7  C   UNL     1       2.994  -0.350  -6.087  1.00  0.00     0.016 A 
ATOM      8  C   UNL     1       3.510   1.625  -4.870  1.00  0.00     0.016 A 
ATOM      9  C   UNL     1       1.603  -0.244  -5.902  1.00  0.00     0.010 A 
ATOM     10  C   UNL     1       2.156   1.693  -4.664  1.00  0.00     0.010 A 
ATOM     11  C   UNL     1       1.147   0.759  -5.114  1.00  0.00    -0.014 A 
BRANCH  11  12
ATOM     12  C   UNL     1      -0.320   1.070  -4.968  1.00  0.00     0.031 A 
ATOM     13  C   UNL     1      -0.592   2.449  -5.396  1.00  0.00     0.074 A 
ATOM     14  C   UNL     1      -1.368   0.382  -4.483  1.00  0.00     0.049 A 
ATOM     15  N   UNL     1      -1.935   3.395  -5.598  1.00  0.00    -0.248 NA
ATOM     16  C   UNL     1       1.032   3.268  -6.195  1.00  0.00     0.031 C 
ATOM     17  C   UNL     1      -1.334  -0.959  -3.925  1.00  0.00     0.029 A 
ATOM     18  N   UNL     1      -2.664   0.814  -4.255  1.00  0.00    -0.354 N 
ATOM     19  C   UNL     1      -1.479   4.958  -6.540  1.00  0.00     0.074 A 
ATOM     20  C   UNL     1       0.606   4.623  -6.771  1.00  0.00     0.031 C 
ATOM     21  C   UNL     1      -2.493  -1.185  -3.277  1.00  0.00     0.029 A 
ATOM     22  C   UNL     1      -3.379  -0.028  -3.436  1.00  0.00     0.049 A 
ATOM     23  H   UNL     1      -3.036   1.640  -4.641  1.00  0.00     0.167 HD
ATOM     24  C   UNL     1      -2.537   5.809  -6.940  1.00  0.00     0.031 A 
ATOM     25  C   UNL     1      -4.590   0.121  -2.856  1.00  0.00     0.031 A 
ATOM     26  C   UNL     1      -3.931   5.626  -6.532  1.00  0.00     0.049 A 
ATOM     27  C   UNL     1      -5.498   1.275  -3.210  1.00  0.00     0.074 A 
ATOM     28  C   UNL     1      -4.981   6.481  -6.855  1.00  0.00     0.029 A 
ATOM     29  N   UNL     1      -4.478   4.642  -5.710  1.00  0.00    -0.354 N 
ATOM     30  N   UNL     1      -5.262   2.333  -3.945  1.00  0.00    -0.248 NA
ATOM     31  C   UNL     1      -6.884   1.192  -2.713  1.00  0.00     0.031 C 
ATOM     32  C   UNL     1      -6.091   6.135  -6.100  1.00  0.00     0.029 A 
ATOM     33  C   UNL     1      -5.821   4.935  -5.468  1.00  0.00     0.049 A 
ATOM     34  H   UNL     1      -3.993   3.862  -5.356  1.00  0.00     0.167 HD
ATOM     35  C   UNL     1      -6.474   3.008  -4.045  1.00  0.00     0.074 A 
ATOM     36  C   UNL     1      -7.447   2.241  -3.297  1.00  0.00     0.031 C 
ATOM     37  C   UNL     1      -6.769   4.146  -4.718  1.00  0.00     0.031 A 
BRANCH  24  38
ATOM     38  C   UNL     1      -2.375   7.113  -7.729  1.00  0.00    -0.014 A 
ATOM     39  C   UNL     1      -2.204   7.187  -9.123  1.00  0.00     0.009 A 
ATOM     40  C   UNL     1      -2.296   8.303  -6.985  1.00  0.00     0.009 A 
ATOM     41  C   UNL     1      -1.568   8.313  -9.668  1.00  0.00     0.001 A 
ATOM     42  C   UNL     1      -1.752   9.453  -7.552  1.00  0.00     0.001 A 
ATOM     43  C   UNL     1      -1.297   9.422  -8.868  1.00  0.00     0.000 A 
ENDBRANCH  24  38
BRANCH  25  44
ATOM     44  C   UNL     1      -5.052  -0.929  -1.911  1.00  0.00    -0.014 A 
ATOM     45  C   UNL     1      -5.977  -1.900  -2.321  1.00  0.00     0.009 A 
ATOM     46  C   UNL     1      -4.529  -0.990  -0.609  1.00  0.00     0.009 A 
ATOM     47  C   UNL     1      -6.369  -2.914  -1.447  1.00  0.00     0.001 A 
ATOM     48  C   UNL     1      -4.904  -2.022   0.254  1.00  0.00     0.001 A 
ATOM     49  C   UNL     1      -5.823  -2.983  -0.166  1.00  0.00     0.000 A 
ENDBRANCH  25  44
BRANCH  37  50
ATOM     50  C   UNL     1      -8.216   4.604  -4.750  1.00  0.00    -0.014 A 
ATOM     51  C   UNL     1      -8.871   5.113  -3.619  1.00  0.00     0.009 A 
ATOM     52  C   UNL     1      -8.896   4.629  -5.984  1.00  0.00     0.009 A 
ATOM     53  C   UNL     1     -10.177   5.609  -3.716  1.00  0.00     0.001 A 
ATOM     54  C   UNL     1     -10.181   5.164  -6.087  1.00  0.00     0.001 A 
ATOM     55  C   UNL     1     -10.826   5.645  -4.951  1.00  0.00     0.000 A 
ENDBRANCH  37  50
ENDBRANCH  11  12
ENDBRANCH   4   6
ENDBRANCH   3   4
ENDBRANCH   2   3
ENDBRANCH   1   2
BRANCH   1  56
ATOM     56  O   UNL     1       3.439  -1.846  -4.037  1.00  0.00    -0.462 OA
BRANCH  56  57
ATOM     57  C   UNL     1       3.748  -1.375  -2.780  1.00  0.00     0.312 C 
ATOM     58  O   UNL     1       4.827  -1.681  -2.272  1.00  0.00    -0.252 OA
BRANCH  57  59
ATOM     59  C   UNL     1       2.642  -0.437  -1.921  1.00  0.00     0.123 C 
ATOM     60  C   UNL     1       1.149  -0.670  -1.713  1.00  0.00    -0.015 C 
ATOM     61  C   UNL     1       2.634   1.157  -1.807  1.00  0.00     0.043 C 
ATOM     62  C   UNL     1       0.403   0.464  -1.550  1.00  0.00    -0.011 C 
ATOM     63  C   UNL     1       1.148   1.628  -2.082  1.00  0.00     0.093 C 
BRANCH  63  64
ATOM     64  N   UNL     1       0.778   3.114  -2.180  1.00  0.00    -0.204 NA
ATOM     65  H   UNL     1       1.627   3.565  -2.519  1.00  0.00     0.142 HD
BRANCH  64  66
ATOM     66  S   UNL     1      -0.578   3.909  -3.142  1.00  0.00     0.244 S 
ATOM     67  O   UNL     1      -1.756   3.101  -2.929  1.00  0.00    -0.207 OA
ATOM     68  O   UNL     1      -0.549   5.249  -2.571  1.00  0.00    -0.207 OA
BRANCH  66  69
ATOM     69  C   UNL     1      -0.346   4.384  -5.226  1.00  0.00     0.121 A 
ATOM     70  C   UNL     1       0.036   6.111  -5.357  1.00  0.00     0.028 A 
ATOM     71  C   UNL     1      -0.734   3.403  -7.059  1.00  0.00     0.181 A 
ATOM     72  C   UNL     1       0.200   6.750  -6.966  1.00  0.00     0.044 A 
ATOM     73  C   UNL     1      -0.550   4.243  -8.545  1.00  0.00     0.195 A 
ATOM     74  F   UNL     1      -1.066   2.089  -7.330  1.00  0.00    -0.202 F 
ATOM     75  C   UNL     1      -0.043   5.834  -8.462  1.00  0.00     0.161 A 
ATOM     76  F   UNL     1      -0.525   3.543  -9.689  1.00  0.00    -0.200 F 
ATOM     77  F   UNL     1       0.467   6.353  -9.594  1.00  0.00    -0.204 F 
ENDBRANCH  66  69
ENDBRANCH  64  66
ENDBRANCH  63  64
ENDBRANCH  57  59
ENDBRANCH  56  57
ENDBRANCH   1  56
TORSDOF 14
