REMARK SMILES NS(=O)(=O)c1ccc(-n2nc(C(F)F)cc2-c2ccc(C(=O)OCCOC(=O)c3ccc(-c4c5nc(c(-c6ccccc6)c6ccc([nH]6)c(-c6ccccc6)c6nc(c(-c7ccccc7)c7ccc4[nH]7)C=C6)C=C5)cc3)cc2)cc1
REMARK SMILES IDX 24 1 23 2 21 3 22 4 20 5 17 6 18 7 78 8 19 9 77 10 16 11
REMARK SMILES IDX 9 12 10 13 11 14 15 15 8 16 5 17 6 18 80 19 7 20 79 21 2 22
REMARK SMILES IDX 3 23 4 24 1 25 12 28 13 29 14 30 25 31 26 32 27 33 28 34
REMARK SMILES IDX 29 35 30 36 76 37 31 38 75 39 32 40 33 41 34 42 69 43 35 44
REMARK SMILES IDX 74 45 68 46 70 47 36 48 73 49 67 50 66 51 37 53 59 54 44 55
REMARK SMILES IDX 58 56 45 57 48 58 57 59 71 60 46 61 47 62 56 64 72 65 49 66
REMARK SMILES IDX 38 67 39 68 43 69 40 70 42 71 41 72 60 73 61 74 65 75 62 76
REMARK SMILES IDX 64 77 63 78 50 79 51 80 55 81 52 82 54 83 53 84
REMARK H PARENT 1 26 1 27 70 52 48 63
REMARK Flexibility Score: inf
ROOT
ATOM      1  C   UNL     1       6.526  -7.230  -0.076  1.00  0.00     0.275 C 
ENDROOT
BRANCH   1   2
ATOM      2  O   UNL     1       5.739  -6.945   1.089  1.00  0.00    -0.458 OA
BRANCH   2   3
ATOM      3  C   UNL     1       6.206  -5.951   1.887  1.00  0.00     0.338 C 
ATOM      4  O   UNL     1       7.280  -5.380   1.779  1.00  0.00    -0.246 OA
BRANCH   3   5
ATOM      5  C   UNL     1       5.177  -5.569   2.884  1.00  0.00     0.060 A 
ATOM      6  C   UNL     1       3.334  -4.802   4.850  1.00  0.00     0.000 A 
ATOM      7  C   UNL     1       4.363  -3.930   4.468  1.00  0.00     0.011 A 
ATOM      8  C   UNL     1       3.215  -6.046   4.221  1.00  0.00     0.011 A 
ATOM      9  C   UNL     1       5.281  -4.311   3.490  1.00  0.00     0.016 A 
ATOM     10  C   UNL     1       4.126  -6.426   3.234  1.00  0.00     0.016 A 
BRANCH   6  11
ATOM     11  C   UNL     1       2.440  -4.444   5.947  1.00  0.00     0.075 A 
ATOM     12  N   UNL     1       1.701  -3.272   6.048  1.00  0.00    -0.233 N 
ATOM     13  N   UNL     1       1.255  -3.071   7.315  1.00  0.00    -0.166 NA
ATOM     14  C   UNL     1       1.507  -4.225   7.958  1.00  0.00     0.129 A 
ATOM     15  C   UNL     1       2.264  -5.100   7.148  1.00  0.00     0.060 A 
BRANCH  12  16
ATOM     16  C   UNL     1       1.384  -2.346   5.017  1.00  0.00     0.065 A 
ATOM     17  C   UNL     1       0.835  -0.522   2.982  1.00  0.00     0.082 A 
ATOM     18  C   UNL     1       0.857  -1.888   2.694  1.00  0.00     0.024 A 
ATOM     19  C   UNL     1       1.067  -0.062   4.284  1.00  0.00     0.024 A 
ATOM     20  C   UNL     1       1.145  -2.800   3.710  1.00  0.00     0.030 A 
ATOM     21  C   UNL     1       1.311  -0.979   5.311  1.00  0.00     0.030 A 
BRANCH  17  22
ATOM     22  S   UNL     1       0.523   0.646   1.691  1.00  0.00     0.238 S 
ATOM     23  O   UNL     1       1.249   1.863   1.982  1.00  0.00    -0.207 OA
ATOM     24  O   UNL     1      -0.886   0.625   1.389  1.00  0.00    -0.207 OA
BRANCH  22  25
ATOM     25  N   UNL     1       1.303  -0.015   0.353  1.00  0.00    -0.225 NA
ATOM     26  H   UNL     1       1.177   0.598  -0.452  1.00  0.00     0.137 HD
ATOM     27  H   UNL     1       0.907  -0.932   0.148  1.00  0.00     0.137 HD
ENDBRANCH  22  25
ENDBRANCH  17  22
ENDBRANCH  12  16
BRANCH  14  28
ATOM     28  C   UNL     1       1.057  -4.494   9.364  1.00  0.00     0.393 C 
ATOM     29  F   UNL     1       1.333  -3.465  10.209  1.00  0.00    -0.203 F 
ATOM     30  F   UNL     1      -0.287  -4.704   9.427  1.00  0.00    -0.203 F 
ENDBRANCH  14  28
ENDBRANCH   6  11
ENDBRANCH   3   5
ENDBRANCH   2   3
ENDBRANCH   1   2
BRANCH   1  31
ATOM     31  C   UNL     1       6.085  -6.371  -1.251  1.00  0.00     0.275 C 
BRANCH  31  32
ATOM     32  O   UNL     1       6.504  -5.016  -1.094  1.00  0.00    -0.458 OA
BRANCH  32  33
ATOM     33  C   UNL     1       5.581  -4.172  -0.582  1.00  0.00     0.338 C 
ATOM     34  O   UNL     1       4.564  -4.464   0.026  1.00  0.00    -0.246 OA
BRANCH  33  35
ATOM     35  C   UNL     1       5.841  -2.825  -1.110  1.00  0.00     0.060 A 
ATOM     36  C   UNL     1       4.937  -1.818  -0.765  1.00  0.00     0.016 A 
ATOM     37  C   UNL     1       6.782  -2.645  -2.138  1.00  0.00     0.016 A 
ATOM     38  C   UNL     1       4.864  -0.698  -1.568  1.00  0.00     0.010 A 
ATOM     39  C   UNL     1       6.701  -1.532  -2.944  1.00  0.00     0.010 A 
ATOM     40  C   UNL     1       5.694  -0.606  -2.695  1.00  0.00    -0.014 A 
BRANCH  40  41
ATOM     41  C   UNL     1       5.546   0.557  -3.546  1.00  0.00     0.031 A 
ATOM     42  C   UNL     1       5.914   1.823  -2.875  1.00  0.00     0.074 A 
ATOM     43  C   UNL     1       5.195   0.500  -4.843  1.00  0.00     0.049 A 
ATOM     44  N   UNL     1       5.133   2.804  -2.570  1.00  0.00    -0.248 NA
ATOM     45  C   UNL     1       7.282   1.944  -2.350  1.00  0.00     0.031 C 
ATOM     46  C   UNL     1       5.073  -0.675  -5.709  1.00  0.00     0.029 A 
ATOM     47  N   UNL     1       4.968   1.535  -5.695  1.00  0.00    -0.354 N 
ATOM     48  C   UNL     1       5.946   3.754  -1.965  1.00  0.00     0.074 A 
ATOM     49  C   UNL     1       7.215   3.116  -1.721  1.00  0.00     0.031 C 
ATOM     50  C   UNL     1       5.024  -0.271  -7.000  1.00  0.00     0.029 A 
ATOM     51  C   UNL     1       4.966   1.181  -7.035  1.00  0.00     0.049 A 
ATOM     52  H   UNL     1       4.819   2.458  -5.386  1.00  0.00     0.167 HD
ATOM     53  C   UNL     1       5.593   5.066  -1.921  1.00  0.00     0.031 A 
ATOM     54  C   UNL     1       4.977   2.034  -8.089  1.00  0.00     0.031 A 
ATOM     55  C   UNL     1       4.185   5.253  -2.151  1.00  0.00     0.049 A 
ATOM     56  C   UNL     1       4.510   3.354  -7.605  1.00  0.00     0.074 A 
ATOM     57  C   UNL     1       3.033   4.842  -1.511  1.00  0.00     0.029 A 
ATOM     58  N   UNL     1       3.797   5.647  -3.409  1.00  0.00    -0.354 N 
ATOM     59  N   UNL     1       3.287   3.586  -7.225  1.00  0.00    -0.248 NA
ATOM     60  C   UNL     1       5.501   4.308  -7.132  1.00  0.00     0.031 C 
ATOM     61  C   UNL     1       2.110   4.557  -2.561  1.00  0.00     0.029 A 
ATOM     62  C   UNL     1       2.731   4.864  -3.773  1.00  0.00     0.049 A 
ATOM     63  H   UNL     1       4.208   6.359  -3.950  1.00  0.00     0.167 HD
ATOM     64  C   UNL     1       3.412   4.424  -6.127  1.00  0.00     0.074 A 
ATOM     65  C   UNL     1       4.784   4.922  -6.186  1.00  0.00     0.031 C 
ATOM     66  C   UNL     1       2.484   4.413  -5.125  1.00  0.00     0.031 A 
BRANCH  53  67
ATOM     67  C   UNL     1       6.597   6.177  -2.086  1.00  0.00    -0.014 A 
ATOM     68  C   UNL     1       6.158   7.508  -1.990  1.00  0.00     0.009 A 
ATOM     69  C   UNL     1       7.889   5.971  -2.612  1.00  0.00     0.009 A 
ATOM     70  C   UNL     1       6.945   8.567  -2.460  1.00  0.00     0.001 A 
ATOM     71  C   UNL     1       8.693   7.028  -3.043  1.00  0.00     0.001 A 
ATOM     72  C   UNL     1       8.208   8.325  -2.993  1.00  0.00     0.000 A 
ENDBRANCH  53  67
BRANCH  54  73
ATOM     73  C   UNL     1       5.628   1.870  -9.405  1.00  0.00    -0.014 A 
ATOM     74  C   UNL     1       5.281   2.695 -10.486  1.00  0.00     0.009 A 
ATOM     75  C   UNL     1       6.795   1.093  -9.521  1.00  0.00     0.009 A 
ATOM     76  C   UNL     1       6.096   2.771 -11.624  1.00  0.00     0.001 A 
ATOM     77  C   UNL     1       7.607   1.167 -10.657  1.00  0.00     0.001 A 
ATOM     78  C   UNL     1       7.266   2.018 -11.702  1.00  0.00     0.000 A 
ENDBRANCH  54  73
BRANCH  66  79
ATOM     79  C   UNL     1       1.206   3.642  -5.357  1.00  0.00    -0.014 A 
ATOM     80  C   UNL     1       1.179   2.259  -5.617  1.00  0.00     0.009 A 
ATOM     81  C   UNL     1      -0.016   4.304  -5.169  1.00  0.00     0.009 A 
ATOM     82  C   UNL     1      -0.036   1.571  -5.720  1.00  0.00     0.001 A 
ATOM     83  C   UNL     1      -1.227   3.614  -5.249  1.00  0.00     0.001 A 
ATOM     84  C   UNL     1      -1.238   2.249  -5.532  1.00  0.00     0.000 A 
ENDBRANCH  66  79
ENDBRANCH  40  41
ENDBRANCH  33  35
ENDBRANCH  32  33
ENDBRANCH  31  32
ENDBRANCH   1  31
TORSDOF 16
