REMARK SMILES CC(C)(C)[C@H]1CCC[C@H]([NH+]2CCC(CC(=O)OCCOC(=O)c3ccc(-c4c5nc(c(-c6ccccc6)c6ccc([nH]6)c(-c6ccccc6)c6nc(c(-c7ccccc7)c7ccc4[nH]7)C=C6)C=C5)cc3)CC2)CC1
REMARK SMILES IDX 15 1 16 2 14 3 13 4 10 5 11 6 72 7 12 9 71 10 9 11 73 12
REMARK SMILES IDX 74 13 5 14 2 15 1 16 3 17 4 18 6 19 8 21 7 22 17 24 18 25
REMARK SMILES IDX 19 26 20 27 21 28 22 29 23 30 24 31 70 32 25 33 69 34 26 35
REMARK SMILES IDX 27 36 28 37 63 38 29 39 68 40 62 41 64 42 30 43 67 44 61 45
REMARK SMILES IDX 60 46 31 48 53 49 38 50 52 51 39 52 42 53 51 54 65 55 40 56
REMARK SMILES IDX 41 57 50 59 66 60 43 61 32 62 33 63 37 64 34 65 36 66 35 67
REMARK SMILES IDX 54 68 55 69 59 70 56 71 58 72 57 73 44 74 45 75 49 76 46 77
REMARK SMILES IDX 48 78 47 79
REMARK H PARENT 10 8 64 47 42 58
REMARK Flexibility Score: 80.00
ROOT
ATOM      1  C   UNL     1      -1.854  -7.297   8.987  1.00  0.00     0.306 C 
ATOM      2  O   UNL     1      -2.080  -8.199   9.784  1.00  0.00    -0.252 OA
ENDROOT
BRANCH   1   3
ATOM      3  C   UNL     1      -0.452  -6.809   8.675  1.00  0.00     0.126 C 
BRANCH   3   4
ATOM      4  C   UNL     1      -0.162  -6.573   7.185  1.00  0.00     0.011 C 
ATOM      5  N   UNL     1       1.116  -5.019   5.027  1.00  0.00    -0.332 N 
ATOM      6  C   UNL     1      -0.338  -4.980   5.239  1.00  0.00     0.262 C 
ATOM      7  C   UNL     1       1.661  -6.327   5.428  1.00  0.00     0.262 C 
ATOM      8  H   UNL     1       1.525  -4.308   5.633  1.00  0.00     0.348 HD
ATOM      9  C   UNL     1      -0.684  -5.214   6.705  1.00  0.00     0.066 C 
ATOM     10  C   UNL     1       1.347  -6.648   6.895  1.00  0.00     0.066 C 
BRANCH   5  11
ATOM     11  C   UNL     1       1.532  -4.620   3.651  1.00  0.00     0.184 C 
BRANCH  11  12
ATOM     12  C   UNL     1       1.215  -3.114   3.428  1.00  0.00     0.065 C 
BRANCH  12  13
ATOM     13  C   UNL     1       1.841  -2.494   2.168  1.00  0.00     0.010 C 
BRANCH  13  14
ATOM     14  C   UNL     1       0.974  -2.613   0.888  1.00  0.00    -0.005 C 
BRANCH  14  15
ATOM     15  C   UNL     1       1.718  -2.157  -0.436  1.00  0.00    -0.035 C 
ATOM     16  C   UNL     1       0.861  -2.440  -1.691  1.00  0.00     0.011 C 
ATOM     17  C   UNL     1       3.085  -2.831  -0.656  1.00  0.00     0.011 C 
ATOM     18  C   UNL     1       1.952  -0.630  -0.388  1.00  0.00     0.011 C 
ENDBRANCH  14  15
BRANCH  14  19
ATOM     19  C   UNL     1       0.267  -3.979   0.805  1.00  0.00     0.004 CG0
ATOM     20  G   UNL     1       1.163  -5.168   1.120  1.00  0.00     0.000 G0
ENDBRANCH  14  19
ENDBRANCH  13  14
ENDBRANCH  12  13
ENDBRANCH  11  12
BRANCH  11  21
ATOM     21  C   UNL     1       1.027  -5.607   2.570  1.00  0.00     0.065 C 
BRANCH  21  22
ATOM     22  C   UNL     1       1.163  -5.168   1.120  1.00  0.00     0.006 CG0
ATOM     23  G   UNL     1       0.267  -3.979   0.805  1.00  0.00     0.000 G0
ENDBRANCH  21  22
ENDBRANCH  11  21
ENDBRANCH   5  11
ENDBRANCH   3   4
ENDBRANCH   1   3
BRANCH   1  24
ATOM     24  O   UNL     1      -2.804  -6.588   8.329  1.00  0.00    -0.462 OA
BRANCH  24  25
ATOM     25  C   UNL     1      -4.179  -6.948   8.558  1.00  0.00     0.274 C 
BRANCH  25  26
ATOM     26  C   UNL     1      -4.713  -7.839   7.435  1.00  0.00     0.275 C 
BRANCH  26  27
ATOM     27  O   UNL     1      -4.146  -9.159   7.515  1.00  0.00    -0.458 OA
BRANCH  27  28
ATOM     28  C   UNL     1      -3.095  -9.391   6.695  1.00  0.00     0.338 C 
ATOM     29  O   UNL     1      -2.638  -8.650   5.843  1.00  0.00    -0.246 OA
BRANCH  28  30
ATOM     30  C   UNL     1      -2.466 -10.666   7.075  1.00  0.00     0.060 A 
ATOM     31  C   UNL     1      -1.144 -10.642   7.528  1.00  0.00     0.016 A 
ATOM     32  C   UNL     1      -3.155 -11.874   6.950  1.00  0.00     0.016 A 
ATOM     33  C   UNL     1      -0.504 -11.832   7.867  1.00  0.00     0.010 A 
ATOM     34  C   UNL     1      -2.510 -13.067   7.287  1.00  0.00     0.010 A 
ATOM     35  C   UNL     1      -1.180 -13.054   7.743  1.00  0.00    -0.014 A 
BRANCH  35  36
ATOM     36  C   UNL     1      -0.482 -14.320   8.064  1.00  0.00     0.031 A 
ATOM     37  C   UNL     1       0.009 -15.208   6.958  1.00  0.00     0.074 A 
ATOM     38  C   UNL     1      -0.281 -14.667   9.348  1.00  0.00     0.049 A 
ATOM     39  N   UNL     1       0.597 -16.375   7.035  1.00  0.00    -0.248 NA
ATOM     40  C   UNL     1      -0.186 -14.720   5.584  1.00  0.00     0.031 C 
ATOM     41  C   UNL     1      -0.679 -13.874  10.512  1.00  0.00     0.029 A 
ATOM     42  N   UNL     1       0.311 -15.781   9.888  1.00  0.00    -0.354 N 
ATOM     43  C   UNL     1       0.835 -16.765   5.724  1.00  0.00     0.074 A 
ATOM     44  C   UNL     1       0.309 -15.721   4.870  1.00  0.00     0.031 C 
ATOM     45  C   UNL     1      -0.319 -14.527  11.629  1.00  0.00     0.029 A 
ATOM     46  C   UNL     1       0.299 -15.798  11.261  1.00  0.00     0.049 A 
ATOM     47  H   UNL     1       0.705 -16.500   9.343  1.00  0.00     0.167 HD
ATOM     48  C   UNL     1       1.439 -17.890   5.273  1.00  0.00     0.031 A 
ATOM     49  C   UNL     1       0.720 -16.741  12.124  1.00  0.00     0.031 A 
ATOM     50  C   UNL     1       1.955 -18.933   6.119  1.00  0.00     0.049 A 
ATOM     51  C   UNL     1       1.327 -18.010  11.594  1.00  0.00     0.074 A 
ATOM     52  C   UNL     1       2.588 -20.108   5.751  1.00  0.00     0.029 A 
ATOM     53  N   UNL     1       1.893 -18.929   7.503  1.00  0.00    -0.354 N 
ATOM     54  N   UNL     1       1.554 -18.362  10.351  1.00  0.00    -0.248 NA
ATOM     55  C   UNL     1       1.738 -19.012  12.588  1.00  0.00     0.031 C 
ATOM     56  C   UNL     1       2.872 -20.835   6.912  1.00  0.00     0.029 A 
ATOM     57  C   UNL     1       2.458 -20.089   8.004  1.00  0.00     0.049 A 
ATOM     58  H   UNL     1       1.505 -18.207   8.049  1.00  0.00     0.167 HD
ATOM     59  C   UNL     1       2.150 -19.614  10.416  1.00  0.00     0.074 A 
ATOM     60  C   UNL     1       2.266 -19.954  11.819  1.00  0.00     0.031 C 
ATOM     61  C   UNL     1       2.563 -20.413   9.402  1.00  0.00     0.031 A 
BRANCH  48  62
ATOM     62  C   UNL     1       1.551 -18.064   3.785  1.00  0.00    -0.014 A 
ATOM     63  C   UNL     1       2.481 -17.327   3.036  1.00  0.00     0.009 A 
ATOM     64  C   UNL     1       0.743 -19.007   3.132  1.00  0.00     0.009 A 
ATOM     65  C   UNL     1       2.582 -17.515   1.656  1.00  0.00     0.001 A 
ATOM     66  C   UNL     1       0.862 -19.209   1.756  1.00  0.00     0.001 A 
ATOM     67  C   UNL     1       1.776 -18.458   1.018  1.00  0.00     0.000 A 
ENDBRANCH  48  62
BRANCH  49  68
ATOM     68  C   UNL     1       0.557 -16.538  13.586  1.00  0.00    -0.014 A 
ATOM     69  C   UNL     1       1.673 -16.318  14.407  1.00  0.00     0.009 A 
ATOM     70  C   UNL     1      -0.719 -16.583  14.171  1.00  0.00     0.009 A 
ATOM     71  C   UNL     1       1.516 -16.172  15.787  1.00  0.00     0.001 A 
ATOM     72  C   UNL     1      -0.874 -16.410  15.547  1.00  0.00     0.001 A 
ATOM     73  C   UNL     1       0.244 -16.214  16.355  1.00  0.00     0.000 A 
ENDBRANCH  49  68
BRANCH  61  74
ATOM     74  C   UNL     1       3.203 -21.719   9.778  1.00  0.00    -0.014 A 
ATOM     75  C   UNL     1       2.435 -22.793  10.253  1.00  0.00     0.009 A 
ATOM     76  C   UNL     1       4.588 -21.884   9.627  1.00  0.00     0.009 A 
ATOM     77  C   UNL     1       3.049 -23.999  10.600  1.00  0.00     0.001 A 
ATOM     78  C   UNL     1       5.195 -23.098   9.951  1.00  0.00     0.001 A 
ATOM     79  C   UNL     1       4.427 -24.151  10.445  1.00  0.00     0.000 A 
ENDBRANCH  61  74
ENDBRANCH  35  36
ENDBRANCH  28  30
ENDBRANCH  27  28
ENDBRANCH  26  27
ENDBRANCH  25  26
ENDBRANCH  24  25
ENDBRANCH   1  24
TORSDOF 14
