REMARK SMILES CC(C)C[C@H](CNC(=O)[C@]1([NH3+])CCC[C@@H](C)C1)C(=O)OCCOC(=O)c1ccc(-c2c3nc(c(-c4ccccc4)c4ccc([nH]4)c(-c4ccccc4)c4nc(c(-c5ccccc5)c5ccc2[nH]5)C=C4)C=C3)cc1
REMARK SMILES IDX 21 1 20 2 18 3 19 4 5 5 4 6 2 7 1 8 3 9 6 10 7 11 8 12 9 14
REMARK SMILES IDX 10 15 12 16 17 17 13 18 15 19 14 20 16 21 11 22 22 26 23 27
REMARK SMILES IDX 24 28 25 29 26 30 27 31 73 32 28 33 72 34 29 35 30 36 31 37
REMARK SMILES IDX 66 38 32 39 71 40 65 41 67 42 33 43 70 44 64 45 63 46 34 48
REMARK SMILES IDX 56 49 41 50 55 51 42 52 45 53 54 54 68 55 43 56 44 57 53 59
REMARK SMILES IDX 69 60 46 61 35 62 36 63 40 64 37 65 39 66 38 67 57 68 58 69
REMARK SMILES IDX 62 70 59 71 61 72 60 73 47 74 48 75 52 76 49 77 51 78 50 79
REMARK H PARENT 7 13 11 23 11 24 11 25 67 47 45 58
REMARK Flexibility Score: inf
ROOT
ATOM      1  C   UNL     1       4.658   0.010   5.182  1.00  0.00     0.274 C 
ENDROOT
BRANCH   1   2
ATOM      2  O   UNL     1       3.836   0.188   4.010  1.00  0.00    -0.462 OA
BRANCH   2   3
ATOM      3  C   UNL     1       4.359   0.979   3.039  1.00  0.00     0.310 C 
ATOM      4  O   UNL     1       5.425   1.577   3.146  1.00  0.00    -0.252 OA
BRANCH   3   5
ATOM      5  C   UNL     1       3.478   1.098   1.803  1.00  0.00     0.118 C 
BRANCH   5   6
ATOM      6  C   UNL     1       2.536   2.313   1.916  1.00  0.00     0.020 C 
BRANCH   6   7
ATOM      7  C   UNL     1       3.184   3.646   2.353  1.00  0.00    -0.017 C 
ATOM      8  C   UNL     1       4.341   4.093   1.456  1.00  0.00     0.007 C 
ATOM      9  C   UNL     1       2.118   4.746   2.380  1.00  0.00     0.007 C 
ENDBRANCH   6   7
ENDBRANCH   5   6
BRANCH   5  10
ATOM     10  C   UNL     1       2.781  -0.240   1.445  1.00  0.00     0.131 C 
BRANCH  10  11
ATOM     11  N   UNL     1       1.439  -0.071   0.905  1.00  0.00    -0.350 N 
ATOM     12  C   UNL     1       0.893  -0.165  -0.329  1.00  0.00     0.281 C 
ATOM     13  H   UNL     1       0.779   0.166   1.596  1.00  0.00     0.163 HD
ATOM     14  O   UNL     1      -0.301   0.163  -0.403  1.00  0.00    -0.268 OA
BRANCH  12  15
ATOM     15  C   UNL     1       1.641  -0.692  -1.601  1.00  0.00     0.174 C 
ATOM     16  C   UNL     1       1.976  -2.185  -1.435  1.00  0.00     0.079 C 
ATOM     17  C   UNL     1       2.887   0.137  -1.973  1.00  0.00     0.082 C 
ATOM     18  C   UNL     1       2.769  -2.758  -2.610  1.00  0.00     0.007 C 
ATOM     19  C   UNL     1       3.756  -0.453  -3.108  1.00  0.00    -0.008 C 
ATOM     20  C   UNL     1       4.033  -1.946  -2.880  1.00  0.00     0.004 C 
ATOM     21  C   UNL     1       3.192  -0.192  -4.508  1.00  0.00     0.008 C 
BRANCH  15  22
ATOM     22  N   UNL     1       0.669  -0.575  -2.730  1.00  0.00    -0.345 N 
ATOM     23  H   UNL     1       1.106  -0.906  -3.590  1.00  0.00     0.345 HD
ATOM     24  H   UNL     1       0.395   0.401  -2.842  1.00  0.00     0.345 HD
ATOM     25  H   UNL     1      -0.156  -1.139  -2.528  1.00  0.00     0.345 HD
ENDBRANCH  15  22
ENDBRANCH  12  15
ENDBRANCH  10  11
ENDBRANCH   5  10
ENDBRANCH   3   5
ENDBRANCH   2   3
ENDBRANCH   1   2
BRANCH   1  26
ATOM     26  C   UNL     1       5.623  -1.179   5.056  1.00  0.00     0.275 C 
BRANCH  26  27
ATOM     27  O   UNL     1       6.692  -0.936   4.119  1.00  0.00    -0.458 OA
BRANCH  27  28
ATOM     28  C   UNL     1       6.425  -1.288   2.838  1.00  0.00     0.338 C 
ATOM     29  O   UNL     1       5.406  -1.820   2.425  1.00  0.00    -0.246 OA
BRANCH  28  30
ATOM     30  C   UNL     1       7.469  -0.779   1.927  1.00  0.00     0.060 A 
ATOM     31  C   UNL     1       7.042  -0.100   0.779  1.00  0.00     0.016 A 
ATOM     32  C   UNL     1       8.828  -1.011   2.140  1.00  0.00     0.016 A 
ATOM     33  C   UNL     1       7.963   0.346  -0.161  1.00  0.00     0.010 A 
ATOM     34  C   UNL     1       9.756  -0.577   1.184  1.00  0.00     0.010 A 
ATOM     35  C   UNL     1       9.325   0.091   0.024  1.00  0.00    -0.014 A 
BRANCH  35  36
ATOM     36  C   UNL     1      10.274   0.444  -1.057  1.00  0.00     0.031 A 
ATOM     37  C   UNL     1      10.751  -0.625  -1.998  1.00  0.00     0.074 A 
ATOM     38  C   UNL     1      10.655   1.721  -1.235  1.00  0.00     0.049 A 
ATOM     39  N   UNL     1      11.600  -0.535  -2.990  1.00  0.00    -0.248 NA
ATOM     40  C   UNL     1      10.193  -1.972  -1.799  1.00  0.00     0.031 C 
ATOM     41  C   UNL     1      10.202   2.859  -0.435  1.00  0.00     0.029 A 
ATOM     42  N   UNL     1      11.506   2.275  -2.158  1.00  0.00    -0.354 N 
ATOM     43  C   UNL     1      11.689  -1.813  -3.524  1.00  0.00     0.074 A 
ATOM     44  C   UNL     1      10.820  -2.664  -2.739  1.00  0.00     0.031 C 
ATOM     45  C   UNL     1      10.780   3.978  -0.904  1.00  0.00     0.029 A 
ATOM     46  C   UNL     1      11.672   3.629  -2.007  1.00  0.00     0.049 A 
ATOM     47  H   UNL     1      11.954   1.751  -2.861  1.00  0.00     0.167 HD
ATOM     48  C   UNL     1      12.430  -2.241  -4.574  1.00  0.00     0.031 A 
ATOM     49  C   UNL     1      12.472   4.486  -2.670  1.00  0.00     0.031 A 
ATOM     50  C   UNL     1      13.299  -1.398  -5.350  1.00  0.00     0.049 A 
ATOM     51  C   UNL     1      13.347   3.970  -3.779  1.00  0.00     0.074 A 
ATOM     52  C   UNL     1      14.098  -1.742  -6.427  1.00  0.00     0.029 A 
ATOM     53  N   UNL     1      13.483  -0.043  -5.130  1.00  0.00    -0.354 N 
ATOM     54  N   UNL     1      13.436   2.756  -4.264  1.00  0.00    -0.248 NA
ATOM     55  C   UNL     1      14.233   4.946  -4.429  1.00  0.00     0.031 C 
ATOM     56  C   UNL     1      14.801  -0.601  -6.830  1.00  0.00     0.029 A 
ATOM     57  C   UNL     1      14.400   0.462  -6.037  1.00  0.00     0.049 A 
ATOM     58  H   UNL     1      13.030   0.484  -4.433  1.00  0.00     0.167 HD
ATOM     59  C   UNL     1      14.370   2.825  -5.290  1.00  0.00     0.074 A 
ATOM     60  C   UNL     1      14.808   4.204  -5.366  1.00  0.00     0.031 C 
ATOM     61  C   UNL     1      14.826   1.836  -6.096  1.00  0.00     0.031 A 
BRANCH  48  62
ATOM     62  C   UNL     1      12.364  -3.703  -4.910  1.00  0.00    -0.014 A 
ATOM     63  C   UNL     1      11.237  -4.259  -5.536  1.00  0.00     0.009 A 
ATOM     64  C   UNL     1      13.457  -4.532  -4.614  1.00  0.00     0.009 A 
ATOM     65  C   UNL     1      11.196  -5.624  -5.829  1.00  0.00     0.001 A 
ATOM     66  C   UNL     1      13.422  -5.891  -4.930  1.00  0.00     0.001 A 
ATOM     67  C   UNL     1      12.289  -6.437  -5.529  1.00  0.00     0.000 A 
ENDBRANCH  48  62
BRANCH  49  68
ATOM     68  C   UNL     1      12.512   5.919  -2.279  1.00  0.00    -0.014 A 
ATOM     69  C   UNL     1      11.989   6.909  -3.124  1.00  0.00     0.009 A 
ATOM     70  C   UNL     1      13.092   6.304  -1.060  1.00  0.00     0.009 A 
ATOM     71  C   UNL     1      12.065   8.257  -2.765  1.00  0.00     0.001 A 
ATOM     72  C   UNL     1      13.143   7.650  -0.692  1.00  0.00     0.001 A 
ATOM     73  C   UNL     1      12.637   8.626  -1.548  1.00  0.00     0.000 A 
ENDBRANCH  49  68
BRANCH  61  74
ATOM     74  C   UNL     1      15.826   2.217  -7.150  1.00  0.00    -0.014 A 
ATOM     75  C   UNL     1      17.160   2.502  -6.818  1.00  0.00     0.009 A 
ATOM     76  C   UNL     1      15.435   2.257  -8.497  1.00  0.00     0.009 A 
ATOM     77  C   UNL     1      18.074   2.851  -7.814  1.00  0.00     0.001 A 
ATOM     78  C   UNL     1      16.357   2.580  -9.493  1.00  0.00     0.001 A 
ATOM     79  C   UNL     1      17.674   2.886  -9.150  1.00  0.00     0.000 A 
ENDBRANCH  61  74
ENDBRANCH  35  36
ENDBRANCH  28  30
ENDBRANCH  27  28
ENDBRANCH  26  27
ENDBRANCH   1  26
TORSDOF 17
