REMARK SMILES O=C(OCCOC(=O)c1cc(OC[C@@H]2Cc3cc(F)ccc3O2)cs1)c1ccc(-c2c3nc(c(-c4ccccc4)c4ccc([nH]4)c(-c4ccccc4)c4nc(c(-c5ccccc5)c5ccc2[nH]5)C=C4)C=C3)cc1
REMARK SMILES IDX 5 1 4 2 3 3 2 4 1 5 26 6 27 7 73 8 28 9 72 10 29 11 30 12
REMARK SMILES IDX 31 13 66 14 32 15 71 16 65 17 67 18 33 19 70 20 64 21 63 22
REMARK SMILES IDX 34 24 56 25 41 26 55 27 42 28 45 29 54 30 68 31 43 32 44 33
REMARK SMILES IDX 53 35 69 36 46 37 35 38 36 39 40 40 37 41 39 42 38 43 57 44
REMARK SMILES IDX 58 45 62 46 59 47 61 48 60 49 47 50 48 51 52 52 49 53 51 54
REMARK SMILES IDX 50 55 6 56 7 57 8 58 9 59 10 60 25 61 11 62 24 63 12 64
REMARK SMILES IDX 13 65 14 66 15 67 23 68 16 69 22 70 17 71 21 72 18 73 20 74
REMARK SMILES IDX 19 75
REMARK H PARENT 67 23 45 34
REMARK Flexibility Score: inf
ROOT
ATOM      1  C   UNL     1       3.831  -0.490  -1.942  1.00  0.00     0.275 C 
ENDROOT
BRANCH   1   2
ATOM      2  C   UNL     1       3.944  -1.226  -0.585  1.00  0.00     0.275 C 
BRANCH   2   3
ATOM      3  O   UNL     1       2.717  -1.252   0.173  1.00  0.00    -0.458 OA
BRANCH   3   4
ATOM      4  C   UNL     1       2.302  -0.475   1.208  1.00  0.00     0.338 C 
ATOM      5  O   UNL     1       1.388  -0.875   1.926  1.00  0.00    -0.246 OA
BRANCH   4   6
ATOM      6  C   UNL     1       2.804   0.915   1.432  1.00  0.00     0.060 A 
ATOM      7  C   UNL     1       2.069   1.789   2.254  1.00  0.00     0.016 A 
ATOM      8  C   UNL     1       3.906   1.445   0.798  1.00  0.00     0.016 A 
ATOM      9  C   UNL     1       2.389   3.162   2.340  1.00  0.00     0.010 A 
ATOM     10  C   UNL     1       4.177   2.796   0.849  1.00  0.00     0.010 A 
ATOM     11  C   UNL     1       3.457   3.689   1.609  1.00  0.00    -0.014 A 
BRANCH  11  12
ATOM     12  C   UNL     1       3.950   5.084   1.619  1.00  0.00     0.031 A 
ATOM     13  C   UNL     1       4.379   5.786   0.344  1.00  0.00     0.074 A 
ATOM     14  C   UNL     1       4.295   5.681   2.777  1.00  0.00     0.049 A 
ATOM     15  N   UNL     1       4.712   7.396   0.186  1.00  0.00    -0.248 NA
ATOM     16  C   UNL     1       4.481   4.966  -1.513  1.00  0.00     0.031 C 
ATOM     17  C   UNL     1       4.243   5.032   4.084  1.00  0.00     0.029 A 
ATOM     18  N   UNL     1       4.936   6.883   3.019  1.00  0.00    -0.354 N 
ATOM     19  C   UNL     1       4.983   7.848  -1.552  1.00  0.00     0.074 A 
ATOM     20  C   UNL     1       4.866   6.204  -2.561  1.00  0.00     0.031 C 
ATOM     21  C   UNL     1       4.924   5.775   4.964  1.00  0.00     0.029 A 
ATOM     22  C   UNL     1       5.450   6.964   4.293  1.00  0.00     0.049 A 
ATOM     23  H   UNL     1       5.015   7.602   2.352  1.00  0.00     0.167 HD
ATOM     24  C   UNL     1       5.239   9.080  -2.042  1.00  0.00     0.031 A 
ATOM     25  C   UNL     1       6.299   7.835   4.873  1.00  0.00     0.031 A 
ATOM     26  C   UNL     1       5.647  10.197  -1.229  1.00  0.00     0.049 A 
ATOM     27  C   UNL     1       6.740   9.096   4.181  1.00  0.00     0.074 A 
ATOM     28  C   UNL     1       5.875  11.502  -1.635  1.00  0.00     0.029 A 
ATOM     29  N   UNL     1       6.003  10.132   0.117  1.00  0.00    -0.354 N 
ATOM     30  N   UNL     1       6.527   9.501   2.954  1.00  0.00    -0.248 NA
ATOM     31  C   UNL     1       7.485  10.059   5.008  1.00  0.00     0.031 C 
ATOM     32  C   UNL     1       6.476  12.192  -0.581  1.00  0.00     0.029 A 
ATOM     33  C   UNL     1       6.522  11.356   0.524  1.00  0.00     0.049 A 
ATOM     34  H   UNL     1       5.902   9.339   0.692  1.00  0.00     0.167 HD
ATOM     35  C   UNL     1       7.040  10.794   2.885  1.00  0.00     0.074 A 
ATOM     36  C   UNL     1       7.586  11.098   4.191  1.00  0.00     0.031 C 
ATOM     37  C   UNL     1       7.037  11.660   1.842  1.00  0.00     0.031 A 
BRANCH  24  38
ATOM     38  C   UNL     1       4.997   9.277  -3.499  1.00  0.00    -0.014 A 
ATOM     39  C   UNL     1       6.018   9.670  -4.374  1.00  0.00     0.009 A 
ATOM     40  C   UNL     1       3.670   9.276  -3.962  1.00  0.00     0.009 A 
ATOM     41  C   UNL     1       5.714  10.051  -5.685  1.00  0.00     0.001 A 
ATOM     42  C   UNL     1       3.371   9.641  -5.274  1.00  0.00     0.001 A 
ATOM     43  C   UNL     1       4.393  10.032  -6.134  1.00  0.00     0.000 A 
ENDBRANCH  24  38
BRANCH  25  44
ATOM     44  C   UNL     1       6.733   7.546   6.269  1.00  0.00    -0.014 A 
ATOM     45  C   UNL     1       7.655   6.520   6.541  1.00  0.00     0.009 A 
ATOM     46  C   UNL     1       6.146   8.235   7.340  1.00  0.00     0.009 A 
ATOM     47  C   UNL     1       7.962   6.178   7.860  1.00  0.00     0.001 A 
ATOM     48  C   UNL     1       6.479   7.912   8.655  1.00  0.00     0.001 A 
ATOM     49  C   UNL     1       7.377   6.877   8.915  1.00  0.00     0.000 A 
ENDBRANCH  25  44
BRANCH  37  50
ATOM     50  C   UNL     1       7.574  13.057   2.066  1.00  0.00    -0.014 A 
ATOM     51  C   UNL     1       6.704  14.156   1.942  1.00  0.00     0.009 A 
ATOM     52  C   UNL     1       8.941  13.306   2.268  1.00  0.00     0.009 A 
ATOM     53  C   UNL     1       7.193  15.464   1.959  1.00  0.00     0.001 A 
ATOM     54  C   UNL     1       9.422  14.619   2.330  1.00  0.00     0.001 A 
ATOM     55  C   UNL     1       8.553  15.695   2.154  1.00  0.00     0.000 A 
ENDBRANCH  37  50
ENDBRANCH  11  12
ENDBRANCH   4   6
ENDBRANCH   3   4
ENDBRANCH   2   3
ENDBRANCH   1   2
BRANCH   1  56
ATOM     56  O   UNL     1       3.277   0.853  -1.903  1.00  0.00    -0.458 OA
BRANCH  56  57
ATOM     57  C   UNL     1       1.909   0.975  -2.003  1.00  0.00     0.348 C 
ATOM     58  O   UNL     1       1.167   0.023  -2.205  1.00  0.00    -0.245 OA
BRANCH  57  59
ATOM     59  C   UNL     1       1.500   2.346  -1.693  1.00  0.00     0.116 A 
ATOM     60  C   UNL     1       2.054   3.586  -2.021  1.00  0.00     0.074 A 
ATOM     61  S   UNL     1       0.104   2.589  -0.728  1.00  0.00    -0.133 S 
ATOM     62  C   UNL     1       1.718   4.595  -1.043  1.00  0.00     0.131 A 
ATOM     63  C   UNL     1       0.573   4.197  -0.379  1.00  0.00     0.112 A 
BRANCH  62  64
ATOM     64  O   UNL     1       2.318   5.734  -0.547  1.00  0.00    -0.489 OA
BRANCH  64  65
ATOM     65  C   UNL     1       3.569   6.572  -1.128  1.00  0.00     0.275 C 
BRANCH  65  66
ATOM     66  C   UNL     1       5.799   6.176  -0.830  1.00  0.00     0.215 C 
ATOM     67  C   UNL     1       6.808   4.802  -1.394  1.00  0.00     0.088 C 
ATOM     68  O   UNL     1       6.604   6.277   0.596  1.00  0.00    -0.486 OA
ATOM     69  C   UNL     1       7.168   4.128  -0.126  1.00  0.00     0.001 A 
ATOM     70  C   UNL     1       7.117   5.037   0.909  1.00  0.00     0.123 A 
ATOM     71  C   UNL     1       7.394   2.777   0.128  1.00  0.00     0.047 A 
ATOM     72  C   UNL     1       7.367   4.655   2.216  1.00  0.00     0.050 A 
ATOM     73  C   UNL     1       7.491   2.369   1.461  1.00  0.00     0.123 A 
ATOM     74  C   UNL     1       7.495   3.296   2.503  1.00  0.00     0.043 A 
ATOM     75  F   UNL     1       7.476   1.059   1.748  1.00  0.00    -0.207 F 
ENDBRANCH  65  66
ENDBRANCH  64  65
ENDBRANCH  62  64
ENDBRANCH  57  59
ENDBRANCH  56  57
ENDBRANCH   1  56
TORSDOF 14
