REMARK SMILES COC(=O)c1cscc1NS(=O)(=O)c1cc(C)c(C(=O)OCCOC(=O)c2ccc(-c3c4nc(c(-c5ccccc5)c5ccc([nH]5)c(-c5ccccc5)c5nc(c(-c6ccccc6)c6ccc3[nH]6)C=C5)C=C4)cc2)s1
REMARK SMILES IDX 21 1 19 2 20 3 18 4 14 5 15 6 75 7 16 8 17 9 11 10 12 11
REMARK SMILES IDX 13 12 10 13 9 15 5 16 6 17 7 18 8 19 3 20 4 21 2 22 1 23
REMARK SMILES IDX 22 24 23 25 24 26 25 27 26 28 27 29 28 30 74 31 29 32 73 33
REMARK SMILES IDX 30 34 31 35 32 36 67 37 33 38 72 39 66 40 68 41 34 42 71 43
REMARK SMILES IDX 65 44 64 45 35 47 57 48 42 49 56 50 43 51 46 52 55 53 69 54
REMARK SMILES IDX 44 55 45 56 54 58 70 59 47 60 36 61 37 62 41 63 38 64 40 65
REMARK SMILES IDX 39 66 58 67 59 68 63 69 60 70 62 71 61 72 48 73 49 74 53 75
REMARK SMILES IDX 50 76 52 77 51 78
REMARK H PARENT 10 14 68 46 46 57
REMARK Flexibility Score: inf
ROOT
ATOM      1  O   UNL     1       0.138  -5.150  10.230  1.00  0.00    -0.458 OA
ENDROOT
BRANCH   1   2
ATOM      2  C   UNL     1       0.124  -4.439   9.066  1.00  0.00     0.348 C 
ATOM      3  O   UNL     1      -0.681  -3.549   8.819  1.00  0.00    -0.245 OA
BRANCH   2   4
ATOM      4  C   UNL     1       1.180  -4.866   8.165  1.00  0.00     0.116 A 
ATOM      5  C   UNL     1       2.685  -4.777   6.201  1.00  0.00     0.141 A 
ATOM      6  C   UNL     1       2.555  -6.056   6.711  1.00  0.00     0.038 A 
ATOM      7  S   UNL     1       1.968  -3.651   7.248  1.00  0.00    -0.115 S 
ATOM      8  C   UNL     1       1.688  -6.123   7.864  1.00  0.00    -0.024 A 
ATOM      9  C   UNL     1       1.315  -7.392   8.556  1.00  0.00     0.046 C 
BRANCH   5  10
ATOM     10  S   UNL     1       3.462  -4.106   4.749  1.00  0.00     0.271 S 
ATOM     11  O   UNL     1       4.280  -5.198   4.260  1.00  0.00    -0.200 OA
ATOM     12  O   UNL     1       4.071  -2.855   5.150  1.00  0.00    -0.200 OA
BRANCH  10  13
ATOM     13  N   UNL     1       2.350  -3.758   3.517  1.00  0.00    -0.277 N 
ATOM     14  H   UNL     1       2.653  -3.918   2.594  1.00  0.00     0.180 HD
BRANCH  13  15
ATOM     15  C   UNL     1       1.034  -3.264   3.674  1.00  0.00     0.074 A 
ATOM     16  C   UNL     1       0.478  -2.238   2.811  1.00  0.00     0.094 A 
ATOM     17  C   UNL     1      -0.830  -1.941   3.158  1.00  0.00     0.082 A 
ATOM     18  S   UNL     1      -1.410  -2.895   4.444  1.00  0.00    -0.149 S 
ATOM     19  C   UNL     1       0.064  -3.751   4.524  1.00  0.00     0.092 A 
BRANCH  16  20
ATOM     20  C   UNL     1       1.175  -1.593   1.699  1.00  0.00     0.340 C 
ATOM     21  O   UNL     1       2.314  -1.905   1.371  1.00  0.00    -0.246 OA
BRANCH  20  22
ATOM     22  O   UNL     1       0.412  -0.654   1.068  1.00  0.00    -0.465 OA
ATOM     23  C   UNL     1       1.018  -0.017  -0.059  1.00  0.00     0.282 C 
ENDBRANCH  20  22
ENDBRANCH  16  20
ENDBRANCH  13  15
ENDBRANCH  10  13
ENDBRANCH   5  10
ENDBRANCH   2   4
ENDBRANCH   1   2
BRANCH   1  24
ATOM     24  C   UNL     1      -0.826  -4.727  11.216  1.00  0.00     0.275 C 
BRANCH  24  25
ATOM     25  C   UNL     1      -0.227  -3.734  12.215  1.00  0.00     0.275 C 
BRANCH  25  26
ATOM     26  O   UNL     1      -0.015  -2.438  11.623  1.00  0.00    -0.458 OA
BRANCH  26  27
ATOM     27  C   UNL     1       1.238  -2.216  11.165  1.00  0.00     0.338 C 
ATOM     28  O   UNL     1       2.184  -2.985  11.197  1.00  0.00    -0.246 OA
BRANCH  27  29
ATOM     29  C   UNL     1       1.312  -0.896  10.527  1.00  0.00     0.060 A 
ATOM     30  C   UNL     1       1.130  -0.812   9.148  1.00  0.00     0.016 A 
ATOM     31  C   UNL     1       1.708   0.224  11.252  1.00  0.00     0.016 A 
ATOM     32  C   UNL     1       1.437   0.356   8.464  1.00  0.00     0.010 A 
ATOM     33  C   UNL     1       1.928   1.428  10.575  1.00  0.00     0.010 A 
ATOM     34  C   UNL     1       1.824   1.495   9.172  1.00  0.00    -0.014 A 
BRANCH  34  35
ATOM     35  C   UNL     1       2.146   2.751   8.452  1.00  0.00     0.031 A 
ATOM     36  C   UNL     1       3.528   3.331   8.550  1.00  0.00     0.074 A 
ATOM     37  C   UNL     1       1.199   3.376   7.726  1.00  0.00     0.049 A 
ATOM     38  N   UNL     1       3.952   4.520   8.206  1.00  0.00    -0.248 NA
ATOM     39  C   UNL     1       4.567   2.463   9.127  1.00  0.00     0.031 C 
ATOM     40  C   UNL     1      -0.157   2.878   7.485  1.00  0.00     0.029 A 
ATOM     41  N   UNL     1       1.233   4.579   7.067  1.00  0.00    -0.354 N 
ATOM     42  C   UNL     1       5.291   4.561   8.573  1.00  0.00     0.074 A 
ATOM     43  C   UNL     1       5.608   3.281   9.170  1.00  0.00     0.031 C 
ATOM     44  C   UNL     1      -0.823   3.764   6.729  1.00  0.00     0.029 A 
ATOM     45  C   UNL     1       0.028   4.927   6.508  1.00  0.00     0.049 A 
ATOM     46  H   UNL     1       2.041   5.137   7.001  1.00  0.00     0.167 HD
ATOM     47  C   UNL     1       6.170   5.582   8.432  1.00  0.00     0.031 A 
ATOM     48  C   UNL     1      -0.369   6.077   5.932  1.00  0.00     0.031 A 
ATOM     49  C   UNL     1       5.846   6.840   7.813  1.00  0.00     0.049 A 
ATOM     50  C   UNL     1       0.602   7.219   5.849  1.00  0.00     0.074 A 
ATOM     51  C   UNL     1       6.661   7.941   7.617  1.00  0.00     0.029 A 
ATOM     52  N   UNL     1       4.606   7.157   7.279  1.00  0.00    -0.354 N 
ATOM     53  N   UNL     1       1.849   7.272   6.247  1.00  0.00    -0.248 NA
ATOM     54  C   UNL     1       0.106   8.464   5.245  1.00  0.00     0.031 C 
ATOM     55  C   UNL     1       5.899   8.942   7.004  1.00  0.00     0.029 A 
ATOM     56  C   UNL     1       4.629   8.442   6.766  1.00  0.00     0.049 A 
ATOM     57  H   UNL     1       3.826   6.557   7.266  1.00  0.00     0.167 HD
ATOM     58  C   UNL     1       2.299   8.543   5.917  1.00  0.00     0.074 A 
ATOM     59  C   UNL     1       1.191   9.225   5.278  1.00  0.00     0.031 C 
ATOM     60  C   UNL     1       3.519   9.095   6.121  1.00  0.00     0.031 A 
BRANCH  47  61
ATOM     61  C   UNL     1       7.549   5.397   9.003  1.00  0.00    -0.014 A 
ATOM     62  C   UNL     1       8.482   4.530   8.414  1.00  0.00     0.009 A 
ATOM     63  C   UNL     1       7.927   6.128  10.140  1.00  0.00     0.009 A 
ATOM     64  C   UNL     1       9.753   4.375   8.973  1.00  0.00     0.001 A 
ATOM     65  C   UNL     1       9.207   5.993  10.681  1.00  0.00     0.001 A 
ATOM     66  C   UNL     1      10.116   5.109  10.103  1.00  0.00     0.000 A 
ENDBRANCH  47  61
BRANCH  48  67
ATOM     67  C   UNL     1      -1.764   6.218   5.440  1.00  0.00    -0.014 A 
ATOM     68  C   UNL     1      -2.032   6.304   4.066  1.00  0.00     0.009 A 
ATOM     69  C   UNL     1      -2.839   6.257   6.344  1.00  0.00     0.009 A 
ATOM     70  C   UNL     1      -3.344   6.447   3.609  1.00  0.00     0.001 A 
ATOM     71  C   UNL     1      -4.152   6.367   5.883  1.00  0.00     0.001 A 
ATOM     72  C   UNL     1      -4.403   6.471   4.516  1.00  0.00     0.000 A 
ENDBRANCH  48  67
BRANCH  60  73
ATOM     73  C   UNL     1       3.740  10.482   5.591  1.00  0.00    -0.014 A 
ATOM     74  C   UNL     1       3.187  11.605   6.224  1.00  0.00     0.009 A 
ATOM     75  C   UNL     1       4.561  10.665   4.467  1.00  0.00     0.009 A 
ATOM     76  C   UNL     1       3.431  12.885   5.723  1.00  0.00     0.001 A 
ATOM     77  C   UNL     1       4.825  11.947   3.985  1.00  0.00     0.001 A 
ATOM     78  C   UNL     1       4.253  13.055   4.609  1.00  0.00     0.000 A 
ENDBRANCH  60  73
ENDBRANCH  34  35
ENDBRANCH  27  29
ENDBRANCH  26  27
ENDBRANCH  25  26
ENDBRANCH  24  25
ENDBRANCH   1  24
TORSDOF 16
