REMARK SMILES CCCn1c(N2CCC[C@@H](C)C2)c(/C=C2/SC(=S)N(CC(=O)OCCOC(=O)c3ccc(-c4c5nc(c(-c6ccccc6)c6ccc([nH]6)c(-c6ccccc6)c6nc(c(-c7ccccc7)c7ccc4[nH]7)C=C6)C=C5)cc3)C2=O)c(C)c(C#N)c1=O
REMARK SMILES IDX 24 1 23 2 21 3 22 4 20 5 19 6 14 7 15 8 16 9 77 10 17 11
REMARK SMILES IDX 78 12 18 13 13 14 4 15 5 16 84 17 81 18 85 19 79 20 80 21
REMARK SMILES IDX 3 22 2 23 1 24 6 25 7 26 12 27 8 28 10 29 9 30 11 31 82 32
REMARK SMILES IDX 83 33 25 34 26 35 27 36 28 37 29 38 30 39 76 40 31 41 75 42
REMARK SMILES IDX 32 43 33 44 34 45 69 46 35 47 74 48 68 49 70 50 36 51 73 52
REMARK SMILES IDX 67 53 66 54 37 56 59 57 44 58 58 59 45 60 48 61 57 62 71 63
REMARK SMILES IDX 46 64 47 65 56 67 72 68 49 69 38 70 39 71 43 72 40 73 42 74
REMARK SMILES IDX 41 75 60 76 61 77 65 78 62 79 64 80 63 81 50 82 51 83 55 84
REMARK SMILES IDX 52 85 54 86 53 87
REMARK H PARENT 70 55 48 66
REMARK Flexibility Score: inf
ROOT
ATOM      1  C   UNL     1      -4.411   0.793   7.408  1.00  0.00     0.274 C 
ENDROOT
BRANCH   1   2
ATOM      2  O   UNL     1      -4.335  -0.583   6.970  1.00  0.00    -0.461 OA
BRANCH   2   3
ATOM      3  C   UNL     1      -5.468  -1.072   6.399  1.00  0.00     0.326 C 
ATOM      4  O   UNL     1      -6.510  -0.436   6.261  1.00  0.00    -0.250 OA
BRANCH   3   5
ATOM      5  C   UNL     1      -5.357  -2.513   5.920  1.00  0.00     0.250 C 
BRANCH   5   6
ATOM      6  N   UNL     1      -4.067  -3.181   6.077  1.00  0.00    -0.282 N 
ATOM      7  C   UNL     1      -0.689  -3.759   4.853  1.00  0.00     0.033 C 
ATOM      8  C   UNL     1      -1.912  -3.862   5.399  1.00  0.00     0.081 C 
ATOM      9  S   UNL     1      -2.226  -4.830   6.793  1.00  0.00    -0.054 SA
ATOM     10  C   UNL     1      -3.144  -3.098   5.047  1.00  0.00     0.266 C 
ATOM     11  C   UNL     1      -3.734  -3.988   7.141  1.00  0.00     0.148 C 
ATOM     12  O   UNL     1      -3.339  -2.562   3.966  1.00  0.00    -0.268 OA
ATOM     13  S   UNL     1      -4.578  -4.215   8.560  1.00  0.00    -0.052 S 
BRANCH   7  14
ATOM     14  C   UNL     1      -0.235  -2.696   3.942  1.00  0.00     0.021 A 
ATOM     15  N   UNL     1       0.614  -1.913   1.842  1.00  0.00    -0.293 N 
ATOM     16  C   UNL     1       0.103  -2.964   2.639  1.00  0.00     0.119 A 
ATOM     17  C   UNL     1       0.808  -0.623   2.329  1.00  0.00     0.270 A 
ATOM     18  C   UNL     1       0.251  -0.321   3.652  1.00  0.00     0.121 A 
ATOM     19  O   UNL     1       1.454   0.247   1.747  1.00  0.00    -0.268 OA
ATOM     20  C   UNL     1      -0.093  -1.327   4.472  1.00  0.00    -0.017 A 
ATOM     21  C   UNL     1      -0.325  -1.106   5.957  1.00  0.00     0.047 C 
BRANCH  15  22
ATOM     22  C   UNL     1       1.064  -2.137   0.463  1.00  0.00     0.127 C 
BRANCH  22  23
ATOM     23  C   UNL     1       0.204  -1.466  -0.620  1.00  0.00     0.019 C 
ATOM     24  C   UNL     1       0.565  -0.018  -0.932  1.00  0.00     0.006 C 
ENDBRANCH  22  23
ENDBRANCH  15  22
BRANCH  16  25
ATOM     25  N   UNL     1      -0.001  -4.264   2.107  1.00  0.00    -0.357 N 
ATOM     26  C   UNL     1       1.185  -5.128   1.983  1.00  0.00     0.118 C 
ATOM     27  C   UNL     1      -1.280  -4.989   2.081  1.00  0.00     0.121 C 
ATOM     28  C   UNL     1       1.107  -5.965   0.704  1.00  0.00     0.022 C 
ATOM     29  C   UNL     1      -1.411  -5.786   0.779  1.00  0.00     0.005 C 
ATOM     30  C   UNL     1      -0.211  -6.727   0.601  1.00  0.00     0.007 C 
ATOM     31  C   UNL     1      -2.718  -6.578   0.770  1.00  0.00     0.009 C 
ENDBRANCH  16  25
BRANCH  18  32
ATOM     32  C   UNL     1       0.300   1.118   4.140  1.00  0.00     0.105 C 
ATOM     33  N   UNL     1       0.341   2.311   4.544  1.00  0.00    -0.192 NA
ENDBRANCH  18  32
ENDBRANCH   7  14
ENDBRANCH   5   6
ENDBRANCH   3   5
ENDBRANCH   2   3
ENDBRANCH   1   2
BRANCH   1  34
ATOM     34  C   UNL     1      -3.739   1.747   6.421  1.00  0.00     0.275 C 
BRANCH  34  35
ATOM     35  O   UNL     1      -4.301   1.605   5.103  1.00  0.00    -0.458 OA
BRANCH  35  36
ATOM     36  C   UNL     1      -3.551   0.841   4.280  1.00  0.00     0.338 C 
ATOM     37  O   UNL     1      -2.497   0.296   4.561  1.00  0.00    -0.246 OA
BRANCH  36  38
ATOM     38  C   UNL     1      -4.146   0.707   2.952  1.00  0.00     0.060 A 
ATOM     39  C   UNL     1      -5.324  -0.024   2.792  1.00  0.00     0.016 A 
ATOM     40  C   UNL     1      -3.426   1.165   1.846  1.00  0.00     0.016 A 
ATOM     41  C   UNL     1      -5.768  -0.331   1.510  1.00  0.00     0.010 A 
ATOM     42  C   UNL     1      -3.904   0.903   0.563  1.00  0.00     0.010 A 
ATOM     43  C   UNL     1      -5.068   0.138   0.387  1.00  0.00    -0.014 A 
BRANCH  43  44
ATOM     44  C   UNL     1      -5.566  -0.148  -0.976  1.00  0.00     0.031 A 
ATOM     45  C   UNL     1      -4.830  -1.095  -1.877  1.00  0.00     0.074 A 
ATOM     46  C   UNL     1      -6.686   0.463  -1.403  1.00  0.00     0.049 A 
ATOM     47  N   UNL     1      -5.053  -1.370  -3.137  1.00  0.00    -0.248 NA
ATOM     48  C   UNL     1      -3.699  -1.829  -1.290  1.00  0.00     0.031 C 
ATOM     49  C   UNL     1      -7.510   1.370  -0.602  1.00  0.00     0.029 A 
ATOM     50  N   UNL     1      -7.324   0.410  -2.615  1.00  0.00    -0.354 N 
ATOM     51  C   UNL     1      -4.079  -2.289  -3.500  1.00  0.00     0.074 A 
ATOM     52  C   UNL     1      -3.256  -2.521  -2.332  1.00  0.00     0.031 C 
ATOM     53  C   UNL     1      -8.558   1.771  -1.338  1.00  0.00     0.029 A 
ATOM     54  C   UNL     1      -8.446   1.197  -2.675  1.00  0.00     0.049 A 
ATOM     55  H   UNL     1      -7.008  -0.139  -3.369  1.00  0.00     0.167 HD
ATOM     56  C   UNL     1      -3.893  -2.885  -4.701  1.00  0.00     0.031 A 
ATOM     57  C   UNL     1      -9.280   1.452  -3.699  1.00  0.00     0.031 A 
ATOM     58  C   UNL     1      -4.722  -2.663  -5.856  1.00  0.00     0.049 A 
ATOM     59  C   UNL     1      -9.013   0.832  -5.037  1.00  0.00     0.074 A 
ATOM     60  C   UNL     1      -4.612  -3.227  -7.116  1.00  0.00     0.029 A 
ATOM     61  N   UNL     1      -5.816  -1.813  -5.891  1.00  0.00    -0.354 N 
ATOM     62  N   UNL     1      -8.064  -0.004  -5.380  1.00  0.00    -0.248 NA
ATOM     63  C   UNL     1      -9.921   1.200  -6.132  1.00  0.00     0.031 C 
ATOM     64  C   UNL     1      -5.623  -2.695  -7.922  1.00  0.00     0.029 A 
ATOM     65  C   UNL     1      -6.383  -1.828  -7.153  1.00  0.00     0.049 A 
ATOM     66  H   UNL     1      -6.142  -1.279  -5.130  1.00  0.00     0.167 HD
ATOM     67  C   UNL     1      -8.261  -0.266  -6.727  1.00  0.00     0.074 A 
ATOM     68  C   UNL     1      -9.427   0.489  -7.138  1.00  0.00     0.031 C 
ATOM     69  C   UNL     1      -7.537  -1.063  -7.548  1.00  0.00     0.031 A 
BRANCH  56  70
ATOM     70  C   UNL     1      -2.738  -3.831  -4.840  1.00  0.00    -0.014 A 
ATOM     71  C   UNL     1      -2.814  -5.141  -4.346  1.00  0.00     0.009 A 
ATOM     72  C   UNL     1      -1.592  -3.431  -5.545  1.00  0.00     0.009 A 
ATOM     73  C   UNL     1      -1.758  -6.032  -4.548  1.00  0.00     0.001 A 
ATOM     74  C   UNL     1      -0.545  -4.330  -5.759  1.00  0.00     0.001 A 
ATOM     75  C   UNL     1      -0.628  -5.628  -5.259  1.00  0.00     0.000 A 
ENDBRANCH  56  70
BRANCH  57  76
ATOM     76  C   UNL     1     -10.433   2.358  -3.484  1.00  0.00    -0.014 A 
ATOM     77  C   UNL     1     -11.724   1.833  -3.334  1.00  0.00     0.009 A 
ATOM     78  C   UNL     1     -10.238   3.743  -3.367  1.00  0.00     0.009 A 
ATOM     79  C   UNL     1     -12.801   2.681  -3.068  1.00  0.00     0.001 A 
ATOM     80  C   UNL     1     -11.314   4.585  -3.083  1.00  0.00     0.001 A 
ATOM     81  C   UNL     1     -12.594   4.054  -2.936  1.00  0.00     0.000 A 
ENDBRANCH  57  76
BRANCH  69  82
ATOM     82  C   UNL     1      -7.984  -1.173  -8.974  1.00  0.00    -0.014 A 
ATOM     83  C   UNL     1      -7.664  -0.173  -9.904  1.00  0.00     0.009 A 
ATOM     84  C   UNL     1      -8.659  -2.324  -9.408  1.00  0.00     0.009 A 
ATOM     85  C   UNL     1      -8.021  -0.322 -11.245  1.00  0.00     0.001 A 
ATOM     86  C   UNL     1      -8.999  -2.476 -10.752  1.00  0.00     0.001 A 
ATOM     87  C   UNL     1      -8.682  -1.474 -11.669  1.00  0.00     0.000 A 
ENDBRANCH  69  82
ENDBRANCH  43  44
ENDBRANCH  36  38
ENDBRANCH  35  36
ENDBRANCH  34  35
ENDBRANCH   1  34
TORSDOF 17
