REMARK SMILES Cc1ccc([C@@](C)(O)[C@H](F)C(=O)OCCOC(=O)c2ccc(-c3c4nc(c(-c5ccccc5)c5ccc([nH]5)c(-c5ccccc5)c5nc(c(-c6ccccc6)c6ccc3[nH]6)C=C5)C=C4)cc2)cc1F
REMARK SMILES IDX 14 1 13 2 11 3 12 4 9 5 10 6 6 7 7 8 5 9 1 10 2 11 3 12
REMARK SMILES IDX 68 13 4 14 67 15 69 16 8 17 15 19 16 20 17 21 18 22 19 23
REMARK SMILES IDX 20 24 66 25 21 26 65 27 22 28 23 29 24 30 59 31 25 32 64 33
REMARK SMILES IDX 58 34 60 35 26 36 63 37 57 38 56 39 27 41 49 42 34 43 48 44
REMARK SMILES IDX 35 45 38 46 47 47 61 48 36 49 37 50 46 52 62 53 39 54 28 55
REMARK SMILES IDX 29 56 33 57 30 58 32 59 31 60 50 61 51 62 55 63 52 64 54 65
REMARK SMILES IDX 53 66 40 67 41 68 45 69 42 70 44 71 43 72
REMARK H PARENT 8 18 60 40 38 51
REMARK Flexibility Score: inf
ROOT
ATOM      1  C   UNL     1      -3.603   1.541  -2.940  1.00  0.00     0.274 C 
ENDROOT
BRANCH   1   2
ATOM      2  O   UNL     1      -3.222   1.003  -1.661  1.00  0.00    -0.460 OA
BRANCH   2   3
ATOM      3  C   UNL     1      -4.232   0.585  -0.847  1.00  0.00     0.344 C 
ATOM      4  O   UNL     1      -5.424   0.719  -1.105  1.00  0.00    -0.249 OA
BRANCH   3   5
ATOM      5  C   UNL     1      -3.700  -0.222   0.328  1.00  0.00     0.311 C 
ATOM      6  F   UNL     1      -2.324  -0.249   0.352  1.00  0.00    -0.231 F 
BRANCH   5   7
ATOM      7  C   UNL     1      -4.177   0.255   1.721  1.00  0.00     0.129 C 
ATOM      8  C   UNL     1      -5.702   0.410   1.824  1.00  0.00     0.051 C 
BRANCH   7   9
ATOM      9  C   UNL     1      -3.715  -0.668   2.867  1.00  0.00    -0.010 A 
ATOM     10  C   UNL     1      -2.422  -3.146   6.190  1.00  0.00     0.047 C 
ATOM     11  C   UNL     1      -2.884  -2.306   5.040  1.00  0.00    -0.015 A 
ATOM     12  C   UNL     1      -2.948  -2.822   3.744  1.00  0.00     0.007 A 
ATOM     13  C   UNL     1      -3.248  -0.976   5.241  1.00  0.00     0.126 A 
ATOM     14  C   UNL     1      -3.361  -2.016   2.675  1.00  0.00     0.007 A 
ATOM     15  C   UNL     1      -3.660  -0.168   4.183  1.00  0.00     0.046 A 
ATOM     16  F   UNL     1      -3.201  -0.452   6.474  1.00  0.00    -0.207 F 
ENDBRANCH   7   9
BRANCH   7  17
ATOM     17  O   UNL     1      -3.599   1.553   1.958  1.00  0.00    -0.382 OA
ATOM     18  H   UNL     1      -3.881   1.879   2.827  1.00  0.00     0.212 HD
ENDBRANCH   7  17
ENDBRANCH   5   7
ENDBRANCH   3   5
ENDBRANCH   2   3
ENDBRANCH   1   2
BRANCH   1  19
ATOM     19  C   UNL     1      -3.543   0.473  -4.040  1.00  0.00     0.275 C 
BRANCH  19  20
ATOM     20  O   UNL     1      -4.668  -0.430  -3.994  1.00  0.00    -0.458 OA
BRANCH  20  21
ATOM     21  C   UNL     1      -4.509  -1.517  -3.203  1.00  0.00     0.338 C 
ATOM     22  O   UNL     1      -3.529  -1.808  -2.538  1.00  0.00    -0.246 OA
BRANCH  21  23
ATOM     23  C   UNL     1      -5.765  -2.284  -3.125  1.00  0.00     0.060 A 
ATOM     24  C   UNL     1      -6.236  -2.628  -1.853  1.00  0.00     0.016 A 
ATOM     25  C   UNL     1      -6.430  -2.729  -4.269  1.00  0.00     0.016 A 
ATOM     26  C   UNL     1      -7.363  -3.433  -1.719  1.00  0.00     0.010 A 
ATOM     27  C   UNL     1      -7.567  -3.534  -4.133  1.00  0.00     0.010 A 
ATOM     28  C   UNL     1      -8.031  -3.900  -2.857  1.00  0.00    -0.014 A 
BRANCH  28  29
ATOM     29  C   UNL     1      -9.195  -4.803  -2.699  1.00  0.00     0.031 A 
ATOM     30  C   UNL     1      -9.051  -6.271  -2.980  1.00  0.00     0.074 A 
ATOM     31  C   UNL     1     -10.368  -4.310  -2.261  1.00  0.00     0.049 A 
ATOM     32  N   UNL     1      -9.960  -7.212  -2.940  1.00  0.00    -0.248 NA
ATOM     33  C   UNL     1      -7.708  -6.743  -3.350  1.00  0.00     0.031 C 
ATOM     34  C   UNL     1     -10.617  -2.914  -1.899  1.00  0.00     0.029 A 
ATOM     35  N   UNL     1     -11.569  -4.934  -2.040  1.00  0.00    -0.354 N 
ATOM     36  C   UNL     1      -9.304  -8.385  -3.291  1.00  0.00     0.074 A 
ATOM     37  C   UNL     1      -7.925  -8.035  -3.558  1.00  0.00     0.031 C 
ATOM     38  C   UNL     1     -11.890  -2.791  -1.487  1.00  0.00     0.029 A 
ATOM     39  C   UNL     1     -12.556  -4.085  -1.602  1.00  0.00     0.049 A 
ATOM     40  H   UNL     1     -11.711  -5.899  -2.181  1.00  0.00     0.167 HD
ATOM     41  C   UNL     1      -9.806  -9.640  -3.381  1.00  0.00     0.031 A 
ATOM     42  C   UNL     1     -13.856  -4.320  -1.346  1.00  0.00     0.031 A 
ATOM     43  C   UNL     1     -11.178  -9.988  -3.123  1.00  0.00     0.049 A 
ATOM     44  C   UNL     1     -14.405  -5.705  -1.535  1.00  0.00     0.074 A 
ATOM     45  C   UNL     1     -11.782 -11.231  -3.199  1.00  0.00     0.029 A 
ATOM     46  N   UNL     1     -12.159  -9.088  -2.739  1.00  0.00    -0.354 N 
ATOM     47  N   UNL     1     -13.778  -6.802  -1.885  1.00  0.00    -0.248 NA
ATOM     48  C   UNL     1     -15.845  -5.883  -1.299  1.00  0.00     0.031 C 
ATOM     49  C   UNL     1     -13.140 -11.076  -2.899  1.00  0.00     0.029 A 
ATOM     50  C   UNL     1     -13.370  -9.744  -2.592  1.00  0.00     0.049 A 
ATOM     51  H   UNL     1     -12.017  -8.125  -2.592  1.00  0.00     0.167 HD
ATOM     52  C   UNL     1     -14.741  -7.802  -1.892  1.00  0.00     0.074 A 
ATOM     53  C   UNL     1     -15.991  -7.186  -1.496  1.00  0.00     0.031 C 
ATOM     54  C   UNL     1     -14.603  -9.115  -2.199  1.00  0.00     0.031 A 
BRANCH  41  55
ATOM     55  C   UNL     1      -8.864 -10.727  -3.813  1.00  0.00    -0.014 A 
ATOM     56  C   UNL     1      -7.890 -11.236  -2.940  1.00  0.00     0.009 A 
ATOM     57  C   UNL     1      -8.973 -11.270  -5.102  1.00  0.00     0.009 A 
ATOM     58  C   UNL     1      -7.025 -12.248  -3.360  1.00  0.00     0.001 A 
ATOM     59  C   UNL     1      -8.122 -12.298  -5.512  1.00  0.00     0.001 A 
ATOM     60  C   UNL     1      -7.144 -12.780  -4.644  1.00  0.00     0.000 A 
ENDBRANCH  41  55
BRANCH  42  61
ATOM     61  C   UNL     1     -14.741  -3.209  -0.911  1.00  0.00    -0.014 A 
ATOM     62  C   UNL     1     -15.240  -3.164   0.399  1.00  0.00     0.009 A 
ATOM     63  C   UNL     1     -15.102  -2.194  -1.811  1.00  0.00     0.009 A 
ATOM     64  C   UNL     1     -16.100  -2.136   0.792  1.00  0.00     0.001 A 
ATOM     65  C   UNL     1     -15.940  -1.154  -1.408  1.00  0.00     0.001 A 
ATOM     66  C   UNL     1     -16.446  -1.131  -0.109  1.00  0.00     0.000 A 
ENDBRANCH  42  61
BRANCH  54  67
ATOM     67  C   UNL     1     -15.829  -9.974  -2.089  1.00  0.00    -0.014 A 
ATOM     68  C   UNL     1     -16.847  -9.912  -3.052  1.00  0.00     0.009 A 
ATOM     69  C   UNL     1     -15.951 -10.877  -1.021  1.00  0.00     0.009 A 
ATOM     70  C   UNL     1     -17.981 -10.719  -2.930  1.00  0.00     0.001 A 
ATOM     71  C   UNL     1     -17.074 -11.698  -0.916  1.00  0.00     0.001 A 
ATOM     72  C   UNL     1     -18.091 -11.613  -1.865  1.00  0.00     0.000 A 
ENDBRANCH  54  67
ENDBRANCH  28  29
ENDBRANCH  21  23
ENDBRANCH  20  21
ENDBRANCH  19  20
ENDBRANCH   1  19
TORSDOF 14
