REMARK SMILES Cc1cc(S(=O)(=O)Nc2ccc(Cl)cc2F)ccc1OCC(=O)OCCOC(=O)c1ccc(-c2c3nc(c(-c4ccccc4)c4ccc([nH]4)c(-c4ccccc4)c4nc(c(-c5ccccc5)c5ccc2[nH]5)C=C4)C=C3)cc1
REMARK SMILES IDX 24 1 22 2 23 3 21 4 20 5 19 6 1 7 2 8 3 9 4 10 18 11 17 12
REMARK SMILES IDX 5 13 6 14 7 15 8 16 9 18 10 19 15 20 11 21 14 22 16 23 12 24
REMARK SMILES IDX 13 25 25 26 26 27 27 28 28 29 29 30 30 31 31 32 77 33 32 34
REMARK SMILES IDX 76 35 33 36 34 37 35 38 70 39 36 40 75 41 69 42 71 43 37 44
REMARK SMILES IDX 74 45 68 46 67 47 38 49 60 50 45 51 59 52 46 53 49 54 58 55
REMARK SMILES IDX 72 56 47 57 48 58 57 60 73 61 50 62 39 63 40 64 44 65 41 66
REMARK SMILES IDX 43 67 42 68 61 69 62 70 66 71 63 72 65 73 64 74 51 75 52 76
REMARK SMILES IDX 56 77 53 78 55 79 54 80
REMARK H PARENT 8 17 71 48 49 59
REMARK Flexibility Score: inf
ROOT
ATOM      1  O   UNL     1       1.040   1.613   2.286  1.00  0.00    -0.460 OA
ENDROOT
BRANCH   1   2
ATOM      2  C   UNL     1       1.123   2.902   1.870  1.00  0.00     0.344 C 
ATOM      3  O   UNL     1       1.250   3.862   2.622  1.00  0.00    -0.248 OA
BRANCH   2   4
ATOM      4  C   UNL     1       0.985   3.035   0.344  1.00  0.00     0.351 C 
BRANCH   4   5
ATOM      5  O   UNL     1       1.131   1.907  -0.510  1.00  0.00    -0.482 OA
BRANCH   5   6
ATOM      6  C   UNL     1       0.241   0.871  -0.393  1.00  0.00     0.123 A 
ATOM      7  C   UNL     1       1.811  -0.498  -1.888  1.00  0.00     0.048 C 
ATOM      8  C   UNL     1       0.568  -0.329  -1.055  1.00  0.00    -0.008 A 
ATOM      9  C   UNL     1      -0.254  -1.457  -0.877  1.00  0.00     0.029 A 
ATOM     10  C   UNL     1      -1.379  -1.389  -0.056  1.00  0.00     0.088 A 
ATOM     11  C   UNL     1      -0.915   0.932   0.393  1.00  0.00     0.048 A 
ATOM     12  C   UNL     1      -1.676  -0.209   0.623  1.00  0.00     0.026 A 
BRANCH  10  13
ATOM     13  S   UNL     1      -2.385  -2.822   0.211  1.00  0.00     0.262 S 
ATOM     14  O   UNL     1      -1.851  -3.919  -0.581  1.00  0.00    -0.201 OA
ATOM     15  O   UNL     1      -2.554  -2.964   1.638  1.00  0.00    -0.201 OA
BRANCH  13  16
ATOM     16  N   UNL     1      -3.950  -2.528  -0.409  1.00  0.00    -0.277 N 
ATOM     17  H   UNL     1      -4.485  -3.265  -0.784  1.00  0.00     0.180 HD
BRANCH  16  18
ATOM     18  C   UNL     1      -4.476  -1.192  -0.378  1.00  0.00     0.085 A 
ATOM     19  C   UNL     1      -5.290  -0.771   0.678  1.00  0.00     0.031 A 
ATOM     20  C   UNL     1      -4.122  -0.276  -1.378  1.00  0.00     0.148 A 
ATOM     21  C   UNL     1      -5.738   0.555   0.722  1.00  0.00     0.023 A 
ATOM     22  C   UNL     1      -4.548   1.047  -1.329  1.00  0.00     0.062 A 
ATOM     23  F   UNL     1      -3.324  -0.658  -2.385  1.00  0.00    -0.205 F 
ATOM     24  C   UNL     1      -5.357   1.458  -0.275  1.00  0.00     0.044 A 
ATOM     25  Cl  UNL     1      -5.877   3.095  -0.189  1.00  0.00    -0.084 Cl
ENDBRANCH  16  18
ENDBRANCH  13  16
ENDBRANCH  10  13
ENDBRANCH   5   6
ENDBRANCH   4   5
ENDBRANCH   2   4
ENDBRANCH   1   2
BRANCH   1  26
ATOM     26  C   UNL     1       1.205   1.391   3.683  1.00  0.00     0.274 C 
BRANCH  26  27
ATOM     27  C   UNL     1       1.153  -0.110   4.010  1.00  0.00     0.275 C 
BRANCH  27  28
ATOM     28  O   UNL     1       1.682  -1.125   3.094  1.00  0.00    -0.458 OA
BRANCH  28  29
ATOM     29  C   UNL     1       2.555  -1.048   2.065  1.00  0.00     0.338 C 
ATOM     30  O   UNL     1       2.606  -1.881   1.167  1.00  0.00    -0.246 OA
BRANCH  29  31
ATOM     31  C   UNL     1       3.509   0.055   2.095  1.00  0.00     0.060 A 
ATOM     32  C   UNL     1       3.782   0.808   0.938  1.00  0.00     0.016 A 
ATOM     33  C   UNL     1       4.057   0.381   3.324  1.00  0.00     0.016 A 
ATOM     34  C   UNL     1       4.533   1.971   1.022  1.00  0.00     0.010 A 
ATOM     35  C   UNL     1       4.676   1.590   3.436  1.00  0.00     0.010 A 
ATOM     36  C   UNL     1       4.963   2.349   2.283  1.00  0.00    -0.014 A 
BRANCH  36  37
ATOM     37  C   UNL     1       5.950   3.373   2.545  1.00  0.00     0.031 A 
ATOM     38  C   UNL     1       5.581   4.792   2.675  1.00  0.00     0.074 A 
ATOM     39  C   UNL     1       7.077   2.800   3.028  1.00  0.00     0.049 A 
ATOM     40  N   UNL     1       6.423   5.721   2.954  1.00  0.00    -0.248 NA
ATOM     41  C   UNL     1       4.225   5.311   2.497  1.00  0.00     0.031 C 
ATOM     42  C   UNL     1       8.066   3.310   3.956  1.00  0.00     0.029 A 
ATOM     43  N   UNL     1       7.555   1.509   2.783  1.00  0.00    -0.354 N 
ATOM     44  C   UNL     1       5.699   6.817   3.378  1.00  0.00     0.074 A 
ATOM     45  C   UNL     1       4.350   6.569   2.940  1.00  0.00     0.031 C 
ATOM     46  C   UNL     1       9.154   2.511   3.897  1.00  0.00     0.029 A 
ATOM     47  C   UNL     1       8.939   1.595   2.782  1.00  0.00     0.049 A 
ATOM     48  H   UNL     1       7.015   0.698   2.640  1.00  0.00     0.167 HD
ATOM     49  C   UNL     1       6.313   7.702   4.214  1.00  0.00     0.031 A 
ATOM     50  C   UNL     1       9.633   1.635   1.598  1.00  0.00     0.031 A 
ATOM     51  C   UNL     1       7.720   7.335   4.380  1.00  0.00     0.049 A 
ATOM     52  C   UNL     1      10.314   2.986   1.459  1.00  0.00     0.074 A 
ATOM     53  C   UNL     1       8.392   6.647   5.377  1.00  0.00     0.029 A 
ATOM     54  N   UNL     1       8.543   7.317   3.259  1.00  0.00    -0.354 N 
ATOM     55  N   UNL     1       9.791   4.120   1.853  1.00  0.00    -0.248 NA
ATOM     56  C   UNL     1      11.690   3.129   0.995  1.00  0.00     0.031 C 
ATOM     57  C   UNL     1       9.582   6.116   4.803  1.00  0.00     0.029 A 
ATOM     58  C   UNL     1       9.631   6.491   3.469  1.00  0.00     0.049 A 
ATOM     59  H   UNL     1       8.374   7.822   2.431  1.00  0.00     0.167 HD
ATOM     60  C   UNL     1      10.770   5.080   1.863  1.00  0.00     0.074 A 
ATOM     61  C   UNL     1      11.922   4.427   1.259  1.00  0.00     0.031 C 
ATOM     62  C   UNL     1      10.630   6.318   2.424  1.00  0.00     0.031 A 
BRANCH  49  63
ATOM     63  C   UNL     1       5.613   8.703   5.106  1.00  0.00    -0.014 A 
ATOM     64  C   UNL     1       6.293   9.195   6.240  1.00  0.00     0.009 A 
ATOM     65  C   UNL     1       4.299   9.168   4.933  1.00  0.00     0.009 A 
ATOM     66  C   UNL     1       5.687  10.053   7.168  1.00  0.00     0.001 A 
ATOM     67  C   UNL     1       3.682  10.022   5.864  1.00  0.00     0.001 A 
ATOM     68  C   UNL     1       4.374  10.459   6.986  1.00  0.00     0.000 A 
ENDBRANCH  49  63
BRANCH  50  69
ATOM     69  C   UNL     1       8.971   0.871   0.487  1.00  0.00    -0.014 A 
ATOM     70  C   UNL     1       8.805  -0.524   0.654  1.00  0.00     0.009 A 
ATOM     71  C   UNL     1       8.183   1.512  -0.481  1.00  0.00     0.009 A 
ATOM     72  C   UNL     1       7.783  -1.218  -0.006  1.00  0.00     0.001 A 
ATOM     73  C   UNL     1       7.175   0.805  -1.160  1.00  0.00     0.001 A 
ATOM     74  C   UNL     1       6.948  -0.545  -0.891  1.00  0.00     0.000 A 
ENDBRANCH  50  69
BRANCH  62  75
ATOM     75  C   UNL     1      11.492   7.509   2.090  1.00  0.00    -0.014 A 
ATOM     76  C   UNL     1      12.277   7.592   0.935  1.00  0.00     0.009 A 
ATOM     77  C   UNL     1      11.371   8.687   2.862  1.00  0.00     0.009 A 
ATOM     78  C   UNL     1      12.946   8.772   0.594  1.00  0.00     0.001 A 
ATOM     79  C   UNL     1      11.981   9.884   2.491  1.00  0.00     0.001 A 
ATOM     80  C   UNL     1      12.784   9.921   1.362  1.00  0.00     0.000 A 
ENDBRANCH  62  75
ENDBRANCH  36  37
ENDBRANCH  29  31
ENDBRANCH  28  29
ENDBRANCH  27  28
ENDBRANCH  26  27
ENDBRANCH   1  26
TORSDOF 16
