REMARK SMILES COc1ccc(-c2ccc(S(=O)(=O)NC(C)(C)C)cc2)c(C(=O)OCCOC(=O)c2ccc(-c3c4nc(c(-c5ccccc5)c5ccc([nH]5)c(-c5ccccc5)c5nc(c(-c6ccccc6)c6ccc3[nH]6)C=C5)C=C4)cc2)c1
REMARK SMILES IDX 25 1 24 2 22 3 23 4 21 5 3 6 4 7 78 8 5 9 6 10 2 11 1 12
REMARK SMILES IDX 7 13 8 14 20 15 9 16 19 17 10 18 11 19 12 20 13 21 14 22
REMARK SMILES IDX 15 24 16 25 17 26 18 27 26 28 27 29 28 30 29 31 30 32 31 33
REMARK SMILES IDX 77 34 32 35 76 36 33 37 34 38 35 39 70 40 36 41 75 42 69 43
REMARK SMILES IDX 71 44 37 45 74 46 68 47 67 48 38 50 60 51 45 52 59 53 46 54
REMARK SMILES IDX 49 55 58 56 72 57 47 58 48 59 57 61 73 62 50 63 39 64 40 65
REMARK SMILES IDX 44 66 41 67 43 68 42 69 61 70 62 71 66 72 63 73 65 74 64 75
REMARK SMILES IDX 51 76 52 77 56 78 53 79 55 80 54 81
REMARK H PARENT 14 23 71 49 49 60
REMARK Flexibility Score: inf
ROOT
ATOM      1  C   UNL     1       5.969  -3.113   0.325  1.00  0.00     0.275 C 
ENDROOT
BRANCH   1   2
ATOM      2  O   UNL     1       4.656  -2.810   0.843  1.00  0.00    -0.458 OA
BRANCH   2   3
ATOM      3  C   UNL     1       3.664  -3.663   0.478  1.00  0.00     0.339 C 
ATOM      4  O   UNL     1       3.774  -4.621  -0.268  1.00  0.00    -0.246 OA
BRANCH   3   5
ATOM      5  C   UNL     1       2.372  -3.229   1.064  1.00  0.00     0.071 A 
ATOM      6  C   UNL     1       0.754  -1.434   1.243  1.00  0.00     0.119 A 
ATOM      7  C   UNL     1      -0.111  -2.304   1.908  1.00  0.00     0.047 A 
ATOM      8  C   UNL     1       2.004  -1.891   0.841  1.00  0.00     0.062 A 
ATOM      9  C   UNL     1       0.258  -3.634   2.152  1.00  0.00     0.013 A 
ATOM     10  C   UNL     1       1.501  -4.124   1.731  1.00  0.00    -0.004 A 
BRANCH   6  11
ATOM     11  O   UNL     1       0.291  -0.161   1.053  1.00  0.00    -0.497 OA
ATOM     12  C   UNL     1       0.824   0.518  -0.082  1.00  0.00     0.278 C 
ENDBRANCH   6  11
BRANCH  10  13
ATOM     13  C   UNL     1       1.886  -5.498   2.070  1.00  0.00    -0.017 A 
ATOM     14  C   UNL     1       1.941  -6.783   0.848  1.00  0.00     0.010 A 
ATOM     15  C   UNL     1       2.647  -5.836   3.673  1.00  0.00     0.010 A 
ATOM     16  C   UNL     1       2.716  -8.373   1.121  1.00  0.00     0.022 A 
ATOM     17  C   UNL     1       3.577  -7.614   3.929  1.00  0.00     0.022 A 
ATOM     18  C   UNL     1       3.523  -8.818   2.622  1.00  0.00     0.082 A 
BRANCH  18  19
ATOM     19  S   UNL     1       3.992 -10.496   2.947  1.00  0.00     0.241 S 
ATOM     20  O   UNL     1       2.798 -11.287   3.110  1.00  0.00    -0.207 OA
ATOM     21  O   UNL     1       4.954 -10.816   1.913  1.00  0.00    -0.207 OA
BRANCH  19  22
ATOM     22  N   UNL     1       4.909 -10.526   4.369  1.00  0.00    -0.206 NA
ATOM     23  H   UNL     1       5.296  -9.585   4.437  1.00  0.00     0.141 HD
BRANCH  22  24
ATOM     24  C   UNL     1       4.490 -10.856   5.776  1.00  0.00     0.025 C 
ATOM     25  C   UNL     1       3.466 -11.981   5.909  1.00  0.00     0.028 C 
ATOM     26  C   UNL     1       5.782 -11.263   6.520  1.00  0.00     0.028 C 
ATOM     27  C   UNL     1       3.962  -9.638   6.519  1.00  0.00     0.028 C 
ENDBRANCH  22  24
ENDBRANCH  19  22
ENDBRANCH  18  19
ENDBRANCH  10  13
ENDBRANCH   3   5
ENDBRANCH   2   3
ENDBRANCH   1   2
BRANCH   1  28
ATOM     28  C   UNL     1       6.857  -3.724   1.406  1.00  0.00     0.275 C 
BRANCH  28  29
ATOM     29  O   UNL     1       6.251  -4.928   1.911  1.00  0.00    -0.458 OA
BRANCH  29  30
ATOM     30  C   UNL     1       5.622  -4.747   3.088  1.00  0.00     0.338 C 
ATOM     31  O   UNL     1       5.633  -3.741   3.783  1.00  0.00    -0.246 OA
BRANCH  30  32
ATOM     32  C   UNL     1       4.780  -5.882   3.469  1.00  0.00     0.060 A 
ATOM     33  C   UNL     1       3.666  -6.663   2.298  1.00  0.00     0.016 A 
ATOM     34  C   UNL     1       4.329  -5.899   5.167  1.00  0.00     0.016 A 
ATOM     35  C   UNL     1       1.937  -7.444   3.005  1.00  0.00     0.010 A 
ATOM     36  C   UNL     1       2.833  -6.651   5.774  1.00  0.00     0.010 A 
ATOM     37  C   UNL     1       1.596  -7.452   4.769  1.00  0.00    -0.014 A 
BRANCH  37  38
ATOM     38  C   UNL     1       0.594  -8.483   5.385  1.00  0.00     0.031 A 
ATOM     39  C   UNL     1       0.435  -8.587   6.901  1.00  0.00     0.074 A 
ATOM     40  C   UNL     1       0.012  -9.508   4.701  1.00  0.00     0.049 A 
ATOM     41  N   UNL     1       0.151  -9.627   7.656  1.00  0.00    -0.248 NA
ATOM     42  C   UNL     1       0.677  -7.365   7.672  1.00  0.00     0.031 C 
ATOM     43  C   UNL     1      -0.155  -9.667   3.263  1.00  0.00     0.029 A 
ATOM     44  N   UNL     1      -0.462 -10.731   5.174  1.00  0.00    -0.354 N 
ATOM     45  C   UNL     1       0.273  -9.188   8.972  1.00  0.00     0.074 A 
ATOM     46  C   UNL     1       0.821  -7.850   8.897  1.00  0.00     0.031 C 
ATOM     47  C   UNL     1      -0.415 -10.941   2.952  1.00  0.00     0.029 A 
ATOM     48  C   UNL     1      -0.590 -11.687   4.181  1.00  0.00     0.049 A 
ATOM     49  H   UNL     1      -0.683 -10.897   6.119  1.00  0.00     0.167 HD
ATOM     50  C   UNL     1      -0.134  -9.763  10.135  1.00  0.00     0.031 A 
ATOM     51  C   UNL     1      -0.862 -13.007   4.189  1.00  0.00     0.031 A 
ATOM     52  C   UNL     1      -0.868 -11.001  10.226  1.00  0.00     0.049 A 
ATOM     53  C   UNL     1      -1.315 -13.659   5.451  1.00  0.00     0.074 A 
ATOM     54  C   UNL     1      -1.512 -11.543  11.330  1.00  0.00     0.029 A 
ATOM     55  N   UNL     1      -1.097 -11.869   9.174  1.00  0.00    -0.354 N 
ATOM     56  N   UNL     1      -1.277 -13.194   6.672  1.00  0.00    -0.248 NA
ATOM     57  C   UNL     1      -1.970 -14.969   5.318  1.00  0.00     0.031 C 
ATOM     58  C   UNL     1      -2.108 -12.751  10.949  1.00  0.00     0.029 A 
ATOM     59  C   UNL     1      -1.871 -12.940   9.600  1.00  0.00     0.049 A 
ATOM     60  H   UNL     1      -0.761 -11.746   8.257  1.00  0.00     0.167 HD
ATOM     61  C   UNL     1      -1.997 -14.101   7.435  1.00  0.00     0.074 A 
ATOM     62  C   UNL     1      -2.420 -15.164   6.550  1.00  0.00     0.031 C 
ATOM     63  C   UNL     1      -2.317 -14.010   8.747  1.00  0.00     0.031 A 
BRANCH  50  64
ATOM     64  C   UNL     1       0.113  -8.997  11.417  1.00  0.00    -0.014 A 
ATOM     65  C   UNL     1      -0.476  -7.740  11.642  1.00  0.00     0.009 A 
ATOM     66  C   UNL     1       0.918  -9.547  12.427  1.00  0.00     0.009 A 
ATOM     67  C   UNL     1      -0.186  -7.010  12.796  1.00  0.00     0.001 A 
ATOM     68  C   UNL     1       1.162  -8.838  13.607  1.00  0.00     0.001 A 
ATOM     69  C   UNL     1       0.631  -7.560  13.779  1.00  0.00     0.000 A 
ENDBRANCH  50  64
BRANCH  51  70
ATOM     70  C   UNL     1      -0.858 -13.771   2.910  1.00  0.00    -0.014 A 
ATOM     71  C   UNL     1      -2.050 -13.997   2.204  1.00  0.00     0.009 A 
ATOM     72  C   UNL     1       0.348 -14.247   2.375  1.00  0.00     0.009 A 
ATOM     73  C   UNL     1      -2.040 -14.711   1.004  1.00  0.00     0.001 A 
ATOM     74  C   UNL     1       0.357 -14.952   1.167  1.00  0.00     0.001 A 
ATOM     75  C   UNL     1      -0.837 -15.189   0.487  1.00  0.00     0.000 A 
ENDBRANCH  51  70
BRANCH  63  76
ATOM     76  C   UNL     1      -3.260 -15.040   9.298  1.00  0.00    -0.014 A 
ATOM     77  C   UNL     1      -2.881 -16.379   9.473  1.00  0.00     0.009 A 
ATOM     78  C   UNL     1      -4.567 -14.654   9.638  1.00  0.00     0.009 A 
ATOM     79  C   UNL     1      -3.804 -17.318   9.940  1.00  0.00     0.001 A 
ATOM     80  C   UNL     1      -5.478 -15.588  10.133  1.00  0.00     0.001 A 
ATOM     81  C   UNL     1      -5.099 -16.921  10.273  1.00  0.00     0.000 A 
ENDBRANCH  63  76
ENDBRANCH  37  38
ENDBRANCH  30  32
ENDBRANCH  29  30
ENDBRANCH  28  29
ENDBRANCH   1  28
TORSDOF 16
