REMARK SMILES O=C(N[C@@H](C(=O)OCCOC(=O)c1ccc(-c2c3nc(c(-c4ccccc4)c4ccc([nH]4)c(-c4ccccc4)c4nc(c(-c5ccccc5)c5ccc2[nH]5)C=C4)C=C3)cc1)c1ccccc1)c1ccc(Br)nc1
REMARK SMILES IDX 8 1 7 2 5 3 6 4 4 5 3 6 1 7 2 8 67 10 68 11 73 12 69 13
REMARK SMILES IDX 72 14 70 15 71 16 61 17 62 18 66 19 63 20 65 21 64 22 9 23
REMARK SMILES IDX 10 24 11 25 12 26 13 27 14 28 60 29 15 30 59 31 16 32 17 33
REMARK SMILES IDX 18 34 53 35 19 36 58 37 52 38 54 39 20 40 57 41 51 42 50 43
REMARK SMILES IDX 21 45 43 46 28 47 42 48 29 49 32 50 41 51 55 52 30 53 31 54
REMARK SMILES IDX 40 56 56 57 33 58 22 59 23 60 27 61 24 62 26 63 25 64 44 65
REMARK SMILES IDX 45 66 49 67 46 68 48 69 47 70 34 71 35 72 39 73 36 74 38 75
REMARK SMILES IDX 37 76
REMARK H PARENT 3 9 54 44 32 55
REMARK Flexibility Score: inf
ROOT
ATOM      1  C   UNL     1       4.904   2.683   3.083  1.00  0.00     0.274 C 
ENDROOT
BRANCH   1   2
ATOM      2  O   UNL     1       4.366   1.638   2.246  1.00  0.00    -0.460 OA
BRANCH   2   3
ATOM      3  C   UNL     1       5.261   0.730   1.750  1.00  0.00     0.333 C 
ATOM      4  O   UNL     1       6.453   0.729   2.036  1.00  0.00    -0.249 OA
BRANCH   3   5
ATOM      5  C   UNL     1       4.613  -0.214   0.695  1.00  0.00     0.223 C 
BRANCH   5   6
ATOM      6  N   UNL     1       3.148  -0.084   0.674  1.00  0.00    -0.335 N 
ATOM      7  O   UNL     1       1.105   0.315  -0.196  1.00  0.00    -0.269 OA
ATOM      8  C   UNL     1       2.309   0.170  -0.377  1.00  0.00     0.253 C 
ATOM      9  H   UNL     1       2.705  -0.196   1.546  1.00  0.00     0.165 HD
BRANCH   8  10
ATOM     10  C   UNL     1       2.857   0.347  -1.728  1.00  0.00     0.058 A 
ATOM     11  C   UNL     1       2.617   1.544  -2.400  1.00  0.00     0.018 A 
ATOM     12  C   UNL     1       3.620  -0.625  -2.357  1.00  0.00     0.126 A 
ATOM     13  C   UNL     1       3.206   1.752  -3.645  1.00  0.00     0.037 A 
ATOM     14  N   UNL     1       4.216  -0.442  -3.559  1.00  0.00    -0.249 NA
ATOM     15  C   UNL     1       4.005   0.745  -4.173  1.00  0.00     0.106 A 
ATOM     16  Br  UNL     1       4.877   1.046  -5.829  1.00  0.00    -0.029 Br
ENDBRANCH   8  10
ENDBRANCH   5   6
BRANCH   5  17
ATOM     17  C   UNL     1       5.041  -1.683   0.806  1.00  0.00    -0.014 A 
ATOM     18  C   UNL     1       4.106  -2.737   0.860  1.00  0.00     0.006 A 
ATOM     19  C   UNL     1       6.405  -2.028   0.825  1.00  0.00     0.006 A 
ATOM     20  C   UNL     1       4.518  -4.071   0.949  1.00  0.00     0.000 A 
ATOM     21  C   UNL     1       6.816  -3.361   0.933  1.00  0.00     0.000 A 
ATOM     22  C   UNL     1       5.872  -4.382   0.991  1.00  0.00     0.000 A 
ENDBRANCH   5  17
ENDBRANCH   3   5
ENDBRANCH   2   3
ENDBRANCH   1   2
BRANCH   1  23
ATOM     23  C   UNL     1       4.461   2.526   4.538  1.00  0.00     0.275 C 
BRANCH  23  24
ATOM     24  O   UNL     1       4.980   1.307   5.102  1.00  0.00    -0.458 OA
BRANCH  24  25
ATOM     25  C   UNL     1       4.090   0.293   5.186  1.00  0.00     0.338 C 
ATOM     26  O   UNL     1       2.906   0.314   4.895  1.00  0.00    -0.246 OA
BRANCH  25  27
ATOM     27  C   UNL     1       4.802  -0.954   5.490  1.00  0.00     0.060 A 
ATOM     28  C   UNL     1       5.104  -1.770   4.406  1.00  0.00     0.016 A 
ATOM     29  C   UNL     1       5.061  -1.387   6.791  1.00  0.00     0.016 A 
ATOM     30  C   UNL     1       5.648  -3.030   4.604  1.00  0.00     0.010 A 
ATOM     31  C   UNL     1       5.632  -2.655   6.990  1.00  0.00     0.010 A 
ATOM     32  C   UNL     1       5.916  -3.492   5.896  1.00  0.00    -0.014 A 
BRANCH  32  33
ATOM     33  C   UNL     1       6.409  -4.886   6.047  1.00  0.00     0.031 A 
ATOM     34  C   UNL     1       5.494  -5.952   6.582  1.00  0.00     0.074 A 
ATOM     35  C   UNL     1       7.621  -5.233   5.571  1.00  0.00     0.049 A 
ATOM     36  N   UNL     1       5.738  -7.222   6.791  1.00  0.00    -0.248 NA
ATOM     37  C   UNL     1       4.120  -5.541   6.909  1.00  0.00     0.031 C 
ATOM     38  C   UNL     1       8.565  -4.324   4.919  1.00  0.00     0.029 A 
ATOM     39  N   UNL     1       8.246  -6.454   5.522  1.00  0.00    -0.354 N 
ATOM     40  C   UNL     1       4.562  -7.753   7.305  1.00  0.00     0.074 A 
ATOM     41  C   UNL     1       3.604  -6.670   7.374  1.00  0.00     0.031 C 
ATOM     42  C   UNL     1       9.626  -5.028   4.492  1.00  0.00     0.029 A 
ATOM     43  C   UNL     1       9.470  -6.422   4.899  1.00  0.00     0.049 A 
ATOM     44  H   UNL     1       7.854  -7.276   5.898  1.00  0.00     0.167 HD
ATOM     45  C   UNL     1       4.304  -9.025   7.693  1.00  0.00     0.031 A 
ATOM     46  C   UNL     1      10.377  -7.397   4.698  1.00  0.00     0.031 A 
ATOM     47  C   UNL     1       5.245 -10.110   7.617  1.00  0.00     0.049 A 
ATOM     48  C   UNL     1      10.101  -8.780   5.221  1.00  0.00     0.074 A 
ATOM     49  C   UNL     1       5.087 -11.421   8.033  1.00  0.00     0.029 A 
ATOM     50  N   UNL     1       6.518 -10.012   7.080  1.00  0.00    -0.354 N 
ATOM     51  N   UNL     1       9.015  -9.250   5.784  1.00  0.00    -0.248 NA
ATOM     52  C   UNL     1      11.190  -9.761   5.100  1.00  0.00     0.031 C 
ATOM     53  C   UNL     1       6.281 -12.107   7.785  1.00  0.00     0.029 A 
ATOM     54  C   UNL     1       7.165 -11.234   7.172  1.00  0.00     0.049 A 
ATOM     55  H   UNL     1       6.906  -9.195   6.690  1.00  0.00     0.167 HD
ATOM     56  C   UNL     1       9.289 -10.578   6.084  1.00  0.00     0.074 A 
ATOM     57  C   UNL     1      10.631 -10.849   5.611  1.00  0.00     0.031 C 
ATOM     58  C   UNL     1       8.503 -11.488   6.708  1.00  0.00     0.031 A 
BRANCH  45  59
ATOM     59  C   UNL     1       2.959  -9.292   8.303  1.00  0.00    -0.014 A 
ATOM     60  C   UNL     1       1.802  -9.393   7.517  1.00  0.00     0.009 A 
ATOM     61  C   UNL     1       2.858  -9.461   9.693  1.00  0.00     0.009 A 
ATOM     62  C   UNL     1       0.563  -9.629   8.117  1.00  0.00     0.001 A 
ATOM     63  C   UNL     1       1.622  -9.718  10.287  1.00  0.00     0.001 A 
ATOM     64  C   UNL     1       0.474  -9.793   9.500  1.00  0.00     0.000 A 
ENDBRANCH  45  59
BRANCH  46  65
ATOM     65  C   UNL     1      11.665  -7.095   4.020  1.00  0.00    -0.014 A 
ATOM     66  C   UNL     1      11.959  -7.644   2.763  1.00  0.00     0.009 A 
ATOM     67  C   UNL     1      12.620  -6.277   4.644  1.00  0.00     0.009 A 
ATOM     68  C   UNL     1      13.192  -7.394   2.154  1.00  0.00     0.001 A 
ATOM     69  C   UNL     1      13.838  -6.005   4.020  1.00  0.00     0.001 A 
ATOM     70  C   UNL     1      14.127  -6.571   2.780  1.00  0.00     0.000 A 
ENDBRANCH  46  65
BRANCH  58  71
ATOM     71  C   UNL     1       9.074 -12.862   6.909  1.00  0.00    -0.014 A 
ATOM     72  C   UNL     1      10.059 -13.100   7.882  1.00  0.00     0.009 A 
ATOM     73  C   UNL     1       8.603 -13.937   6.140  1.00  0.00     0.009 A 
ATOM     74  C   UNL     1      10.581 -14.382   8.058  1.00  0.00     0.001 A 
ATOM     75  C   UNL     1       9.110 -15.223   6.336  1.00  0.00     0.001 A 
ATOM     76  C   UNL     1      10.104 -15.443   7.288  1.00  0.00     0.000 A 
ENDBRANCH  58  71
ENDBRANCH  32  33
ENDBRANCH  25  27
ENDBRANCH  24  25
ENDBRANCH  23  24
ENDBRANCH   1  23
TORSDOF 14
