REMARK SMILES CC(=O)O[C@H]1C[C@@H](C(=O)OCCOC(=O)c2ccc(-c3c4nc(c(-c5ccccc5)c5ccc([nH]5)c(-c5ccccc5)c5nc(c(-c6ccccc6)c6ccc3[nH]6)C=C5)C=C4)cc2)N(S(=O)(=O)c2ccc(F)cc2)C1
REMARK SMILES IDX 11 1 10 2 8 3 9 4 7 5 5 6 6 7 75 8 64 9 4 10 2 11 1 12 3 13
REMARK SMILES IDX 65 14 66 15 67 16 68 17 69 18 74 19 70 20 73 21 71 22 72 23
REMARK SMILES IDX 12 24 13 25 14 26 15 27 16 28 17 29 63 30 18 31 62 32 19 33
REMARK SMILES IDX 20 34 21 35 56 36 22 37 61 38 55 39 57 40 23 41 60 42 54 43
REMARK SMILES IDX 53 44 24 46 46 47 31 48 45 49 32 50 35 51 44 52 58 53 33 54
REMARK SMILES IDX 34 55 43 57 59 58 36 59 25 60 26 61 30 62 27 63 29 64 28 65
REMARK SMILES IDX 47 66 48 67 52 68 49 69 51 70 50 71 37 72 38 73 42 74 39 75
REMARK SMILES IDX 41 76 40 77
REMARK H PARENT 57 45 35 56
REMARK Flexibility Score: inf
ROOT
ATOM      1  C   UNL     1      -5.269   1.808   2.757  1.00  0.00     0.274 C 
ENDROOT
BRANCH   1   2
ATOM      2  O   UNL     1      -3.987   2.217   3.302  1.00  0.00    -0.461 OA
BRANCH   2   3
ATOM      3  C   UNL     1      -2.951   2.052   2.449  1.00  0.00     0.324 C 
ATOM      4  O   UNL     1      -3.069   1.489   1.356  1.00  0.00    -0.250 OA
BRANCH   3   5
ATOM      5  C   UNL     1      -1.606   2.557   2.873  1.00  0.00     0.187 C 
ATOM      6  C   UNL     1       0.601   2.028   3.550  1.00  0.00     0.194 C 
ATOM      7  C   UNL     1      -0.826   1.497   3.642  1.00  0.00     0.079 C 
ATOM      8  C   UNL     1       0.446   3.559   3.442  1.00  0.00     0.148 C 
ATOM      9  N   UNL     1      -1.042   3.851   3.380  1.00  0.00    -0.180 NA
BRANCH   6  10
ATOM     10  O   UNL     1       1.323   1.629   4.725  1.00  0.00    -0.461 OA
BRANCH  10  11
ATOM     11  C   UNL     1       2.677   1.618   4.789  1.00  0.00     0.302 C 
ATOM     12  C   UNL     1       3.432   1.926   3.528  1.00  0.00     0.139 C 
ATOM     13  O   UNL     1       3.258   1.339   5.832  1.00  0.00    -0.253 OA
ENDBRANCH  10  11
ENDBRANCH   6  10
BRANCH   9  14
ATOM     14  S   UNL     1      -1.620   4.559   4.832  1.00  0.00     0.243 S 
ATOM     15  O   UNL     1      -2.137   3.486   5.665  1.00  0.00    -0.207 OA
ATOM     16  O   UNL     1      -0.585   5.437   5.323  1.00  0.00    -0.207 OA
BRANCH  14  17
ATOM     17  C   UNL     1      -2.954   5.655   4.424  1.00  0.00     0.082 A 
ATOM     18  C   UNL     1      -2.711   6.763   3.592  1.00  0.00     0.025 A 
ATOM     19  C   UNL     1      -4.226   5.442   4.974  1.00  0.00     0.025 A 
ATOM     20  C   UNL     1      -3.769   7.612   3.253  1.00  0.00     0.040 A 
ATOM     21  C   UNL     1      -5.276   6.295   4.628  1.00  0.00     0.040 A 
ATOM     22  C   UNL     1      -5.042   7.360   3.761  1.00  0.00     0.123 A 
ATOM     23  F   UNL     1      -6.063   8.148   3.398  1.00  0.00    -0.207 F 
ENDBRANCH  14  17
ENDBRANCH   9  14
ENDBRANCH   3   5
ENDBRANCH   2   3
ENDBRANCH   1   2
BRANCH   1  24
ATOM     24  C   UNL     1      -6.072   2.943   2.079  1.00  0.00     0.275 C 
BRANCH  24  25
ATOM     25  O   UNL     1      -5.481   3.516   0.885  1.00  0.00    -0.458 OA
BRANCH  25  26
ATOM     26  C   UNL     1      -4.489   4.372   1.173  1.00  0.00     0.338 C 
ATOM     27  O   UNL     1      -4.018   4.548   2.288  1.00  0.00    -0.246 OA
BRANCH  26  28
ATOM     28  C   UNL     1      -3.870   5.112   0.090  1.00  0.00     0.060 A 
ATOM     29  C   UNL     1      -2.524   4.832  -0.177  1.00  0.00     0.016 A 
ATOM     30  C   UNL     1      -4.468   6.284  -0.373  1.00  0.00     0.016 A 
ATOM     31  C   UNL     1      -1.774   5.714  -0.942  1.00  0.00     0.010 A 
ATOM     32  C   UNL     1      -3.722   7.155  -1.166  1.00  0.00     0.010 A 
ATOM     33  C   UNL     1      -2.379   6.866  -1.463  1.00  0.00    -0.014 A 
BRANCH  33  34
ATOM     34  C   UNL     1      -1.672   7.633  -2.505  1.00  0.00     0.031 A 
ATOM     35  C   UNL     1      -0.991   8.933  -2.232  1.00  0.00     0.074 A 
ATOM     36  C   UNL     1      -1.694   7.106  -3.742  1.00  0.00     0.049 A 
ATOM     37  N   UNL     1      -0.383   9.725  -3.078  1.00  0.00    -0.248 NA
ATOM     38  C   UNL     1      -0.983   9.408  -0.842  1.00  0.00     0.031 C 
ATOM     39  C   UNL     1      -2.329   5.831  -4.097  1.00  0.00     0.029 A 
ATOM     40  N   UNL     1      -1.194   7.574  -4.924  1.00  0.00    -0.354 N 
ATOM     41  C   UNL     1       0.081  10.796  -2.329  1.00  0.00     0.074 A 
ATOM     42  C   UNL     1      -0.328  10.559  -0.959  1.00  0.00     0.031 C 
ATOM     43  C   UNL     1      -2.195   5.629  -5.413  1.00  0.00     0.029 A 
ATOM     44  C   UNL     1      -1.503   6.772  -5.992  1.00  0.00     0.049 A 
ATOM     45  H   UNL     1      -0.665   8.401  -5.000  1.00  0.00     0.167 HD
ATOM     46  C   UNL     1       0.780  11.875  -2.757  1.00  0.00     0.031 A 
ATOM     47  C   UNL     1      -1.287   6.952  -7.305  1.00  0.00     0.031 A 
ATOM     48  C   UNL     1       1.153  12.108  -4.131  1.00  0.00     0.049 A 
ATOM     49  C   UNL     1      -0.567   8.180  -7.756  1.00  0.00     0.074 A 
ATOM     50  C   UNL     1       1.887  13.155  -4.663  1.00  0.00     0.029 A 
ATOM     51  N   UNL     1       0.804  11.287  -5.194  1.00  0.00    -0.354 N 
ATOM     52  N   UNL     1      -0.106   9.171  -7.033  1.00  0.00    -0.248 NA
ATOM     53  C   UNL     1      -0.330   8.311  -9.197  1.00  0.00     0.031 C 
ATOM     54  C   UNL     1       1.944  12.989  -6.052  1.00  0.00     0.029 A 
ATOM     55  C   UNL     1       1.282  11.817  -6.381  1.00  0.00     0.049 A 
ATOM     56  H   UNL     1       0.292  10.449  -5.115  1.00  0.00     0.167 HD
ATOM     57  C   UNL     1       0.484  10.046  -7.930  1.00  0.00     0.074 A 
ATOM     58  C   UNL     1       0.335   9.457  -9.248  1.00  0.00     0.031 C 
ATOM     59  C   UNL     1       1.096  11.229  -7.683  1.00  0.00     0.031 A 
BRANCH  46  60
ATOM     60  C   UNL     1       1.163  12.906  -1.733  1.00  0.00    -0.014 A 
ATOM     61  C   UNL     1       2.208  12.674  -0.825  1.00  0.00     0.009 A 
ATOM     62  C   UNL     1       0.506  14.146  -1.711  1.00  0.00     0.009 A 
ATOM     63  C   UNL     1       2.571  13.656   0.101  1.00  0.00     0.001 A 
ATOM     64  C   UNL     1       0.883  15.132  -0.796  1.00  0.00     0.001 A 
ATOM     65  C   UNL     1       1.910  14.885   0.113  1.00  0.00     0.000 A 
ENDBRANCH  46  60
BRANCH  47  66
ATOM     66  C   UNL     1      -1.796   5.937  -8.255  1.00  0.00    -0.014 A 
ATOM     67  C   UNL     1      -0.929   4.994  -8.821  1.00  0.00     0.009 A 
ATOM     68  C   UNL     1      -3.174   5.849  -8.516  1.00  0.00     0.009 A 
ATOM     69  C   UNL     1      -1.435   3.977  -9.633  1.00  0.00     0.001 A 
ATOM     70  C   UNL     1      -3.677   4.820  -9.312  1.00  0.00     0.001 A 
ATOM     71  C   UNL     1      -2.806   3.886  -9.871  1.00  0.00     0.000 A 
ENDBRANCH  47  66
BRANCH  59  72
ATOM     72  C   UNL     1       1.645  11.952  -8.876  1.00  0.00    -0.014 A 
ATOM     73  C   UNL     1       0.795  12.645  -9.752  1.00  0.00     0.009 A 
ATOM     74  C   UNL     1       3.025  11.935  -9.129  1.00  0.00     0.009 A 
ATOM     75  C   UNL     1       1.315  13.280 -10.880  1.00  0.00     0.001 A 
ATOM     76  C   UNL     1       3.543  12.588 -10.248  1.00  0.00     0.001 A 
ATOM     77  C   UNL     1       2.687  13.252 -11.126  1.00  0.00     0.000 A 
ENDBRANCH  59  72
ENDBRANCH  33  34
ENDBRANCH  26  28
ENDBRANCH  25  26
ENDBRANCH  24  25
ENDBRANCH   1  24
TORSDOF 15
