REMARK SMILES Nc1cc(C(=O)OCCOC(=O)c2ccc(-c3c4nc(c(-c5ccccc5)c5ccc([nH]5)c(-c5ccccc5)c5nc(c(-c6ccccc6)c6ccc3[nH]6)C=C5)C=C4)cc2)ccc1N1CC2(CCOCC2)C1
REMARK SMILES IDX 9 1 8 2 7 3 5 4 6 5 4 6 2 7 3 8 63 9 62 10 61 11 1 12 64 15
REMARK SMILES IDX 65 16 72 17 66 18 67 19 71 20 68 21 70 22 69 23 10 24 11 25
REMARK SMILES IDX 12 26 13 27 14 28 60 29 15 30 59 31 16 32 17 33 18 34 53 35
REMARK SMILES IDX 19 36 58 37 52 38 54 39 20 40 57 41 51 42 50 43 21 45 43 46
REMARK SMILES IDX 28 47 42 48 29 49 32 50 41 51 55 52 30 53 31 54 40 56 56 57
REMARK SMILES IDX 33 58 22 59 23 60 27 61 24 62 26 63 25 64 44 65 45 66 49 67
REMARK SMILES IDX 46 68 48 69 47 70 34 71 35 72 39 73 36 74 38 75 37 76
REMARK H PARENT 1 13 1 14 54 44 32 55
REMARK Flexibility Score: inf
ROOT
ATOM      1  C   UNL     1      -3.503  -4.261  -1.086  1.00  0.00     0.275 C 
ENDROOT
BRANCH   1   2
ATOM      2  C   UNL     1      -3.897  -3.339   0.069  1.00  0.00     0.275 C 
BRANCH   2   3
ATOM      3  O   UNL     1      -3.214  -2.071  -0.030  1.00  0.00    -0.458 OA
BRANCH   3   4
ATOM      4  C   UNL     1      -2.117  -1.941   0.754  1.00  0.00     0.338 C 
ATOM      5  O   UNL     1      -1.685  -2.766   1.545  1.00  0.00    -0.246 OA
BRANCH   4   6
ATOM      6  C   UNL     1      -1.394  -0.689   0.438  1.00  0.00     0.062 A 
ATOM      7  C   UNL     1       0.785   0.386   0.124  1.00  0.00     0.056 A 
ATOM      8  C   UNL     1       0.004  -0.726   0.455  1.00  0.00     0.043 A 
ATOM      9  C   UNL     1       0.138   1.622  -0.071  1.00  0.00     0.060 A 
ATOM     10  C   UNL     1      -1.274   1.660  -0.045  1.00  0.00     0.029 A 
ATOM     11  C   UNL     1      -2.042   0.510   0.173  1.00  0.00     0.018 A 
BRANCH   7  12
ATOM     12  N   UNL     1       2.166   0.227   0.201  1.00  0.00    -0.397 N 
ATOM     13  H   UNL     1       2.552  -0.669   0.339  1.00  0.00     0.156 HD
ATOM     14  H   UNL     1       2.757   1.010   0.117  1.00  0.00     0.156 HD
ENDBRANCH   7  12
BRANCH   9  15
ATOM     15  N   UNL     1       0.803   2.856  -0.244  1.00  0.00    -0.369 N 
ATOM     16  C   UNL     1       1.964   3.226  -0.984  1.00  0.00     0.125 C 
ATOM     17  C   UNL     1       1.027   3.810   0.806  1.00  0.00     0.125 C 
ATOM     18  C   UNL     1       2.445   4.037   0.244  1.00  0.00     0.010 C 
ATOM     19  C   UNL     1       2.811   5.493  -0.052  1.00  0.00     0.039 C 
ATOM     20  C   UNL     1       3.545   3.404   1.111  1.00  0.00     0.039 C 
ATOM     21  C   UNL     1       4.190   5.527  -0.704  1.00  0.00     0.161 C 
ATOM     22  C   UNL     1       4.882   3.544   0.396  1.00  0.00     0.161 C 
ATOM     23  O   UNL     1       5.165   4.923   0.150  1.00  0.00    -0.381 OA
ENDBRANCH   9  15
ENDBRANCH   4   6
ENDBRANCH   3   4
ENDBRANCH   2   3
ENDBRANCH   1   2
BRANCH   1  24
ATOM     24  O   UNL     1      -2.107  -4.596  -0.990  1.00  0.00    -0.458 OA
BRANCH  24  25
ATOM     25  C   UNL     1      -1.372  -4.399  -2.109  1.00  0.00     0.338 C 
ATOM     26  O   UNL     1      -1.767  -4.025  -3.200  1.00  0.00    -0.246 OA
BRANCH  25  27
ATOM     27  C   UNL     1       0.047  -4.698  -1.839  1.00  0.00     0.060 A 
ATOM     28  C   UNL     1       0.699  -4.075  -0.780  1.00  0.00     0.016 A 
ATOM     29  C   UNL     1       0.771  -5.497  -2.722  1.00  0.00     0.016 A 
ATOM     30  C   UNL     1       2.087  -4.144  -0.668  1.00  0.00     0.010 A 
ATOM     31  C   UNL     1       2.149  -5.664  -2.536  1.00  0.00     0.010 A 
ATOM     32  C   UNL     1       2.838  -4.951  -1.537  1.00  0.00    -0.014 A 
BRANCH  32  33
ATOM     33  C   UNL     1       4.329  -5.021  -1.433  1.00  0.00     0.031 A 
ATOM     34  C   UNL     1       5.194  -4.717  -2.636  1.00  0.00     0.074 A 
ATOM     35  C   UNL     1       4.930  -5.348  -0.270  1.00  0.00     0.049 A 
ATOM     36  N   UNL     1       6.480  -4.906  -2.800  1.00  0.00    -0.248 NA
ATOM     37  C   UNL     1       4.523  -4.140  -3.812  1.00  0.00     0.031 C 
ATOM     38  C   UNL     1       4.248  -5.626   0.996  1.00  0.00     0.029 A 
ATOM     39  N   UNL     1       6.263  -5.492   0.039  1.00  0.00    -0.354 N 
ATOM     40  C   UNL     1       6.755  -4.543  -4.114  1.00  0.00     0.074 A 
ATOM     41  C   UNL     1       5.504  -4.116  -4.703  1.00  0.00     0.031 C 
ATOM     42  C   UNL     1       5.163  -5.853   1.951  1.00  0.00     0.029 A 
ATOM     43  C   UNL     1       6.491  -5.838   1.350  1.00  0.00     0.049 A 
ATOM     44  H   UNL     1       6.985  -5.361  -0.617  1.00  0.00     0.167 HD
ATOM     45  C   UNL     1       7.938  -4.567  -4.775  1.00  0.00     0.031 A 
ATOM     46  C   UNL     1       7.630  -6.156   1.996  1.00  0.00     0.031 A 
ATOM     47  C   UNL     1       9.198  -4.930  -4.182  1.00  0.00     0.049 A 
ATOM     48  C   UNL     1       8.924  -6.198   1.237  1.00  0.00     0.074 A 
ATOM     49  C   UNL     1      10.451  -4.961  -4.772  1.00  0.00     0.029 A 
ATOM     50  N   UNL     1       9.370  -5.305  -2.860  1.00  0.00    -0.354 N 
ATOM     51  N   UNL     1       9.154  -5.911  -0.021  1.00  0.00    -0.248 NA
ATOM     52  C   UNL     1      10.114  -6.631   1.985  1.00  0.00     0.031 C 
ATOM     53  C   UNL     1      11.377  -5.388  -3.815  1.00  0.00     0.029 A 
ATOM     54  C   UNL     1      10.706  -5.579  -2.618  1.00  0.00     0.049 A 
ATOM     55  H   UNL     1       8.650  -5.367  -2.192  1.00  0.00     0.167 HD
ATOM     56  C   UNL     1      10.513  -6.120  -0.212  1.00  0.00     0.074 A 
ATOM     57  C   UNL     1      11.061  -6.533   1.062  1.00  0.00     0.031 C 
ATOM     58  C   UNL     1      11.240  -5.988  -1.347  1.00  0.00     0.031 A 
BRANCH  45  59
ATOM     59  C   UNL     1       7.928  -4.225  -6.240  1.00  0.00    -0.014 A 
ATOM     60  C   UNL     1       7.783  -2.904  -6.689  1.00  0.00     0.009 A 
ATOM     61  C   UNL     1       8.126  -5.246  -7.185  1.00  0.00     0.009 A 
ATOM     62  C   UNL     1       7.808  -2.617  -8.056  1.00  0.00     0.001 A 
ATOM     63  C   UNL     1       8.176  -4.953  -8.548  1.00  0.00     0.001 A 
ATOM     64  C   UNL     1       8.010  -3.640  -8.983  1.00  0.00     0.000 A 
ENDBRANCH  45  59
BRANCH  46  65
ATOM     65  C   UNL     1       7.590  -6.520   3.437  1.00  0.00    -0.014 A 
ATOM     66  C   UNL     1       8.159  -5.675   4.402  1.00  0.00     0.009 A 
ATOM     67  C   UNL     1       6.990  -7.719   3.853  1.00  0.00     0.009 A 
ATOM     68  C   UNL     1       8.141  -6.032   5.753  1.00  0.00     0.001 A 
ATOM     69  C   UNL     1       6.944  -8.057   5.207  1.00  0.00     0.001 A 
ATOM     70  C   UNL     1       7.527  -7.218   6.154  1.00  0.00     0.000 A 
ENDBRANCH  46  65
BRANCH  58  71
ATOM     71  C   UNL     1      12.713  -6.261  -1.251  1.00  0.00    -0.014 A 
ATOM     72  C   UNL     1      13.203  -7.572  -1.153  1.00  0.00     0.009 A 
ATOM     73  C   UNL     1      13.622  -5.192  -1.283  1.00  0.00     0.009 A 
ATOM     74  C   UNL     1      14.576  -7.805  -1.057  1.00  0.00     0.001 A 
ATOM     75  C   UNL     1      14.995  -5.430  -1.211  1.00  0.00     0.001 A 
ATOM     76  C   UNL     1      15.470  -6.735  -1.089  1.00  0.00     0.000 A 
ENDBRANCH  58  71
ENDBRANCH  32  33
ENDBRANCH  25  27
ENDBRANCH  24  25
ENDBRANCH   1  24
TORSDOF 13
