REMARK SMILES COc1ccc([C@@H](CC(=O)OCCOC(=O)c2ccc(-c3c4nc(c(-c5ccccc5)c5ccc([nH]5)c(-c5ccccc5)c5nc(c(-c6ccccc6)c6ccc3[nH]6)C=C5)C=C4)cc2)NC(=O)c2ccc(Cl)c([N+](=O)[O-])c2)cc1
REMARK SMILES IDX 12 1 11 2 9 3 10 4 8 5 7 6 6 7 3 8 4 9 79 10 5 11 78 12 2 13
REMARK SMILES IDX 1 14 65 15 66 16 67 18 68 19 69 20 77 21 70 22 73 23 71 24
REMARK SMILES IDX 72 25 74 26 75 27 76 28 13 29 14 30 15 31 16 32 17 33 18 34
REMARK SMILES IDX 64 35 19 36 63 37 20 38 21 39 22 40 57 41 23 42 62 43 56 44
REMARK SMILES IDX 58 45 24 46 61 47 55 48 54 49 25 51 47 52 32 53 46 54 33 55
REMARK SMILES IDX 36 56 45 57 59 58 34 59 35 60 44 62 60 63 37 64 26 65 27 66
REMARK SMILES IDX 31 67 28 68 30 69 29 70 48 71 49 72 53 73 50 74 52 75 51 76
REMARK SMILES IDX 38 77 39 78 43 79 40 80 42 81 41 82
REMARK H PARENT 65 17 58 50 36 61
REMARK Flexibility Score: inf
ROOT
ATOM      1  C   UNL     1      -1.423   4.974  -4.832  1.00  0.00     0.274 C 
ENDROOT
BRANCH   1   2
ATOM      2  O   UNL     1      -0.171   4.962  -4.114  1.00  0.00    -0.462 OA
BRANCH   2   3
ATOM      3  C   UNL     1       0.821   5.748  -4.588  1.00  0.00     0.308 C 
ATOM      4  O   UNL     1       0.718   6.462  -5.581  1.00  0.00    -0.252 OA
BRANCH   3   5
ATOM      5  C   UNL     1       2.131   5.610  -3.846  1.00  0.00     0.152 C 
BRANCH   5   6
ATOM      6  C   UNL     1       2.143   5.554  -2.310  1.00  0.00     0.123 C 
BRANCH   6   7
ATOM      7  C   UNL     1       1.679   4.215  -1.762  1.00  0.00    -0.025 A 
ATOM      8  C   UNL     1       0.868   1.625  -1.034  1.00  0.00     0.118 A 
ATOM      9  C   UNL     1      -0.068   2.651  -1.118  1.00  0.00     0.047 A 
ATOM     10  C   UNL     1       2.211   1.880  -1.293  1.00  0.00     0.047 A 
ATOM     11  C   UNL     1       0.339   3.945  -1.451  1.00  0.00     0.010 A 
ATOM     12  C   UNL     1       2.613   3.167  -1.655  1.00  0.00     0.010 A 
BRANCH   8  13
ATOM     13  O   UNL     1       0.393   0.366  -0.792  1.00  0.00    -0.497 OA
ATOM     14  C   UNL     1       0.978  -0.214   0.371  1.00  0.00     0.278 C 
ENDBRANCH   8  13
ENDBRANCH   6   7
BRANCH   6  15
ATOM     15  N   UNL     1       1.512   6.701  -1.662  1.00  0.00    -0.345 N 
ATOM     16  C   UNL     1       2.032   7.647  -0.815  1.00  0.00     0.252 C 
ATOM     17  H   UNL     1       0.555   6.815  -1.868  1.00  0.00     0.164 HD
ATOM     18  O   UNL     1       1.309   8.437  -0.216  1.00  0.00    -0.269 OA
BRANCH  16  19
ATOM     19  C   UNL     1       3.488   7.746  -0.605  1.00  0.00     0.046 A 
ATOM     20  C   UNL     1       3.985   7.731   0.702  1.00  0.00     0.016 A 
ATOM     21  C   UNL     1       4.355   7.923  -1.683  1.00  0.00     0.101 A 
ATOM     22  C   UNL     1       5.363   7.821   0.928  1.00  0.00     0.028 A 
ATOM     23  C   UNL     1       5.736   8.001  -1.444  1.00  0.00     0.288 A 
ATOM     24  C   UNL     1       6.254   7.935  -0.147  1.00  0.00     0.118 A 
ATOM     25  Cl  UNL     1       7.938   7.925   0.227  1.00  0.00    -0.077 Cl
BRANCH  23  26
ATOM     26  N   UNL     1       6.600   8.110  -2.606  1.00  0.00     0.064 N 
ATOM     27  O   UNL     1       7.493   8.963  -2.593  1.00  0.00    -0.258 OA
ATOM     28  O   UNL     1       6.334   7.365  -3.562  1.00  0.00    -0.258 OA
ENDBRANCH  23  26
ENDBRANCH  16  19
ENDBRANCH   6  15
ENDBRANCH   5   6
ENDBRANCH   3   5
ENDBRANCH   2   3
ENDBRANCH   1   2
BRANCH   1  29
ATOM     29  C   UNL     1      -2.461   5.879  -4.161  1.00  0.00     0.275 C 
BRANCH  29  30
ATOM     30  O   UNL     1      -2.108   7.269  -4.286  1.00  0.00    -0.458 OA
BRANCH  30  31
ATOM     31  C   UNL     1      -1.400   7.767  -3.247  1.00  0.00     0.338 C 
ATOM     32  O   UNL     1      -1.083   7.177  -2.229  1.00  0.00    -0.246 OA
BRANCH  31  33
ATOM     33  C   UNL     1      -0.916   9.114  -3.581  1.00  0.00     0.060 A 
ATOM     34  C   UNL     1       0.435   9.280  -3.901  1.00  0.00     0.016 A 
ATOM     35  C   UNL     1      -1.770  10.212  -3.508  1.00  0.00     0.016 A 
ATOM     36  C   UNL     1       0.942  10.550  -4.158  1.00  0.00     0.010 A 
ATOM     37  C   UNL     1      -1.263  11.487  -3.771  1.00  0.00     0.010 A 
ATOM     38  C   UNL     1       0.096  11.662  -4.092  1.00  0.00    -0.014 A 
BRANCH  38  39
ATOM     39  C   UNL     1       0.635  13.019  -4.328  1.00  0.00     0.031 A 
ATOM     40  C   UNL     1       0.830  13.954  -3.172  1.00  0.00     0.074 A 
ATOM     41  C   UNL     1       0.937  13.411  -5.579  1.00  0.00     0.049 A 
ATOM     42  N   UNL     1       1.166  15.219  -3.183  1.00  0.00    -0.248 NA
ATOM     43  C   UNL     1       0.617  13.393  -1.829  1.00  0.00     0.031 C 
ATOM     44  C   UNL     1       0.844  12.573  -6.775  1.00  0.00     0.029 A 
ATOM     45  N   UNL     1       1.375  14.623  -6.049  1.00  0.00    -0.354 N 
ATOM     46  C   UNL     1       1.175  15.615  -1.852  1.00  0.00     0.074 A 
ATOM     47  C   UNL     1       0.806  14.458  -1.063  1.00  0.00     0.031 C 
ATOM     48  C   UNL     1       1.210  13.299  -7.844  1.00  0.00     0.029 A 
ATOM     49  C   UNL     1       1.512  14.661  -7.414  1.00  0.00     0.049 A 
ATOM     50  H   UNL     1       1.572  15.390  -5.465  1.00  0.00     0.167 HD
ATOM     51  C   UNL     1       1.460  16.835  -1.338  1.00  0.00     0.031 A 
ATOM     52  C   UNL     1       1.814  15.688  -8.230  1.00  0.00     0.031 A 
ATOM     53  C   UNL     1       1.827  17.981  -2.126  1.00  0.00     0.049 A 
ATOM     54  C   UNL     1       2.057  17.048  -7.641  1.00  0.00     0.074 A 
ATOM     55  C   UNL     1       2.144  19.258  -1.696  1.00  0.00     0.029 A 
ATOM     56  N   UNL     1       1.923  17.988  -3.509  1.00  0.00    -0.354 N 
ATOM     57  N   UNL     1       2.050  17.416  -6.382  1.00  0.00    -0.248 NA
ATOM     58  C   UNL     1       2.343  18.136  -8.586  1.00  0.00     0.031 C 
ATOM     59  C   UNL     1       2.391  20.050  -2.824  1.00  0.00     0.029 A 
ATOM     60  C   UNL     1       2.273  19.253  -3.951  1.00  0.00     0.049 A 
ATOM     61  H   UNL     1       1.765  17.209  -4.090  1.00  0.00     0.167 HD
ATOM     62  C   UNL     1       2.352  18.771  -6.382  1.00  0.00     0.074 A 
ATOM     63  C   UNL     1       2.547  19.157  -7.765  1.00  0.00     0.031 C 
ATOM     64  C   UNL     1       2.461  19.619  -5.331  1.00  0.00     0.031 A 
BRANCH  51  65
ATOM     65  C   UNL     1       1.339  16.998   0.150  1.00  0.00    -0.014 A 
ATOM     66  C   UNL     1       2.288  16.450   1.026  1.00  0.00     0.009 A 
ATOM     67  C   UNL     1       0.266  17.731   0.680  1.00  0.00     0.009 A 
ATOM     68  C   UNL     1       2.145  16.606   2.407  1.00  0.00     0.001 A 
ATOM     69  C   UNL     1       0.139  17.906   2.059  1.00  0.00     0.001 A 
ATOM     70  C   UNL     1       1.073  17.336   2.922  1.00  0.00     0.000 A 
ENDBRANCH  51  65
BRANCH  52  71
ATOM     71  C   UNL     1       1.871  15.475  -9.698  1.00  0.00    -0.014 A 
ATOM     72  C   UNL     1       3.100  15.491 -10.373  1.00  0.00     0.009 A 
ATOM     73  C   UNL     1       0.694  15.254 -10.432  1.00  0.00     0.009 A 
ATOM     74  C   UNL     1       3.148  15.306 -11.756  1.00  0.00     0.001 A 
ATOM     75  C   UNL     1       0.748  15.045 -11.811  1.00  0.00     0.001 A 
ATOM     76  C   UNL     1       1.974  15.078 -12.473  1.00  0.00     0.000 A 
ENDBRANCH  52  71
BRANCH  64  77
ATOM     77  C   UNL     1       2.841  21.039  -5.636  1.00  0.00    -0.014 A 
ATOM     78  C   UNL     1       1.915  21.937  -6.188  1.00  0.00     0.009 A 
ATOM     79  C   UNL     1       4.135  21.491  -5.332  1.00  0.00     0.009 A 
ATOM     80  C   UNL     1       2.288  23.256  -6.456  1.00  0.00     0.001 A 
ATOM     81  C   UNL     1       4.497  22.815  -5.579  1.00  0.00     0.001 A 
ATOM     82  C   UNL     1       3.576  23.694  -6.148  1.00  0.00     0.000 A 
ENDBRANCH  64  77
ENDBRANCH  38  39
ENDBRANCH  31  33
ENDBRANCH  30  31
ENDBRANCH  29  30
ENDBRANCH   1  29
TORSDOF 17
