REMARK SMILES C[C@@H](C(=O)OCCOC(=O)c1ccc(-c2c3nc(c(-c4ccccc4)c4ccc([nH]4)c(-c4ccccc4)c4nc(c(-c5ccccc5)c5ccc2[nH]5)C=C4)C=C3)cc1)c1ccc(-c2cccc(OC(=O)NCCC3CCCCC3)c2)c(F)c1
REMARK SMILES IDX 3 1 4 2 2 3 1 4 59 5 60 6 83 7 61 8 81 9 62 10 82 11 63 12
REMARK SMILES IDX 64 13 80 14 65 15 67 16 66 17 68 18 69 19 70 20 71 21 72 23
REMARK SMILES IDX 73 24 74 25 75 26 79 27 76 28 78 29 77 30 5 31 6 32 7 33
REMARK SMILES IDX 8 34 9 35 10 36 11 37 12 38 58 39 13 40 57 41 14 42 15 43
REMARK SMILES IDX 16 44 51 45 17 46 56 47 50 48 52 49 18 50 55 51 49 52 48 53
REMARK SMILES IDX 19 55 41 56 26 57 40 58 27 59 30 60 39 61 53 62 28 63 29 64
REMARK SMILES IDX 38 66 54 67 31 68 20 69 21 70 25 71 22 72 24 73 23 74 42 75
REMARK SMILES IDX 43 76 47 77 44 78 46 79 45 80 32 81 33 82 37 83 34 84 36 85
REMARK SMILES IDX 35 86
REMARK H PARENT 71 22 52 54 30 65
REMARK Flexibility Score: inf
ROOT
ATOM      1  C   UNL     1       0.823  -2.473  -0.172  1.00  0.00     0.313 C 
ATOM      2  O   UNL     1       0.441  -3.627  -0.330  1.00  0.00    -0.252 OA
ENDROOT
BRANCH   1   3
ATOM      3  C   UNL     1       0.257  -1.264  -0.965  1.00  0.00     0.126 C 
ATOM      4  C   UNL     1       0.973   0.035  -0.550  1.00  0.00     0.025 C 
BRANCH   3   5
ATOM      5  C   UNL     1      -1.292  -1.152  -0.993  1.00  0.00    -0.031 A 
ATOM      6  C   UNL     1      -1.981   0.028  -0.654  1.00  0.00     0.005 A 
ATOM      7  C   UNL     1      -2.101  -2.224  -1.412  1.00  0.00     0.044 A 
ATOM      8  C   UNL     1      -3.397   0.114  -0.677  1.00  0.00     0.012 A 
ATOM      9  C   UNL     1      -3.517  -2.137  -1.420  1.00  0.00     0.131 A 
ATOM     10  C   UNL     1      -4.207  -0.976  -1.034  1.00  0.00     0.018 A 
ATOM     11  F   UNL     1      -4.205  -3.236  -1.764  1.00  0.00    -0.206 F 
BRANCH  10  12
ATOM     12  C   UNL     1      -5.691  -0.914  -0.869  1.00  0.00    -0.012 A 
ATOM     13  C   UNL     1      -6.542  -0.213  -1.732  1.00  0.00     0.009 A 
ATOM     14  C   UNL     1      -6.300  -1.491   0.261  1.00  0.00     0.056 A 
ATOM     15  C   UNL     1      -7.932  -0.105  -1.469  1.00  0.00     0.004 A 
ATOM     16  C   UNL     1      -7.685  -1.374   0.520  1.00  0.00     0.133 A 
ATOM     17  C   UNL     1      -8.522  -0.673  -0.330  1.00  0.00     0.047 A 
BRANCH  16  18
ATOM     18  O   UNL     1      -8.257  -1.794   2.055  1.00  0.00    -0.410 OA
BRANCH  18  19
ATOM     19  C   UNL     1      -8.815  -2.234   3.548  1.00  0.00     0.412 C 
ATOM     20  O   UNL     1      -8.924  -1.460   4.494  1.00  0.00    -0.224 OA
ATOM     21  N   UNL     1      -9.141  -3.547   3.719  1.00  0.00    -0.321 N 
ATOM     22  H   UNL     1      -8.618  -4.263   3.290  1.00  0.00     0.167 HD
BRANCH  21  23
ATOM     23  C   UNL     1     -10.274  -3.851   4.548  1.00  0.00     0.119 C 
BRANCH  23  24
ATOM     24  C   UNL     1     -10.565  -5.337   4.551  1.00  0.00     0.025 C 
BRANCH  24  25
ATOM     25  C   UNL     1      -9.817  -6.076   5.669  1.00  0.00    -0.009 C 
ATOM     26  C   UNL     1     -10.317  -5.611   7.050  1.00  0.00     0.003 C 
ATOM     27  C   UNL     1     -10.004  -7.586   5.464  1.00  0.00     0.003 C 
ATOM     28  C   UNL     1      -9.805  -6.473   8.194  1.00  0.00     0.000 C 
ATOM     29  C   UNL     1      -9.482  -8.406   6.636  1.00  0.00     0.000 C 
ATOM     30  C   UNL     1     -10.102  -7.944   7.948  1.00  0.00     0.000 C 
ENDBRANCH  24  25
ENDBRANCH  23  24
ENDBRANCH  21  23
ENDBRANCH  18  19
ENDBRANCH  16  18
ENDBRANCH  10  12
ENDBRANCH   3   5
ENDBRANCH   1   3
BRANCH   1  31
ATOM     31  O   UNL     1       1.813  -2.121   0.704  1.00  0.00    -0.462 OA
BRANCH  31  32
ATOM     32  C   UNL     1       2.483  -3.164   1.455  1.00  0.00     0.274 C 
BRANCH  32  33
ATOM     33  C   UNL     1       2.457  -2.853   2.954  1.00  0.00     0.275 C 
BRANCH  33  34
ATOM     34  O   UNL     1       1.105  -2.975   3.421  1.00  0.00    -0.458 OA
BRANCH  34  35
ATOM     35  C   UNL     1       0.465  -1.815   3.682  1.00  0.00     0.338 C 
ATOM     36  O   UNL     1       0.925  -0.691   3.761  1.00  0.00    -0.246 OA
BRANCH  35  37
ATOM     37  C   UNL     1      -0.968  -2.113   3.661  1.00  0.00     0.060 A 
ATOM     38  C   UNL     1      -1.548  -2.294   2.411  1.00  0.00     0.016 A 
ATOM     39  C   UNL     1      -1.743  -2.148   4.816  1.00  0.00     0.016 A 
ATOM     40  C   UNL     1      -2.914  -2.449   2.295  1.00  0.00     0.010 A 
ATOM     41  C   UNL     1      -3.121  -2.360   4.701  1.00  0.00     0.010 A 
ATOM     42  C   UNL     1      -3.717  -2.465   3.436  1.00  0.00    -0.014 A 
BRANCH  42  43
ATOM     43  C   UNL     1      -5.189  -2.445   3.248  1.00  0.00     0.031 A 
ATOM     44  C   UNL     1      -5.831  -0.991   3.555  1.00  0.00     0.074 A 
ATOM     45  C   UNL     1      -5.745  -3.577   2.662  1.00  0.00     0.049 A 
ATOM     46  N   UNL     1      -6.942  -0.474   3.113  1.00  0.00    -0.248 NA
ATOM     47  C   UNL     1      -5.129   0.049   4.339  1.00  0.00     0.031 C 
ATOM     48  C   UNL     1      -5.064  -4.790   2.139  1.00  0.00     0.029 A 
ATOM     49  N   UNL     1      -7.020  -3.847   2.206  1.00  0.00    -0.354 N 
ATOM     50  C   UNL     1      -7.255   0.721   3.713  1.00  0.00     0.074 A 
ATOM     51  C   UNL     1      -6.012   1.062   4.383  1.00  0.00     0.031 C 
ATOM     52  C   UNL     1      -5.918  -5.529   1.375  1.00  0.00     0.029 A 
ATOM     53  C   UNL     1      -7.245  -4.920   1.377  1.00  0.00     0.049 A 
ATOM     54  H   UNL     1      -7.770  -3.269   2.475  1.00  0.00     0.167 HD
ATOM     55  C   UNL     1      -8.480   1.350   3.800  1.00  0.00     0.031 A 
ATOM     56  C   UNL     1      -8.409  -5.251   0.732  1.00  0.00     0.031 A 
ATOM     57  C   UNL     1      -9.823   0.879   3.332  1.00  0.00     0.049 A 
ATOM     58  C   UNL     1      -9.750  -4.431   0.867  1.00  0.00     0.074 A 
ATOM     59  C   UNL     1     -11.095   1.266   3.746  1.00  0.00     0.029 A 
ATOM     60  N   UNL     1     -10.097  -0.135   2.412  1.00  0.00    -0.354 N 
ATOM     61  N   UNL     1      -9.951  -3.164   1.143  1.00  0.00    -0.248 NA
ATOM     62  C   UNL     1     -11.032  -5.127   0.646  1.00  0.00     0.031 C 
ATOM     63  C   UNL     1     -12.047   0.332   3.262  1.00  0.00     0.029 A 
ATOM     64  C   UNL     1     -11.406  -0.617   2.471  1.00  0.00     0.049 A 
ATOM     65  H   UNL     1      -9.427  -0.479   1.778  1.00  0.00     0.167 HD
ATOM     66  C   UNL     1     -11.310  -2.918   1.292  1.00  0.00     0.074 A 
ATOM     67  C   UNL     1     -11.931  -4.159   0.845  1.00  0.00     0.031 C 
ATOM     68  C   UNL     1     -11.968  -1.843   1.847  1.00  0.00     0.031 A 
BRANCH  55  69
ATOM     69  C   UNL     1      -8.504   2.557   4.697  1.00  0.00    -0.014 A 
ATOM     70  C   UNL     1      -8.103   3.812   4.226  1.00  0.00     0.009 A 
ATOM     71  C   UNL     1      -9.020   2.447   6.001  1.00  0.00     0.009 A 
ATOM     72  C   UNL     1      -8.226   4.939   5.043  1.00  0.00     0.001 A 
ATOM     73  C   UNL     1      -9.164   3.578   6.806  1.00  0.00     0.001 A 
ATOM     74  C   UNL     1      -8.766   4.824   6.325  1.00  0.00     0.000 A 
ENDBRANCH  55  69
BRANCH  56  75
ATOM     75  C   UNL     1      -8.495  -6.505  -0.079  1.00  0.00    -0.014 A 
ATOM     76  C   UNL     1      -9.023  -6.473  -1.383  1.00  0.00     0.009 A 
ATOM     77  C   UNL     1      -8.199  -7.756   0.485  1.00  0.00     0.009 A 
ATOM     78  C   UNL     1      -9.277  -7.656  -2.084  1.00  0.00     0.001 A 
ATOM     79  C   UNL     1      -8.422  -8.937  -0.230  1.00  0.00     0.001 A 
ATOM     80  C   UNL     1      -8.974  -8.887  -1.508  1.00  0.00     0.000 A 
ENDBRANCH  56  75
BRANCH  68  81
ATOM     81  C   UNL     1     -13.483  -1.975   1.929  1.00  0.00    -0.014 A 
ATOM     82  C   UNL     1     -14.115  -2.910   2.772  1.00  0.00     0.009 A 
ATOM     83  C   UNL     1     -14.291  -1.086   1.203  1.00  0.00     0.009 A 
ATOM     84  C   UNL     1     -15.512  -2.983   2.845  1.00  0.00     0.001 A 
ATOM     85  C   UNL     1     -15.686  -1.141   1.300  1.00  0.00     0.001 A 
ATOM     86  C   UNL     1     -16.296  -2.096   2.111  1.00  0.00     0.000 A 
ENDBRANCH  68  81
ENDBRANCH  42  43
ENDBRANCH  35  37
ENDBRANCH  34  35
ENDBRANCH  33  34
ENDBRANCH  32  33
ENDBRANCH  31  32
ENDBRANCH   1  31
TORSDOF 18
