REMARK SMILES Cc1nc(N2CCN(c3ccccc3)CC2)nc(OCC(=O)OCCOC(=O)c2ccc(-c3c4nc(c(-c5ccccc5)c5ccc([nH]5)c(-c5ccccc5)c5nc(c(-c6ccccc6)c6ccc3[nH]6)C=C5)C=C4)cc2)c1C
REMARK SMILES IDX 24 1 23 2 21 3 22 4 20 5 19 6 18 7 1 8 2 9 3 10 77 11 4 12
REMARK SMILES IDX 78 13 17 14 5 15 6 16 16 17 7 18 15 19 8 20 9 21 10 22 14 23
REMARK SMILES IDX 11 24 13 25 12 26 25 27 26 28 27 29 28 30 29 31 30 32 76 33
REMARK SMILES IDX 31 34 75 35 32 36 33 37 34 38 69 39 35 40 74 41 68 42 70 43
REMARK SMILES IDX 36 44 73 45 67 46 66 47 37 49 59 50 44 51 58 52 45 53 48 54
REMARK SMILES IDX 57 55 71 56 46 57 47 58 56 60 72 61 49 62 38 63 39 64 43 65
REMARK SMILES IDX 40 66 42 67 41 68 60 69 61 70 65 71 62 72 64 73 63 74 50 75
REMARK SMILES IDX 51 76 55 77 52 78 54 79 53 80
REMARK H PARENT 70 48 48 59
REMARK Flexibility Score: inf
ROOT
ATOM      1  C   UNL     1      -0.972   4.907   2.398  1.00  0.00     0.274 C 
ENDROOT
BRANCH   1   2
ATOM      2  O   UNL     1      -0.449   4.881   1.051  1.00  0.00    -0.460 OA
BRANCH   2   3
ATOM      3  C   UNL     1       0.879   5.143   0.943  1.00  0.00     0.344 C 
ATOM      4  O   UNL     1       1.643   5.287   1.894  1.00  0.00    -0.248 OA
BRANCH   3   5
ATOM      5  C   UNL     1       1.349   5.373  -0.496  1.00  0.00     0.353 C 
BRANCH   5   6
ATOM      6  O   UNL     1       0.754   4.864  -1.657  1.00  0.00    -0.465 OA
BRANCH   6   7
ATOM      7  C   UNL     1       0.470   3.554  -1.833  1.00  0.00     0.221 A 
ATOM      8  C   UNL     1       1.027  -0.090  -1.107  1.00  0.00     0.067 C 
ATOM      9  C   UNL     1       0.535   1.219  -1.651  1.00  0.00     0.050 A 
ATOM     10  N   UNL     1      -0.517   1.109  -2.487  1.00  0.00    -0.218 NA
ATOM     11  C   UNL     1       1.139   2.444  -1.356  1.00  0.00     0.033 A 
ATOM     12  C   UNL     1      -0.949   2.229  -3.058  1.00  0.00     0.229 A 
ATOM     13  C   UNL     1       2.490   2.524  -0.734  1.00  0.00     0.052 C 
ATOM     14  N   UNL     1      -0.525   3.442  -2.715  1.00  0.00    -0.177 NA
BRANCH  12  15
ATOM     15  N   UNL     1      -1.753   2.173  -4.150  1.00  0.00    -0.337 N 
ATOM     16  C   UNL     1      -2.954   1.361  -4.189  1.00  0.00     0.141 C 
ATOM     17  C   UNL     1      -1.111   2.459  -5.432  1.00  0.00     0.141 C 
ATOM     18  C   UNL     1      -3.989   2.086  -5.091  1.00  0.00     0.138 C 
ATOM     19  C   UNL     1      -2.117   3.156  -6.363  1.00  0.00     0.138 C 
ATOM     20  N   UNL     1      -3.380   2.400  -6.395  1.00  0.00    -0.368 N 
BRANCH  20  21
ATOM     21  C   UNL     1      -4.076   2.271  -7.572  1.00  0.00     0.037 A 
ATOM     22  C   UNL     1      -5.390   2.726  -7.713  1.00  0.00     0.026 A 
ATOM     23  C   UNL     1      -3.477   1.637  -8.668  1.00  0.00     0.026 A 
ATOM     24  C   UNL     1      -6.088   2.547  -8.910  1.00  0.00     0.002 A 
ATOM     25  C   UNL     1      -4.173   1.436  -9.859  1.00  0.00     0.002 A 
ATOM     26  C   UNL     1      -5.481   1.894  -9.980  1.00  0.00     0.000 A 
ENDBRANCH  20  21
ENDBRANCH  12  15
ENDBRANCH   6   7
ENDBRANCH   5   6
ENDBRANCH   3   5
ENDBRANCH   2   3
ENDBRANCH   1   2
BRANCH   1  27
ATOM     27  C   UNL     1      -1.042   3.512   3.018  1.00  0.00     0.275 C 
BRANCH  27  28
ATOM     28  O   UNL     1       0.272   2.932   3.075  1.00  0.00    -0.458 OA
BRANCH  28  29
ATOM     29  C   UNL     1       0.354   1.631   2.721  1.00  0.00     0.338 C 
ATOM     30  O   UNL     1      -0.582   0.897   2.427  1.00  0.00    -0.246 OA
BRANCH  29  31
ATOM     31  C   UNL     1       1.763   1.171   2.676  1.00  0.00     0.060 A 
ATOM     32  C   UNL     1       2.829   2.058   2.517  1.00  0.00     0.016 A 
ATOM     33  C   UNL     1       2.011  -0.206   2.664  1.00  0.00     0.016 A 
ATOM     34  C   UNL     1       4.105   1.569   2.217  1.00  0.00     0.010 A 
ATOM     35  C   UNL     1       3.306  -0.692   2.461  1.00  0.00     0.010 A 
ATOM     36  C   UNL     1       4.364   0.188   2.195  1.00  0.00    -0.014 A 
BRANCH  36  37
ATOM     37  C   UNL     1       5.730  -0.339   1.919  1.00  0.00     0.031 A 
ATOM     38  C   UNL     1       5.990  -1.293   0.779  1.00  0.00     0.074 A 
ATOM     39  C   UNL     1       6.759   0.031   2.706  1.00  0.00     0.049 A 
ATOM     40  N   UNL     1       7.076  -1.972   0.499  1.00  0.00    -0.248 NA
ATOM     41  C   UNL     1       4.890  -1.513  -0.172  1.00  0.00     0.031 C 
ATOM     42  C   UNL     1       6.679   0.981   3.816  1.00  0.00     0.029 A 
ATOM     43  N   UNL     1       8.079  -0.344   2.683  1.00  0.00    -0.354 N 
ATOM     44  C   UNL     1       6.778  -2.724  -0.632  1.00  0.00     0.074 A 
ATOM     45  C   UNL     1       5.409  -2.420  -0.989  1.00  0.00     0.031 C 
ATOM     46  C   UNL     1       7.904   1.162   4.327  1.00  0.00     0.029 A 
ATOM     47  C   UNL     1       8.835   0.267   3.652  1.00  0.00     0.049 A 
ATOM     48  H   UNL     1       8.447  -0.987   2.035  1.00  0.00     0.167 HD
ATOM     49  C   UNL     1       7.569  -3.594  -1.308  1.00  0.00     0.031 A 
ATOM     50  C   UNL     1      10.124   0.102   3.999  1.00  0.00     0.031 A 
ATOM     51  C   UNL     1       8.934  -3.894  -0.964  1.00  0.00     0.049 A 
ATOM     52  C   UNL     1      10.952  -0.933   3.304  1.00  0.00     0.074 A 
ATOM     53  C   UNL     1       9.810  -4.766  -1.589  1.00  0.00     0.029 A 
ATOM     54  N   UNL     1       9.625  -3.326   0.093  1.00  0.00    -0.354 N 
ATOM     55  N   UNL     1      10.627  -1.701   2.295  1.00  0.00    -0.248 NA
ATOM     56  C   UNL     1      12.309  -1.148   3.822  1.00  0.00     0.031 C 
ATOM     57  C   UNL     1      11.019  -4.755  -0.884  1.00  0.00     0.029 A 
ATOM     58  C   UNL     1      10.908  -3.844   0.152  1.00  0.00     0.049 A 
ATOM     59  H   UNL     1       9.258  -2.654   0.712  1.00  0.00     0.167 HD
ATOM     60  C   UNL     1      11.736  -2.500   2.059  1.00  0.00     0.074 A 
ATOM     61  C   UNL     1      12.750  -2.108   3.018  1.00  0.00     0.031 C 
ATOM     62  C   UNL     1      11.896  -3.473   1.131  1.00  0.00     0.031 A 
BRANCH  49  63
ATOM     63  C   UNL     1       6.966  -4.319  -2.478  1.00  0.00    -0.014 A 
ATOM     64  C   UNL     1       6.776  -3.682  -3.713  1.00  0.00     0.009 A 
ATOM     65  C   UNL     1       6.643  -5.681  -2.359  1.00  0.00     0.009 A 
ATOM     66  C   UNL     1       6.254  -4.388  -4.800  1.00  0.00     0.001 A 
ATOM     67  C   UNL     1       6.141  -6.390  -3.452  1.00  0.00     0.001 A 
ATOM     68  C   UNL     1       5.941  -5.742  -4.670  1.00  0.00     0.000 A 
ENDBRANCH  49  63
BRANCH  50  69
ATOM     69  C   UNL     1      10.679   0.926   5.099  1.00  0.00    -0.014 A 
ATOM     70  C   UNL     1      11.505   2.020   4.808  1.00  0.00     0.009 A 
ATOM     71  C   UNL     1      10.308   0.681   6.431  1.00  0.00     0.009 A 
ATOM     72  C   UNL     1      11.939   2.864   5.832  1.00  0.00     0.001 A 
ATOM     73  C   UNL     1      10.725   1.540   7.448  1.00  0.00     0.001 A 
ATOM     74  C   UNL     1      11.539   2.631   7.148  1.00  0.00     0.000 A 
ENDBRANCH  50  69
BRANCH  62  75
ATOM     75  C   UNL     1      13.213  -4.187   1.114  1.00  0.00    -0.014 A 
ATOM     76  C   UNL     1      13.502  -5.183   2.060  1.00  0.00     0.009 A 
ATOM     77  C   UNL     1      14.164  -3.883   0.129  1.00  0.00     0.009 A 
ATOM     78  C   UNL     1      14.730  -5.845   2.033  1.00  0.00     0.001 A 
ATOM     79  C   UNL     1      15.384  -4.559   0.094  1.00  0.00     0.001 A 
ATOM     80  C   UNL     1      15.669  -5.534   1.049  1.00  0.00     0.000 A 
ENDBRANCH  62  75
ENDBRANCH  36  37
ENDBRANCH  29  31
ENDBRANCH  28  29
ENDBRANCH  27  28
ENDBRANCH   1  27
TORSDOF 15
