REMARK SMILES CN(Cc1ncc(C(=O)OCCOC(=O)c2ccc(-c3c4nc(c(-c5ccccc5)c5ccc([nH]5)c(-c5ccccc5)c5nc(c(-c6ccccc6)c6ccc3[nH]6)C=C5)C=C4)cc2)cn1)S(=O)(=O)c1ccc(Cl)cc1
REMARK SMILES IDX 11 1 10 2 8 3 9 4 7 5 4 6 5 7 65 8 6 9 64 10 3 11 2 12 1 13
REMARK SMILES IDX 66 14 67 15 68 16 69 17 70 18 75 19 71 20 74 21 72 22 73 23
REMARK SMILES IDX 12 24 13 25 14 26 15 27 16 28 17 29 63 30 18 31 62 32 19 33
REMARK SMILES IDX 20 34 21 35 56 36 22 37 61 38 55 39 57 40 23 41 60 42 54 43
REMARK SMILES IDX 53 44 24 46 46 47 31 48 45 49 32 50 35 51 44 52 58 53 33 54
REMARK SMILES IDX 34 55 43 57 59 58 36 59 25 60 26 61 30 62 27 63 29 64 28 65
REMARK SMILES IDX 47 66 48 67 52 68 49 69 51 70 50 71 37 72 38 73 42 74 39 75
REMARK SMILES IDX 41 76 40 77
REMARK H PARENT 57 45 35 56
REMARK Flexibility Score: inf
ROOT
ATOM      1  C   UNL     1      -3.369   1.008  -6.966  1.00  0.00     0.275 C 
ENDROOT
BRANCH   1   2
ATOM      2  O   UNL     1      -3.153   0.357  -5.697  1.00  0.00    -0.458 OA
BRANCH   2   3
ATOM      3  C   UNL     1      -1.990   0.692  -5.085  1.00  0.00     0.341 C 
ATOM      4  O   UNL     1      -1.131   1.429  -5.524  1.00  0.00    -0.246 OA
BRANCH   3   5
ATOM      5  C   UNL     1      -1.928   0.158  -3.719  1.00  0.00     0.096 A 
ATOM      6  C   UNL     1      -1.591  -0.727  -1.182  1.00  0.00     0.143 A 
ATOM      7  N   UNL     1      -2.472  -1.394  -1.966  1.00  0.00    -0.239 NA
ATOM      8  N   UNL     1      -0.954   0.406  -1.537  1.00  0.00    -0.239 NA
ATOM      9  C   UNL     1      -2.634  -0.914  -3.227  1.00  0.00     0.130 A 
ATOM     10  C   UNL     1      -1.084   0.772  -2.822  1.00  0.00     0.130 A 
BRANCH   6  11
ATOM     11  C   UNL     1      -1.028  -1.420   0.047  1.00  0.00     0.179 C 
BRANCH  11  12
ATOM     12  N   UNL     1       0.453  -1.730  -0.006  1.00  0.00    -0.193 NA
ATOM     13  C   UNL     1       1.258  -0.512   0.313  1.00  0.00     0.125 C 
BRANCH  12  14
ATOM     14  S   UNL     1       1.063  -2.535  -1.402  1.00  0.00     0.243 S 
ATOM     15  O   UNL     1       0.489  -1.996  -2.614  1.00  0.00    -0.207 OA
ATOM     16  O   UNL     1       2.506  -2.562  -1.245  1.00  0.00    -0.207 OA
BRANCH  14  17
ATOM     17  C   UNL     1       0.520  -4.227  -1.285  1.00  0.00     0.082 A 
ATOM     18  C   UNL     1      -0.832  -4.560  -1.183  1.00  0.00     0.023 A 
ATOM     19  C   UNL     1       1.483  -5.241  -1.384  1.00  0.00     0.023 A 
ATOM     20  C   UNL     1      -1.213  -5.902  -1.095  1.00  0.00     0.022 A 
ATOM     21  C   UNL     1       1.096  -6.581  -1.336  1.00  0.00     0.022 A 
ATOM     22  C   UNL     1      -0.249  -6.906  -1.172  1.00  0.00     0.041 A 
ATOM     23  Cl  UNL     1      -0.724  -8.556  -1.085  1.00  0.00    -0.084 Cl
ENDBRANCH  14  17
ENDBRANCH  12  14
ENDBRANCH  11  12
ENDBRANCH   6  11
ENDBRANCH   3   5
ENDBRANCH   2   3
ENDBRANCH   1   2
BRANCH   1  24
ATOM     24  C   UNL     1      -4.298   2.215  -6.816  1.00  0.00     0.275 C 
BRANCH  24  25
ATOM     25  O   UNL     1      -3.699   3.239  -5.992  1.00  0.00    -0.458 OA
BRANCH  25  26
ATOM     26  C   UNL     1      -4.278   3.419  -4.784  1.00  0.00     0.338 C 
ATOM     27  O   UNL     1      -5.236   2.818  -4.324  1.00  0.00    -0.246 OA
BRANCH  26  28
ATOM     28  C   UNL     1      -3.541   4.415  -3.987  1.00  0.00     0.060 A 
ATOM     29  C   UNL     1      -2.389   3.999  -3.332  1.00  0.00     0.016 A 
ATOM     30  C   UNL     1      -4.099   5.654  -3.683  1.00  0.00     0.016 A 
ATOM     31  C   UNL     1      -1.863   4.741  -2.277  1.00  0.00     0.010 A 
ATOM     32  C   UNL     1      -3.507   6.452  -2.691  1.00  0.00     0.010 A 
ATOM     33  C   UNL     1      -2.422   5.977  -1.927  1.00  0.00    -0.014 A 
BRANCH  33  34
ATOM     34  C   UNL     1      -1.946   6.699  -0.706  1.00  0.00     0.031 A 
ATOM     35  C   UNL     1      -2.913   7.019   0.412  1.00  0.00     0.074 A 
ATOM     36  C   UNL     1      -0.646   7.023  -0.545  1.00  0.00     0.049 A 
ATOM     37  N   UNL     1      -2.726   7.743   1.490  1.00  0.00    -0.248 NA
ATOM     38  C   UNL     1      -4.271   6.465   0.297  1.00  0.00     0.031 C 
ATOM     39  C   UNL     1       0.430   6.737  -1.497  1.00  0.00     0.029 A 
ATOM     40  N   UNL     1      -0.003   7.648   0.498  1.00  0.00    -0.354 N 
ATOM     41  C   UNL     1      -3.957   7.789   2.137  1.00  0.00     0.074 A 
ATOM     42  C   UNL     1      -4.883   7.024   1.330  1.00  0.00     0.031 C 
ATOM     43  C   UNL     1       1.600   7.132  -0.971  1.00  0.00     0.029 A 
ATOM     44  C   UNL     1       1.353   7.774   0.316  1.00  0.00     0.049 A 
ATOM     45  H   UNL     1      -0.471   7.974   1.300  1.00  0.00     0.167 HD
ATOM     46  C   UNL     1      -4.293   8.407   3.296  1.00  0.00     0.031 A 
ATOM     47  C   UNL     1       2.296   8.361   1.078  1.00  0.00     0.031 A 
ATOM     48  C   UNL     1      -3.370   9.114   4.144  1.00  0.00     0.049 A 
ATOM     49  C   UNL     1       1.902   9.040   2.360  1.00  0.00     0.074 A 
ATOM     50  C   UNL     1      -3.623   9.765   5.340  1.00  0.00     0.029 A 
ATOM     51  N   UNL     1      -2.012   9.236   3.903  1.00  0.00    -0.354 N 
ATOM     52  N   UNL     1       0.720   9.133   2.917  1.00  0.00    -0.248 NA
ATOM     53  C   UNL     1       2.977   9.705   3.111  1.00  0.00     0.031 C 
ATOM     54  C   UNL     1      -2.420  10.306   5.809  1.00  0.00     0.029 A 
ATOM     55  C   UNL     1      -1.413   9.952   4.927  1.00  0.00     0.049 A 
ATOM     56  H   UNL     1      -1.542   8.869   3.120  1.00  0.00     0.167 HD
ATOM     57  C   UNL     1       0.911   9.854   4.089  1.00  0.00     0.074 A 
ATOM     58  C   UNL     1       2.326  10.150   4.176  1.00  0.00     0.031 C 
ATOM     59  C   UNL     1      -0.006  10.241   5.008  1.00  0.00     0.031 A 
BRANCH  46  60
ATOM     60  C   UNL     1      -5.742   8.378   3.699  1.00  0.00    -0.014 A 
ATOM     61  C   UNL     1      -6.348   7.213   4.194  1.00  0.00     0.009 A 
ATOM     62  C   UNL     1      -6.505   9.553   3.604  1.00  0.00     0.009 A 
ATOM     63  C   UNL     1      -7.699   7.217   4.548  1.00  0.00     0.001 A 
ATOM     64  C   UNL     1      -7.848   9.561   3.986  1.00  0.00     0.001 A 
ATOM     65  C   UNL     1      -8.446   8.390   4.448  1.00  0.00     0.000 A 
ENDBRANCH  46  60
BRANCH  47  66
ATOM     66  C   UNL     1       3.715   8.366   0.635  1.00  0.00    -0.014 A 
ATOM     67  C   UNL     1       4.680   7.611   1.320  1.00  0.00     0.009 A 
ATOM     68  C   UNL     1       4.115   9.140  -0.466  1.00  0.00     0.009 A 
ATOM     69  C   UNL     1       6.019   7.648   0.924  1.00  0.00     0.001 A 
ATOM     70  C   UNL     1       5.448   9.150  -0.879  1.00  0.00     0.001 A 
ATOM     71  C   UNL     1       6.400   8.412  -0.178  1.00  0.00     0.000 A 
ENDBRANCH  47  66
BRANCH  59  72
ATOM     72  C   UNL     1       0.502  10.991   6.206  1.00  0.00    -0.014 A 
ATOM     73  C   UNL     1       0.924  12.326   6.105  1.00  0.00     0.009 A 
ATOM     74  C   UNL     1       0.549  10.354   7.455  1.00  0.00     0.009 A 
ATOM     75  C   UNL     1       1.423  12.994   7.225  1.00  0.00     0.001 A 
ATOM     76  C   UNL     1       1.025  11.033   8.578  1.00  0.00     0.001 A 
ATOM     77  C   UNL     1       1.471  12.348   8.460  1.00  0.00     0.000 A 
ENDBRANCH  59  72
ENDBRANCH  33  34
ENDBRANCH  26  28
ENDBRANCH  25  26
ENDBRANCH  24  25
ENDBRANCH   1  24
TORSDOF 15
