REMARK SMILES COC(=O)C1=C(C)N(c2cccc(OC)c2)C(=O)/C1=C\c1ccc(C(=O)OCCOC(=O)c2ccc(-c3c4nc(c(-c5ccccc5)c5ccc([nH]5)c(-c5ccccc5)c5nc(c(-c6ccccc6)c6ccc3[nH]6)C=C5)C=C4)cc2)cc1
REMARK SMILES IDX 28 1 27 2 25 3 26 4 24 5 21 6 22 7 82 8 23 9 81 10 20 11
REMARK SMILES IDX 5 12 6 13 19 14 7 15 8 16 17 17 18 18 3 19 4 20 2 21 1 22
REMARK SMILES IDX 9 23 10 24 16 25 11 26 13 27 12 28 14 29 15 30 29 31 30 32
REMARK SMILES IDX 31 33 32 34 33 35 34 36 80 37 35 38 79 39 36 40 37 41 38 42
REMARK SMILES IDX 73 43 39 44 78 45 72 46 74 47 40 48 77 49 71 50 70 51 41 53
REMARK SMILES IDX 63 54 48 55 62 56 49 57 52 58 61 59 75 60 50 61 51 62 60 64
REMARK SMILES IDX 76 65 53 66 42 67 43 68 47 69 44 70 46 71 45 72 64 73 65 74
REMARK SMILES IDX 69 75 66 76 68 77 67 78 54 79 55 80 59 81 56 82 58 83 57 84
REMARK H PARENT 74 52 52 63
REMARK Flexibility Score: inf
ROOT
ATOM      1  C   UNL     1       5.026  11.589  -4.769  1.00  0.00     0.275 C 
ENDROOT
BRANCH   1   2
ATOM      2  O   UNL     1       4.495  10.454  -4.053  1.00  0.00    -0.458 OA
BRANCH   2   3
ATOM      3  C   UNL     1       4.123   9.399  -4.820  1.00  0.00     0.338 C 
ATOM      4  O   UNL     1       4.201   9.328  -6.036  1.00  0.00    -0.246 OA
BRANCH   3   5
ATOM      5  C   UNL     1       3.668   8.264  -3.983  1.00  0.00     0.060 A 
ATOM      6  C   UNL     1       2.678   6.045  -2.590  1.00  0.00    -0.025 A 
ATOM      7  C   UNL     1       3.533   5.855  -3.673  1.00  0.00     0.009 A 
ATOM      8  C   UNL     1       2.348   7.344  -2.182  1.00  0.00     0.009 A 
ATOM      9  C   UNL     1       3.995   6.960  -4.380  1.00  0.00     0.016 A 
ATOM     10  C   UNL     1       2.851   8.456  -2.868  1.00  0.00     0.016 A 
BRANCH   6  11
ATOM     11  C   UNL     1       2.066   4.876  -1.962  1.00  0.00     0.023 C 
ATOM     12  C   UNL     1       0.150   3.270  -1.698  1.00  0.00     0.092 C 
ATOM     13  C   UNL     1      -1.066   3.171  -2.281  1.00  0.00     0.039 C 
ATOM     14  C   UNL     1       0.833   4.428  -2.253  1.00  0.00     0.057 C 
ATOM     15  C   UNL     1      -2.055   2.073  -2.047  1.00  0.00     0.066 C 
ATOM     16  N   UNL     1      -1.238   4.186  -3.225  1.00  0.00    -0.280 N 
ATOM     17  C   UNL     1      -0.099   5.022  -3.274  1.00  0.00     0.263 C 
ATOM     18  O   UNL     1       0.102   6.004  -3.960  1.00  0.00    -0.268 OA
BRANCH  12  19
ATOM     19  C   UNL     1       0.751   2.361  -0.700  1.00  0.00     0.340 C 
ATOM     20  O   UNL     1       1.525   2.724   0.173  1.00  0.00    -0.246 OA
BRANCH  19  21
ATOM     21  O   UNL     1       0.371   1.079  -0.925  1.00  0.00    -0.465 OA
ATOM     22  C   UNL     1       0.933   0.136  -0.011  1.00  0.00     0.282 C 
ENDBRANCH  19  21
ENDBRANCH  12  19
BRANCH  16  23
ATOM     23  C   UNL     1      -2.324   4.402  -4.117  1.00  0.00     0.053 A 
ATOM     24  C   UNL     1      -3.654   4.352  -3.688  1.00  0.00     0.027 A 
ATOM     25  C   UNL     1      -2.058   4.657  -5.474  1.00  0.00     0.073 A 
ATOM     26  C   UNL     1      -4.697   4.508  -4.603  1.00  0.00     0.006 A 
ATOM     27  C   UNL     1      -3.095   4.785  -6.398  1.00  0.00     0.120 A 
ATOM     28  C   UNL     1      -4.415   4.710  -5.954  1.00  0.00     0.046 A 
BRANCH  27  29
ATOM     29  O   UNL     1      -2.946   4.967  -7.746  1.00  0.00    -0.497 OA
ATOM     30  C   UNL     1      -1.615   4.945  -8.250  1.00  0.00     0.278 C 
ENDBRANCH  27  29
ENDBRANCH  16  23
ENDBRANCH   6  11
ENDBRANCH   3   5
ENDBRANCH   2   3
ENDBRANCH   1   2
BRANCH   1  31
ATOM     31  C   UNL     1       6.556  11.624  -4.732  1.00  0.00     0.275 C 
BRANCH  31  32
ATOM     32  O   UNL     1       7.123  10.570  -5.535  1.00  0.00    -0.458 OA
BRANCH  32  33
ATOM     33  C   UNL     1       7.577   9.511  -4.832  1.00  0.00     0.338 C 
ATOM     34  O   UNL     1       7.581   9.371  -3.619  1.00  0.00    -0.246 OA
BRANCH  33  35
ATOM     35  C   UNL     1       8.017   8.428  -5.722  1.00  0.00     0.060 A 
ATOM     36  C   UNL     1       7.047   7.545  -6.172  1.00  0.00     0.016 A 
ATOM     37  C   UNL     1       9.363   8.107  -5.860  1.00  0.00     0.016 A 
ATOM     38  C   UNL     1       7.399   6.261  -6.570  1.00  0.00     0.010 A 
ATOM     39  C   UNL     1       9.721   6.870  -6.418  1.00  0.00     0.010 A 
ATOM     40  C   UNL     1       8.745   5.897  -6.709  1.00  0.00    -0.014 A 
BRANCH  40  41
ATOM     41  C   UNL     1       9.109   4.500  -7.100  1.00  0.00     0.031 A 
ATOM     42  C   UNL     1      10.069   3.688  -6.257  1.00  0.00     0.074 A 
ATOM     43  C   UNL     1       8.556   3.926  -8.191  1.00  0.00     0.049 A 
ATOM     44  N   UNL     1      10.613   2.522  -6.509  1.00  0.00    -0.248 NA
ATOM     45  C   UNL     1      10.488   4.269  -4.970  1.00  0.00     0.031 C 
ATOM     46  C   UNL     1       7.577   4.553  -9.082  1.00  0.00     0.029 A 
ATOM     47  N   UNL     1       8.727   2.672  -8.731  1.00  0.00    -0.354 N 
ATOM     48  C   UNL     1      11.481   2.265  -5.452  1.00  0.00     0.074 A 
ATOM     49  C   UNL     1      11.404   3.403  -4.562  1.00  0.00     0.031 C 
ATOM     50  C   UNL     1       7.191   3.670 -10.013  1.00  0.00     0.029 A 
ATOM     51  C   UNL     1       7.977   2.453  -9.862  1.00  0.00     0.049 A 
ATOM     52  H   UNL     1       9.330   1.996  -8.344  1.00  0.00     0.167 HD
ATOM     53  C   UNL     1      12.269   1.183  -5.238  1.00  0.00     0.031 A 
ATOM     54  C   UNL     1       7.951   1.416 -10.720  1.00  0.00     0.031 A 
ATOM     55  C   UNL     1      12.312   0.027  -6.097  1.00  0.00     0.049 A 
ATOM     56  C   UNL     1       8.872   0.254 -10.489  1.00  0.00     0.074 A 
ATOM     57  C   UNL     1      13.062  -1.128  -5.951  1.00  0.00     0.029 A 
ATOM     58  N   UNL     1      11.567  -0.126  -7.255  1.00  0.00    -0.354 N 
ATOM     59  N   UNL     1       9.710   0.046  -9.504  1.00  0.00    -0.248 NA
ATOM     60  C   UNL     1       8.848  -0.814 -11.498  1.00  0.00     0.031 C 
ATOM     61  C   UNL     1      12.815  -1.954  -7.052  1.00  0.00     0.029 A 
ATOM     62  C   UNL     1      11.858  -1.345  -7.846  1.00  0.00     0.049 A 
ATOM     63  H   UNL     1      10.926   0.534  -7.606  1.00  0.00     0.167 HD
ATOM     64  C   UNL     1      10.299  -1.184  -9.764  1.00  0.00     0.074 A 
ATOM     65  C   UNL     1       9.699  -1.688 -10.982  1.00  0.00     0.031 C 
ATOM     66  C   UNL     1      11.255  -1.836  -9.059  1.00  0.00     0.031 A 
BRANCH  53  67
ATOM     67  C   UNL     1      13.189   1.209  -4.044  1.00  0.00    -0.014 A 
ATOM     68  C   UNL     1      12.704   1.117  -2.730  1.00  0.00     0.009 A 
ATOM     69  C   UNL     1      14.578   1.281  -4.246  1.00  0.00     0.009 A 
ATOM     70  C   UNL     1      13.586   1.134  -1.646  1.00  0.00     0.001 A 
ATOM     71  C   UNL     1      15.459   1.265  -3.163  1.00  0.00     0.001 A 
ATOM     72  C   UNL     1      14.962   1.202  -1.863  1.00  0.00     0.000 A 
ENDBRANCH  53  67
BRANCH  54  73
ATOM     73  C   UNL     1       7.066   1.457 -11.918  1.00  0.00    -0.014 A 
ATOM     74  C   UNL     1       6.005   0.551 -12.058  1.00  0.00     0.009 A 
ATOM     75  C   UNL     1       7.293   2.395 -12.939  1.00  0.00     0.009 A 
ATOM     76  C   UNL     1       5.208   0.565 -13.206  1.00  0.00     0.001 A 
ATOM     77  C   UNL     1       6.470   2.434 -14.066  1.00  0.00     0.001 A 
ATOM     78  C   UNL     1       5.436   1.511 -14.204  1.00  0.00     0.000 A 
ENDBRANCH  54  73
BRANCH  66  79
ATOM     79  C   UNL     1      11.674  -3.188  -9.566  1.00  0.00    -0.014 A 
ATOM     80  C   UNL     1      12.411  -3.330 -10.753  1.00  0.00     0.009 A 
ATOM     81  C   UNL     1      11.334  -4.337  -8.836  1.00  0.00     0.009 A 
ATOM     82  C   UNL     1      12.756  -4.600 -11.221  1.00  0.00     0.001 A 
ATOM     83  C   UNL     1      11.711  -5.602  -9.288  1.00  0.00     0.001 A 
ATOM     84  C   UNL     1      12.410  -5.733 -10.486  1.00  0.00     0.000 A 
ENDBRANCH  66  79
ENDBRANCH  40  41
ENDBRANCH  33  35
ENDBRANCH  32  33
ENDBRANCH  31  32
ENDBRANCH   1  31
TORSDOF 16
