REMARK SMILES CO[C@@H]1C[C@H](C(=O)OCCOC(=O)c2ccc(-c3c4nc(c(-c5ccccc5)c5ccc([nH]5)c(-c5ccccc5)c5nc(c(-c6ccccc6)c6ccc3[nH]6)C=C5)C=C4)cc2)N(C(=O)[C@H](CC(C)C)NC(N)=O)C1
REMARK SMILES IDX 9 1 8 2 6 3 7 4 5 5 3 6 4 7 74 8 62 9 2 10 1 11 63 12 64 13
REMARK SMILES IDX 65 14 70 15 71 16 72 18 73 19 66 22 67 23 68 24 69 25 10 26
REMARK SMILES IDX 11 27 12 28 13 29 14 30 15 31 61 32 16 33 60 34 17 35 18 36
REMARK SMILES IDX 19 37 54 38 20 39 59 40 53 41 55 42 21 43 58 44 52 45 51 46
REMARK SMILES IDX 22 48 44 49 29 50 43 51 30 52 33 53 42 54 56 55 31 56 32 57
REMARK SMILES IDX 41 59 57 60 34 61 23 62 24 63 28 64 25 65 27 66 26 67 45 68
REMARK SMILES IDX 46 69 50 70 47 71 49 72 48 73 35 74 36 75 40 76 37 77 39 78
REMARK SMILES IDX 38 79
REMARK H PARENT 70 17 72 20 72 21 55 47 33 58
REMARK Flexibility Score: inf
ROOT
ATOM      1  C   UNL     1       7.979   9.356  -0.540  1.00  0.00     0.274 C 
ENDROOT
BRANCH   1   2
ATOM      2  O   UNL     1       6.551   9.486  -0.429  1.00  0.00    -0.461 OA
BRANCH   2   3
ATOM      3  C   UNL     1       5.903   8.507   0.242  1.00  0.00     0.329 C 
ATOM      4  O   UNL     1       6.463   7.537   0.746  1.00  0.00    -0.250 OA
BRANCH   3   5
ATOM      5  C   UNL     1       4.370   8.677   0.268  1.00  0.00     0.197 C 
ATOM      6  C   UNL     1       3.634   9.693  -1.799  1.00  0.00     0.140 C 
ATOM      7  C   UNL     1       3.804   9.973  -0.302  1.00  0.00     0.071 C 
ATOM      8  C   UNL     1       3.464   8.168  -1.887  1.00  0.00     0.152 C 
ATOM      9  N   UNL     1       3.772   7.644  -0.566  1.00  0.00    -0.324 N 
BRANCH   6  10
ATOM     10  O   UNL     1       4.800  10.159  -2.475  1.00  0.00    -0.380 OA
ATOM     11  C   UNL     1       4.645  10.229  -3.884  1.00  0.00     0.195 C 
ENDBRANCH   6  10
BRANCH   9  12
ATOM     12  C   UNL     1       3.688   6.292  -0.301  1.00  0.00     0.246 C 
ATOM     13  O   UNL     1       3.596   5.505  -1.246  1.00  0.00    -0.272 OA
BRANCH  12  14
ATOM     14  C   UNL     1       3.778   5.805   1.174  1.00  0.00     0.173 C 
BRANCH  14  15
ATOM     15  N   UNL     1       2.825   6.497   2.045  1.00  0.00    -0.327 N 
ATOM     16  C   UNL     1       3.046   6.629   3.381  1.00  0.00     0.312 C 
ATOM     17  H   UNL     1       2.004   6.875   1.654  1.00  0.00     0.166 HD
ATOM     18  N   UNL     1       2.035   7.246   4.035  1.00  0.00    -0.352 N 
ATOM     19  O   UNL     1       4.051   6.266   3.969  1.00  0.00    -0.249 OA
ATOM     20  H   UNL     1       1.232   7.532   3.542  1.00  0.00     0.161 HD
ATOM     21  H   UNL     1       2.103   7.408   5.003  1.00  0.00     0.161 HD
ENDBRANCH  14  15
BRANCH  14  22
ATOM     22  C   UNL     1       3.659   4.271   1.312  1.00  0.00     0.038 C 
BRANCH  22  23
ATOM     23  C   UNL     1       2.240   3.656   1.266  1.00  0.00    -0.015 C 
ATOM     24  C   UNL     1       1.479   3.924  -0.030  1.00  0.00     0.007 C 
ATOM     25  C   UNL     1       2.343   2.143   1.483  1.00  0.00     0.007 C 
ENDBRANCH  22  23
ENDBRANCH  14  22
ENDBRANCH  12  14
ENDBRANCH   9  12
ENDBRANCH   3   5
ENDBRANCH   2   3
ENDBRANCH   1   2
BRANCH   1  26
ATOM     26  C   UNL     1       8.679  10.411   0.316  1.00  0.00     0.275 C 
BRANCH  26  27
ATOM     27  O   UNL     1       8.411  10.213   1.718  1.00  0.00    -0.458 OA
BRANCH  27  28
ATOM     28  C   UNL     1       7.307  10.840   2.179  1.00  0.00     0.338 C 
ATOM     29  O   UNL     1       6.561  11.591   1.565  1.00  0.00    -0.246 OA
BRANCH  28  30
ATOM     30  C   UNL     1       6.990  10.373   3.533  1.00  0.00     0.060 A 
ATOM     31  C   UNL     1       5.783   9.697   3.710  1.00  0.00     0.016 A 
ATOM     32  C   UNL     1       7.797  10.681   4.628  1.00  0.00     0.016 A 
ATOM     33  C   UNL     1       5.362   9.334   4.981  1.00  0.00     0.010 A 
ATOM     34  C   UNL     1       7.373  10.315   5.911  1.00  0.00     0.010 A 
ATOM     35  C   UNL     1       6.145   9.654   6.094  1.00  0.00    -0.014 A 
BRANCH  35  36
ATOM     36  C   UNL     1       5.614   9.353   7.442  1.00  0.00     0.031 A 
ATOM     37  C   UNL     1       5.056  10.462   8.285  1.00  0.00     0.074 A 
ATOM     38  C   UNL     1       5.547   8.079   7.870  1.00  0.00     0.049 A 
ATOM     39  N   UNL     1       4.556  10.411   9.494  1.00  0.00    -0.248 NA
ATOM     40  C   UNL     1       5.041  11.805   7.682  1.00  0.00     0.031 C 
ATOM     41  C   UNL     1       5.958   6.906   7.099  1.00  0.00     0.029 A 
ATOM     42  N   UNL     1       5.087   7.561   9.053  1.00  0.00    -0.354 N 
ATOM     43  C   UNL     1       4.187  11.713   9.804  1.00  0.00     0.074 A 
ATOM     44  C   UNL     1       4.526  12.535   8.662  1.00  0.00     0.031 C 
ATOM     45  C   UNL     1       5.726   5.802   7.829  1.00  0.00     0.029 A 
ATOM     46  C   UNL     1       5.194   6.194   9.129  1.00  0.00     0.049 A 
ATOM     47  H   UNL     1       4.715   8.115   9.778  1.00  0.00     0.167 HD
ATOM     48  C   UNL     1       3.616  12.181  10.939  1.00  0.00     0.031 A 
ATOM     49  C   UNL     1       4.914   5.355  10.143  1.00  0.00     0.031 A 
ATOM     50  C   UNL     1       3.285  11.365  12.076  1.00  0.00     0.049 A 
ATOM     51  C   UNL     1       4.373   5.914  11.429  1.00  0.00     0.074 A 
ATOM     52  C   UNL     1       2.728  11.751  13.283  1.00  0.00     0.029 A 
ATOM     53  N   UNL     1       3.481   9.994  12.146  1.00  0.00    -0.354 N 
ATOM     54  N   UNL     1       4.056   7.152  11.724  1.00  0.00    -0.248 NA
ATOM     55  C   UNL     1       4.152   4.958  12.524  1.00  0.00     0.031 C 
ATOM     56  C   UNL     1       2.628  10.619  14.100  1.00  0.00     0.029 A 
ATOM     57  C   UNL     1       3.075   9.521  13.382  1.00  0.00     0.049 A 
ATOM     58  H   UNL     1       3.854   9.439  11.423  1.00  0.00     0.167 HD
ATOM     59  C   UNL     1       3.578   7.120  13.027  1.00  0.00     0.074 A 
ATOM     60  C   UNL     1       3.632   5.739  13.461  1.00  0.00     0.031 C 
ATOM     61  C   UNL     1       3.134   8.144  13.796  1.00  0.00     0.031 A 
BRANCH  48  62
ATOM     62  C   UNL     1       3.367  13.659  11.021  1.00  0.00    -0.014 A 
ATOM     63  C   UNL     1       2.317  14.264  10.314  1.00  0.00     0.009 A 
ATOM     64  C   UNL     1       4.190  14.454  11.834  1.00  0.00     0.009 A 
ATOM     65  C   UNL     1       2.116  15.644  10.396  1.00  0.00     0.001 A 
ATOM     66  C   UNL     1       3.972  15.829  11.931  1.00  0.00     0.001 A 
ATOM     67  C   UNL     1       2.941  16.424  11.206  1.00  0.00     0.000 A 
ENDBRANCH  48  62
BRANCH  49  68
ATOM     68  C   UNL     1       5.174   3.900   9.998  1.00  0.00    -0.014 A 
ATOM     69  C   UNL     1       4.115   2.983   9.937  1.00  0.00     0.009 A 
ATOM     70  C   UNL     1       6.492   3.420   9.932  1.00  0.00     0.009 A 
ATOM     71  C   UNL     1       4.371   1.613   9.836  1.00  0.00     0.001 A 
ATOM     72  C   UNL     1       6.745   2.053   9.804  1.00  0.00     0.001 A 
ATOM     73  C   UNL     1       5.684   1.150   9.765  1.00  0.00     0.000 A 
ENDBRANCH  49  68
BRANCH  61  74
ATOM     74  C   UNL     1       2.636   7.801  15.170  1.00  0.00    -0.014 A 
ATOM     75  C   UNL     1       3.525   7.467  16.204  1.00  0.00     0.009 A 
ATOM     76  C   UNL     1       1.260   7.847  15.441  1.00  0.00     0.009 A 
ATOM     77  C   UNL     1       3.040   7.157  17.476  1.00  0.00     0.001 A 
ATOM     78  C   UNL     1       0.781   7.561  16.720  1.00  0.00     0.001 A 
ATOM     79  C   UNL     1       1.670   7.208  17.734  1.00  0.00     0.000 A 
ENDBRANCH  61  74
ENDBRANCH  35  36
ENDBRANCH  28  30
ENDBRANCH  27  28
ENDBRANCH  26  27
ENDBRANCH   1  26
TORSDOF 17
