REMARK SMILES Cc1nccnc1N1CCC2(CCC(=O)N([C@@H](C)C(=O)OCCOC(=O)c3ccc(-c4c5nc(c(-c6ccccc6)c6ccc([nH]6)c(-c6ccccc6)c6nc(c(-c7ccccc7)c7ccc4[nH]7)C=C6)C=C5)cc3)C2)CC1
REMARK SMILES IDX 22 1 21 2 19 3 20 4 17 5 18 6 16 7 8 8 9 9 77 10 10 11 76 12
REMARK SMILES IDX 11 13 12 14 75 15 13 16 14 17 15 18 7 19 1 20 2 21 3 22 4 23
REMARK SMILES IDX 6 24 5 25 23 26 24 27 25 28 26 29 27 30 28 31 74 32 29 33
REMARK SMILES IDX 73 34 30 35 31 36 32 37 67 38 33 39 72 40 66 41 68 42 34 43
REMARK SMILES IDX 71 44 65 45 64 46 35 48 57 49 42 50 56 51 43 52 46 53 55 54
REMARK SMILES IDX 69 55 44 56 45 57 54 59 70 60 47 61 36 62 37 63 41 64 38 65
REMARK SMILES IDX 40 66 39 67 58 68 59 69 63 70 60 71 62 72 61 73 48 74 49 75
REMARK SMILES IDX 53 76 50 77 52 78 51 79
REMARK H PARENT 68 47 46 58
REMARK Flexibility Score: inf
ROOT
ATOM      1  C   UNL     1       1.699   7.820   5.040  1.00  0.00     0.274 C 
ENDROOT
BRANCH   1   2
ATOM      2  O   UNL     1       2.488   7.539   3.865  1.00  0.00    -0.461 OA
BRANCH   2   3
ATOM      3  C   UNL     1       3.802   7.248   4.044  1.00  0.00     0.328 C 
ATOM      4  O   UNL     1       4.381   7.327   5.127  1.00  0.00    -0.250 OA
BRANCH   3   5
ATOM      5  C   UNL     1       4.522   6.739   2.769  1.00  0.00     0.192 C 
ATOM      6  C   UNL     1       5.775   7.573   2.500  1.00  0.00     0.044 C 
BRANCH   5   7
ATOM      7  N   UNL     1       3.712   6.483   1.554  1.00  0.00    -0.329 N 
ATOM      8  N   UNL     1       1.086   2.328  -0.357  1.00  0.00    -0.355 N 
ATOM      9  C   UNL     1       0.422   3.474   0.242  1.00  0.00     0.119 C 
ATOM     10  C   UNL     1       2.013   2.667  -1.425  1.00  0.00     0.119 C 
ATOM     11  C   UNL     1       1.505   4.317   0.904  1.00  0.00     0.030 C 
ATOM     12  C   UNL     1       3.162   3.483  -0.816  1.00  0.00     0.030 C 
ATOM     13  C   UNL     1       2.697   4.723   0.007  1.00  0.00    -0.008 C 
ATOM     14  C   UNL     1       2.350   5.896  -0.924  1.00  0.00     0.019 C 
ATOM     15  C   UNL     1       3.879   5.188   0.893  1.00  0.00     0.127 C 
ATOM     16  C   UNL     1       2.090   7.194  -0.168  1.00  0.00     0.101 C 
ATOM     17  C   UNL     1       3.096   7.542   0.914  1.00  0.00     0.223 C 
ATOM     18  O   UNL     1       3.248   8.713   1.262  1.00  0.00    -0.275 OA
BRANCH   8  19
ATOM     19  C   UNL     1       0.417   1.118  -0.330  1.00  0.00     0.150 A 
ATOM     20  C   UNL     1       2.570  -0.238  -0.109  1.00  0.00     0.071 C 
ATOM     21  C   UNL     1       1.078  -0.126  -0.215  1.00  0.00     0.080 A 
ATOM     22  N   UNL     1       0.409  -1.313  -0.117  1.00  0.00    -0.256 NA
ATOM     23  C   UNL     1      -0.934  -1.233  -0.108  1.00  0.00     0.131 A 
ATOM     24  N   UNL     1      -0.939   1.152  -0.306  1.00  0.00    -0.236 NA
ATOM     25  C   UNL     1      -1.592  -0.026  -0.196  1.00  0.00     0.133 A 
ENDBRANCH   8  19
ENDBRANCH   5   7
ENDBRANCH   3   5
ENDBRANCH   2   3
ENDBRANCH   1   2
BRANCH   1  26
ATOM     26  C   UNL     1       0.602   6.760   5.236  1.00  0.00     0.275 C 
BRANCH  26  27
ATOM     27  O   UNL     1       1.127   5.491   5.695  1.00  0.00    -0.458 OA
BRANCH  27  28
ATOM     28  C   UNL     1       1.639   4.752   4.690  1.00  0.00     0.338 C 
ATOM     29  O   UNL     1       1.684   5.080   3.521  1.00  0.00    -0.246 OA
BRANCH  28  30
ATOM     30  C   UNL     1       2.265   3.497   5.101  1.00  0.00     0.060 A 
ATOM     31  C   UNL     1       3.616   3.334   4.782  1.00  0.00     0.016 A 
ATOM     32  C   UNL     1       1.508   2.424   5.568  1.00  0.00     0.016 A 
ATOM     33  C   UNL     1       4.221   2.094   4.926  1.00  0.00     0.010 A 
ATOM     34  C   UNL     1       2.127   1.182   5.748  1.00  0.00     0.010 A 
ATOM     35  C   UNL     1       3.485   1.011   5.430  1.00  0.00    -0.014 A 
BRANCH  35  36
ATOM     36  C   UNL     1       4.192  -0.257   5.715  1.00  0.00     0.031 A 
ATOM     37  C   UNL     1       3.997  -1.476   4.864  1.00  0.00     0.074 A 
ATOM     38  C   UNL     1       5.049  -0.278   6.753  1.00  0.00     0.049 A 
ATOM     39  N   UNL     1       4.545  -2.658   4.995  1.00  0.00    -0.248 NA
ATOM     40  C   UNL     1       3.075  -1.360   3.724  1.00  0.00     0.031 C 
ATOM     41  C   UNL     1       5.332   0.861   7.633  1.00  0.00     0.029 A 
ATOM     42  N   UNL     1       5.845  -1.281   7.240  1.00  0.00    -0.354 N 
ATOM     43  C   UNL     1       4.027  -3.432   3.965  1.00  0.00     0.074 A 
ATOM     44  C   UNL     1       3.114  -2.588   3.221  1.00  0.00     0.031 C 
ATOM     45  C   UNL     1       6.250   0.496   8.540  1.00  0.00     0.029 A 
ATOM     46  C   UNL     1       6.579  -0.909   8.339  1.00  0.00     0.049 A 
ATOM     47  H   UNL     1       5.887  -2.180   6.840  1.00  0.00     0.167 HD
ATOM     48  C   UNL     1       4.291  -4.729   3.674  1.00  0.00     0.031 A 
ATOM     49  C   UNL     1       7.405  -1.627   9.120  1.00  0.00     0.031 A 
ATOM     50  C   UNL     1       5.194  -5.565   4.423  1.00  0.00     0.049 A 
ATOM     51  C   UNL     1       7.633  -3.073   8.802  1.00  0.00     0.074 A 
ATOM     52  C   UNL     1       5.542  -6.886   4.189  1.00  0.00     0.029 A 
ATOM     53  N   UNL     1       5.886  -5.166   5.556  1.00  0.00    -0.354 N 
ATOM     54  N   UNL     1       7.154  -3.783   7.811  1.00  0.00    -0.248 NA
ATOM     55  C   UNL     1       8.512  -3.817   9.714  1.00  0.00     0.031 C 
ATOM     56  C   UNL     1       6.408  -7.299   5.208  1.00  0.00     0.029 A 
ATOM     57  C   UNL     1       6.634  -6.223   6.051  1.00  0.00     0.049 A 
ATOM     58  H   UNL     1       5.851  -4.265   5.951  1.00  0.00     0.167 HD
ATOM     59  C   UNL     1       7.676  -5.057   7.974  1.00  0.00     0.074 A 
ATOM     60  C   UNL     1       8.528  -5.015   9.146  1.00  0.00     0.031 C 
ATOM     61  C   UNL     1       7.463  -6.165   7.225  1.00  0.00     0.031 A 
BRANCH  48  62
ATOM     62  C   UNL     1       3.567  -5.344   2.512  1.00  0.00    -0.014 A 
ATOM     63  C   UNL     1       3.957  -5.080   1.190  1.00  0.00     0.009 A 
ATOM     64  C   UNL     1       2.527  -6.258   2.746  1.00  0.00     0.009 A 
ATOM     65  C   UNL     1       3.305  -5.707   0.125  1.00  0.00     0.001 A 
ATOM     66  C   UNL     1       1.890  -6.896   1.680  1.00  0.00     0.001 A 
ATOM     67  C   UNL     1       2.277  -6.617   0.371  1.00  0.00     0.000 A 
ENDBRANCH  48  62
BRANCH  49  68
ATOM     68  C   UNL     1       8.036  -0.992  10.303  1.00  0.00    -0.014 A 
ATOM     69  C   UNL     1       9.410  -0.714  10.322  1.00  0.00     0.009 A 
ATOM     70  C   UNL     1       7.255  -0.648  11.418  1.00  0.00     0.009 A 
ATOM     71  C   UNL     1       9.992  -0.120  11.444  1.00  0.00     0.001 A 
ATOM     72  C   UNL     1       7.835  -0.031  12.527  1.00  0.00     0.001 A 
ATOM     73  C   UNL     1       9.204   0.225  12.542  1.00  0.00     0.000 A 
ENDBRANCH  49  68
BRANCH  61  74
ATOM     74  C   UNL     1       8.175  -7.413   7.656  1.00  0.00    -0.014 A 
ATOM     75  C   UNL     1       7.737  -8.143   8.772  1.00  0.00     0.009 A 
ATOM     76  C   UNL     1       9.290  -7.866   6.935  1.00  0.00     0.009 A 
ATOM     77  C   UNL     1       8.425  -9.287   9.178  1.00  0.00     0.001 A 
ATOM     78  C   UNL     1       9.961  -9.023   7.331  1.00  0.00     0.001 A 
ATOM     79  C   UNL     1       9.534  -9.727   8.457  1.00  0.00     0.000 A 
ENDBRANCH  61  74
ENDBRANCH  35  36
ENDBRANCH  28  30
ENDBRANCH  27  28
ENDBRANCH  26  27
ENDBRANCH   1  26
TORSDOF 13
