REMARK SMILES O=C(Cc1cccc(-c2ccn(C(F)F)c(=O)c2)c1)OCCOC(=O)c1ccc(-c2c3nc(c(-c4ccccc4)c4ccc([nH]4)c(-c4ccccc4)c4nc(c(-c5ccccc5)c5ccc2[nH]5)C=C4)C=C3)cc1
REMARK SMILES IDX 21 1 20 2 2 3 1 4 3 5 4 6 5 7 19 8 6 9 8 10 7 11 9 12 10 13
REMARK SMILES IDX 18 14 11 15 16 16 12 17 17 18 13 19 14 20 15 21 22 22 23 23
REMARK SMILES IDX 24 24 25 25 26 26 27 27 73 28 28 29 72 30 29 31 30 32 31 33
REMARK SMILES IDX 66 34 32 35 71 36 65 37 67 38 33 39 70 40 64 41 63 42 34 44
REMARK SMILES IDX 56 45 41 46 55 47 42 48 45 49 54 50 68 51 43 52 44 53 53 55
REMARK SMILES IDX 69 56 46 57 35 58 36 59 40 60 37 61 39 62 38 63 57 64 58 65
REMARK SMILES IDX 62 66 59 67 61 68 60 69 47 70 48 71 52 72 49 73 51 74 50 75
REMARK H PARENT 67 43 45 54
REMARK Flexibility Score: inf
ROOT
ATOM      1  C   UNL     1       4.576  -0.533  -0.828  1.00  0.00     0.274 C 
ENDROOT
BRANCH   1   2
ATOM      2  O   UNL     1       3.223  -1.002  -0.631  1.00  0.00    -0.462 OA
BRANCH   2   3
ATOM      3  C   UNL     1       2.435  -0.711   0.429  1.00  0.00     0.310 C 
ATOM      4  O   UNL     1       1.345  -1.266   0.561  1.00  0.00    -0.252 OA
BRANCH   3   5
ATOM      5  C   UNL     1       2.904   0.309   1.434  1.00  0.00     0.158 C 
BRANCH   5   6
ATOM      6  C   UNL     1       3.832  -0.156   2.526  1.00  0.00    -0.036 A 
ATOM      7  C   UNL     1       4.010  -1.498   2.870  1.00  0.00     0.004 A 
ATOM      8  C   UNL     1       4.499   0.831   3.273  1.00  0.00     0.013 A 
ATOM      9  C   UNL     1       4.859  -1.844   3.924  1.00  0.00     0.001 A 
ATOM     10  C   UNL     1       5.329   0.498   4.350  1.00  0.00    -0.018 A 
ATOM     11  C   UNL     1       5.512  -0.853   4.662  1.00  0.00     0.009 A 
BRANCH  10  12
ATOM     12  C   UNL     1       5.924   1.577   5.167  1.00  0.00    -0.011 A 
ATOM     13  C   UNL     1       5.112   2.632   5.751  1.00  0.00     0.027 A 
ATOM     14  C   UNL     1       7.253   1.596   5.373  1.00  0.00     0.080 A 
ATOM     15  C   UNL     1       5.670   3.598   6.488  1.00  0.00     0.095 A 
ATOM     16  C   UNL     1       7.889   2.664   6.196  1.00  0.00     0.255 A 
ATOM     17  N   UNL     1       7.032   3.619   6.717  1.00  0.00    -0.258 N 
ATOM     18  O   UNL     1       9.104   2.629   6.359  1.00  0.00    -0.269 OA
BRANCH  17  19
ATOM     19  C   UNL     1       7.617   4.652   7.534  1.00  0.00     0.451 C 
ATOM     20  F   UNL     1       8.236   4.123   8.617  1.00  0.00    -0.185 F 
ATOM     21  F   UNL     1       8.529   5.370   6.835  1.00  0.00    -0.185 F 
ENDBRANCH  17  19
ENDBRANCH  10  12
ENDBRANCH   5   6
ENDBRANCH   3   5
ENDBRANCH   2   3
ENDBRANCH   1   2
BRANCH   1  22
ATOM     22  C   UNL     1       4.632   0.586  -1.870  1.00  0.00     0.275 C 
BRANCH  22  23
ATOM     23  O   UNL     1       4.122   1.811  -1.310  1.00  0.00    -0.458 OA
BRANCH  23  24
ATOM     24  C   UNL     1       2.833   2.106  -1.611  1.00  0.00     0.338 C 
ATOM     25  O   UNL     1       2.109   1.509  -2.388  1.00  0.00    -0.246 OA
BRANCH  24  26
ATOM     26  C   UNL     1       2.349   3.163  -0.692  1.00  0.00     0.060 A 
ATOM     27  C   UNL     1       1.038   3.055  -0.212  1.00  0.00     0.016 A 
ATOM     28  C   UNL     1       3.165   4.219  -0.271  1.00  0.00     0.016 A 
ATOM     29  C   UNL     1       0.532   4.016   0.664  1.00  0.00     0.010 A 
ATOM     30  C   UNL     1       2.655   5.184   0.606  1.00  0.00     0.010 A 
ATOM     31  C   UNL     1       1.328   5.101   1.059  1.00  0.00    -0.014 A 
BRANCH  31  32
ATOM     32  C   UNL     1       0.722   6.198   1.852  1.00  0.00     0.031 A 
ATOM     33  C   UNL     1       0.231   7.431   1.144  1.00  0.00     0.074 A 
ATOM     34  C   UNL     1       0.564   6.084   3.183  1.00  0.00     0.049 A 
ATOM     35  N   UNL     1      -0.410   8.464   1.630  1.00  0.00    -0.248 NA
ATOM     36  C   UNL     1       0.491   7.508  -0.302  1.00  0.00     0.031 C 
ATOM     37  C   UNL     1       0.982   4.941   3.995  1.00  0.00     0.029 A 
ATOM     38  N   UNL     1      -0.005   6.948   4.086  1.00  0.00    -0.354 N 
ATOM     39  C   UNL     1      -0.651   9.300   0.548  1.00  0.00     0.074 A 
ATOM     40  C   UNL     1      -0.043   8.680  -0.610  1.00  0.00     0.031 C 
ATOM     41  C   UNL     1       0.652   5.175   5.278  1.00  0.00     0.029 A 
ATOM     42  C   UNL     1       0.009   6.484   5.378  1.00  0.00     0.049 A 
ATOM     43  H   UNL     1      -0.387   7.819   3.831  1.00  0.00     0.167 HD
ATOM     44  C   UNL     1      -1.333  10.469   0.511  1.00  0.00     0.031 A 
ATOM     45  C   UNL     1      -0.449   7.049   6.512  1.00  0.00     0.031 A 
ATOM     46  C   UNL     1      -1.915  11.113   1.658  1.00  0.00     0.049 A 
ATOM     47  C   UNL     1      -1.144   8.384   6.455  1.00  0.00     0.074 A 
ATOM     48  C   UNL     1      -2.626  12.300   1.713  1.00  0.00     0.029 A 
ATOM     49  N   UNL     1      -1.844  10.629   2.953  1.00  0.00    -0.354 N 
ATOM     50  N   UNL     1      -1.411   9.136   5.415  1.00  0.00    -0.248 NA
ATOM     51  C   UNL     1      -1.618   8.938   7.733  1.00  0.00     0.031 C 
ATOM     52  C   UNL     1      -2.945  12.557   3.051  1.00  0.00     0.029 A 
ATOM     53  C   UNL     1      -2.477  11.504   3.819  1.00  0.00     0.049 A 
ATOM     54  H   UNL     1      -1.407   9.787   3.219  1.00  0.00     0.167 HD
ATOM     55  C   UNL     1      -2.106  10.234   5.909  1.00  0.00     0.074 A 
ATOM     56  C   UNL     1      -2.237  10.041   7.338  1.00  0.00     0.031 C 
ATOM     57  C   UNL     1      -2.594  11.307   5.240  1.00  0.00     0.031 A 
BRANCH  44  58
ATOM     58  C   UNL     1      -1.481  11.135  -0.827  1.00  0.00    -0.014 A 
ATOM     59  C   UNL     1      -2.360  10.620  -1.792  1.00  0.00     0.009 A 
ATOM     60  C   UNL     1      -0.769  12.310  -1.110  1.00  0.00     0.009 A 
ATOM     61  C   UNL     1      -2.504  11.255  -3.027  1.00  0.00     0.001 A 
ATOM     62  C   UNL     1      -0.932  12.956  -2.337  1.00  0.00     0.001 A 
ATOM     63  C   UNL     1      -1.794  12.424  -3.296  1.00  0.00     0.000 A 
ENDBRANCH  44  58
BRANCH  45  64
ATOM     64  C   UNL     1      -0.266   6.364   7.818  1.00  0.00    -0.014 A 
ATOM     65  C   UNL     1      -1.363   5.830   8.510  1.00  0.00     0.009 A 
ATOM     66  C   UNL     1       1.008   6.291   8.403  1.00  0.00     0.009 A 
ATOM     67  C   UNL     1      -1.195   5.271   9.778  1.00  0.00     0.001 A 
ATOM     68  C   UNL     1       1.178   5.706   9.659  1.00  0.00     0.001 A 
ATOM     69  C   UNL     1       0.075   5.208  10.351  1.00  0.00     0.000 A 
ENDBRANCH  45  64
BRANCH  57  70
ATOM     70  C   UNL     1      -3.332  12.341   6.043  1.00  0.00    -0.014 A 
ATOM     71  C   UNL     1      -2.655  13.201   6.922  1.00  0.00     0.009 A 
ATOM     72  C   UNL     1      -4.723  12.474   5.901  1.00  0.00     0.009 A 
ATOM     73  C   UNL     1      -3.360  14.144   7.673  1.00  0.00     0.001 A 
ATOM     74  C   UNL     1      -5.422  13.436   6.631  1.00  0.00     0.001 A 
ATOM     75  C   UNL     1      -4.742  14.263   7.524  1.00  0.00     0.000 A 
ENDBRANCH  57  70
ENDBRANCH  31  32
ENDBRANCH  24  26
ENDBRANCH  23  24
ENDBRANCH  22  23
ENDBRANCH   1  22
TORSDOF 14
