REMARK SMILES CC(C)Cc1ccc([C@H](CF)C(=O)OCCOC(=O)c2ccc(-c3c4nc(c(-c5ccccc5)c5ccc([nH]5)c(-c5ccccc5)c5nc(c(-c6ccccc6)c6ccc3[nH]6)C=C5)C=C4)cc2)cc1
REMARK SMILES IDX 15 1 14 2 12 3 13 4 9 5 8 6 5 7 6 8 69 9 7 10 68 11 4 12
REMARK SMILES IDX 2 13 1 14 3 15 10 16 11 17 16 18 17 19 18 20 19 21 20 22
REMARK SMILES IDX 21 23 67 24 22 25 66 26 23 27 24 28 25 29 60 30 26 31 65 32
REMARK SMILES IDX 59 33 61 34 27 35 64 36 58 37 57 38 28 40 50 41 35 42 49 43
REMARK SMILES IDX 36 44 39 45 48 46 62 47 37 48 38 49 47 51 63 52 40 53 29 54
REMARK SMILES IDX 30 55 34 56 31 57 33 58 32 59 51 60 52 61 56 62 53 63 55 64
REMARK SMILES IDX 54 65 41 66 42 67 46 68 43 69 45 70 44 71
REMARK H PARENT 61 39 39 50
REMARK Flexibility Score: inf
ROOT
ATOM      1  C   UNL     1      -1.888  -1.756  -5.723  1.00  0.00     0.274 C 
ENDROOT
BRANCH   1   2
ATOM      2  O   UNL     1      -2.319  -2.158  -4.407  1.00  0.00    -0.462 OA
BRANCH   2   3
ATOM      3  C   UNL     1      -2.527  -3.493  -4.237  1.00  0.00     0.316 C 
ATOM      4  O   UNL     1      -2.357  -4.334  -5.114  1.00  0.00    -0.251 OA
BRANCH   3   5
ATOM      5  C   UNL     1      -3.040  -3.848  -2.847  1.00  0.00     0.160 C 
BRANCH   5   6
ATOM      6  C   UNL     1      -4.544  -4.048  -2.892  1.00  0.00    -0.031 A 
ATOM      7  C   UNL     1      -7.306  -4.368  -3.345  1.00  0.00    -0.048 A 
ATOM      8  C   UNL     1      -6.409  -5.354  -3.761  1.00  0.00     0.004 A 
ATOM      9  C   UNL     1      -6.822  -3.268  -2.625  1.00  0.00     0.004 A 
ATOM     10  C   UNL     1      -5.044  -5.196  -3.534  1.00  0.00     0.005 A 
ATOM     11  C   UNL     1      -5.454  -3.104  -2.407  1.00  0.00     0.005 A 
BRANCH   7  12
ATOM     12  C   UNL     1      -8.759  -4.441  -3.743  1.00  0.00     0.038 C 
BRANCH  12  13
ATOM     13  C   UNL     1      -9.158  -3.308  -4.715  1.00  0.00    -0.013 C 
ATOM     14  C   UNL     1      -8.405  -3.394  -6.048  1.00  0.00     0.008 C 
ATOM     15  C   UNL     1     -10.664  -3.338  -4.967  1.00  0.00     0.008 C 
ENDBRANCH  12  13
ENDBRANCH   7  12
ENDBRANCH   5   6
BRANCH   5  16
ATOM     16  C   UNL     1      -2.486  -2.902  -1.788  1.00  0.00     0.234 C 
ATOM     17  F   UNL     1      -2.714  -3.433  -0.553  1.00  0.00    -0.250 F 
ENDBRANCH   5  16
ENDBRANCH   3   5
ENDBRANCH   2   3
ENDBRANCH   1   2
BRANCH   1  18
ATOM     18  C   UNL     1      -0.364  -1.634  -5.827  1.00  0.00     0.275 C 
BRANCH  18  19
ATOM     19  O   UNL     1       0.298  -2.904  -5.677  1.00  0.00    -0.458 OA
BRANCH  19  20
ATOM     20  C   UNL     1       0.696  -3.195  -4.417  1.00  0.00     0.338 C 
ATOM     21  O   UNL     1       0.581  -2.494  -3.426  1.00  0.00    -0.246 OA
BRANCH  20  22
ATOM     22  C   UNL     1       1.172  -4.584  -4.348  1.00  0.00     0.060 A 
ATOM     23  C   UNL     1       0.390  -5.508  -3.652  1.00  0.00     0.016 A 
ATOM     24  C   UNL     1       2.414  -4.953  -4.863  1.00  0.00     0.016 A 
ATOM     25  C   UNL     1       0.837  -6.809  -3.465  1.00  0.00     0.010 A 
ATOM     26  C   UNL     1       2.867  -6.263  -4.673  1.00  0.00     0.010 A 
ATOM     27  C   UNL     1       2.085  -7.193  -3.964  1.00  0.00    -0.014 A 
BRANCH  27  28
ATOM     28  C   UNL     1       2.585  -8.557  -3.688  1.00  0.00     0.031 A 
ATOM     29  C   UNL     1       3.637  -8.768  -2.641  1.00  0.00     0.074 A 
ATOM     30  C   UNL     1       2.066  -9.607  -4.349  1.00  0.00     0.049 A 
ATOM     31  N   UNL     1       4.255  -9.871  -2.301  1.00  0.00    -0.248 NA
ATOM     32  C   UNL     1       4.050  -7.582  -1.874  1.00  0.00     0.031 C 
ATOM     33  C   UNL     1       0.994  -9.534  -5.344  1.00  0.00     0.029 A 
ATOM     34  N   UNL     1       2.372 -10.941  -4.280  1.00  0.00    -0.354 N 
ATOM     35  C   UNL     1       5.148  -9.509  -1.302  1.00  0.00     0.074 A 
ATOM     36  C   UNL     1       4.996  -8.084  -1.093  1.00  0.00     0.031 C 
ATOM     37  C   UNL     1       0.732 -10.772  -5.792  1.00  0.00     0.029 A 
ATOM     38  C   UNL     1       1.645 -11.714  -5.151  1.00  0.00     0.049 A 
ATOM     39  H   UNL     1       3.047 -11.309  -3.666  1.00  0.00     0.167 HD
ATOM     40  C   UNL     1       6.019 -10.293  -0.625  1.00  0.00     0.031 A 
ATOM     41  C   UNL     1       1.728 -13.029  -5.423  1.00  0.00     0.031 A 
ATOM     42  C   UNL     1       6.163 -11.709  -0.829  1.00  0.00     0.049 A 
ATOM     43  C   UNL     1       2.742 -13.867  -4.701  1.00  0.00     0.074 A 
ATOM     44  C   UNL     1       7.012 -12.593  -0.185  1.00  0.00     0.029 A 
ATOM     45  N   UNL     1       5.439 -12.449  -1.751  1.00  0.00    -0.354 N 
ATOM     46  N   UNL     1       3.595 -13.511  -3.771  1.00  0.00    -0.248 NA
ATOM     47  C   UNL     1       2.809 -15.288  -5.070  1.00  0.00     0.031 C 
ATOM     48  C   UNL     1       6.829 -13.862  -0.747  1.00  0.00     0.029 A 
ATOM     49  C   UNL     1       5.837 -13.774  -1.710  1.00  0.00     0.049 A 
ATOM     50  H   UNL     1       4.744 -12.085  -2.346  1.00  0.00     0.167 HD
ATOM     51  C   UNL     1       4.293 -14.663  -3.437  1.00  0.00     0.074 A 
ATOM     52  C   UNL     1       3.752 -15.733  -4.251  1.00  0.00     0.031 C 
ATOM     53  C   UNL     1       5.295 -14.821  -2.538  1.00  0.00     0.031 A 
BRANCH  40  54
ATOM     54  C   UNL     1       6.918  -9.617   0.369  1.00  0.00    -0.014 A 
ATOM     55  C   UNL     1       6.439  -9.180   1.613  1.00  0.00     0.009 A 
ATOM     56  C   UNL     1       8.273  -9.427   0.055  1.00  0.00     0.009 A 
ATOM     57  C   UNL     1       7.293  -8.536   2.510  1.00  0.00     0.001 A 
ATOM     58  C   UNL     1       9.130  -8.803   0.963  1.00  0.00     0.001 A 
ATOM     59  C   UNL     1       8.637  -8.350   2.186  1.00  0.00     0.000 A 
ENDBRANCH  40  54
BRANCH  41  60
ATOM     60  C   UNL     1       0.845 -13.621  -6.459  1.00  0.00    -0.014 A 
ATOM     61  C   UNL     1      -0.223 -14.454  -6.098  1.00  0.00     0.009 A 
ATOM     62  C   UNL     1       1.061 -13.339  -7.817  1.00  0.00     0.009 A 
ATOM     63  C   UNL     1      -1.052 -15.002  -7.079  1.00  0.00     0.001 A 
ATOM     64  C   UNL     1       0.217 -13.870  -8.794  1.00  0.00     0.001 A 
ATOM     65  C   UNL     1      -0.836 -14.705  -8.424  1.00  0.00     0.000 A 
ENDBRANCH  41  60
BRANCH  53  66
ATOM     66  C   UNL     1       5.856 -16.203  -2.381  1.00  0.00    -0.014 A 
ATOM     67  C   UNL     1       6.728 -16.741  -3.339  1.00  0.00     0.009 A 
ATOM     68  C   UNL     1       5.534 -16.963  -1.246  1.00  0.00     0.009 A 
ATOM     69  C   UNL     1       7.246 -18.027  -3.177  1.00  0.00     0.001 A 
ATOM     70  C   UNL     1       6.070 -18.240  -1.076  1.00  0.00     0.001 A 
ATOM     71  C   UNL     1       6.919 -18.774  -2.045  1.00  0.00     0.000 A 
ENDBRANCH  53  66
ENDBRANCH  27  28
ENDBRANCH  20  22
ENDBRANCH  19  20
ENDBRANCH  18  19
ENDBRANCH   1  18
TORSDOF 15
