REMARK SMILES Cc1ccc(N2CC[C@H]([NH+]3CCOCC3)[C@H](CCC(=O)OCCOC(=O)c3ccc(-c4c5nc(c(-c6ccccc6)c6ccc([nH]6)c(-c6ccccc6)c6nc(c(-c7ccccc7)c7ccc4[nH]7)C=C6)C=C5)cc3)C2)nc1
REMARK SMILES IDX 22 1 21 2 19 3 20 4 18 5 17 6 16 7 6 8 7 9 75 10 8 11 9 12
REMARK SMILES IDX 5 13 1 14 2 15 3 16 77 17 4 18 76 19 10 20 11 21 15 22 12 24
REMARK SMILES IDX 14 25 13 26 23 27 24 28 25 29 26 30 27 31 28 32 74 33 29 34
REMARK SMILES IDX 73 35 30 36 31 37 32 38 67 39 33 40 72 41 66 42 68 43 34 44
REMARK SMILES IDX 71 45 65 46 64 47 35 49 57 50 42 51 56 52 43 53 46 54 55 55
REMARK SMILES IDX 69 56 44 57 45 58 54 60 70 61 47 62 36 63 37 64 41 65 38 66
REMARK SMILES IDX 40 67 39 68 58 69 59 70 63 71 60 72 62 73 61 74 48 75 49 76
REMARK SMILES IDX 53 77 50 78 52 79 51 80
REMARK H PARENT 10 23 68 48 46 59
REMARK Flexibility Score: inf
ROOT
ATOM      1  C   UNL     1      -7.052   0.173  -5.132  1.00  0.00     0.274 C 
ENDROOT
BRANCH   1   2
ATOM      2  O   UNL     1      -5.961  -0.063  -4.225  1.00  0.00    -0.462 OA
BRANCH   2   3
ATOM      3  C   UNL     1      -5.693  -1.368  -3.967  1.00  0.00     0.305 C 
ATOM      4  O   UNL     1      -6.398  -2.317  -4.290  1.00  0.00    -0.252 OA
BRANCH   3   5
ATOM      5  C   UNL     1      -4.293  -1.540  -3.439  1.00  0.00     0.123 C 
BRANCH   5   6
ATOM      6  C   UNL     1      -3.888  -0.829  -2.161  1.00  0.00     0.023 C 
BRANCH   6   7
ATOM      7  C   UNL     1      -4.944  -0.263  -1.185  1.00  0.00     0.067 C 
ATOM      8  N   UNL     1      -3.310   0.430   0.566  1.00  0.00    -0.356 N 
ATOM      9  C   UNL     1      -3.848  -0.484   1.563  1.00  0.00     0.124 C 
ATOM     10  C   UNL     1      -4.256   0.926  -0.433  1.00  0.00     0.127 C 
ATOM     11  C   UNL     1      -4.503  -1.690   0.895  1.00  0.00     0.087 C 
ATOM     12  C   UNL     1      -5.577  -1.210  -0.092  1.00  0.00     0.190 C 
BRANCH   8  13
ATOM     13  C   UNL     1      -1.959   0.307   0.286  1.00  0.00     0.128 A 
ATOM     14  C   UNL     1       2.274  -0.119  -0.128  1.00  0.00     0.046 C 
ATOM     15  C   UNL     1       0.796   0.068  -0.019  1.00  0.00    -0.033 A 
ATOM     16  C   UNL     1       0.175   1.285  -0.281  1.00  0.00     0.009 A 
ATOM     17  C   UNL     1      -0.025  -0.987   0.341  1.00  0.00     0.117 A 
ATOM     18  C   UNL     1      -1.211   1.402  -0.137  1.00  0.00     0.047 A 
ATOM     19  N   UNL     1      -1.362  -0.886   0.509  1.00  0.00    -0.239 NA
ENDBRANCH   8  13
BRANCH  12  20
ATOM     20  N   UNL     1      -6.559  -2.220  -0.539  1.00  0.00    -0.328 N 
ATOM     21  C   UNL     1      -7.509  -2.651   0.520  1.00  0.00     0.291 C 
ATOM     22  C   UNL     1      -6.106  -3.411  -1.262  1.00  0.00     0.291 C 
ATOM     23  H   UNL     1      -7.015  -1.647  -1.249  1.00  0.00     0.348 HD
ATOM     24  C   UNL     1      -7.128  -3.923   1.311  1.00  0.00     0.221 C 
ATOM     25  C   UNL     1      -5.718  -4.628  -0.418  1.00  0.00     0.221 C 
ATOM     26  O   UNL     1      -6.785  -5.010   0.451  1.00  0.00    -0.370 OA
ENDBRANCH  12  20
ENDBRANCH   6   7
ENDBRANCH   5   6
ENDBRANCH   3   5
ENDBRANCH   2   3
ENDBRANCH   1   2
BRANCH   1  27
ATOM     27  C   UNL     1      -6.486   0.534  -6.505  1.00  0.00     0.275 C 
BRANCH  27  28
ATOM     28  O   UNL     1      -5.688  -0.556  -7.011  1.00  0.00    -0.458 OA
BRANCH  28  29
ATOM     29  C   UNL     1      -4.348  -0.373  -6.953  1.00  0.00     0.338 C 
ATOM     30  O   UNL     1      -3.744   0.623  -6.593  1.00  0.00    -0.246 OA
BRANCH  29  31
ATOM     31  C   UNL     1      -3.662  -1.602  -7.382  1.00  0.00     0.060 A 
ATOM     32  C   UNL     1      -3.773  -2.769  -6.625  1.00  0.00     0.016 A 
ATOM     33  C   UNL     1      -2.810  -1.557  -8.485  1.00  0.00     0.016 A 
ATOM     34  C   UNL     1      -2.983  -3.873  -6.924  1.00  0.00     0.010 A 
ATOM     35  C   UNL     1      -2.102  -2.704  -8.850  1.00  0.00     0.010 A 
ATOM     36  C   UNL     1      -2.174  -3.869  -8.066  1.00  0.00    -0.014 A 
BRANCH  36  37
ATOM     37  C   UNL     1      -1.437  -5.093  -8.467  1.00  0.00     0.031 A 
ATOM     38  C   UNL     1       0.059  -5.073  -8.589  1.00  0.00     0.074 A 
ATOM     39  C   UNL     1      -2.124  -6.216  -8.754  1.00  0.00     0.049 A 
ATOM     40  N   UNL     1       0.853  -5.956  -9.137  1.00  0.00    -0.248 NA
ATOM     41  C   UNL     1       0.753  -3.902  -8.030  1.00  0.00     0.031 C 
ATOM     42  C   UNL     1      -3.574  -6.384  -8.624  1.00  0.00     0.029 A 
ATOM     43  N   UNL     1      -1.692  -7.432  -9.220  1.00  0.00    -0.354 N 
ATOM     44  C   UNL     1       2.133  -5.426  -9.038  1.00  0.00     0.074 A 
ATOM     45  C   UNL     1       2.011  -4.147  -8.371  1.00  0.00     0.031 C 
ATOM     46  C   UNL     1      -3.907  -7.635  -8.974  1.00  0.00     0.029 A 
ATOM     47  C   UNL     1      -2.714  -8.323  -9.446  1.00  0.00     0.049 A 
ATOM     48  H   UNL     1      -0.744  -7.645  -9.378  1.00  0.00     0.167 HD
ATOM     49  C   UNL     1       3.299  -5.958  -9.476  1.00  0.00     0.031 A 
ATOM     50  C   UNL     1      -2.705  -9.537 -10.025  1.00  0.00     0.031 A 
ATOM     51  C   UNL     1       3.409  -7.241 -10.117  1.00  0.00     0.049 A 
ATOM     52  C   UNL     1      -1.415 -10.071 -10.567  1.00  0.00     0.074 A 
ATOM     53  C   UNL     1       4.544  -7.878 -10.588  1.00  0.00     0.029 A 
ATOM     54  N   UNL     1       2.341  -8.087 -10.372  1.00  0.00    -0.354 N 
ATOM     55  N   UNL     1      -0.218  -9.538 -10.519  1.00  0.00    -0.248 NA
ATOM     56  C   UNL     1      -1.478 -11.358 -11.271  1.00  0.00     0.031 C 
ATOM     57  C   UNL     1       4.156  -9.092 -11.166  1.00  0.00     0.029 A 
ATOM     58  C   UNL     1       2.785  -9.229 -11.016  1.00  0.00     0.049 A 
ATOM     59  H   UNL     1       1.404  -7.903 -10.130  1.00  0.00     0.167 HD
ATOM     60  C   UNL     1       0.615 -10.421 -11.188  1.00  0.00     0.074 A 
ATOM     61  C   UNL     1      -0.209 -11.538 -11.609  1.00  0.00     0.031 C 
ATOM     62  C   UNL     1       1.942 -10.316 -11.440  1.00  0.00     0.031 A 
BRANCH  49  63
ATOM     63  C   UNL     1       4.540  -5.126  -9.321  1.00  0.00    -0.014 A 
ATOM     64  C   UNL     1       5.162  -4.958  -8.075  1.00  0.00     0.009 A 
ATOM     65  C   UNL     1       5.111  -4.523 -10.453  1.00  0.00     0.009 A 
ATOM     66  C   UNL     1       6.315  -4.177  -7.962  1.00  0.00     0.001 A 
ATOM     67  C   UNL     1       6.276  -3.762 -10.341  1.00  0.00     0.001 A 
ATOM     68  C   UNL     1       6.872  -3.583  -9.094  1.00  0.00     0.000 A 
ENDBRANCH  49  63
BRANCH  50  69
ATOM     69  C   UNL     1      -3.978 -10.285 -10.189  1.00  0.00    -0.014 A 
ATOM     70  C   UNL     1      -4.231 -11.435  -9.429  1.00  0.00     0.009 A 
ATOM     71  C   UNL     1      -4.958  -9.835 -11.089  1.00  0.00     0.009 A 
ATOM     72  C   UNL     1      -5.438 -12.124  -9.574  1.00  0.00     0.001 A 
ATOM     73  C   UNL     1      -6.173 -10.509 -11.211  1.00  0.00     0.001 A 
ATOM     74  C   UNL     1      -6.410 -11.657 -10.458  1.00  0.00     0.000 A 
ENDBRANCH  50  69
BRANCH  62  75
ATOM     75  C   UNL     1       2.573 -11.442 -12.201  1.00  0.00    -0.014 A 
ATOM     76  C   UNL     1       2.393 -11.560 -13.588  1.00  0.00     0.009 A 
ATOM     77  C   UNL     1       3.373 -12.378 -11.530  1.00  0.00     0.009 A 
ATOM     78  C   UNL     1       2.984 -12.615 -14.285  1.00  0.00     0.001 A 
ATOM     79  C   UNL     1       3.979 -13.419 -12.234  1.00  0.00     0.001 A 
ATOM     80  C   UNL     1       3.778 -13.541 -13.608  1.00  0.00     0.000 A 
ENDBRANCH  62  75
ENDBRANCH  36  37
ENDBRANCH  29  31
ENDBRANCH  28  29
ENDBRANCH  27  28
ENDBRANCH   1  27
TORSDOF 15
