REMARK SMILES COc1ccc(-c2cc(Cl)cc3c2O[C@H](C(F)(F)F)C(C(=O)OCCOC(=O)c2ccc(-c4c5nc(c(-c6ccccc6)c6ccc([nH]6)c(-c6ccccc6)c6nc(c(-c7ccccc7)c7ccc4[nH]7)C=C6)C=C5)cc2)=C3)cc1C
REMARK SMILES IDX 24 1 23 2 21 3 22 4 20 5 7 6 8 7 13 8 9 9 12 10 14 11 10 12
REMARK SMILES IDX 11 13 77 14 15 15 6 16 3 17 4 18 79 19 5 20 78 21 80 22 2 23
REMARK SMILES IDX 1 24 16 25 17 26 18 27 19 28 25 29 26 30 27 31 28 32 29 33
REMARK SMILES IDX 30 34 76 35 31 36 75 37 32 38 33 39 34 40 69 41 35 42 74 43
REMARK SMILES IDX 68 44 70 45 36 46 73 47 67 48 66 49 37 51 59 52 44 53 58 54
REMARK SMILES IDX 45 55 48 56 57 57 71 58 46 59 47 60 56 62 72 63 49 64 38 65
REMARK SMILES IDX 39 66 43 67 40 68 42 69 41 70 60 71 61 72 65 73 62 74 64 75
REMARK SMILES IDX 63 76 50 77 51 78 55 79 52 80 54 81 53 82
REMARK H PARENT 70 50 48 61
REMARK Flexibility Score: inf
ROOT
ATOM      1  C   UNL     1      -2.674  -0.801   5.188  1.00  0.00     0.275 C 
ENDROOT
BRANCH   1   2
ATOM      2  O   UNL     1      -1.491  -1.084   5.915  1.00  0.00    -0.459 OA
BRANCH   2   3
ATOM      3  C   UNL     1      -1.623  -0.804   7.218  1.00  0.00     0.338 C 
ATOM      4  O   UNL     1      -2.734  -0.933   7.737  1.00  0.00    -0.246 OA
BRANCH   3   5
ATOM      5  C   UNL     1      -0.378   0.364   7.859  1.00  0.00     0.087 C 
ATOM      6  C   UNL     1       0.849   3.547   5.899  1.00  0.00     0.026 A 
ATOM      7  C   UNL     1       1.826   4.558   6.078  1.00  0.00     0.033 A 
ATOM      8  C   UNL     1       0.698   2.631   7.192  1.00  0.00     0.135 A 
ATOM      9  C   UNL     1       2.700   4.561   7.167  1.00  0.00     0.042 A 
ATOM     10  C   UNL     1       1.677   2.588   8.150  1.00  0.00     0.019 A 
ATOM     11  O   UNL     1      -0.523   1.179   7.682  1.00  0.00    -0.475 OA
ATOM     12  Cl  UNL     1       3.914   5.781   7.278  1.00  0.00    -0.084 Cl
ATOM     13  C   UNL     1       2.663   3.554   8.134  1.00  0.00     0.032 A 
ATOM     14  C   UNL     1       1.228   1.314   7.536  1.00  0.00     0.027 C 
ATOM     15  C   UNL     1      -1.429   0.614   8.992  1.00  0.00     0.316 C 
BRANCH   6  16
ATOM     16  C   UNL     1       0.549   3.366   4.338  1.00  0.00    -0.014 A 
ATOM     17  C   UNL     1       0.347   2.472   1.579  1.00  0.00     0.121 A 
ATOM     18  C   UNL     1      -0.775   2.638   2.394  1.00  0.00     0.047 A 
ATOM     19  C   UNL     1       1.561   2.969   2.020  1.00  0.00    -0.008 A 
ATOM     20  C   UNL     1      -0.681   3.127   3.728  1.00  0.00     0.013 A 
ATOM     21  C   UNL     1       1.624   3.433   3.372  1.00  0.00     0.016 A 
ATOM     22  C   UNL     1       2.799   2.897   1.149  1.00  0.00     0.048 C 
BRANCH  17  23
ATOM     23  O   UNL     1       0.179   1.944   0.327  1.00  0.00    -0.496 OA
ATOM     24  C   UNL     1       0.656   0.597   0.215  1.00  0.00     0.278 C 
ENDBRANCH  17  23
ENDBRANCH   6  16
BRANCH  15  25
ATOM     25  C   UNL     1      -1.410  -0.638  10.008  1.00  0.00     0.430 C 
ATOM     26  F   UNL     1      -0.231  -0.927  10.605  1.00  0.00    -0.167 F 
ATOM     27  F   UNL     1      -2.255  -0.342  11.042  1.00  0.00    -0.167 F 
ATOM     28  F   UNL     1      -1.849  -1.824   9.538  1.00  0.00    -0.167 F 
ENDBRANCH  15  25
ENDBRANCH   3   5
ENDBRANCH   2   3
ENDBRANCH   1   2
BRANCH   1  29
ATOM     29  C   UNL     1      -3.493   0.551   5.337  1.00  0.00     0.275 C 
BRANCH  29  30
ATOM     30  O   UNL     1      -3.379   1.804   6.183  1.00  0.00    -0.458 OA
BRANCH  30  31
ATOM     31  C   UNL     1      -2.735   2.769   6.889  1.00  0.00     0.338 C 
ATOM     32  O   UNL     1      -3.284   3.784   7.290  1.00  0.00    -0.246 OA
BRANCH  31  33
ATOM     33  C   UNL     1      -1.320   2.568   7.190  1.00  0.00     0.060 A 
ATOM     34  C   UNL     1      -0.481   2.409   8.993  1.00  0.00     0.016 A 
ATOM     35  C   UNL     1      -0.609   1.289   5.876  1.00  0.00     0.016 A 
ATOM     36  C   UNL     1       0.743   0.889   9.426  1.00  0.00     0.010 A 
ATOM     37  C   UNL     1       0.617  -0.159   6.282  1.00  0.00     0.010 A 
ATOM     38  C   UNL     1       1.283  -0.492   8.103  1.00  0.00    -0.014 A 
BRANCH  38  39
ATOM     39  C   UNL     1       2.088  -1.740   7.987  1.00  0.00     0.031 A 
ATOM     40  C   UNL     1       1.909  -2.911   8.855  1.00  0.00     0.074 A 
ATOM     41  C   UNL     1       2.767  -1.984   6.819  1.00  0.00     0.049 A 
ATOM     42  N   UNL     1       2.887  -3.597   9.359  1.00  0.00    -0.248 NA
ATOM     43  C   UNL     1       0.591  -3.457   9.150  1.00  0.00     0.031 C 
ATOM     44  C   UNL     1       3.040  -3.276   6.183  1.00  0.00     0.029 A 
ATOM     45  N   UNL     1       3.298  -1.093   5.884  1.00  0.00    -0.354 N 
ATOM     46  C   UNL     1       2.315  -4.782   9.780  1.00  0.00     0.074 A 
ATOM     47  C   UNL     1       0.893  -4.530   9.887  1.00  0.00     0.031 C 
ATOM     48  C   UNL     1       3.819  -3.100   5.096  1.00  0.00     0.029 A 
ATOM     49  C   UNL     1       4.193  -1.700   5.000  1.00  0.00     0.049 A 
ATOM     50  H   UNL     1       3.066  -0.137   5.851  1.00  0.00     0.167 HD
ATOM     51  C   UNL     1       2.906  -5.992   9.558  1.00  0.00     0.031 A 
ATOM     52  C   UNL     1       5.427  -1.186   4.683  1.00  0.00     0.031 A 
ATOM     53  C   UNL     1       3.996  -5.899   8.594  1.00  0.00     0.049 A 
ATOM     54  C   UNL     1       6.476  -1.949   5.370  1.00  0.00     0.074 A 
ATOM     55  C   UNL     1       4.076  -6.304   7.270  1.00  0.00     0.029 A 
ATOM     56  N   UNL     1       5.095  -5.090   8.827  1.00  0.00    -0.354 N 
ATOM     57  N   UNL     1       6.173  -2.929   6.145  1.00  0.00    -0.248 NA
ATOM     58  C   UNL     1       7.892  -1.625   5.344  1.00  0.00     0.031 C 
ATOM     59  C   UNL     1       5.256  -5.764   6.718  1.00  0.00     0.029 A 
ATOM     60  C   UNL     1       5.898  -5.038   7.706  1.00  0.00     0.049 A 
ATOM     61  H   UNL     1       5.278  -4.619   9.672  1.00  0.00     0.167 HD
ATOM     62  C   UNL     1       7.284  -3.344   6.773  1.00  0.00     0.074 A 
ATOM     63  C   UNL     1       8.351  -2.531   6.220  1.00  0.00     0.031 C 
ATOM     64  C   UNL     1       7.153  -4.300   7.719  1.00  0.00     0.031 A 
BRANCH  51  65
ATOM     65  C   UNL     1       2.270  -7.321   9.909  1.00  0.00    -0.014 A 
ATOM     66  C   UNL     1       2.656  -8.492   9.227  1.00  0.00     0.009 A 
ATOM     67  C   UNL     1       1.349  -7.492  10.957  1.00  0.00     0.009 A 
ATOM     68  C   UNL     1       2.111  -9.746   9.521  1.00  0.00     0.001 A 
ATOM     69  C   UNL     1       0.780  -8.743  11.243  1.00  0.00     0.001 A 
ATOM     70  C   UNL     1       1.160  -9.870  10.523  1.00  0.00     0.000 A 
ENDBRANCH  51  65
BRANCH  52  71
ATOM     71  C   UNL     1       5.623   0.288   4.489  1.00  0.00    -0.014 A 
ATOM     72  C   UNL     1       4.917   0.691   3.363  1.00  0.00     0.009 A 
ATOM     73  C   UNL     1       5.575   1.044   5.668  1.00  0.00     0.009 A 
ATOM     74  C   UNL     1       3.671   1.165   3.656  1.00  0.00     0.001 A 
ATOM     75  C   UNL     1       4.411   1.734   5.899  1.00  0.00     0.001 A 
ATOM     76  C   UNL     1       3.429   1.670   4.922  1.00  0.00     0.000 A 
ENDBRANCH  52  71
BRANCH  64  77
ATOM     77  C   UNL     1       8.252  -4.680   8.627  1.00  0.00    -0.014 A 
ATOM     78  C   UNL     1       9.336  -3.844   8.912  1.00  0.00     0.009 A 
ATOM     79  C   UNL     1       8.175  -5.917   9.284  1.00  0.00     0.009 A 
ATOM     80  C   UNL     1      10.377  -4.283   9.719  1.00  0.00     0.001 A 
ATOM     81  C   UNL     1       9.176  -6.328  10.151  1.00  0.00     0.001 A 
ATOM     82  C   UNL     1      10.295  -5.526  10.338  1.00  0.00     0.000 A 
ENDBRANCH  64  77
ENDBRANCH  38  39
ENDBRANCH  31  33
ENDBRANCH  30  31
ENDBRANCH  29  30
ENDBRANCH   1  29
TORSDOF 14
