REMARK SMILES C/C(C(=O)OCCOC(=O)c1ccc(-c2c3nc(c(-c4ccccc4)c4ccc([nH]4)c(-c4ccccc4)c4nc(c(-c5ccccc5)c5ccc2[nH]5)C=C4)C=C3)cc1)=C1/CCCSC1
REMARK SMILES IDX 7 1 6 2 5 3 3 4 4 5 2 6 1 7 59 8 60 9 64 10 61 11 63 12
REMARK SMILES IDX 62 13 8 14 9 15 10 16 11 17 12 18 58 19 13 20 57 21 14 22
REMARK SMILES IDX 15 23 16 24 51 25 17 26 56 27 50 28 52 29 18 30 55 31 49 32
REMARK SMILES IDX 48 33 19 35 41 36 26 37 40 38 27 39 30 40 39 41 53 42 28 43
REMARK SMILES IDX 29 44 38 46 54 47 31 48 20 49 21 50 25 51 22 52 24 53 23 54
REMARK SMILES IDX 42 55 43 56 47 57 44 58 46 59 45 60 32 61 33 62 37 63 34 64
REMARK SMILES IDX 36 65 35 66
REMARK H PARENT 52 34 30 45
REMARK Flexibility Score: inf
ROOT
ATOM      1  C   UNL     1      -2.619   1.406   2.889  1.00  0.00     0.275 C 
ENDROOT
BRANCH   1   2
ATOM      2  C   UNL     1      -1.157   1.761   2.638  1.00  0.00     0.275 C 
BRANCH   2   3
ATOM      3  O   UNL     1      -0.580   0.830   1.697  1.00  0.00    -0.459 OA
BRANCH   3   4
ATOM      4  C   UNL     1       0.517   0.136   2.095  1.00  0.00     0.333 C 
ATOM      5  O   UNL     1       0.997   0.127   3.217  1.00  0.00    -0.247 OA
BRANCH   4   6
ATOM      6  C   UNL     1       1.117  -0.567   0.919  1.00  0.00     0.034 C 
ATOM      7  C   UNL     1       1.198   0.270  -0.332  1.00  0.00     0.052 C 
ATOM      8  C   UNL     1       1.603  -1.835   0.986  1.00  0.00    -0.050 C 
ATOM      9  C   UNL     1       1.551  -2.747   2.196  1.00  0.00     0.033 C 
ATOM     10  C   UNL     1       2.298  -2.503  -0.181  1.00  0.00     0.101 C 
ATOM     11  C   UNL     1       0.731  -4.015   1.923  1.00  0.00     0.015 C 
ATOM     12  S   UNL     1       1.298  -3.889  -0.780  1.00  0.00    -0.158 SA
ATOM     13  C   UNL     1       1.241  -4.849   0.757  1.00  0.00     0.070 C 
ENDBRANCH   4   6
ENDBRANCH   3   4
ENDBRANCH   2   3
ENDBRANCH   1   2
BRANCH   1  14
ATOM     14  O   UNL     1      -2.636   0.212   3.685  1.00  0.00    -0.458 OA
BRANCH  14  15
ATOM     15  C   UNL     1      -3.390  -0.813   3.239  1.00  0.00     0.338 C 
ATOM     16  O   UNL     1      -4.235  -0.790   2.355  1.00  0.00    -0.246 OA
BRANCH  15  17
ATOM     17  C   UNL     1      -2.982  -2.035   3.958  1.00  0.00     0.060 A 
ATOM     18  C   UNL     1      -1.628  -2.281   4.170  1.00  0.00     0.016 A 
ATOM     19  C   UNL     1      -3.921  -3.000   4.318  1.00  0.00     0.016 A 
ATOM     20  C   UNL     1      -1.208  -3.527   4.630  1.00  0.00     0.010 A 
ATOM     21  C   UNL     1      -3.493  -4.219   4.867  1.00  0.00     0.010 A 
ATOM     22  C   UNL     1      -2.124  -4.534   4.964  1.00  0.00    -0.014 A 
BRANCH  22  23
ATOM     23  C   UNL     1      -1.655  -5.926   5.281  1.00  0.00     0.031 A 
ATOM     24  C   UNL     1      -2.267  -7.114   4.565  1.00  0.00     0.074 A 
ATOM     25  C   UNL     1      -0.638  -6.172   6.136  1.00  0.00     0.049 A 
ATOM     26  N   UNL     1      -2.184  -8.391   4.854  1.00  0.00    -0.248 NA
ATOM     27  C   UNL     1      -3.096  -6.830   3.382  1.00  0.00     0.031 C 
ATOM     28  C   UNL     1       0.142  -5.168   6.861  1.00  0.00     0.029 A 
ATOM     29  N   UNL     1      -0.061  -7.364   6.516  1.00  0.00    -0.354 N 
ATOM     30  C   UNL     1      -3.034  -9.040   3.965  1.00  0.00     0.074 A 
ATOM     31  C   UNL     1      -3.605  -8.023   3.111  1.00  0.00     0.031 C 
ATOM     32  C   UNL     1       1.143  -5.773   7.518  1.00  0.00     0.029 A 
ATOM     33  C   UNL     1       1.001  -7.217   7.377  1.00  0.00     0.049 A 
ATOM     34  H   UNL     1      -0.381  -8.241   6.201  1.00  0.00     0.167 HD
ATOM     35  C   UNL     1      -3.322 -10.361   3.871  1.00  0.00     0.031 A 
ATOM     36  C   UNL     1       1.750  -8.128   8.030  1.00  0.00     0.031 A 
ATOM     37  C   UNL     1      -2.678 -11.398   4.634  1.00  0.00     0.049 A 
ATOM     38  C   UNL     1       1.419  -9.588   7.913  1.00  0.00     0.074 A 
ATOM     39  C   UNL     1      -2.909 -12.764   4.600  1.00  0.00     0.029 A 
ATOM     40  N   UNL     1      -1.646 -11.190   5.532  1.00  0.00    -0.354 N 
ATOM     41  N   UNL     1       0.507 -10.174   7.177  1.00  0.00    -0.248 NA
ATOM     42  C   UNL     1       2.201 -10.511   8.750  1.00  0.00     0.031 C 
ATOM     43  C   UNL     1      -2.030 -13.381   5.497  1.00  0.00     0.029 A 
ATOM     44  C   UNL     1      -1.226 -12.402   6.055  1.00  0.00     0.049 A 
ATOM     45  H   UNL     1      -1.267 -10.312   5.764  1.00  0.00     0.167 HD
ATOM     46  C   UNL     1       0.604 -11.529   7.465  1.00  0.00     0.074 A 
ATOM     47  C   UNL     1       1.686 -11.685   8.414  1.00  0.00     0.031 C 
ATOM     48  C   UNL     1      -0.150 -12.552   6.997  1.00  0.00     0.031 A 
BRANCH  35  49
ATOM     49  C   UNL     1      -4.426 -10.770   2.935  1.00  0.00    -0.014 A 
ATOM     50  C   UNL     1      -4.252 -10.797   1.544  1.00  0.00     0.009 A 
ATOM     51  C   UNL     1      -5.652 -11.193   3.476  1.00  0.00     0.009 A 
ATOM     52  C   UNL     1      -5.295 -11.214   0.713  1.00  0.00     0.001 A 
ATOM     53  C   UNL     1      -6.681 -11.636   2.646  1.00  0.00     0.001 A 
ATOM     54  C   UNL     1      -6.505 -11.639   1.264  1.00  0.00     0.000 A 
ENDBRANCH  35  49
BRANCH  36  55
ATOM     55  C   UNL     1       2.845  -7.683   8.934  1.00  0.00    -0.014 A 
ATOM     56  C   UNL     1       4.186  -7.958   8.624  1.00  0.00     0.009 A 
ATOM     57  C   UNL     1       2.551  -6.999  10.124  1.00  0.00     0.009 A 
ATOM     58  C   UNL     1       5.206  -7.571   9.496  1.00  0.00     0.001 A 
ATOM     59  C   UNL     1       3.575  -6.582  10.975  1.00  0.00     0.001 A 
ATOM     60  C   UNL     1       4.900  -6.876  10.666  1.00  0.00     0.000 A 
ENDBRANCH  36  55
BRANCH  48  61
ATOM     61  C   UNL     1       0.191 -13.932   7.479  1.00  0.00    -0.014 A 
ATOM     62  C   UNL     1      -0.128 -14.345   8.782  1.00  0.00     0.009 A 
ATOM     63  C   UNL     1       0.825 -14.837   6.613  1.00  0.00     0.009 A 
ATOM     64  C   UNL     1       0.216 -15.626   9.220  1.00  0.00     0.001 A 
ATOM     65  C   UNL     1       1.146 -16.124   7.046  1.00  0.00     0.001 A 
ATOM     66  C   UNL     1       0.851 -16.514   8.352  1.00  0.00     0.000 A 
ENDBRANCH  48  61
ENDBRANCH  22  23
ENDBRANCH  15  17
ENDBRANCH  14  15
ENDBRANCH   1  14
TORSDOF 11
