REMARK SMILES Cc1c[nH]c(C[N@H+]2C[C@@H]3CN(S(C)(=O)=O)C[C@]3(C(=O)OCCOC(=O)c3ccc(-c4c5nc(c(-c6ccccc6)c6ccc([nH]6)c(-c6ccccc6)c6nc(c(-c7ccccc7)c7ccc4[nH]7)C=C6)C=C5)cc3)C2)n1
REMARK SMILES IDX 21 1 20 2 18 3 19 4 17 5 7 6 8 7 74 8 9 10 10 11 16 12 11 13
REMARK SMILES IDX 6 14 5 15 1 16 2 17 3 18 75 19 4 20 12 22 13 23 14 24 15 25
REMARK SMILES IDX 22 26 23 27 24 28 25 29 26 30 27 31 73 32 28 33 72 34 29 35
REMARK SMILES IDX 30 36 31 37 66 38 32 39 71 40 65 41 67 42 33 43 70 44 64 45
REMARK SMILES IDX 63 46 34 48 56 49 41 50 55 51 42 52 45 53 54 54 68 55 43 56
REMARK SMILES IDX 44 57 53 59 69 60 46 61 35 62 36 63 40 64 37 65 39 66 38 67
REMARK SMILES IDX 57 68 58 69 62 70 59 71 61 72 60 73 47 74 48 75 52 76 49 77
REMARK SMILES IDX 51 78 50 79
REMARK H PARENT 7 9 4 21 67 47 45 58
REMARK Flexibility Score: inf
ROOT
ATOM      1  C   UNL     1      -0.328   7.465   2.223  1.00  0.00     0.274 C 
ENDROOT
BRANCH   1   2
ATOM      2  O   UNL     1      -0.968   6.330   2.869  1.00  0.00    -0.461 OA
BRANCH   2   3
ATOM      3  C   UNL     1      -0.976   5.168   2.143  1.00  0.00     0.319 C 
ATOM      4  O   UNL     1      -0.689   5.212   0.953  1.00  0.00    -0.251 OA
BRANCH   3   5
ATOM      5  C   UNL     1      -1.489   3.879   2.985  1.00  0.00     0.140 C 
ATOM      6  N   UNL     1      -2.799   2.061   1.704  1.00  0.00    -0.327 N 
ATOM      7  C   UNL     1      -2.388   1.455   2.938  1.00  0.00     0.268 C 
ATOM      8  C   UNL     1      -1.972   3.266   1.573  1.00  0.00     0.283 C 
ATOM      9  H   UNL     1      -3.796   2.271   1.741  1.00  0.00     0.348 HD
ATOM     10  C   UNL     1      -1.203   2.311   3.345  1.00  0.00     0.084 C 
ATOM     11  C   UNL     1      -0.988   2.114   4.841  1.00  0.00     0.113 C 
ATOM     12  C   UNL     1      -0.254   4.139   3.978  1.00  0.00     0.127 C 
ATOM     13  N   UNL     1      -0.582   3.441   5.250  1.00  0.00    -0.200 NA
BRANCH   6  14
ATOM     14  C   UNL     1      -2.708   1.188   0.513  1.00  0.00     0.338 C 
BRANCH  14  15
ATOM     15  C   UNL     1      -1.489   0.305   0.388  1.00  0.00     0.161 A 
ATOM     16  C   UNL     1       1.966  -0.585   0.540  1.00  0.00     0.068 C 
ATOM     17  C   UNL     1       0.495  -0.549   0.389  1.00  0.00     0.056 A 
ATOM     18  C   UNL     1      -0.347  -1.554  -0.026  1.00  0.00     0.107 A 
ATOM     19  N   UNL     1      -0.226   0.597   0.643  1.00  0.00    -0.233 NA
ATOM     20  N   UNL     1      -1.595  -1.002  -0.029  1.00  0.00    -0.344 N 
ATOM     21  H   UNL     1      -2.428  -1.459  -0.287  1.00  0.00     0.167 HD
ENDBRANCH  14  15
ENDBRANCH   6  14
BRANCH  13  22
ATOM     22  S   UNL     1      -1.535   4.226   6.413  1.00  0.00     0.211 S 
ATOM     23  C   UNL     1      -3.114   4.441   5.599  1.00  0.00     0.176 C 
ATOM     24  O   UNL     1      -1.736   3.307   7.506  1.00  0.00    -0.213 OA
ATOM     25  O   UNL     1      -0.978   5.548   6.634  1.00  0.00    -0.213 OA
ENDBRANCH  13  22
ENDBRANCH   3   5
ENDBRANCH   2   3
ENDBRANCH   1   2
BRANCH   1  26
ATOM     26  C   UNL     1       1.210   7.346   2.089  1.00  0.00     0.275 C 
BRANCH  26  27
ATOM     27  O   UNL     1       1.610   6.487   0.993  1.00  0.00    -0.458 OA
BRANCH  27  28
ATOM     28  C   UNL     1       2.445   5.458   1.287  1.00  0.00     0.338 C 
ATOM     29  O   UNL     1       2.945   5.209   2.371  1.00  0.00    -0.246 OA
BRANCH  28  30
ATOM     30  C   UNL     1       2.606   4.559   0.121  1.00  0.00     0.060 A 
ATOM     31  C   UNL     1       1.607   3.626  -0.123  1.00  0.00     0.016 A 
ATOM     32  C   UNL     1       3.777   4.502  -0.632  1.00  0.00     0.016 A 
ATOM     33  C   UNL     1       1.729   2.671  -1.124  1.00  0.00     0.010 A 
ATOM     34  C   UNL     1       3.896   3.551  -1.667  1.00  0.00     0.010 A 
ATOM     35  C   UNL     1       2.866   2.625  -1.928  1.00  0.00    -0.014 A 
BRANCH  35  36
ATOM     36  C   UNL     1       2.964   1.573  -2.981  1.00  0.00     0.031 A 
ATOM     37  C   UNL     1       4.043   0.526  -2.915  1.00  0.00     0.074 A 
ATOM     38  C   UNL     1       2.032   1.491  -3.955  1.00  0.00     0.049 A 
ATOM     39  N   UNL     1       4.359  -0.394  -3.793  1.00  0.00    -0.248 NA
ATOM     40  C   UNL     1       4.863   0.493  -1.693  1.00  0.00     0.031 C 
ATOM     41  C   UNL     1       0.854   2.353  -4.079  1.00  0.00     0.029 A 
ATOM     42  N   UNL     1       1.918   0.628  -5.021  1.00  0.00    -0.354 N 
ATOM     43  C   UNL     1       5.431  -1.090  -3.247  1.00  0.00     0.074 A 
ATOM     44  C   UNL     1       5.709  -0.492  -1.959  1.00  0.00     0.031 C 
ATOM     45  C   UNL     1       0.125   1.958  -5.134  1.00  0.00     0.029 A 
ATOM     46  C   UNL     1       0.836   0.891  -5.828  1.00  0.00     0.049 A 
ATOM     47  H   UNL     1       2.550  -0.107  -5.189  1.00  0.00     0.167 HD
ATOM     48  C   UNL     1       6.128  -2.124  -3.777  1.00  0.00     0.031 A 
ATOM     49  C   UNL     1       0.484   0.387  -7.027  1.00  0.00     0.031 A 
ATOM     50  C   UNL     1       5.858  -2.709  -5.064  1.00  0.00     0.049 A 
ATOM     51  C   UNL     1       1.374  -0.635  -7.675  1.00  0.00     0.074 A 
ATOM     52  C   UNL     1       6.535  -3.732  -5.707  1.00  0.00     0.029 A 
ATOM     53  N   UNL     1       4.830  -2.318  -5.907  1.00  0.00    -0.354 N 
ATOM     54  N   UNL     1       2.431  -1.236  -7.185  1.00  0.00    -0.248 NA
ATOM     55  C   UNL     1       1.045  -1.021  -9.054  1.00  0.00     0.031 C 
ATOM     56  C   UNL     1       5.957  -3.912  -6.968  1.00  0.00     0.029 A 
ATOM     57  C   UNL     1       4.881  -3.047  -7.084  1.00  0.00     0.049 A 
ATOM     58  H   UNL     1       4.162  -1.625  -5.701  1.00  0.00     0.167 HD
ATOM     59  C   UNL     1       2.893  -2.071  -8.193  1.00  0.00     0.074 A 
ATOM     60  C   UNL     1       1.984  -1.922  -9.312  1.00  0.00     0.031 C 
ATOM     61  C   UNL     1       3.978  -2.881  -8.194  1.00  0.00     0.031 A 
BRANCH  48  62
ATOM     62  C   UNL     1       7.309  -2.633  -2.997  1.00  0.00    -0.014 A 
ATOM     63  C   UNL     1       7.152  -3.403  -1.835  1.00  0.00     0.009 A 
ATOM     64  C   UNL     1       8.606  -2.351  -3.455  1.00  0.00     0.009 A 
ATOM     65  C   UNL     1       8.273  -3.850  -1.129  1.00  0.00     0.001 A 
ATOM     66  C   UNL     1       9.723  -2.821  -2.763  1.00  0.00     0.001 A 
ATOM     67  C   UNL     1       9.556  -3.562  -1.595  1.00  0.00     0.000 A 
ENDBRANCH  48  62
BRANCH  49  68
ATOM     68  C   UNL     1      -0.706   0.925  -7.743  1.00  0.00    -0.014 A 
ATOM     69  C   UNL     1      -1.822   0.117  -8.001  1.00  0.00     0.009 A 
ATOM     70  C   UNL     1      -0.725   2.261  -8.180  1.00  0.00     0.009 A 
ATOM     71  C   UNL     1      -2.928   0.635  -8.684  1.00  0.00     0.001 A 
ATOM     72  C   UNL     1      -1.843   2.785  -8.829  1.00  0.00     0.001 A 
ATOM     73  C   UNL     1      -2.941   1.970  -9.088  1.00  0.00     0.000 A 
ENDBRANCH  49  68
BRANCH  61  74
ATOM     74  C   UNL     1       4.236  -3.682  -9.438  1.00  0.00    -0.014 A 
ATOM     75  C   UNL     1       4.733  -3.073 -10.600  1.00  0.00     0.009 A 
ATOM     76  C   UNL     1       4.023  -5.069  -9.431  1.00  0.00     0.009 A 
ATOM     77  C   UNL     1       4.990  -3.836 -11.741  1.00  0.00     0.001 A 
ATOM     78  C   UNL     1       4.307  -5.833 -10.564  1.00  0.00     0.001 A 
ATOM     79  C   UNL     1       4.783  -5.215 -11.720  1.00  0.00     0.000 A 
ENDBRANCH  61  74
ENDBRANCH  35  36
ENDBRANCH  28  30
ENDBRANCH  27  28
ENDBRANCH  26  27
ENDBRANCH   1  26
TORSDOF 14
