REMARK SMILES Cc1nn(-c2nc3ccccc3o2)c2c1[C@H](c1ccc(C(=O)OCCOC(=O)c3ccc(-c4c5nc(c(-c6ccccc6)c6ccc([nH]6)c(-c6ccccc6)c6nc(c(-c7ccccc7)c7ccc4[nH]7)C=C6)C=C5)cc3)cc1)CC(=O)N2
REMARK SMILES IDX 24 1 23 2 21 3 22 4 20 5 17 6 18 7 78 8 19 9 77 10 16 11
REMARK SMILES IDX 1 12 2 13 3 14 15 15 4 16 14 17 82 18 79 19 80 20 81 22 5 23
REMARK SMILES IDX 6 24 13 25 7 26 12 27 8 28 11 29 9 30 10 31 25 32 26 33
REMARK SMILES IDX 27 34 28 35 29 36 30 37 76 38 31 39 75 40 32 41 33 42 34 43
REMARK SMILES IDX 69 44 35 45 74 46 68 47 70 48 36 49 73 50 67 51 66 52 37 54
REMARK SMILES IDX 59 55 44 56 58 57 45 58 48 59 57 60 71 61 46 62 47 63 56 65
REMARK SMILES IDX 72 66 49 67 38 68 39 69 43 70 40 71 42 72 41 73 60 74 61 75
REMARK SMILES IDX 65 76 62 77 64 78 63 79 50 80 51 81 55 82 52 83 54 84 53 85
REMARK H PARENT 82 21 70 53 48 64
REMARK Flexibility Score: inf
ROOT
ATOM      1  C   UNL     1       8.297  -0.981   0.627  1.00  0.00     0.275 C 
ENDROOT
BRANCH   1   2
ATOM      2  O   UNL     1       7.370   0.055   0.268  1.00  0.00    -0.458 OA
BRANCH   2   3
ATOM      3  C   UNL     1       6.440  -0.267  -0.666  1.00  0.00     0.338 C 
ATOM      4  O   UNL     1       6.436  -1.274  -1.360  1.00  0.00    -0.246 OA
BRANCH   3   5
ATOM      5  C   UNL     1       5.335   0.729  -0.661  1.00  0.00     0.060 A 
ATOM      6  C   UNL     1       3.105   2.479  -0.539  1.00  0.00    -0.040 A 
ATOM      7  C   UNL     1       3.081   1.324  -1.340  1.00  0.00     0.005 A 
ATOM      8  C   UNL     1       4.284   2.745   0.179  1.00  0.00     0.005 A 
ATOM      9  C   UNL     1       4.169   0.444  -1.379  1.00  0.00     0.016 A 
ATOM     10  C   UNL     1       5.393   1.896   0.103  1.00  0.00     0.016 A 
BRANCH   6  11
ATOM     11  C   UNL     1       1.883   3.389  -0.491  1.00  0.00     0.064 C 
ATOM     12  C   UNL     1       0.605   0.323   0.505  1.00  0.00     0.069 C 
ATOM     13  C   UNL     1       0.423   1.694   1.047  1.00  0.00     0.066 A 
ATOM     14  N   UNL     1      -0.456   1.859   2.052  1.00  0.00    -0.167 NA
ATOM     15  C   UNL     1       0.996   2.936   0.631  1.00  0.00     0.026 A 
ATOM     16  N   UNL     1      -0.399   3.179   2.337  1.00  0.00    -0.166 N 
ATOM     17  C   UNL     1       0.357   3.863   1.422  1.00  0.00     0.145 A 
ATOM     18  N   UNL     1       0.381   5.226   1.244  1.00  0.00    -0.310 N 
ATOM     19  C   UNL     1       2.236   4.890  -0.348  1.00  0.00     0.113 C 
ATOM     20  C   UNL     1       1.140   5.766   0.238  1.00  0.00     0.226 C 
ATOM     21  H   UNL     1      -0.144   5.812   1.836  1.00  0.00     0.171 HD
ATOM     22  O   UNL     1       1.021   6.950  -0.070  1.00  0.00    -0.275 OA
BRANCH  16  23
ATOM     23  C   UNL     1      -0.991   3.652   3.503  1.00  0.00     0.325 A 
ATOM     24  N   UNL     1      -0.251   4.042   4.532  1.00  0.00    -0.191 NA
ATOM     25  O   UNL     1      -2.345   3.845   3.678  1.00  0.00    -0.422 OA
ATOM     26  C   UNL     1      -1.168   4.398   5.481  1.00  0.00     0.111 A 
ATOM     27  C   UNL     1      -2.443   4.345   4.944  1.00  0.00     0.156 A 
ATOM     28  C   UNL     1      -1.004   4.781   6.816  1.00  0.00     0.032 A 
ATOM     29  C   UNL     1      -3.597   4.728   5.616  1.00  0.00     0.049 A 
ATOM     30  C   UNL     1      -2.150   5.124   7.547  1.00  0.00     0.003 A 
ATOM     31  C   UNL     1      -3.418   5.117   6.950  1.00  0.00     0.004 A 
ENDBRANCH  16  23
ENDBRANCH   6  11
ENDBRANCH   3   5
ENDBRANCH   2   3
ENDBRANCH   1   2
BRANCH   1  32
ATOM     32  C   UNL     1       7.770  -1.783   1.807  1.00  0.00     0.275 C 
BRANCH  32  33
ATOM     33  O   UNL     1       6.680  -2.622   1.423  1.00  0.00    -0.458 OA
BRANCH  33  34
ATOM     34  C   UNL     1       5.450  -2.130   1.691  1.00  0.00     0.338 C 
ATOM     35  O   UNL     1       5.144  -0.965   1.879  1.00  0.00    -0.246 OA
BRANCH  34  36
ATOM     36  C   UNL     1       4.556  -3.252   2.008  1.00  0.00     0.060 A 
ATOM     37  C   UNL     1       3.241  -2.944   2.368  1.00  0.00     0.016 A 
ATOM     38  C   UNL     1       5.090  -4.534   2.209  1.00  0.00     0.016 A 
ATOM     39  C   UNL     1       2.508  -3.884   3.066  1.00  0.00     0.010 A 
ATOM     40  C   UNL     1       4.364  -5.465   2.917  1.00  0.00     0.010 A 
ATOM     41  C   UNL     1       3.106  -5.106   3.394  1.00  0.00    -0.014 A 
BRANCH  41  42
ATOM     42  C   UNL     1       2.333  -6.060   4.164  1.00  0.00     0.031 A 
ATOM     43  C   UNL     1       1.190  -6.638   3.420  1.00  0.00     0.074 A 
ATOM     44  C   UNL     1       2.699  -6.489   5.386  1.00  0.00     0.049 A 
ATOM     45  N   UNL     1      -0.065  -6.555   3.708  1.00  0.00    -0.248 NA
ATOM     46  C   UNL     1       1.476  -7.285   2.128  1.00  0.00     0.031 C 
ATOM     47  C   UNL     1       3.952  -6.227   6.099  1.00  0.00     0.029 A 
ATOM     48  N   UNL     1       2.056  -7.369   6.201  1.00  0.00    -0.354 N 
ATOM     49  C   UNL     1      -0.726  -7.283   2.725  1.00  0.00     0.074 A 
ATOM     50  C   UNL     1       0.248  -7.582   1.706  1.00  0.00     0.031 C 
ATOM     51  C   UNL     1       4.076  -7.114   7.114  1.00  0.00     0.029 A 
ATOM     52  C   UNL     1       2.859  -7.905   7.197  1.00  0.00     0.049 A 
ATOM     53  H   UNL     1       1.106  -7.603   6.093  1.00  0.00     0.167 HD
ATOM     54  C   UNL     1      -1.968  -7.795   2.933  1.00  0.00     0.031 A 
ATOM     55  C   UNL     1       2.565  -8.974   7.977  1.00  0.00     0.031 A 
ATOM     56  C   UNL     1      -2.640  -7.152   4.030  1.00  0.00     0.049 A 
ATOM     57  C   UNL     1       1.101  -9.191   7.917  1.00  0.00     0.074 A 
ATOM     58  C   UNL     1      -3.034  -5.858   4.306  1.00  0.00     0.029 A 
ATOM     59  N   UNL     1      -2.670  -7.819   5.231  1.00  0.00    -0.354 N 
ATOM     60  N   UNL     1       0.231  -8.379   8.444  1.00  0.00    -0.248 NA
ATOM     61  C   UNL     1       0.577 -10.092   6.903  1.00  0.00     0.031 C 
ATOM     62  C   UNL     1      -2.818  -5.697   5.706  1.00  0.00     0.029 A 
ATOM     63  C   UNL     1      -2.358  -6.914   6.211  1.00  0.00     0.049 A 
ATOM     64  H   UNL     1      -2.877  -8.773   5.363  1.00  0.00     0.167 HD
ATOM     65  C   UNL     1      -0.819  -8.351   7.537  1.00  0.00     0.074 A 
ATOM     66  C   UNL     1      -0.602  -9.508   6.672  1.00  0.00     0.031 C 
ATOM     67  C   UNL     1      -1.597  -7.238   7.397  1.00  0.00     0.031 A 
BRANCH  54  68
ATOM     68  C   UNL     1      -2.379  -9.151   2.421  1.00  0.00    -0.014 A 
ATOM     69  C   UNL     1      -3.693  -9.591   2.654  1.00  0.00     0.009 A 
ATOM     70  C   UNL     1      -1.452 -10.121   1.989  1.00  0.00     0.009 A 
ATOM     71  C   UNL     1      -4.036 -10.944   2.537  1.00  0.00     0.001 A 
ATOM     72  C   UNL     1      -1.802 -11.463   1.830  1.00  0.00     0.001 A 
ATOM     73  C   UNL     1      -3.088 -11.879   2.134  1.00  0.00     0.000 A 
ENDBRANCH  54  68
BRANCH  55  74
ATOM     74  C   UNL     1       3.483  -9.988   8.537  1.00  0.00    -0.014 A 
ATOM     75  C   UNL     1       3.068 -10.837   9.575  1.00  0.00     0.009 A 
ATOM     76  C   UNL     1       4.679 -10.307   7.868  1.00  0.00     0.009 A 
ATOM     77  C   UNL     1       3.802 -11.985   9.902  1.00  0.00     0.001 A 
ATOM     78  C   UNL     1       5.414 -11.450   8.198  1.00  0.00     0.001 A 
ATOM     79  C   UNL     1       4.966 -12.298   9.204  1.00  0.00     0.000 A 
ENDBRANCH  55  74
BRANCH  67  80
ATOM     80  C   UNL     1      -1.447  -6.139   8.421  1.00  0.00    -0.014 A 
ATOM     81  C   UNL     1      -0.237  -5.456   8.641  1.00  0.00     0.009 A 
ATOM     82  C   UNL     1      -2.597  -5.682   9.081  1.00  0.00     0.009 A 
ATOM     83  C   UNL     1      -0.176  -4.372   9.523  1.00  0.00     0.001 A 
ATOM     84  C   UNL     1      -2.541  -4.585   9.943  1.00  0.00     0.001 A 
ATOM     85  C   UNL     1      -1.330  -3.935  10.169  1.00  0.00     0.000 A 
ENDBRANCH  67  80
ENDBRANCH  41  42
ENDBRANCH  34  36
ENDBRANCH  33  34
ENDBRANCH  32  33
ENDBRANCH   1  32
TORSDOF 13
