REMARK SMILES C[C@H]1[C@H](C(=O)OCCOC(=O)c2ccc(-c3c4nc(c(-c5ccccc5)c5ccc([nH]5)c(-c5ccccc5)c5nc(c(-c6ccccc6)c6ccc3[nH]6)C=C5)C=C4)cc2)CC[N@@H+]1[C@@H](c1ccccc1)c1ccco1
REMARK SMILES IDX 7 1 6 2 4 3 5 4 3 5 1 6 2 7 62 8 60 9 61 10 63 12 64 13
REMARK SMILES IDX 65 14 69 15 66 16 68 17 67 18 70 19 71 20 74 21 72 22 73 23
REMARK SMILES IDX 8 24 9 25 10 26 11 27 12 28 13 29 59 30 14 31 58 32 15 33
REMARK SMILES IDX 16 34 17 35 52 36 18 37 57 38 51 39 53 40 19 41 56 42 50 43
REMARK SMILES IDX 49 44 20 46 42 47 27 48 41 49 28 50 31 51 40 52 54 53 29 54
REMARK SMILES IDX 30 55 39 57 55 58 32 59 21 60 22 61 26 62 23 63 25 64 24 65
REMARK SMILES IDX 43 66 44 67 48 68 45 69 47 70 46 71 33 72 34 73 38 74 35 75
REMARK SMILES IDX 37 76 36 77
REMARK H PARENT 62 11 53 45 31 56
REMARK Flexibility Score: inf
ROOT
ATOM      1  C   UNL     1      -0.357   3.112   3.263  1.00  0.00     0.274 C 
ENDROOT
BRANCH   1   2
ATOM      2  O   UNL     1      -0.222   2.035   2.316  1.00  0.00    -0.462 OA
BRANCH   2   3
ATOM      3  C   UNL     1      -0.744   2.217   1.082  1.00  0.00     0.315 C 
ATOM      4  O   UNL     1      -1.370   3.215   0.734  1.00  0.00    -0.252 OA
BRANCH   3   5
ATOM      5  C   UNL     1      -0.439   1.093   0.108  1.00  0.00     0.162 C 
ATOM      6  C   UNL     1       1.684  -0.220  -0.259  1.00  0.00     0.076 C 
ATOM      7  C   UNL     1       0.427  -0.068   0.614  1.00  0.00     0.196 C 
ATOM      8  N   UNL     1      -0.376  -1.288   0.445  1.00  0.00    -0.319 N 
ATOM      9  C   UNL     1      -1.728   0.479  -0.413  1.00  0.00     0.083 C 
ATOM     10  C   UNL     1      -1.447  -1.004  -0.503  1.00  0.00     0.264 C 
ATOM     11  H   UNL     1       0.199  -2.023   0.031  1.00  0.00     0.349 HD
BRANCH   8  12
ATOM     12  C   UNL     1      -0.746  -1.974   1.704  1.00  0.00     0.283 C 
BRANCH  12  13
ATOM     13  C   UNL     1      -1.473  -1.132   2.758  1.00  0.00     0.017 A 
ATOM     14  C   UNL     1      -0.819  -0.813   3.963  1.00  0.00     0.010 A 
ATOM     15  C   UNL     1      -2.786  -0.666   2.585  1.00  0.00     0.010 A 
ATOM     16  C   UNL     1      -1.449  -0.045   4.946  1.00  0.00     0.001 A 
ATOM     17  C   UNL     1      -3.407   0.124   3.555  1.00  0.00     0.001 A 
ATOM     18  C   UNL     1      -2.739   0.433   4.736  1.00  0.00     0.000 A 
ENDBRANCH  12  13
BRANCH  12  19
ATOM     19  C   UNL     1      -1.375  -3.319   1.414  1.00  0.00     0.165 A 
ATOM     20  C   UNL     1      -0.933  -4.403   0.676  1.00  0.00     0.052 A 
ATOM     21  O   UNL     1      -2.620  -3.586   1.910  1.00  0.00    -0.463 OA
ATOM     22  C   UNL     1      -1.963  -5.371   0.722  1.00  0.00     0.042 A 
ATOM     23  C   UNL     1      -2.965  -4.827   1.488  1.00  0.00     0.195 A 
ENDBRANCH  12  19
ENDBRANCH   8  12
ENDBRANCH   3   5
ENDBRANCH   2   3
ENDBRANCH   1   2
BRANCH   1  24
ATOM     24  C   UNL     1       1.017   3.697   3.588  1.00  0.00     0.275 C 
BRANCH  24  25
ATOM     25  O   UNL     1       1.556   4.382   2.444  1.00  0.00    -0.458 OA
BRANCH  25  26
ATOM     26  C   UNL     1       2.298   3.610   1.618  1.00  0.00     0.338 C 
ATOM     27  O   UNL     1       2.630   2.448   1.768  1.00  0.00    -0.246 OA
BRANCH  26  28
ATOM     28  C   UNL     1       2.563   4.364   0.390  1.00  0.00     0.060 A 
ATOM     29  C   UNL     1       1.827   4.049  -0.753  1.00  0.00     0.016 A 
ATOM     30  C   UNL     1       3.580   5.312   0.347  1.00  0.00     0.016 A 
ATOM     31  C   UNL     1       2.126   4.650  -1.967  1.00  0.00     0.010 A 
ATOM     32  C   UNL     1       3.856   5.946  -0.864  1.00  0.00     0.010 A 
ATOM     33  C   UNL     1       3.142   5.606  -2.029  1.00  0.00    -0.014 A 
BRANCH  33  34
ATOM     34  C   UNL     1       3.502   6.234  -3.316  1.00  0.00     0.031 A 
ATOM     35  C   UNL     1       4.837   5.935  -3.926  1.00  0.00     0.074 A 
ATOM     36  C   UNL     1       2.650   7.090  -3.908  1.00  0.00     0.049 A 
ATOM     37  N   UNL     1       5.460   6.554  -4.893  1.00  0.00    -0.248 NA
ATOM     38  C   UNL     1       5.574   4.793  -3.360  1.00  0.00     0.031 C 
ATOM     39  C   UNL     1       1.293   7.394  -3.449  1.00  0.00     0.029 A 
ATOM     40  N   UNL     1       2.816   7.882  -5.014  1.00  0.00    -0.354 N 
ATOM     41  C   UNL     1       6.684   5.911  -5.018  1.00  0.00     0.074 A 
ATOM     42  C   UNL     1       6.714   4.851  -4.034  1.00  0.00     0.031 C 
ATOM     43  C   UNL     1       0.754   8.317  -4.261  1.00  0.00     0.029 A 
ATOM     44  C   UNL     1       1.753   8.720  -5.244  1.00  0.00     0.049 A 
ATOM     45  H   UNL     1       3.616   7.852  -5.587  1.00  0.00     0.167 HD
ATOM     46  C   UNL     1       7.693   6.196  -5.872  1.00  0.00     0.031 A 
ATOM     47  C   UNL     1       1.624   9.741  -6.112  1.00  0.00     0.031 A 
ATOM     48  C   UNL     1       7.638   7.247  -6.852  1.00  0.00     0.049 A 
ATOM     49  C   UNL     1       2.785  10.086  -7.001  1.00  0.00     0.074 A 
ATOM     50  C   UNL     1       8.603   7.627  -7.767  1.00  0.00     0.029 A 
ATOM     51  N   UNL     1       6.547   8.082  -7.045  1.00  0.00    -0.354 N 
ATOM     52  N   UNL     1       3.959   9.509  -7.084  1.00  0.00    -0.248 NA
ATOM     53  C   UNL     1       2.608  11.231  -7.904  1.00  0.00     0.031 C 
ATOM     54  C   UNL     1       8.109   8.719  -8.489  1.00  0.00     0.029 A 
ATOM     55  C   UNL     1       6.820   8.986  -8.055  1.00  0.00     0.049 A 
ATOM     56  H   UNL     1       5.705   8.037  -6.537  1.00  0.00     0.167 HD
ATOM     57  C   UNL     1       4.653  10.202  -8.066  1.00  0.00     0.074 A 
ATOM     58  C   UNL     1       3.766  11.240  -8.552  1.00  0.00     0.031 C 
ATOM     59  C   UNL     1       5.910   9.997  -8.527  1.00  0.00     0.031 A 
BRANCH  46  60
ATOM     60  C   UNL     1       8.956   5.395  -5.743  1.00  0.00    -0.014 A 
ATOM     61  C   UNL     1       9.027   4.060  -6.168  1.00  0.00     0.009 A 
ATOM     62  C   UNL     1      10.103   5.999  -5.203  1.00  0.00     0.009 A 
ATOM     63  C   UNL     1      10.213   3.336  -6.026  1.00  0.00     0.001 A 
ATOM     64  C   UNL     1      11.294   5.281  -5.085  1.00  0.00     0.001 A 
ATOM     65  C   UNL     1      11.346   3.948  -5.488  1.00  0.00     0.000 A 
ENDBRANCH  46  60
BRANCH  47  66
ATOM     66  C   UNL     1       0.372  10.538  -6.136  1.00  0.00    -0.014 A 
ATOM     67  C   UNL     1      -0.512  10.444  -7.221  1.00  0.00     0.009 A 
ATOM     68  C   UNL     1       0.045  11.386  -5.066  1.00  0.00     0.009 A 
ATOM     69  C   UNL     1      -1.690  11.194  -7.239  1.00  0.00     0.001 A 
ATOM     70  C   UNL     1      -1.146  12.114  -5.074  1.00  0.00     0.001 A 
ATOM     71  C   UNL     1      -2.009  12.023  -6.164  1.00  0.00     0.000 A 
ENDBRANCH  47  66
BRANCH  59  72
ATOM     72  C   UNL     1       6.381  10.876  -9.647  1.00  0.00    -0.014 A 
ATOM     73  C   UNL     1       6.793  12.195  -9.413  1.00  0.00     0.009 A 
ATOM     74  C   UNL     1       6.476  10.346 -10.944  1.00  0.00     0.009 A 
ATOM     75  C   UNL     1       7.278  12.975 -10.464  1.00  0.00     0.001 A 
ATOM     76  C   UNL     1       6.982  11.121 -11.987  1.00  0.00     0.001 A 
ATOM     77  C   UNL     1       7.378  12.436 -11.747  1.00  0.00     0.000 A 
ENDBRANCH  59  72
ENDBRANCH  33  34
ENDBRANCH  26  28
ENDBRANCH  25  26
ENDBRANCH  24  25
ENDBRANCH   1  24
TORSDOF 14
