REMARK SMILES O=C(CCCC[C@H](O)c1ccc(Cl)s1)OCCOC(=O)c1ccc(-c2c3nc(c(-c4ccccc4)c4ccc([nH]4)c(-c4ccccc4)c4nc(c(-c5ccccc5)c5ccc2[nH]5)C=C4)C=C3)cc1
REMARK SMILES IDX 15 1 2 2 1 3 3 4 4 5 5 6 6 7 7 8 9 9 10 10 14 11 11 12 12 13
REMARK SMILES IDX 13 14 8 15 16 17 17 18 18 19 19 20 20 21 21 22 22 23 68 24
REMARK SMILES IDX 23 25 67 26 24 27 25 28 26 29 61 30 27 31 66 32 60 33 62 34
REMARK SMILES IDX 28 35 65 36 59 37 58 38 29 40 51 41 36 42 50 43 37 44 40 45
REMARK SMILES IDX 49 46 63 47 38 48 39 49 48 51 64 52 41 53 30 54 31 55 35 56
REMARK SMILES IDX 32 57 34 58 33 59 52 60 53 61 57 62 54 63 56 64 55 65 42 66
REMARK SMILES IDX 43 67 47 68 44 69 46 70 45 71
REMARK H PARENT 8 16 62 39 40 50
REMARK Flexibility Score: inf
ROOT
ATOM      1  O   UNL     1       9.223   4.171  -3.005  1.00  0.00    -0.462 OA
ENDROOT
BRANCH   1   2
ATOM      2  C   UNL     1       8.865   3.496  -4.130  1.00  0.00     0.305 C 
ATOM      3  O   UNL     1       9.573   3.495  -5.130  1.00  0.00    -0.252 OA
BRANCH   2   4
ATOM      4  C   UNL     1       7.461   2.929  -4.130  1.00  0.00     0.123 C 
BRANCH   4   5
ATOM      5  C   UNL     1       7.346   1.503  -4.658  1.00  0.00     0.012 C 
BRANCH   5   6
ATOM      6  C   UNL     1       7.707   0.390  -3.666  1.00  0.00     0.004 C 
BRANCH   6   7
ATOM      7  C   UNL     1       6.965   0.459  -2.322  1.00  0.00     0.037 C 
BRANCH   7   8
ATOM      8  C   UNL     1       6.479  -0.878  -1.754  1.00  0.00     0.154 C 
BRANCH   8   9
ATOM      9  C   UNL     1       7.497  -1.978  -1.724  1.00  0.00     0.035 A 
ATOM     10  C   UNL     1       8.865  -1.930  -1.508  1.00  0.00     0.020 A 
ATOM     11  S   UNL     1       6.972  -3.601  -1.978  1.00  0.00    -0.126 S 
ATOM     12  C   UNL     1       9.477  -3.217  -1.588  1.00  0.00     0.033 A 
ATOM     13  C   UNL     1       8.546  -4.193  -1.826  1.00  0.00     0.093 A 
ATOM     14  Cl  UNL     1       8.838  -5.878  -1.977  1.00  0.00    -0.072 Cl
ENDBRANCH   8   9
BRANCH   8  15
ATOM     15  O   UNL     1       6.099  -0.665  -0.394  1.00  0.00    -0.388 OA
ATOM     16  H   UNL     1       6.874  -0.386   0.118  1.00  0.00     0.211 HD
ENDBRANCH   8  15
ENDBRANCH   7   8
ENDBRANCH   6   7
ENDBRANCH   5   6
ENDBRANCH   4   5
ENDBRANCH   2   4
ENDBRANCH   1   2
BRANCH   1  17
ATOM     17  C   UNL     1       9.240   3.447  -1.763  1.00  0.00     0.274 C 
BRANCH  17  18
ATOM     18  C   UNL     1       8.334   4.071  -0.695  1.00  0.00     0.275 C 
BRANCH  18  19
ATOM     19  O   UNL     1       7.001   4.272  -1.190  1.00  0.00    -0.458 OA
BRANCH  19  20
ATOM     20  C   UNL     1       6.785   5.507  -1.720  1.00  0.00     0.338 C 
ATOM     21  O   UNL     1       7.531   6.465  -1.662  1.00  0.00    -0.246 OA
BRANCH  20  22
ATOM     22  C   UNL     1       5.560   5.489  -2.550  1.00  0.00     0.060 A 
ATOM     23  C   UNL     1       5.597   6.188  -3.763  1.00  0.00     0.016 A 
ATOM     24  C   UNL     1       4.395   4.823  -2.158  1.00  0.00     0.016 A 
ATOM     25  C   UNL     1       4.459   6.260  -4.567  1.00  0.00     0.010 A 
ATOM     26  C   UNL     1       3.251   4.900  -2.961  1.00  0.00     0.010 A 
ATOM     27  C   UNL     1       3.269   5.646  -4.152  1.00  0.00    -0.014 A 
BRANCH  27  28
ATOM     28  C   UNL     1       2.014   5.931  -4.887  1.00  0.00     0.031 A 
ATOM     29  C   UNL     1       1.133   7.053  -4.408  1.00  0.00     0.074 A 
ATOM     30  C   UNL     1       1.678   5.241  -5.991  1.00  0.00     0.049 A 
ATOM     31  N   UNL     1       0.027   7.518  -4.929  1.00  0.00    -0.248 NA
ATOM     32  C   UNL     1       1.560   7.744  -3.180  1.00  0.00     0.031 C 
ATOM     33  C   UNL     1       2.455   4.156  -6.585  1.00  0.00     0.029 A 
ATOM     34  N   UNL     1       0.586   5.365  -6.815  1.00  0.00    -0.354 N 
ATOM     35  C   UNL     1      -0.364   8.566  -4.106  1.00  0.00     0.074 A 
ATOM     36  C   UNL     1       0.598   8.641  -3.027  1.00  0.00     0.031 C 
ATOM     37  C   UNL     1       1.815   3.712  -7.683  1.00  0.00     0.029 A 
ATOM     38  C   UNL     1       0.579   4.473  -7.858  1.00  0.00     0.049 A 
ATOM     39  H   UNL     1      -0.125   6.031  -6.670  1.00  0.00     0.167 HD
ATOM     40  C   UNL     1      -1.419   9.403  -4.238  1.00  0.00     0.031 A 
ATOM     41  C   UNL     1      -0.324   4.291  -8.841  1.00  0.00     0.031 A 
ATOM     42  C   UNL     1      -2.397   9.323  -5.287  1.00  0.00     0.049 A 
ATOM     43  C   UNL     1      -1.541   5.174  -8.913  1.00  0.00     0.074 A 
ATOM     44  C   UNL     1      -3.498  10.134  -5.504  1.00  0.00     0.029 A 
ATOM     45  N   UNL     1      -2.399   8.367  -6.289  1.00  0.00    -0.354 N 
ATOM     46  N   UNL     1      -1.874   6.188  -8.152  1.00  0.00    -0.248 NA
ATOM     47  C   UNL     1      -2.503   4.890  -9.990  1.00  0.00     0.031 C 
ATOM     48  C   UNL     1      -4.193   9.638  -6.612  1.00  0.00     0.029 A 
ATOM     49  C   UNL     1      -3.498   8.549  -7.111  1.00  0.00     0.049 A 
ATOM     50  H   UNL     1      -1.720   7.663  -6.400  1.00  0.00     0.167 HD
ATOM     51  C   UNL     1      -3.063   6.682  -8.677  1.00  0.00     0.074 A 
ATOM     52  C   UNL     1      -3.391   5.860  -9.823  1.00  0.00     0.031 C 
ATOM     53  C   UNL     1      -3.813   7.727  -8.249  1.00  0.00     0.031 A 
BRANCH  40  54
ATOM     54  C   UNL     1      -1.575  10.473  -3.197  1.00  0.00    -0.014 A 
ATOM     55  C   UNL     1      -0.733  11.596  -3.187  1.00  0.00     0.009 A 
ATOM     56  C   UNL     1      -2.586  10.367  -2.231  1.00  0.00     0.009 A 
ATOM     57  C   UNL     1      -0.882  12.579  -2.207  1.00  0.00     0.001 A 
ATOM     58  C   UNL     1      -2.746  11.362  -1.266  1.00  0.00     0.001 A 
ATOM     59  C   UNL     1      -1.889  12.463  -1.250  1.00  0.00     0.000 A 
ENDBRANCH  40  54
BRANCH  41  60
ATOM     60  C   UNL     1      -0.121   3.222  -9.853  1.00  0.00    -0.014 A 
ATOM     61  C   UNL     1       0.212   3.547 -11.177  1.00  0.00     0.009 A 
ATOM     62  C   UNL     1      -0.298   1.874  -9.507  1.00  0.00     0.009 A 
ATOM     63  C   UNL     1       0.338   2.544 -12.140  1.00  0.00     0.001 A 
ATOM     64  C   UNL     1      -0.149   0.872 -10.467  1.00  0.00     0.001 A 
ATOM     65  C   UNL     1       0.159   1.208 -11.784  1.00  0.00     0.000 A 
ENDBRANCH  41  60
BRANCH  53  66
ATOM     66  C   UNL     1      -5.044   8.065  -9.041  1.00  0.00    -0.014 A 
ATOM     67  C   UNL     1      -6.201   7.276  -8.960  1.00  0.00     0.009 A 
ATOM     68  C   UNL     1      -5.061   9.220  -9.838  1.00  0.00     0.009 A 
ATOM     69  C   UNL     1      -7.343   7.623  -9.685  1.00  0.00     0.001 A 
ATOM     70  C   UNL     1      -6.212   9.578 -10.543  1.00  0.00     0.001 A 
ATOM     71  C   UNL     1      -7.349   8.775 -10.471  1.00  0.00     0.000 A 
ENDBRANCH  53  66
ENDBRANCH  27  28
ENDBRANCH  20  22
ENDBRANCH  19  20
ENDBRANCH  18  19
ENDBRANCH  17  18
ENDBRANCH   1  17
TORSDOF 17
