REMARK SMILES O=C(OCCOC(=O)[C@H]1CCC(=O)N(C2CCCCC2)[C@H]1c1ccccc1)c1ccc(-c2c3nc(c(-c4ccccc4)c4ccc([nH]4)c(-c4ccccc4)c4nc(c(-c5ccccc5)c5ccc2[nH]5)C=C4)C=C3)cc1
REMARK SMILES IDX 4 1 3 2 2 3 1 4 28 5 29 6 75 7 30 8 74 9 31 10 32 11 33 12
REMARK SMILES IDX 68 13 34 14 73 15 67 16 69 17 35 18 72 19 66 20 65 21 36 23
REMARK SMILES IDX 58 24 43 25 57 26 44 27 47 28 56 29 70 30 45 31 46 32 55 34
REMARK SMILES IDX 71 35 48 36 37 37 38 38 42 39 39 40 41 41 40 42 59 43 60 44
REMARK SMILES IDX 64 45 61 46 63 47 62 48 49 49 50 50 54 51 51 52 53 53 52 54
REMARK SMILES IDX 5 55 6 56 7 57 8 58 9 59 10 60 21 61 11 62 14 63 12 64 13 65
REMARK SMILES IDX 22 66 23 67 27 68 24 69 26 70 25 71 15 72 16 73 20 74 17 75
REMARK SMILES IDX 19 76 18 77
REMARK H PARENT 69 22 47 33
REMARK Flexibility Score: inf
ROOT
ATOM      1  C   UNL     1       4.405   3.977  -1.115  1.00  0.00     0.275 C 
ENDROOT
BRANCH   1   2
ATOM      2  O   UNL     1       4.676   2.738  -0.436  1.00  0.00    -0.458 OA
BRANCH   2   3
ATOM      3  C   UNL     1       3.836   1.829   0.112  1.00  0.00     0.338 C 
ATOM      4  O   UNL     1       4.324   0.886   0.734  1.00  0.00    -0.246 OA
BRANCH   3   5
ATOM      5  C   UNL     1       2.350   1.822  -0.089  1.00  0.00     0.060 A 
ATOM      6  C   UNL     1       1.564   2.904  -0.505  1.00  0.00     0.016 A 
ATOM      7  C   UNL     1       1.703   0.586   0.121  1.00  0.00     0.016 A 
ATOM      8  C   UNL     1       0.206   2.750  -0.797  1.00  0.00     0.010 A 
ATOM      9  C   UNL     1       0.339   0.428  -0.143  1.00  0.00     0.010 A 
ATOM     10  C   UNL     1      -0.410   1.513  -0.621  1.00  0.00    -0.014 A 
BRANCH  10  11
ATOM     11  C   UNL     1      -1.878   1.422  -0.689  1.00  0.00     0.031 A 
ATOM     12  C   UNL     1      -2.600   1.515   0.617  1.00  0.00     0.074 A 
ATOM     13  C   UNL     1      -2.538   1.282  -1.852  1.00  0.00     0.049 A 
ATOM     14  N   UNL     1      -3.874   1.416   0.871  1.00  0.00    -0.248 NA
ATOM     15  C   UNL     1      -1.757   1.757   1.802  1.00  0.00     0.031 C 
ATOM     16  C   UNL     1      -1.931   1.270  -3.180  1.00  0.00     0.029 A 
ATOM     17  N   UNL     1      -3.875   1.107  -2.098  1.00  0.00    -0.354 N 
ATOM     18  C   UNL     1      -3.982   1.573   2.245  1.00  0.00     0.074 A 
ATOM     19  C   UNL     1      -2.648   1.726   2.775  1.00  0.00     0.031 C 
ATOM     20  C   UNL     1      -2.884   1.040  -4.101  1.00  0.00     0.029 A 
ATOM     21  C   UNL     1      -4.167   0.886  -3.424  1.00  0.00     0.049 A 
ATOM     22  H   UNL     1      -4.562   1.137  -1.393  1.00  0.00     0.167 HD
ATOM     23  C   UNL     1      -5.101   1.596   3.000  1.00  0.00     0.031 A 
ATOM     24  C   UNL     1      -5.340   0.576  -4.010  1.00  0.00     0.031 A 
ATOM     25  C   UNL     1      -6.411   1.390   2.457  1.00  0.00     0.049 A 
ATOM     26  C   UNL     1      -6.569   0.503  -3.142  1.00  0.00     0.074 A 
ATOM     27  C   UNL     1      -7.624   1.364   3.113  1.00  0.00     0.029 A 
ATOM     28  N   UNL     1      -6.665   1.151   1.113  1.00  0.00    -0.354 N 
ATOM     29  N   UNL     1      -6.672   0.690  -1.846  1.00  0.00    -0.248 NA
ATOM     30  C   UNL     1      -7.842   0.200  -3.809  1.00  0.00     0.031 C 
ATOM     31  C   UNL     1      -8.609   1.048   2.171  1.00  0.00     0.029 A 
ATOM     32  C   UNL     1      -8.016   0.947   0.920  1.00  0.00     0.049 A 
ATOM     33  H   UNL     1      -5.983   1.130   0.403  1.00  0.00     0.167 HD
ATOM     34  C   UNL     1      -8.022   0.565  -1.547  1.00  0.00     0.074 A 
ATOM     35  C   UNL     1      -8.699   0.285  -2.799  1.00  0.00     0.031 C 
ATOM     36  C   UNL     1      -8.649   0.682  -0.350  1.00  0.00     0.031 A 
BRANCH  23  37
ATOM     37  C   UNL     1      -4.898   1.768   4.477  1.00  0.00    -0.014 A 
ATOM     38  C   UNL     1      -4.404   2.971   5.012  1.00  0.00     0.009 A 
ATOM     39  C   UNL     1      -5.093   0.674   5.330  1.00  0.00     0.009 A 
ATOM     40  C   UNL     1      -4.038   3.047   6.357  1.00  0.00     0.001 A 
ATOM     41  C   UNL     1      -4.760   0.765   6.682  1.00  0.00     0.001 A 
ATOM     42  C   UNL     1      -4.214   1.943   7.190  1.00  0.00     0.000 A 
ENDBRANCH  23  37
BRANCH  24  43
ATOM     43  C   UNL     1      -5.399   0.308  -5.473  1.00  0.00    -0.014 A 
ATOM     44  C   UNL     1      -6.023   1.208  -6.351  1.00  0.00     0.009 A 
ATOM     45  C   UNL     1      -4.813  -0.853  -6.006  1.00  0.00     0.009 A 
ATOM     46  C   UNL     1      -6.073   0.943  -7.724  1.00  0.00     0.001 A 
ATOM     47  C   UNL     1      -4.844  -1.104  -7.381  1.00  0.00     0.001 A 
ATOM     48  C   UNL     1      -5.480  -0.209  -8.238  1.00  0.00     0.000 A 
ENDBRANCH  24  43
BRANCH  36  49
ATOM     49  C   UNL     1     -10.144   0.557  -0.335  1.00  0.00    -0.014 A 
ATOM     50  C   UNL     1     -10.774  -0.689  -0.452  1.00  0.00     0.009 A 
ATOM     51  C   UNL     1     -10.921   1.698  -0.070  1.00  0.00     0.009 A 
ATOM     52  C   UNL     1     -12.159  -0.790  -0.310  1.00  0.00     0.001 A 
ATOM     53  C   UNL     1     -12.300   1.588   0.100  1.00  0.00     0.001 A 
ATOM     54  C   UNL     1     -12.918   0.345  -0.022  1.00  0.00     0.000 A 
ENDBRANCH  36  49
ENDBRANCH  10  11
ENDBRANCH   3   5
ENDBRANCH   2   3
ENDBRANCH   1   2
BRANCH   1  55
ATOM     55  C   UNL     1       4.026   3.836  -2.594  1.00  0.00     0.274 C 
BRANCH  55  56
ATOM     56  O   UNL     1       3.256   2.658  -2.886  1.00  0.00    -0.462 OA
BRANCH  56  57
ATOM     57  C   UNL     1       3.994   1.576  -3.236  1.00  0.00     0.311 C 
ATOM     58  O   UNL     1       5.221   1.585  -3.337  1.00  0.00    -0.252 OA
BRANCH  57  59
ATOM     59  C   UNL     1       3.189   0.326  -3.489  1.00  0.00     0.127 C 
ATOM     60  C   UNL     1       1.678   0.361  -3.373  1.00  0.00     0.028 C 
ATOM     61  C   UNL     1       3.496  -0.245  -4.875  1.00  0.00     0.130 C 
ATOM     62  C   UNL     1       1.149  -1.066  -3.355  1.00  0.00     0.101 C 
ATOM     63  N   UNL     1       3.030  -1.647  -4.902  1.00  0.00    -0.332 N 
ATOM     64  C   UNL     1       1.853  -2.054  -4.279  1.00  0.00     0.223 C 
ATOM     65  O   UNL     1       1.392  -3.191  -4.388  1.00  0.00    -0.275 OA
BRANCH  61  66
ATOM     66  C   UNL     1       2.909   0.608  -6.017  1.00  0.00    -0.025 A 
ATOM     67  C   UNL     1       1.786   0.206  -6.764  1.00  0.00     0.006 A 
ATOM     68  C   UNL     1       3.432   1.889  -6.272  1.00  0.00     0.006 A 
ATOM     69  C   UNL     1       1.194   1.056  -7.700  1.00  0.00     0.000 A 
ATOM     70  C   UNL     1       2.820   2.752  -7.184  1.00  0.00     0.000 A 
ATOM     71  C   UNL     1       1.701   2.335  -7.898  1.00  0.00     0.000 A 
ENDBRANCH  61  66
BRANCH  63  72
ATOM     72  C   UNL     1       3.853  -2.600  -5.659  1.00  0.00     0.085 C 
ATOM     73  C   UNL     1       4.412  -3.723  -4.772  1.00  0.00     0.025 C 
ATOM     74  C   UNL     1       3.151  -3.152  -6.905  1.00  0.00     0.025 C 
ATOM     75  C   UNL     1       5.340  -4.633  -5.572  1.00  0.00     0.002 C 
ATOM     76  C   UNL     1       4.093  -4.052  -7.695  1.00  0.00     0.002 C 
ATOM     77  C   UNL     1       4.655  -5.173  -6.826  1.00  0.00     0.000 C 
ENDBRANCH  63  72
ENDBRANCH  57  59
ENDBRANCH  56  57
ENDBRANCH  55  56
ENDBRANCH   1  55
TORSDOF 13
