REMARK SMILES Cc1c(C(=O)OCCOC(=O)c2ccc(-c3c4nc(c(-c5ccccc5)c5ccc([nH]5)c(-c5ccccc5)c5nc(c(-c6ccccc6)c6ccc3[nH]6)C=C5)C=C4)cc2)sc2c1=C(CSc1nncn1-c1ccccc1)CC(=O)N=2
REMARK SMILES IDX 7 1 6 2 4 3 5 4 3 5 1 6 2 7 62 8 60 9 61 10 63 11 80 12
REMARK SMILES IDX 77 13 78 14 79 15 64 16 65 17 66 18 67 19 70 20 68 21 69 22
REMARK SMILES IDX 71 23 72 24 76 25 73 26 75 27 74 28 8 29 9 30 10 31 11 32
REMARK SMILES IDX 12 33 13 34 59 35 14 36 58 37 15 38 16 39 17 40 52 41 18 42
REMARK SMILES IDX 57 43 51 44 53 45 19 46 56 47 50 48 49 49 20 51 42 52 27 53
REMARK SMILES IDX 41 54 28 55 31 56 40 57 54 58 29 59 30 60 39 62 55 63 32 64
REMARK SMILES IDX 21 65 22 66 26 67 23 68 25 69 24 70 43 71 44 72 48 73 45 74
REMARK SMILES IDX 47 75 46 76 33 77 34 78 38 79 35 80 37 81 36 82
REMARK H PARENT 53 50 31 61
REMARK Flexibility Score: inf
ROOT
ATOM      1  C   UNL     1       1.283  -3.928  -0.999  1.00  0.00     0.275 C 
ENDROOT
BRANCH   1   2
ATOM      2  O   UNL     1       0.805  -2.790  -0.256  1.00  0.00    -0.458 OA
BRANCH   2   3
ATOM      3  C   UNL     1      -0.056  -3.041   0.765  1.00  0.00     0.348 C 
ATOM      4  O   UNL     1      -0.536  -4.143   1.004  1.00  0.00    -0.245 OA
BRANCH   3   5
ATOM      5  C   UNL     1      -0.281  -1.839   1.626  1.00  0.00     0.118 A 
ATOM      6  C   UNL     1       0.767   0.111   0.317  1.00  0.00     0.047 C 
ATOM      7  C   UNL     1      -0.015  -0.532   1.416  1.00  0.00    -0.016 A 
ATOM      8  C   UNL     1      -0.333   0.311   2.553  1.00  0.00     0.016 A 
ATOM      9  S   UNL     1      -0.835  -2.161   3.274  1.00  0.00    -0.108 S 
ATOM     10  C   UNL     1      -0.696  -0.484   3.761  1.00  0.00     0.128 A 
ATOM     11  C   UNL     1      -0.929   1.515   2.676  1.00  0.00    -0.040 C 
ATOM     12  N   UNL     1      -0.967  -0.071   4.949  1.00  0.00    -0.202 NA
ATOM     13  C   UNL     1      -0.583   2.203   3.983  1.00  0.00     0.135 C 
ATOM     14  C   UNL     1      -0.930   1.294   5.161  1.00  0.00     0.251 C 
ATOM     15  O   UNL     1      -1.145   1.795   6.264  1.00  0.00    -0.272 OA
BRANCH  11  16
ATOM     16  C   UNL     1      -2.341   1.877   2.231  1.00  0.00     0.110 C 
BRANCH  16  17
ATOM     17  S   UNL     1      -3.051   0.936   0.879  1.00  0.00    -0.081 SA
BRANCH  17  18
ATOM     18  C   UNL     1      -2.644   1.951  -0.464  1.00  0.00     0.195 A 
ATOM     19  N   UNL     1      -2.670   3.265  -0.423  1.00  0.00    -0.123 NA
ATOM     20  N   UNL     1      -2.038   1.520  -1.630  1.00  0.00    -0.277 N 
ATOM     21  N   UNL     1      -2.029   3.733  -1.538  1.00  0.00    -0.138 NA
ATOM     22  C   UNL     1      -1.636   2.691  -2.232  1.00  0.00     0.231 A 
BRANCH  20  23
ATOM     23  C   UNL     1      -1.767   0.204  -2.090  1.00  0.00     0.049 A 
ATOM     24  C   UNL     1      -2.609  -0.866  -1.759  1.00  0.00     0.027 A 
ATOM     25  C   UNL     1      -0.604  -0.038  -2.834  1.00  0.00     0.027 A 
ATOM     26  C   UNL     1      -2.263  -2.169  -2.115  1.00  0.00     0.002 A 
ATOM     27  C   UNL     1      -0.260  -1.345  -3.181  1.00  0.00     0.002 A 
ATOM     28  C   UNL     1      -1.090  -2.406  -2.823  1.00  0.00     0.000 A 
ENDBRANCH  20  23
ENDBRANCH  17  18
ENDBRANCH  16  17
ENDBRANCH  11  16
ENDBRANCH   3   5
ENDBRANCH   2   3
ENDBRANCH   1   2
BRANCH   1  29
ATOM     29  C   UNL     1       2.608  -4.435  -0.457  1.00  0.00     0.275 C 
BRANCH  29  30
ATOM     30  O   UNL     1       2.442  -4.976   0.847  1.00  0.00    -0.458 OA
BRANCH  30  31
ATOM     31  C   UNL     1       2.580  -4.081   1.850  1.00  0.00     0.338 C 
ATOM     32  O   UNL     1       2.623  -2.864   1.758  1.00  0.00    -0.246 OA
BRANCH  31  33
ATOM     33  C   UNL     1       2.947  -4.793   3.074  1.00  0.00     0.060 A 
ATOM     34  C   UNL     1       3.205  -3.995   4.192  1.00  0.00     0.016 A 
ATOM     35  C   UNL     1       3.391  -6.119   2.978  1.00  0.00     0.016 A 
ATOM     36  C   UNL     1       4.109  -4.452   5.121  1.00  0.00     0.010 A 
ATOM     37  C   UNL     1       4.315  -6.561   3.887  1.00  0.00     0.010 A 
ATOM     38  C   UNL     1       4.719  -5.687   4.896  1.00  0.00    -0.014 A 
BRANCH  38  39
ATOM     39  C   UNL     1       5.800  -6.073   5.769  1.00  0.00     0.031 A 
ATOM     40  C   UNL     1       5.359  -6.644   7.057  1.00  0.00     0.074 A 
ATOM     41  C   UNL     1       7.075  -6.063   5.344  1.00  0.00     0.049 A 
ATOM     42  N   UNL     1       5.604  -6.210   8.246  1.00  0.00    -0.248 NA
ATOM     43  C   UNL     1       4.416  -7.773   7.000  1.00  0.00     0.031 C 
ATOM     44  C   UNL     1       7.567  -5.849   3.980  1.00  0.00     0.029 A 
ATOM     45  N   UNL     1       8.192  -6.417   6.028  1.00  0.00    -0.354 N 
ATOM     46  C   UNL     1       4.981  -7.111   9.103  1.00  0.00     0.074 A 
ATOM     47  C   UNL     1       4.121  -7.928   8.287  1.00  0.00     0.031 C 
ATOM     48  C   UNL     1       8.823  -6.341   3.891  1.00  0.00     0.029 A 
ATOM     49  C   UNL     1       9.242  -6.797   5.208  1.00  0.00     0.049 A 
ATOM     50  H   UNL     1       8.251  -6.404   7.011  1.00  0.00     0.167 HD
ATOM     51  C   UNL     1       5.413  -7.303  10.377  1.00  0.00     0.031 A 
ATOM     52  C   UNL     1      10.303  -7.555   5.576  1.00  0.00     0.031 A 
ATOM     53  C   UNL     1       6.243  -6.219  10.834  1.00  0.00     0.049 A 
ATOM     54  C   UNL     1      10.373  -7.547   7.061  1.00  0.00     0.074 A 
ATOM     55  C   UNL     1       6.072  -4.854  10.957  1.00  0.00     0.029 A 
ATOM     56  N   UNL     1       7.601  -6.433  10.889  1.00  0.00    -0.354 N 
ATOM     57  N   UNL     1      10.669  -6.491   7.766  1.00  0.00    -0.248 NA
ATOM     58  C   UNL     1       9.667  -8.596   7.786  1.00  0.00     0.031 C 
ATOM     59  C   UNL     1       7.328  -4.292  10.585  1.00  0.00     0.029 A 
ATOM     60  C   UNL     1       8.200  -5.347  10.308  1.00  0.00     0.049 A 
ATOM     61  H   UNL     1       8.055  -7.218  11.273  1.00  0.00     0.167 HD
ATOM     62  C   UNL     1       9.832  -6.552   8.873  1.00  0.00     0.074 A 
ATOM     63  C   UNL     1       9.313  -7.919   8.882  1.00  0.00     0.031 C 
ATOM     64  C   UNL     1       9.403  -5.420   9.508  1.00  0.00     0.031 A 
BRANCH  51  65
ATOM     65  C   UNL     1       5.433  -8.665  11.027  1.00  0.00    -0.014 A 
ATOM     66  C   UNL     1       5.899  -8.770  12.348  1.00  0.00     0.009 A 
ATOM     67  C   UNL     1       5.288  -9.871  10.311  1.00  0.00     0.009 A 
ATOM     68  C   UNL     1       6.288 -10.003  12.885  1.00  0.00     0.001 A 
ATOM     69  C   UNL     1       5.628 -11.108  10.860  1.00  0.00     0.001 A 
ATOM     70  C   UNL     1       6.161 -11.169  12.137  1.00  0.00     0.000 A 
ENDBRANCH  51  65
BRANCH  52  71
ATOM     71  C   UNL     1      11.025  -8.539   4.736  1.00  0.00    -0.014 A 
ATOM     72  C   UNL     1      12.271  -9.047   5.128  1.00  0.00     0.009 A 
ATOM     73  C   UNL     1      10.387  -9.154   3.640  1.00  0.00     0.009 A 
ATOM     74  C   UNL     1      12.847 -10.135   4.455  1.00  0.00     0.001 A 
ATOM     75  C   UNL     1      10.965 -10.229   2.961  1.00  0.00     0.001 A 
ATOM     76  C   UNL     1      12.193 -10.728   3.376  1.00  0.00     0.000 A 
ENDBRANCH  52  71
BRANCH  64  77
ATOM     77  C   UNL     1      10.022  -4.098   9.124  1.00  0.00    -0.014 A 
ATOM     78  C   UNL     1       9.967  -3.588   7.815  1.00  0.00     0.009 A 
ATOM     79  C   UNL     1      10.501  -3.262  10.143  1.00  0.00     0.009 A 
ATOM     80  C   UNL     1      10.403  -2.290   7.532  1.00  0.00     0.001 A 
ATOM     81  C   UNL     1      10.917  -1.958   9.864  1.00  0.00     0.001 A 
ATOM     82  C   UNL     1      10.871  -1.473   8.558  1.00  0.00     0.000 A 
ENDBRANCH  64  77
ENDBRANCH  38  39
ENDBRANCH  31  33
ENDBRANCH  30  31
ENDBRANCH  29  30
ENDBRANCH   1  29
TORSDOF 15
