REMARK SMILES COc1ccc(/C=C/c2ncc(C(=O)OCCOC(=O)c3ccc(-c4c5nc(c(-c6ccccc6)c6ccc([nH]6)c(-c6ccccc6)c6nc(c(-c7ccccc7)c7ccc4[nH]7)C=C6)C=C5)cc3)s2)cc1O
REMARK SMILES IDX 16 1 15 2 13 3 14 4 12 5 9 6 10 7 69 8 11 9 8 10 7 11 6 12
REMARK SMILES IDX 3 13 4 14 71 15 5 16 70 17 2 18 1 19 72 20 17 22 18 23 19 24
REMARK SMILES IDX 20 25 21 26 22 27 68 28 23 29 67 30 24 31 25 32 26 33 61 34
REMARK SMILES IDX 27 35 66 36 60 37 62 38 28 39 65 40 59 41 58 42 29 44 51 45
REMARK SMILES IDX 36 46 50 47 37 48 40 49 49 50 63 51 38 52 39 53 48 55 64 56
REMARK SMILES IDX 41 57 30 58 31 59 35 60 32 61 34 62 33 63 52 64 53 65 57 66
REMARK SMILES IDX 54 67 56 68 55 69 42 70 43 71 47 72 44 73 46 74 45 75
REMARK H PARENT 72 21 62 43 40 54
REMARK Flexibility Score: inf
ROOT
ATOM      1  C   UNL     1      -0.100 -13.093   6.761  1.00  0.00     0.275 C 
ENDROOT
BRANCH   1   2
ATOM      2  O   UNL     1       0.485 -11.935   6.134  1.00  0.00    -0.458 OA
BRANCH   2   3
ATOM      3  C   UNL     1      -0.364 -11.170   5.383  1.00  0.00     0.350 C 
ATOM      4  O   UNL     1      -1.532 -11.452   5.171  1.00  0.00    -0.245 OA
BRANCH   3   5
ATOM      5  C   UNL     1       0.299  -9.958   4.959  1.00  0.00     0.132 A 
ATOM      6  C   UNL     1       0.746  -7.654   4.297  1.00  0.00     0.116 A 
ATOM      7  N   UNL     1       1.865  -8.241   4.674  1.00  0.00    -0.244 NA
ATOM      8  S   UNL     1      -0.612  -8.714   4.204  1.00  0.00    -0.107 S 
ATOM      9  C   UNL     1       1.608  -9.543   5.077  1.00  0.00     0.139 A 
BRANCH   6  10
ATOM     10  C   UNL     1       0.551  -6.278   4.005  1.00  0.00     0.040 C 
ATOM     11  C   UNL     1       1.103  -5.720   2.917  1.00  0.00     0.011 C 
BRANCH  11  12
ATOM     12  C   UNL     1       0.943  -4.313   2.507  1.00  0.00    -0.022 A 
ATOM     13  C   UNL     1       0.826  -1.613   1.629  1.00  0.00     0.160 A 
ATOM     14  C   UNL     1       0.445  -1.968   2.927  1.00  0.00     0.051 A 
ATOM     15  C   UNL     1       1.267  -2.626   0.777  1.00  0.00     0.158 A 
ATOM     16  C   UNL     1       0.510  -3.297   3.367  1.00  0.00     0.012 A 
ATOM     17  C   UNL     1       1.306  -3.958   1.202  1.00  0.00     0.058 A 
BRANCH  13  18
ATOM     18  O   UNL     1       0.736  -0.272   1.385  1.00  0.00    -0.493 OA
ATOM     19  C   UNL     1       0.781   0.184   0.041  1.00  0.00     0.278 C 
ENDBRANCH  13  18
BRANCH  15  20
ATOM     20  O   UNL     1       1.748  -2.401  -0.481  1.00  0.00    -0.504 OA
ATOM     21  H   UNL     1       1.754  -1.533  -0.832  1.00  0.00     0.293 HD
ENDBRANCH  15  20
ENDBRANCH  11  12
ENDBRANCH   6  10
ENDBRANCH   3   5
ENDBRANCH   2   3
ENDBRANCH   1   2
BRANCH   1  22
ATOM     22  C   UNL     1      -0.371 -12.852   8.250  1.00  0.00     0.275 C 
BRANCH  22  23
ATOM     23  O   UNL     1      -1.432 -11.899   8.460  1.00  0.00    -0.458 OA
BRANCH  23  24
ATOM     24  C   UNL     1      -1.026 -10.622   8.652  1.00  0.00     0.338 C 
ATOM     25  O   UNL     1       0.121 -10.208   8.664  1.00  0.00    -0.246 OA
BRANCH  24  26
ATOM     26  C   UNL     1      -2.192  -9.725   8.697  1.00  0.00     0.060 A 
ATOM     27  C   UNL     1      -2.320  -8.794   7.666  1.00  0.00     0.016 A 
ATOM     28  C   UNL     1      -3.089  -9.720   9.765  1.00  0.00     0.016 A 
ATOM     29  C   UNL     1      -3.340  -7.850   7.689  1.00  0.00     0.010 A 
ATOM     30  C   UNL     1      -4.120  -8.769   9.789  1.00  0.00     0.010 A 
ATOM     31  C   UNL     1      -4.245  -7.821   8.756  1.00  0.00    -0.014 A 
BRANCH  31  32
ATOM     32  C   UNL     1      -5.285  -6.763   8.794  1.00  0.00     0.031 A 
ATOM     33  C   UNL     1      -5.169  -5.623   9.766  1.00  0.00     0.074 A 
ATOM     34  C   UNL     1      -6.309  -6.795   7.921  1.00  0.00     0.049 A 
ATOM     35  N   UNL     1      -5.990  -4.623   9.968  1.00  0.00    -0.248 NA
ATOM     36  C   UNL     1      -3.975  -5.607  10.624  1.00  0.00     0.031 C 
ATOM     37  C   UNL     1      -6.512  -7.818   6.895  1.00  0.00     0.029 A 
ATOM     38  N   UNL     1      -7.366  -5.936   7.754  1.00  0.00    -0.354 N 
ATOM     39  C   UNL     1      -5.429  -3.875  10.995  1.00  0.00     0.074 A 
ATOM     40  C   UNL     1      -4.202  -4.542  11.380  1.00  0.00     0.031 C 
ATOM     41  C   UNL     1      -7.617  -7.519   6.194  1.00  0.00     0.029 A 
ATOM     42  C   UNL     1      -8.225  -6.313   6.752  1.00  0.00     0.049 A 
ATOM     43  H   UNL     1      -7.495  -5.127   8.300  1.00  0.00     0.167 HD
ATOM     44  C   UNL     1      -5.893  -2.738  11.568  1.00  0.00     0.031 A 
ATOM     45  C   UNL     1      -9.384  -5.766   6.340  1.00  0.00     0.031 A 
ATOM     46  C   UNL     1      -7.105  -2.066  11.180  1.00  0.00     0.049 A 
ATOM     47  C   UNL     1      -9.901  -4.530   7.019  1.00  0.00     0.074 A 
ATOM     48  C   UNL     1      -7.643  -0.896  11.689  1.00  0.00     0.029 A 
ATOM     49  N   UNL     1      -7.969  -2.505  10.190  1.00  0.00    -0.354 N 
ATOM     50  N   UNL     1      -9.361  -3.836   7.991  1.00  0.00    -0.248 NA
ATOM     51  C   UNL     1     -11.189  -4.005   6.545  1.00  0.00     0.031 C 
ATOM     52  C   UNL     1      -8.857  -0.652  11.037  1.00  0.00     0.029 A 
ATOM     53  C   UNL     1      -9.050  -1.645  10.090  1.00  0.00     0.049 A 
ATOM     54  H   UNL     1      -7.835  -3.310   9.639  1.00  0.00     0.167 HD
ATOM     55  C   UNL     1     -10.238  -2.788   8.240  1.00  0.00     0.074 A 
ATOM     56  C   UNL     1     -11.335  -2.926   7.303  1.00  0.00     0.031 C 
ATOM     57  C   UNL     1     -10.142  -1.802   9.164  1.00  0.00     0.031 A 
BRANCH  44  58
ATOM     58  C   UNL     1      -5.102  -2.178  12.716  1.00  0.00    -0.014 A 
ATOM     59  C   UNL     1      -3.874  -1.530  12.516  1.00  0.00     0.009 A 
ATOM     60  C   UNL     1      -5.608  -2.290  14.021  1.00  0.00     0.009 A 
ATOM     61  C   UNL     1      -3.150  -1.040  13.605  1.00  0.00     0.001 A 
ATOM     62  C   UNL     1      -4.894  -1.777  15.105  1.00  0.00     0.001 A 
ATOM     63  C   UNL     1      -3.661  -1.162  14.897  1.00  0.00     0.000 A 
ENDBRANCH  44  58
BRANCH  45  64
ATOM     64  C   UNL     1     -10.149  -6.410   5.244  1.00  0.00    -0.014 A 
ATOM     65  C   UNL     1     -10.213  -5.824   3.972  1.00  0.00     0.009 A 
ATOM     66  C   UNL     1     -10.804  -7.633   5.463  1.00  0.00     0.009 A 
ATOM     67  C   UNL     1     -10.925  -6.446   2.943  1.00  0.00     0.001 A 
ATOM     68  C   UNL     1     -11.493  -8.265   4.427  1.00  0.00     0.001 A 
ATOM     69  C   UNL     1     -11.557  -7.668   3.170  1.00  0.00     0.000 A 
ENDBRANCH  45  64
BRANCH  57  70
ATOM     70  C   UNL     1     -11.248  -0.787   9.198  1.00  0.00    -0.014 A 
ATOM     71  C   UNL     1     -12.504  -1.102   9.741  1.00  0.00     0.009 A 
ATOM     72  C   UNL     1     -11.021   0.510   8.714  1.00  0.00     0.009 A 
ATOM     73  C   UNL     1     -13.520  -0.144   9.771  1.00  0.00     0.001 A 
ATOM     74  C   UNL     1     -12.031   1.472   8.767  1.00  0.00     0.001 A 
ATOM     75  C   UNL     1     -13.282   1.142   9.288  1.00  0.00     0.000 A 
ENDBRANCH  57  70
ENDBRANCH  31  32
ENDBRANCH  24  26
ENDBRANCH  23  24
ENDBRANCH  22  23
ENDBRANCH   1  22
TORSDOF 15
