REMARK SMILES C[C@@H]1CC[C@@](C(=O)OCCOC(=O)c2ccc(-c3c4nc(c(-c5ccccc5)c5ccc([nH]5)c(-c5ccccc5)c5nc(c(-c6ccccc6)c6ccc3[nH]6)C=C5)C=C4)cc2)([C@@H]2CCC[C@H](S(C)(=O)=O)C2)C1
REMARK SMILES IDX 9 1 8 2 6 3 7 4 5 5 1 6 2 7 3 8 72 9 4 10 62 11 63 12 71 13
REMARK SMILES IDX 64 14 66 15 65 16 67 17 68 18 69 19 70 20 10 21 11 22 12 23
REMARK SMILES IDX 13 24 14 25 15 26 61 27 16 28 60 29 17 30 18 31 19 32 54 33
REMARK SMILES IDX 20 34 59 35 53 36 55 37 21 38 58 39 52 40 51 41 22 43 44 44
REMARK SMILES IDX 29 45 43 46 30 47 33 48 42 49 56 50 31 51 32 52 41 54 57 55
REMARK SMILES IDX 34 56 23 57 24 58 28 59 25 60 27 61 26 62 45 63 46 64 50 65
REMARK SMILES IDX 47 66 49 67 48 68 35 69 36 70 40 71 37 72 39 73 38 74
REMARK H PARENT 55 42 33 53
REMARK Flexibility Score: inf
ROOT
ATOM      1  C   UNL     1       0.176   1.550  -3.569  1.00  0.00     0.274 C 
ENDROOT
BRANCH   1   2
ATOM      2  O   UNL     1      -0.159   0.721  -2.436  1.00  0.00    -0.462 OA
BRANCH   2   3
ATOM      3  C   UNL     1      -0.616   1.372  -1.339  1.00  0.00     0.312 C 
ATOM      4  O   UNL     1      -0.869   2.575  -1.318  1.00  0.00    -0.252 OA
BRANCH   3   5
ATOM      5  C   UNL     1      -0.710   0.492  -0.067  1.00  0.00     0.071 C 
ATOM      6  C   UNL     1       2.502   0.089  -0.487  1.00  0.00     0.007 C 
ATOM      7  C   UNL     1       1.579  -0.062   0.721  1.00  0.00    -0.013 C 
ATOM      8  C   UNL     1       0.777  -1.347   0.659  1.00  0.00     0.004 C 
ATOM      9  C   UNL     1       0.477   1.002   0.811  1.00  0.00     0.022 C 
ATOM     10  C   UNL     1      -0.396  -1.021  -0.258  1.00  0.00     0.019 C 
BRANCH   5  11
ATOM     11  C   UNL     1      -2.159   0.747   0.527  1.00  0.00     0.008 C 
ATOM     12  C   UNL     1      -2.329   0.502   2.036  1.00  0.00     0.005 C 
ATOM     13  C   UNL     1      -3.231  -0.063  -0.242  1.00  0.00     0.024 C 
ATOM     14  C   UNL     1      -3.751   0.837   2.494  1.00  0.00     0.002 C 
ATOM     15  C   UNL     1      -4.666   0.132   0.257  1.00  0.00     0.108 C 
ATOM     16  C   UNL     1      -4.790  -0.009   1.770  1.00  0.00     0.020 C 
BRANCH  15  17
ATOM     17  S   UNL     1      -5.742  -1.033  -0.616  1.00  0.00     0.150 S 
ATOM     18  C   UNL     1      -7.370  -0.372  -0.413  1.00  0.00     0.158 C 
ATOM     19  O   UNL     1      -5.433  -0.938  -2.031  1.00  0.00    -0.229 OA
ATOM     20  O   UNL     1      -5.695  -2.314   0.061  1.00  0.00    -0.229 OA
ENDBRANCH  15  17
ENDBRANCH   5  11
ENDBRANCH   3   5
ENDBRANCH   2   3
ENDBRANCH   1   2
BRANCH   1  21
ATOM     21  C   UNL     1      -0.933   1.523  -4.613  1.00  0.00     0.275 C 
BRANCH  21  22
ATOM     22  O   UNL     1      -2.118   2.130  -4.069  1.00  0.00    -0.458 OA
BRANCH  22  23
ATOM     23  C   UNL     1      -3.264   1.442  -4.250  1.00  0.00     0.338 C 
ATOM     24  O   UNL     1      -3.400   0.397  -4.881  1.00  0.00    -0.246 OA
BRANCH  23  25
ATOM     25  C   UNL     1      -4.391   2.144  -3.608  1.00  0.00     0.060 A 
ATOM     26  C   UNL     1      -4.281   2.648  -2.316  1.00  0.00     0.016 A 
ATOM     27  C   UNL     1      -5.617   2.217  -4.269  1.00  0.00     0.016 A 
ATOM     28  C   UNL     1      -5.426   3.094  -1.649  1.00  0.00     0.010 A 
ATOM     29  C   UNL     1      -6.734   2.780  -3.633  1.00  0.00     0.010 A 
ATOM     30  C   UNL     1      -6.682   3.162  -2.285  1.00  0.00    -0.014 A 
BRANCH  30  31
ATOM     31  C   UNL     1      -7.896   3.599  -1.514  1.00  0.00     0.031 A 
ATOM     32  C   UNL     1      -9.151   2.745  -1.426  1.00  0.00     0.074 A 
ATOM     33  C   UNL     1      -7.857   4.732  -0.778  1.00  0.00     0.049 A 
ATOM     34  N   UNL     1     -10.182   2.883  -0.621  1.00  0.00    -0.248 NA
ATOM     35  C   UNL     1      -9.251   1.564  -2.296  1.00  0.00     0.031 C 
ATOM     36  C   UNL     1      -6.732   5.668  -0.715  1.00  0.00     0.029 A 
ATOM     37  N   UNL     1      -8.785   5.281   0.078  1.00  0.00    -0.354 N 
ATOM     38  C   UNL     1     -10.990   1.770  -0.829  1.00  0.00     0.074 A 
ATOM     39  C   UNL     1     -10.366   0.988  -1.868  1.00  0.00     0.031 C 
ATOM     40  C   UNL     1      -7.010   6.636   0.168  1.00  0.00     0.029 A 
ATOM     41  C   UNL     1      -8.375   6.462   0.648  1.00  0.00     0.049 A 
ATOM     42  H   UNL     1      -9.658   4.867   0.263  1.00  0.00     0.167 HD
ATOM     43  C   UNL     1     -12.148   1.414  -0.221  1.00  0.00     0.031 A 
ATOM     44  C   UNL     1      -9.031   7.354   1.417  1.00  0.00     0.031 A 
ATOM     45  C   UNL     1     -12.907   2.261   0.655  1.00  0.00     0.049 A 
ATOM     46  C   UNL     1     -10.457   7.094   1.799  1.00  0.00     0.074 A 
ATOM     47  C   UNL     1     -14.155   2.031   1.211  1.00  0.00     0.029 A 
ATOM     48  N   UNL     1     -12.530   3.537   1.032  1.00  0.00    -0.354 N 
ATOM     49  N   UNL     1     -11.168   6.006   1.637  1.00  0.00    -0.248 NA
ATOM     50  C   UNL     1     -11.182   8.200   2.442  1.00  0.00     0.031 C 
ATOM     51  C   UNL     1     -14.576   3.211   1.836  1.00  0.00     0.029 A 
ATOM     52  C   UNL     1     -13.558   4.144   1.733  1.00  0.00     0.049 A 
ATOM     53  H   UNL     1     -11.660   3.951   0.831  1.00  0.00     0.167 HD
ATOM     54  C   UNL     1     -12.423   6.295   2.157  1.00  0.00     0.074 A 
ATOM     55  C   UNL     1     -12.369   7.651   2.662  1.00  0.00     0.031 C 
ATOM     56  C   UNL     1     -13.521   5.502   2.206  1.00  0.00     0.031 A 
BRANCH  43  57
ATOM     57  C   UNL     1     -12.712   0.061  -0.556  1.00  0.00    -0.014 A 
ATOM     58  C   UNL     1     -12.220  -1.093   0.075  1.00  0.00     0.009 A 
ATOM     59  C   UNL     1     -13.763  -0.059  -1.475  1.00  0.00     0.009 A 
ATOM     60  C   UNL     1     -12.763  -2.346  -0.223  1.00  0.00     0.001 A 
ATOM     61  C   UNL     1     -14.310  -1.311  -1.764  1.00  0.00     0.001 A 
ATOM     62  C   UNL     1     -13.807  -2.453  -1.141  1.00  0.00     0.000 A 
ENDBRANCH  43  57
BRANCH  44  63
ATOM     63  C   UNL     1      -8.375   8.646   1.756  1.00  0.00    -0.014 A 
ATOM     64  C   UNL     1      -8.071   8.991   3.079  1.00  0.00     0.009 A 
ATOM     65  C   UNL     1      -8.050   9.550   0.728  1.00  0.00     0.009 A 
ATOM     66  C   UNL     1      -7.453  10.213   3.363  1.00  0.00     0.001 A 
ATOM     67  C   UNL     1      -7.400  10.750   1.010  1.00  0.00     0.001 A 
ATOM     68  C   UNL     1      -7.108  11.084   2.329  1.00  0.00     0.000 A 
ENDBRANCH  44  63
BRANCH  56  69
ATOM     69  C   UNL     1     -14.761   6.081   2.822  1.00  0.00    -0.014 A 
ATOM     70  C   UNL     1     -15.512   7.059   2.152  1.00  0.00     0.009 A 
ATOM     71  C   UNL     1     -15.197   5.626   4.075  1.00  0.00     0.009 A 
ATOM     72  C   UNL     1     -16.660   7.594   2.742  1.00  0.00     0.001 A 
ATOM     73  C   UNL     1     -16.359   6.143   4.650  1.00  0.00     0.001 A 
ATOM     74  C   UNL     1     -17.084   7.133   3.988  1.00  0.00     0.000 A 
ENDBRANCH  56  69
ENDBRANCH  30  31
ENDBRANCH  23  25
ENDBRANCH  22  23
ENDBRANCH  21  22
ENDBRANCH   1  21
TORSDOF 13
