REMARK SMILES CS(=O)(=O)c1ccc(C2=NN(c3ccc(C(=O)OCCOC(=O)c4ccc(-c5c6nc(c(-c7ccccc7)c7ccc([nH]7)c(-c7ccccc7)c7nc(c(-c8ccccc8)c8ccc5[nH]8)C=C7)C=C6)cc4)cc3)[C@H](c3ccc(F)cc3)C2)cc1
REMARK SMILES IDX 19 1 18 2 16 3 17 4 15 5 12 6 13 7 73 8 14 9 72 10 11 11
REMARK SMILES IDX 9 12 10 13 82 14 74 15 8 16 5 17 6 18 84 19 7 20 83 21 2 22
REMARK SMILES IDX 1 23 3 24 4 25 75 26 76 27 81 28 77 29 80 30 78 31 79 32
REMARK SMILES IDX 20 33 21 34 22 35 23 36 24 37 25 38 71 39 26 40 70 41 27 42
REMARK SMILES IDX 28 43 29 44 64 45 30 46 69 47 63 48 65 49 31 50 68 51 62 52
REMARK SMILES IDX 61 53 32 55 54 56 39 57 53 58 40 59 43 60 52 61 66 62 41 63
REMARK SMILES IDX 42 64 51 66 67 67 44 68 33 69 34 70 38 71 35 72 37 73 36 74
REMARK SMILES IDX 55 75 56 76 60 77 57 78 59 79 58 80 45 81 46 82 50 83 47 84
REMARK SMILES IDX 49 85 48 86
REMARK H PARENT 65 54 43 65
REMARK Flexibility Score: inf
ROOT
ATOM      1  C   UNL     1       6.827 -13.347   5.126  1.00  0.00     0.275 C 
ENDROOT
BRANCH   1   2
ATOM      2  O   UNL     1       5.821 -12.324   4.994  1.00  0.00    -0.458 OA
BRANCH   2   3
ATOM      3  C   UNL     1       6.029 -11.198   5.719  1.00  0.00     0.338 C 
ATOM      4  O   UNL     1       6.954 -10.992   6.489  1.00  0.00    -0.246 OA
BRANCH   3   5
ATOM      5  C   UNL     1       5.011 -10.164   5.405  1.00  0.00     0.060 A 
ATOM      6  C   UNL     1       3.122  -8.129   4.966  1.00  0.00     0.060 A 
ATOM      7  C   UNL     1       4.405  -7.813   5.420  1.00  0.00     0.029 A 
ATOM      8  C   UNL     1       2.815  -9.467   4.680  1.00  0.00     0.029 A 
ATOM      9  C   UNL     1       5.330  -8.825   5.671  1.00  0.00     0.018 A 
ATOM     10  C   UNL     1       3.753 -10.483   4.888  1.00  0.00     0.018 A 
BRANCH   6  11
ATOM     11  N   UNL     1       2.109  -7.162   4.950  1.00  0.00    -0.257 N 
ATOM     12  C   UNL     1       1.616  -5.110   4.626  1.00  0.00     0.071 C 
ATOM     13  N   UNL     1       2.197  -6.127   4.069  1.00  0.00    -0.176 NA
ATOM     14  C   UNL     1       1.136  -5.314   6.036  1.00  0.00     0.091 C 
ATOM     15  C   UNL     1       1.546  -6.773   6.253  1.00  0.00     0.144 C 
BRANCH  12  16
ATOM     16  C   UNL     1       1.387  -3.834   3.926  1.00  0.00    -0.002 A 
ATOM     17  C   UNL     1       0.772  -1.474   2.586  1.00  0.00     0.067 A 
ATOM     18  C   UNL     1       0.606  -2.699   1.935  1.00  0.00     0.021 A 
ATOM     19  C   UNL     1       1.262  -1.421   3.896  1.00  0.00     0.021 A 
ATOM     20  C   UNL     1       0.932  -3.880   2.603  1.00  0.00     0.011 A 
ATOM     21  C   UNL     1       1.560  -2.607   4.573  1.00  0.00     0.011 A 
BRANCH  17  22
ATOM     22  S   UNL     1       0.302   0.031   1.762  1.00  0.00     0.175 S 
ATOM     23  C   UNL     1       1.104  -0.029   0.182  1.00  0.00     0.163 C 
ATOM     24  O   UNL     1       0.890   1.131   2.502  1.00  0.00    -0.224 OA
ATOM     25  O   UNL     1      -1.130  -0.049   1.552  1.00  0.00    -0.224 OA
ENDBRANCH  17  22
ENDBRANCH  12  16
BRANCH  15  26
ATOM     26  C   UNL     1       0.474  -7.769   6.665  1.00  0.00    -0.023 A 
ATOM     27  C   UNL     1      -0.860  -7.681   6.238  1.00  0.00     0.009 A 
ATOM     28  C   UNL     1       0.863  -8.901   7.413  1.00  0.00     0.009 A 
ATOM     29  C   UNL     1      -1.776  -8.688   6.556  1.00  0.00     0.039 A 
ATOM     30  C   UNL     1      -0.046  -9.917   7.709  1.00  0.00     0.039 A 
ATOM     31  C   UNL     1      -1.359  -9.799   7.279  1.00  0.00     0.123 A 
ATOM     32  F   UNL     1      -2.231 -10.779   7.547  1.00  0.00    -0.207 F 
ENDBRANCH  15  26
ENDBRANCH   6  11
ENDBRANCH   3   5
ENDBRANCH   2   3
ENDBRANCH   1   2
BRANCH   1  33
ATOM     33  C   UNL     1       7.777 -13.324   3.930  1.00  0.00     0.275 C 
BRANCH  33  34
ATOM     34  O   UNL     1       8.524 -12.093   3.922  1.00  0.00    -0.458 OA
BRANCH  34  35
ATOM     35  C   UNL     1       8.328 -11.291   2.851  1.00  0.00     0.338 C 
ATOM     36  O   UNL     1       7.652 -11.514   1.862  1.00  0.00    -0.246 OA
BRANCH  35  37
ATOM     37  C   UNL     1       9.063 -10.032   3.046  1.00  0.00     0.060 A 
ATOM     38  C   UNL     1       8.602  -9.120   3.991  1.00  0.00     0.016 A 
ATOM     39  C   UNL     1      10.123  -9.697   2.208  1.00  0.00     0.016 A 
ATOM     40  C   UNL     1       9.149  -7.842   4.062  1.00  0.00     0.010 A 
ATOM     41  C   UNL     1      10.726  -8.439   2.332  1.00  0.00     0.010 A 
ATOM     42  C   UNL     1      10.224  -7.484   3.237  1.00  0.00    -0.014 A 
BRANCH  42  43
ATOM     43  C   UNL     1      10.781  -6.103   3.281  1.00  0.00     0.031 A 
ATOM     44  C   UNL     1      10.741  -5.233   2.051  1.00  0.00     0.074 A 
ATOM     45  C   UNL     1      11.306  -5.609   4.420  1.00  0.00     0.049 A 
ATOM     46  N   UNL     1      11.310  -4.072   1.839  1.00  0.00    -0.248 NA
ATOM     47  C   UNL     1       9.968  -5.739   0.906  1.00  0.00     0.031 C 
ATOM     48  C   UNL     1      11.364  -6.310   5.705  1.00  0.00     0.029 A 
ATOM     49  N   UNL     1      11.885  -4.391   4.682  1.00  0.00    -0.354 N 
ATOM     50  C   UNL     1      11.013  -3.739   0.523  1.00  0.00     0.074 A 
ATOM     51  C   UNL     1      10.215  -4.819  -0.016  1.00  0.00     0.031 C 
ATOM     52  C   UNL     1      11.911  -5.498   6.624  1.00  0.00     0.029 A 
ATOM     53  C   UNL     1      12.317  -4.255   5.979  1.00  0.00     0.049 A 
ATOM     54  H   UNL     1      11.981  -3.683   4.005  1.00  0.00     0.167 HD
ATOM     55  C   UNL     1      11.375  -2.636  -0.176  1.00  0.00     0.031 A 
ATOM     56  C   UNL     1      13.000  -3.261   6.579  1.00  0.00     0.031 A 
ATOM     57  C   UNL     1      12.131  -1.539   0.368  1.00  0.00     0.049 A 
ATOM     58  C   UNL     1      13.423  -2.066   5.773  1.00  0.00     0.074 A 
ATOM     59  C   UNL     1      12.537  -0.375  -0.263  1.00  0.00     0.029 A 
ATOM     60  N   UNL     1      12.581  -1.463   1.676  1.00  0.00    -0.354 N 
ATOM     61  N   UNL     1      13.184  -1.791   4.514  1.00  0.00    -0.248 NA
ATOM     62  C   UNL     1      14.228  -1.051   6.470  1.00  0.00     0.031 C 
ATOM     63  C   UNL     1      13.264   0.390   0.656  1.00  0.00     0.029 A 
ATOM     64  C   UNL     1      13.271  -0.278   1.869  1.00  0.00     0.049 A 
ATOM     65  H   UNL     1      12.432  -2.150   2.365  1.00  0.00     0.167 HD
ATOM     66  C   UNL     1      13.800  -0.571   4.270  1.00  0.00     0.074 A 
ATOM     67  C   UNL     1      14.402  -0.146   5.516  1.00  0.00     0.031 C 
ATOM     68  C   UNL     1      13.867   0.130   3.113  1.00  0.00     0.031 A 
BRANCH  55  69
ATOM     69  C   UNL     1      10.991  -2.578  -1.628  1.00  0.00    -0.014 A 
ATOM     70  C   UNL     1       9.670  -2.333  -2.031  1.00  0.00     0.009 A 
ATOM     71  C   UNL     1      11.983  -2.733  -2.610  1.00  0.00     0.009 A 
ATOM     72  C   UNL     1       9.345  -2.275  -3.389  1.00  0.00     0.001 A 
ATOM     73  C   UNL     1      11.661  -2.648  -3.965  1.00  0.00     0.001 A 
ATOM     74  C   UNL     1      10.341  -2.428  -4.354  1.00  0.00     0.000 A 
ENDBRANCH  55  69
BRANCH  56  75
ATOM     75  C   UNL     1      13.376  -3.377   8.012  1.00  0.00    -0.014 A 
ATOM     76  C   UNL     1      12.780  -2.551   8.977  1.00  0.00     0.009 A 
ATOM     77  C   UNL     1      14.337  -4.315   8.421  1.00  0.00     0.009 A 
ATOM     78  C   UNL     1      13.151  -2.652  10.320  1.00  0.00     0.001 A 
ATOM     79  C   UNL     1      14.684  -4.434   9.768  1.00  0.00     0.001 A 
ATOM     80  C   UNL     1      14.097  -3.598  10.715  1.00  0.00     0.000 A 
ENDBRANCH  56  75
BRANCH  68  81
ATOM     81  C   UNL     1      14.594   1.443   3.152  1.00  0.00    -0.014 A 
ATOM     82  C   UNL     1      15.995   1.494   3.204  1.00  0.00     0.009 A 
ATOM     83  C   UNL     1      13.868   2.643   3.110  1.00  0.00     0.009 A 
ATOM     84  C   UNL     1      16.654   2.724   3.244  1.00  0.00     0.001 A 
ATOM     85  C   UNL     1      14.531   3.871   3.126  1.00  0.00     0.001 A 
ATOM     86  C   UNL     1      15.922   3.910   3.202  1.00  0.00     0.000 A 
ENDBRANCH  68  81
ENDBRANCH  42  43
ENDBRANCH  35  37
ENDBRANCH  34  35
ENDBRANCH  33  34
ENDBRANCH   1  33
TORSDOF 15
