REMARK SMILES COc1ccccc1-c1nnc(S[C@@H](C)C(=O)OCCOC(=O)c2ccc(-c3c4nc(c(-c5ccccc5)c5ccc([nH]5)c(-c5ccccc5)c5nc(c(-c6ccccc6)c6ccc3[nH]6)C=C5)C=C4)cc2)n1-c1ccccc1
REMARK SMILES IDX 19 1 18 2 16 3 17 4 14 5 15 6 13 7 12 8 9 9 10 10 72 11
REMARK SMILES IDX 11 12 8 13 3 14 4 15 5 16 7 17 6 18 2 19 1 20 73 21 74 22
REMARK SMILES IDX 78 23 75 24 77 25 76 26 20 27 21 28 22 29 23 30 24 31 25 32
REMARK SMILES IDX 71 33 26 34 70 35 27 36 28 37 29 38 64 39 30 40 69 41 63 42
REMARK SMILES IDX 65 43 31 44 68 45 62 46 61 47 32 49 54 50 39 51 53 52 40 53
REMARK SMILES IDX 43 54 52 55 66 56 41 57 42 58 51 60 67 61 44 62 33 63 34 64
REMARK SMILES IDX 38 65 35 66 37 67 36 68 55 69 56 70 60 71 57 72 59 73 58 74
REMARK SMILES IDX 45 75 46 76 50 77 47 78 49 79 48 80
REMARK H PARENT 65 48 43 59
REMARK Flexibility Score: inf
ROOT
ATOM      1  C   UNL     1       5.109  -0.210  -4.552  1.00  0.00     0.274 C 
ENDROOT
BRANCH   1   2
ATOM      2  O   UNL     1       4.745  -1.053  -3.430  1.00  0.00    -0.461 OA
BRANCH   2   3
ATOM      3  C   UNL     1       4.324  -2.345  -3.594  1.00  0.00     0.319 C 
ATOM      4  O   UNL     1       4.167  -2.875  -4.691  1.00  0.00    -0.251 OA
BRANCH   3   5
ATOM      5  C   UNL     1       4.188  -3.120  -2.269  1.00  0.00     0.161 C 
ATOM      6  C   UNL     1       2.888  -3.841  -1.937  1.00  0.00     0.032 C 
BRANCH   5   7
ATOM      7  S   UNL     1       4.641  -2.267  -0.763  1.00  0.00    -0.071 SA
BRANCH   7   8
ATOM      8  C   UNL     1       3.941  -0.690  -0.725  1.00  0.00     0.196 A 
ATOM      9  C   UNL     1       3.037   1.273  -0.992  1.00  0.00     0.173 A 
ATOM     10  N   UNL     1       3.913   1.374  -0.022  1.00  0.00    -0.129 NA
ATOM     11  N   UNL     1       3.018  -0.013  -1.530  1.00  0.00    -0.270 N 
ATOM     12  N   UNL     1       4.442   0.142   0.170  1.00  0.00    -0.122 NA
BRANCH   9  13
ATOM     13  C   UNL     1       2.086   2.286  -1.378  1.00  0.00     0.062 A 
ATOM     14  C   UNL     1       0.712   1.995  -1.420  1.00  0.00     0.129 A 
ATOM     15  C   UNL     1      -0.097   2.802  -2.216  1.00  0.00     0.047 A 
ATOM     16  C   UNL     1       0.427   3.923  -2.869  1.00  0.00     0.004 A 
ATOM     17  C   UNL     1       2.604   3.448  -1.974  1.00  0.00     0.016 A 
ATOM     18  C   UNL     1       1.769   4.266  -2.724  1.00  0.00     0.001 A 
BRANCH  14  19
ATOM     19  O   UNL     1       0.091   0.862  -0.952  1.00  0.00    -0.496 OA
ATOM     20  C   UNL     1       0.454   0.313   0.315  1.00  0.00     0.278 C 
ENDBRANCH  14  19
ENDBRANCH   9  13
BRANCH  11  21
ATOM     21  C   UNL     1       2.214  -0.378  -2.676  1.00  0.00     0.050 A 
ATOM     22  C   UNL     1       1.337  -1.451  -2.684  1.00  0.00     0.027 A 
ATOM     23  C   UNL     1       2.329   0.362  -3.864  1.00  0.00     0.027 A 
ATOM     24  C   UNL     1       0.897  -1.992  -3.901  1.00  0.00     0.002 A 
ATOM     25  C   UNL     1       1.932  -0.193  -5.086  1.00  0.00     0.002 A 
ATOM     26  C   UNL     1       1.285  -1.419  -5.107  1.00  0.00     0.000 A 
ENDBRANCH  11  21
ENDBRANCH   7   8
ENDBRANCH   5   7
ENDBRANCH   3   5
ENDBRANCH   2   3
ENDBRANCH   1   2
BRANCH   1  27
ATOM     27  C   UNL     1       6.598  -0.144  -4.661  1.00  0.00     0.275 C 
BRANCH  27  28
ATOM     28  O   UNL     1       6.982  -1.464  -4.970  1.00  0.00    -0.458 OA
BRANCH  28  29
ATOM     29  C   UNL     1       7.217  -2.236  -3.893  1.00  0.00     0.338 C 
ATOM     30  O   UNL     1       7.041  -1.986  -2.697  1.00  0.00    -0.246 OA
BRANCH  29  31
ATOM     31  C   UNL     1       8.054  -3.314  -4.317  1.00  0.00     0.060 A 
ATOM     32  C   UNL     1       8.314  -4.385  -3.456  1.00  0.00     0.016 A 
ATOM     33  C   UNL     1       9.004  -2.832  -5.191  1.00  0.00     0.016 A 
ATOM     34  C   UNL     1       9.660  -4.699  -3.218  1.00  0.00     0.010 A 
ATOM     35  C   UNL     1      10.230  -3.378  -5.077  1.00  0.00     0.010 A 
ATOM     36  C   UNL     1      10.669  -3.966  -3.889  1.00  0.00    -0.014 A 
BRANCH  36  37
ATOM     37  C   UNL     1      12.107  -4.355  -4.064  1.00  0.00     0.031 A 
ATOM     38  C   UNL     1      11.981  -5.724  -4.856  1.00  0.00     0.074 A 
ATOM     39  C   UNL     1      13.229  -3.566  -3.741  1.00  0.00     0.049 A 
ATOM     40  N   UNL     1      11.896  -6.871  -4.239  1.00  0.00    -0.248 NA
ATOM     41  C   UNL     1      11.422  -5.916  -6.262  1.00  0.00     0.031 C 
ATOM     42  C   UNL     1      13.444  -2.275  -2.984  1.00  0.00     0.029 A 
ATOM     43  N   UNL     1      14.581  -3.806  -4.033  1.00  0.00    -0.354 N 
ATOM     44  C   UNL     1      11.833  -7.840  -5.244  1.00  0.00     0.074 A 
ATOM     45  C   UNL     1      11.172  -7.229  -6.335  1.00  0.00     0.031 C 
ATOM     46  C   UNL     1      14.706  -1.759  -3.174  1.00  0.00     0.029 A 
ATOM     47  C   UNL     1      15.500  -2.688  -3.957  1.00  0.00     0.049 A 
ATOM     48  H   UNL     1      14.895  -4.705  -4.282  1.00  0.00     0.167 HD
ATOM     49  C   UNL     1      12.802  -8.795  -5.290  1.00  0.00     0.031 A 
ATOM     50  C   UNL     1      16.861  -2.648  -4.277  1.00  0.00     0.031 A 
ATOM     51  C   UNL     1      13.484  -8.795  -4.022  1.00  0.00     0.049 A 
ATOM     52  C   UNL     1      17.306  -4.064  -4.342  1.00  0.00     0.074 A 
ATOM     53  C   UNL     1      13.078  -8.964  -2.715  1.00  0.00     0.029 A 
ATOM     54  N   UNL     1      14.577  -7.971  -4.015  1.00  0.00    -0.354 N 
ATOM     55  N   UNL     1      17.378  -4.785  -3.259  1.00  0.00    -0.248 NA
ATOM     56  C   UNL     1      16.942  -4.750  -5.579  1.00  0.00     0.031 C 
ATOM     57  C   UNL     1      13.774  -7.969  -1.973  1.00  0.00     0.029 A 
ATOM     58  C   UNL     1      14.741  -7.392  -2.793  1.00  0.00     0.049 A 
ATOM     59  H   UNL     1      15.167  -7.819  -4.788  1.00  0.00     0.167 HD
ATOM     60  C   UNL     1      16.535  -5.845  -3.535  1.00  0.00     0.074 A 
ATOM     61  C   UNL     1      16.300  -5.775  -5.001  1.00  0.00     0.031 C 
ATOM     62  C   UNL     1      15.759  -6.406  -2.553  1.00  0.00     0.031 A 
BRANCH  49  63
ATOM     63  C   UNL     1      13.515  -9.259  -6.549  1.00  0.00    -0.014 A 
ATOM     64  C   UNL     1      14.476 -10.273  -6.389  1.00  0.00     0.009 A 
ATOM     65  C   UNL     1      13.510  -8.592  -7.793  1.00  0.00     0.009 A 
ATOM     66  C   UNL     1      15.397 -10.586  -7.395  1.00  0.00     0.001 A 
ATOM     67  C   UNL     1      14.409  -8.927  -8.817  1.00  0.00     0.001 A 
ATOM     68  C   UNL     1      15.361  -9.917  -8.612  1.00  0.00     0.000 A 
ENDBRANCH  49  63
BRANCH  50  69
ATOM     69  C   UNL     1      17.704  -1.600  -5.005  1.00  0.00    -0.014 A 
ATOM     70  C   UNL     1      19.100  -1.683  -5.313  1.00  0.00     0.009 A 
ATOM     71  C   UNL     1      16.995  -0.625  -5.712  1.00  0.00     0.009 A 
ATOM     72  C   UNL     1      19.700  -0.870  -6.318  1.00  0.00     0.001 A 
ATOM     73  C   UNL     1      17.578   0.150  -6.728  1.00  0.00     0.001 A 
ATOM     74  C   UNL     1      18.923   0.021  -7.050  1.00  0.00     0.000 A 
ENDBRANCH  50  69
BRANCH  62  75
ATOM     75  C   UNL     1      15.936  -5.989  -1.109  1.00  0.00    -0.014 A 
ATOM     76  C   UNL     1      15.529  -4.770  -0.527  1.00  0.00     0.009 A 
ATOM     77  C   UNL     1      16.368  -7.006  -0.249  1.00  0.00     0.009 A 
ATOM     78  C   UNL     1      15.662  -4.558   0.858  1.00  0.00     0.001 A 
ATOM     79  C   UNL     1      16.464  -6.810   1.126  1.00  0.00     0.001 A 
ATOM     80  C   UNL     1      16.146  -5.575   1.678  1.00  0.00     0.000 A 
ENDBRANCH  62  75
ENDBRANCH  36  37
ENDBRANCH  29  31
ENDBRANCH  28  29
ENDBRANCH  27  28
ENDBRANCH   1  27
TORSDOF 16
