REMARK SMILES Cc1nc(S[C@@H](C(=O)OCCOC(=O)c2ccc(-c3c4nc(c(-c5ccccc5)c5ccc([nH]5)c(-c5ccccc5)c5nc(c(-c6ccccc6)c6ccc3[nH]6)C=C5)C=C4)cc2)c2ccccc2)nc2ccccc12
REMARK SMILES IDX 10 1 9 2 7 3 8 4 6 5 5 6 4 7 1 8 2 9 3 10 75 11 70 12 74 13
REMARK SMILES IDX 69 14 71 15 73 16 72 17 63 18 64 19 68 20 65 21 67 22 66 23
REMARK SMILES IDX 11 24 12 25 13 26 14 27 15 28 16 29 62 30 17 31 61 32 18 33
REMARK SMILES IDX 19 34 20 35 55 36 21 37 60 38 54 39 56 40 22 41 59 42 53 43
REMARK SMILES IDX 52 44 23 46 45 47 30 48 44 49 31 50 34 51 43 52 57 53 32 54
REMARK SMILES IDX 33 55 42 57 58 58 35 59 24 60 25 61 29 62 26 63 28 64 27 65
REMARK SMILES IDX 46 66 47 67 51 68 48 69 50 70 49 71 36 72 37 73 41 74 38 75
REMARK SMILES IDX 40 76 39 77
REMARK H PARENT 56 45 34 56
REMARK Flexibility Score: inf
ROOT
ATOM      1  C   UNL     1      -4.035   0.497  -2.733  1.00  0.00     0.274 C 
ENDROOT
BRANCH   1   2
ATOM      2  O   UNL     1      -2.964  -0.170  -3.439  1.00  0.00    -0.461 OA
BRANCH   2   3
ATOM      3  C   UNL     1      -2.049   0.651  -4.032  1.00  0.00     0.324 C 
ATOM      4  O   UNL     1      -2.134   1.877  -3.964  1.00  0.00    -0.251 OA
BRANCH   3   5
ATOM      5  C   UNL     1      -1.022  -0.071  -4.923  1.00  0.00     0.194 C 
BRANCH   5   6
ATOM      6  S   UNL     1      -0.973  -1.885  -4.715  1.00  0.00    -0.066 SA
BRANCH   6   7
ATOM      7  C   UNL     1      -0.244  -2.195  -3.124  1.00  0.00     0.189 A 
ATOM      8  C   UNL     1       1.830  -0.581  -0.580  1.00  0.00     0.067 C 
ATOM      9  C   UNL     1       1.033  -1.631  -1.303  1.00  0.00     0.050 A 
ATOM     10  N   UNL     1       0.357  -1.230  -2.417  1.00  0.00    -0.227 NA
ATOM     11  C   UNL     1       1.065  -2.958  -0.850  1.00  0.00     0.022 A 
ATOM     12  C   UNL     1       0.429  -3.871  -1.690  1.00  0.00     0.075 A 
ATOM     13  C   UNL     1       1.699  -3.416   0.337  1.00  0.00     0.012 A 
ATOM     14  N   UNL     1      -0.210  -3.500  -2.804  1.00  0.00    -0.222 NA
ATOM     15  C   UNL     1       0.495  -5.222  -1.366  1.00  0.00     0.029 A 
ATOM     16  C   UNL     1       1.737  -4.772   0.649  1.00  0.00     0.001 A 
ATOM     17  C   UNL     1       1.146  -5.681  -0.216  1.00  0.00     0.002 A 
ENDBRANCH   6   7
ENDBRANCH   5   6
BRANCH   5  18
ATOM     18  C   UNL     1       0.305   0.677  -5.152  1.00  0.00    -0.023 A 
ATOM     19  C   UNL     1       0.273   2.026  -5.571  1.00  0.00     0.005 A 
ATOM     20  C   UNL     1       1.574   0.089  -5.021  1.00  0.00     0.005 A 
ATOM     21  C   UNL     1       1.441   2.764  -5.781  1.00  0.00     0.000 A 
ATOM     22  C   UNL     1       2.746   0.824  -5.239  1.00  0.00     0.000 A 
ATOM     23  C   UNL     1       2.681   2.163  -5.609  1.00  0.00     0.000 A 
ENDBRANCH   5  18
ENDBRANCH   3   5
ENDBRANCH   2   3
ENDBRANCH   1   2
BRANCH   1  24
ATOM     24  C   UNL     1      -3.683   0.697  -1.261  1.00  0.00     0.275 C 
BRANCH  24  25
ATOM     25  O   UNL     1      -2.530   1.549  -1.165  1.00  0.00    -0.458 OA
BRANCH  25  26
ATOM     26  C   UNL     1      -1.619   1.215  -0.230  1.00  0.00     0.338 C 
ATOM     27  O   UNL     1      -1.717   0.353   0.633  1.00  0.00    -0.246 OA
BRANCH  26  28
ATOM     28  C   UNL     1      -0.434   2.077  -0.379  1.00  0.00     0.060 A 
ATOM     29  C   UNL     1       0.113   2.694   0.746  1.00  0.00     0.016 A 
ATOM     30  C   UNL     1       0.219   2.165  -1.611  1.00  0.00     0.016 A 
ATOM     31  C   UNL     1       1.308   3.408   0.628  1.00  0.00     0.010 A 
ATOM     32  C   UNL     1       1.433   2.837  -1.720  1.00  0.00     0.010 A 
ATOM     33  C   UNL     1       1.983   3.472  -0.603  1.00  0.00    -0.014 A 
BRANCH  33  34
ATOM     34  C   UNL     1       3.267   4.197  -0.723  1.00  0.00     0.031 A 
ATOM     35  C   UNL     1       3.312   5.527  -1.412  1.00  0.00     0.074 A 
ATOM     36  C   UNL     1       4.395   3.659  -0.223  1.00  0.00     0.049 A 
ATOM     37  N   UNL     1       4.275   6.412  -1.415  1.00  0.00    -0.248 NA
ATOM     38  C   UNL     1       2.129   5.918  -2.197  1.00  0.00     0.031 C 
ATOM     39  C   UNL     1       4.503   2.334   0.389  1.00  0.00     0.029 A 
ATOM     40  N   UNL     1       5.666   4.170  -0.145  1.00  0.00    -0.354 N 
ATOM     41  C   UNL     1       3.792   7.484  -2.150  1.00  0.00     0.074 A 
ATOM     42  C   UNL     1       2.491   7.108  -2.655  1.00  0.00     0.031 C 
ATOM     43  C   UNL     1       5.768   2.146   0.803  1.00  0.00     0.029 A 
ATOM     44  C   UNL     1       6.551   3.343   0.503  1.00  0.00     0.049 A 
ATOM     45  H   UNL     1       5.920   5.045  -0.517  1.00  0.00     0.167 HD
ATOM     46  C   UNL     1       4.363   8.695  -2.343  1.00  0.00     0.031 A 
ATOM     47  C   UNL     1       7.835   3.546   0.856  1.00  0.00     0.031 A 
ATOM     48  C   UNL     1       5.673   9.050  -1.872  1.00  0.00     0.049 A 
ATOM     49  C   UNL     1       8.470   4.884   0.593  1.00  0.00     0.074 A 
ATOM     50  C   UNL     1       6.319  10.270  -1.966  1.00  0.00     0.029 A 
ATOM     51  N   UNL     1       6.542   8.179  -1.236  1.00  0.00    -0.354 N 
ATOM     52  N   UNL     1       7.946   5.951   0.042  1.00  0.00    -0.248 NA
ATOM     53  C   UNL     1       9.861   5.059   1.039  1.00  0.00     0.031 C 
ATOM     54  C   UNL     1       7.601  10.122  -1.430  1.00  0.00     0.029 A 
ATOM     55  C   UNL     1       7.731   8.826  -0.956  1.00  0.00     0.049 A 
ATOM     56  H   UNL     1       6.343   7.240  -1.017  1.00  0.00     0.167 HD
ATOM     57  C   UNL     1       8.923   6.936   0.116  1.00  0.00     0.074 A 
ATOM     58  C   UNL     1      10.073   6.339   0.761  1.00  0.00     0.031 C 
ATOM     59  C   UNL     1       8.863   8.223  -0.302  1.00  0.00     0.031 A 
BRANCH  46  60
ATOM     60  C   UNL     1       3.553   9.739  -3.051  1.00  0.00    -0.014 A 
ATOM     61  C   UNL     1       3.925  10.189  -4.325  1.00  0.00     0.009 A 
ATOM     62  C   UNL     1       2.457  10.338  -2.408  1.00  0.00     0.009 A 
ATOM     63  C   UNL     1       3.217  11.223  -4.941  1.00  0.00     0.001 A 
ATOM     64  C   UNL     1       1.738  11.356  -3.035  1.00  0.00     0.001 A 
ATOM     65  C   UNL     1       2.124  11.803  -4.297  1.00  0.00     0.000 A 
ENDBRANCH  46  60
BRANCH  47  66
ATOM     66  C   UNL     1       8.574   2.487   1.591  1.00  0.00    -0.014 A 
ATOM     67  C   UNL     1       9.027   1.336   0.929  1.00  0.00     0.009 A 
ATOM     68  C   UNL     1       8.818   2.623   2.966  1.00  0.00     0.009 A 
ATOM     69  C   UNL     1       9.712   0.341   1.632  1.00  0.00     0.001 A 
ATOM     70  C   UNL     1       9.520   1.636   3.661  1.00  0.00     0.001 A 
ATOM     71  C   UNL     1       9.963   0.495   2.995  1.00  0.00     0.000 A 
ENDBRANCH  47  66
BRANCH  59  72
ATOM     72  C   UNL     1      10.056   9.101  -0.053  1.00  0.00    -0.014 A 
ATOM     73  C   UNL     1       9.967  10.135   0.893  1.00  0.00     0.009 A 
ATOM     74  C   UNL     1      11.218   8.982  -0.828  1.00  0.00     0.009 A 
ATOM     75  C   UNL     1      11.013  11.044   1.048  1.00  0.00     0.001 A 
ATOM     76  C   UNL     1      12.274   9.879  -0.652  1.00  0.00     0.001 A 
ATOM     77  C   UNL     1      12.167  10.914   0.277  1.00  0.00     0.000 A 
ENDBRANCH  59  72
ENDBRANCH  33  34
ENDBRANCH  26  28
ENDBRANCH  25  26
ENDBRANCH  24  25
ENDBRANCH   1  24
TORSDOF 14
