REMARK SMILES C[N@H+]1[C@H]2CC[C@@H]1CN(c1nc3c(cc1C(=O)OCCOC(=O)c1ccc(-c4c5nc(c(-c6ccccc6)c6ccc([nH]6)c(-c6ccccc6)c6nc(c(-c7ccccc7)c7ccc4[nH]7)C=C6)C=C5)cc1)CCC3)CC2
REMARK SMILES IDX 18 1 17 2 15 3 16 4 14 5 9 6 10 7 11 8 13 9 12 10 73 11
REMARK SMILES IDX 71 12 72 13 8 14 7 15 6 16 1 17 2 18 3 19 4 21 5 23 74 24
REMARK SMILES IDX 75 25 19 27 20 28 21 29 22 30 23 31 24 32 70 33 25 34 69 35
REMARK SMILES IDX 26 36 27 37 28 38 63 39 29 40 68 41 62 42 64 43 30 44 67 45
REMARK SMILES IDX 61 46 60 47 31 49 53 50 38 51 52 52 39 53 42 54 51 55 65 56
REMARK SMILES IDX 40 57 41 58 50 60 66 61 43 62 32 63 33 64 37 65 34 66 36 67
REMARK SMILES IDX 35 68 54 69 55 70 59 71 56 72 58 73 57 74 44 75 45 76 49 77
REMARK SMILES IDX 46 78 48 79 47 80
REMARK H PARENT 2 20 64 48 42 59
REMARK Flexibility Score: 90.00
ROOT
ATOM      1  C   UNL     1      -0.812  -1.945  -4.559  1.00  0.00     0.275 C 
ENDROOT
BRANCH   1   2
ATOM      2  O   UNL     1      -1.451  -0.663  -4.344  1.00  0.00    -0.458 OA
BRANCH   2   3
ATOM      3  C   UNL     1      -1.401   0.253  -5.338  1.00  0.00     0.342 C 
ATOM      4  O   UNL     1      -0.936   0.054  -6.449  1.00  0.00    -0.246 OA
BRANCH   3   5
ATOM      5  C   UNL     1      -2.176   1.473  -4.993  1.00  0.00     0.102 A 
ATOM      6  C   UNL     1      -1.794   2.486  -4.071  1.00  0.00     0.143 A 
ATOM      7  N   UNL     1      -2.572   3.600  -3.936  1.00  0.00    -0.235 NA
ATOM      8  C   UNL     1      -3.706   3.683  -4.653  1.00  0.00     0.046 A 
ATOM      9  C   UNL     1      -3.387   1.594  -5.709  1.00  0.00     0.025 A 
ATOM     10  C   UNL     1      -4.176   2.700  -5.497  1.00  0.00    -0.025 A 
ATOM     11  C   UNL     1      -4.556   4.918  -4.758  1.00  0.00     0.057 C 
ATOM     12  C   UNL     1      -5.482   3.072  -6.113  1.00  0.00     0.038 C 
ATOM     13  C   UNL     1      -5.861   4.331  -5.313  1.00  0.00     0.011 C 
BRANCH   6  14
ATOM     14  N   UNL     1      -0.665   2.466  -3.273  1.00  0.00    -0.350 N 
BRANCH  14  15
ATOM     15  C   UNL     1      -0.616   3.231  -1.999  1.00  0.00     0.183 C 
BRANCH  15  16
ATOM     16  C   UNL     1      -0.351   2.334  -0.729  1.00  0.00     0.203 C 
ATOM     17  C   UNL     1       1.234   0.913   0.522  1.00  0.00     0.333 C 
ATOM     18  N   UNL     1       0.887   1.498  -0.783  1.00  0.00    -0.331 N 
ATOM     19  C   UNL     1       0.527   0.394  -1.695  1.00  0.00     0.186 CG0
ATOM     20  H   UNL     1       1.688   2.058  -1.076  1.00  0.00     0.348 HD
ATOM     21  C   UNL     1      -0.987   0.181  -1.474  1.00  0.00     0.071 C 
ATOM     22  G   UNL     1       1.075   0.737  -3.091  1.00  0.00     0.000 G0
ATOM     23  C   UNL     1      -1.464   1.313  -0.579  1.00  0.00     0.073 C 
ENDBRANCH  15  16
ENDBRANCH  14  15
BRANCH  14  24
ATOM     24  C   UNL     1       0.619   2.020  -3.768  1.00  0.00     0.124 C 
BRANCH  24  25
ATOM     25  C   UNL     1       1.075   0.737  -3.091  1.00  0.00     0.086 CG0
ATOM     26  G   UNL     1       0.527   0.394  -1.695  1.00  0.00     0.000 G0
ENDBRANCH  24  25
ENDBRANCH  14  24
ENDBRANCH   6  14
ENDBRANCH   3   5
ENDBRANCH   2   3
ENDBRANCH   1   2
BRANCH   1  27
ATOM     27  C   UNL     1      -1.256  -2.918  -3.463  1.00  0.00     0.275 C 
BRANCH  27  28
ATOM     28  O   UNL     1      -2.616  -3.276  -3.731  1.00  0.00    -0.458 OA
BRANCH  28  29
ATOM     29  C   UNL     1      -3.544  -2.502  -3.134  1.00  0.00     0.338 C 
ATOM     30  O   UNL     1      -3.439  -1.788  -2.148  1.00  0.00    -0.246 OA
BRANCH  29  31
ATOM     31  C   UNL     1      -4.712  -2.534  -4.005  1.00  0.00     0.060 A 
ATOM     32  C   UNL     1      -4.689  -1.758  -5.166  1.00  0.00     0.016 A 
ATOM     33  C   UNL     1      -5.806  -3.324  -3.679  1.00  0.00     0.016 A 
ATOM     34  C   UNL     1      -5.799  -1.719  -5.994  1.00  0.00     0.010 A 
ATOM     35  C   UNL     1      -6.891  -3.342  -4.548  1.00  0.00     0.010 A 
ATOM     36  C   UNL     1      -6.904  -2.523  -5.694  1.00  0.00    -0.014 A 
BRANCH  36  37
ATOM     37  C   UNL     1      -8.104  -2.501  -6.554  1.00  0.00     0.031 A 
ATOM     38  C   UNL     1      -9.398  -2.006  -5.980  1.00  0.00     0.074 A 
ATOM     39  C   UNL     1      -8.032  -2.958  -7.818  1.00  0.00     0.049 A 
ATOM     40  N   UNL     1     -10.603  -2.100  -6.473  1.00  0.00    -0.248 NA
ATOM     41  C   UNL     1      -9.333  -1.331  -4.671  1.00  0.00     0.031 C 
ATOM     42  C   UNL     1      -6.811  -3.410  -8.489  1.00  0.00     0.029 A 
ATOM     43  N   UNL     1      -9.012  -3.127  -8.760  1.00  0.00    -0.354 N 
ATOM     44  C   UNL     1     -11.441  -1.539  -5.520  1.00  0.00     0.074 A 
ATOM     45  C   UNL     1     -10.615  -1.111  -4.414  1.00  0.00     0.031 C 
ATOM     46  C   UNL     1      -7.114  -3.795  -9.739  1.00  0.00     0.029 A 
ATOM     47  C   UNL     1      -8.556  -3.689  -9.928  1.00  0.00     0.049 A 
ATOM     48  H   UNL     1      -9.952  -2.872  -8.615  1.00  0.00     0.167 HD
ATOM     49  C   UNL     1     -12.783  -1.398  -5.574  1.00  0.00     0.031 A 
ATOM     50  C   UNL     1      -9.231  -4.112 -11.013  1.00  0.00     0.031 A 
ATOM     51  C   UNL     1     -13.581  -1.799  -6.698  1.00  0.00     0.049 A 
ATOM     52  C   UNL     1     -10.726  -3.990 -11.025  1.00  0.00     0.074 A 
ATOM     53  C   UNL     1     -14.949  -1.681  -6.862  1.00  0.00     0.029 A 
ATOM     54  N   UNL     1     -13.081  -2.382  -7.852  1.00  0.00    -0.354 N 
ATOM     55  N   UNL     1     -11.514  -3.489 -10.104  1.00  0.00    -0.248 NA
ATOM     56  C   UNL     1     -11.428  -4.500 -12.210  1.00  0.00     0.031 C 
ATOM     57  C   UNL     1     -15.283  -2.232  -8.100  1.00  0.00     0.029 A 
ATOM     58  C   UNL     1     -14.117  -2.645  -8.727  1.00  0.00     0.049 A 
ATOM     59  H   UNL     1     -12.131  -2.578  -8.022  1.00  0.00     0.167 HD
ATOM     60  C   UNL     1     -12.803  -3.607 -10.604  1.00  0.00     0.074 A 
ATOM     61  C   UNL     1     -12.691  -4.218 -11.913  1.00  0.00     0.031 C 
ATOM     62  C   UNL     1     -13.973  -3.245 -10.027  1.00  0.00     0.031 A 
BRANCH  49  63
ATOM     63  C   UNL     1     -13.489  -0.795  -4.397  1.00  0.00    -0.014 A 
ATOM     64  C   UNL     1     -13.468   0.589  -4.173  1.00  0.00     0.009 A 
ATOM     65  C   UNL     1     -14.287  -1.609  -3.578  1.00  0.00     0.009 A 
ATOM     66  C   UNL     1     -14.242   1.148  -3.154  1.00  0.00     0.001 A 
ATOM     67  C   UNL     1     -15.075  -1.044  -2.573  1.00  0.00     0.001 A 
ATOM     68  C   UNL     1     -15.053   0.334  -2.364  1.00  0.00     0.000 A 
ENDBRANCH  49  63
BRANCH  50  69
ATOM     69  C   UNL     1      -8.487  -4.709 -12.151  1.00  0.00    -0.014 A 
ATOM     70  C   UNL     1      -8.336  -3.999 -13.351  1.00  0.00     0.009 A 
ATOM     71  C   UNL     1      -7.869  -5.964 -12.023  1.00  0.00     0.009 A 
ATOM     72  C   UNL     1      -7.583  -4.534 -14.399  1.00  0.00     0.001 A 
ATOM     73  C   UNL     1      -7.095  -6.484 -13.062  1.00  0.00     0.001 A 
ATOM     74  C   UNL     1      -6.955  -5.770 -14.250  1.00  0.00     0.000 A 
ENDBRANCH  50  69
BRANCH  62  75
ATOM     75  C   UNL     1     -15.234  -3.471 -10.805  1.00  0.00    -0.014 A 
ATOM     76  C   UNL     1     -15.807  -4.748 -10.886  1.00  0.00     0.009 A 
ATOM     77  C   UNL     1     -15.923  -2.372 -11.341  1.00  0.00     0.009 A 
ATOM     78  C   UNL     1     -17.050  -4.920 -11.495  1.00  0.00     0.001 A 
ATOM     79  C   UNL     1     -17.176  -2.544 -11.927  1.00  0.00     0.001 A 
ATOM     80  C   UNL     1     -17.738  -3.818 -12.004  1.00  0.00     0.000 A 
ENDBRANCH  62  75
ENDBRANCH  36  37
ENDBRANCH  29  31
ENDBRANCH  28  29
ENDBRANCH  27  28
ENDBRANCH   1  27
TORSDOF 12
