REMARK SMILES O=C(OCCOC(=O)c1sccc1S(=O)(=O)Nc1ccc(Cn2cncn2)cc1)c1ccc(-c2c3nc(c(-c4ccccc4)c4ccc([nH]4)c(-c4ccccc4)c4nc(c(-c5ccccc5)c5ccc2[nH]5)C=C4)C=C3)cc1
REMARK SMILES IDX 6 1 5 2 4 3 3 4 2 5 1 6 30 7 31 8 77 9 32 10 76 11 33 12
REMARK SMILES IDX 34 13 35 14 70 15 36 16 75 17 69 18 71 19 37 20 74 21 68 22
REMARK SMILES IDX 67 23 38 25 60 26 45 27 59 28 46 29 49 30 58 31 72 32 47 33
REMARK SMILES IDX 48 34 57 36 73 37 50 38 39 39 40 40 44 41 41 42 43 43 42 44
REMARK SMILES IDX 61 45 62 46 66 47 63 48 65 49 64 50 51 51 52 52 56 53 53 54
REMARK SMILES IDX 55 55 54 56 7 57 8 58 9 59 10 60 13 61 11 62 12 63 14 64
REMARK SMILES IDX 15 65 16 66 17 67 18 69 19 70 29 71 20 72 28 73 21 74 22 75
REMARK SMILES IDX 23 76 24 77 27 78 25 79 26 80
REMARK H PARENT 71 24 49 35 17 68
REMARK Flexibility Score: inf
ROOT
ATOM      1  O   UNL     1       4.894   0.657  -1.497  1.00  0.00    -0.458 OA
ENDROOT
BRANCH   1   2
ATOM      2  C   UNL     1       5.544  -0.287  -0.630  1.00  0.00     0.275 C 
BRANCH   2   3
ATOM      3  C   UNL     1       5.486  -0.014   0.868  1.00  0.00     0.275 C 
BRANCH   3   4
ATOM      4  O   UNL     1       4.282  -0.491   1.510  1.00  0.00    -0.458 OA
BRANCH   4   5
ATOM      5  C   UNL     1       3.166   0.166   1.898  1.00  0.00     0.338 C 
ATOM      6  O   UNL     1       2.316  -0.415   2.570  1.00  0.00    -0.246 OA
BRANCH   5   7
ATOM      7  C   UNL     1       2.872   1.550   1.468  1.00  0.00     0.060 A 
ATOM      8  C   UNL     1       3.808   2.579   1.523  1.00  0.00     0.016 A 
ATOM      9  C   UNL     1       1.537   1.842   1.120  1.00  0.00     0.016 A 
ATOM     10  C   UNL     1       3.433   3.874   1.203  1.00  0.00     0.010 A 
ATOM     11  C   UNL     1       1.145   3.149   0.849  1.00  0.00     0.010 A 
ATOM     12  C   UNL     1       2.096   4.165   0.921  1.00  0.00    -0.014 A 
BRANCH  12  13
ATOM     13  C   UNL     1       1.750   5.577   0.896  1.00  0.00     0.031 A 
ATOM     14  C   UNL     1       2.205   6.403  -0.248  1.00  0.00     0.074 A 
ATOM     15  C   UNL     1       1.113   6.149   1.934  1.00  0.00     0.049 A 
ATOM     16  N   UNL     1       3.107   7.332  -0.246  1.00  0.00    -0.248 NA
ATOM     17  C   UNL     1       1.599   6.149  -1.558  1.00  0.00     0.031 C 
ATOM     18  C   UNL     1       0.381   5.488   3.017  1.00  0.00     0.029 A 
ATOM     19  N   UNL     1       0.930   7.474   2.185  1.00  0.00    -0.354 N 
ATOM     20  C   UNL     1       3.088   7.891  -1.522  1.00  0.00     0.074 A 
ATOM     21  C   UNL     1       2.214   7.059  -2.315  1.00  0.00     0.031 C 
ATOM     22  C   UNL     1      -0.346   6.413   3.680  1.00  0.00     0.029 A 
ATOM     23  C   UNL     1      -0.018   7.729   3.158  1.00  0.00     0.049 A 
ATOM     24  H   UNL     1       1.426   8.185   1.717  1.00  0.00     0.167 HD
ATOM     25  C   UNL     1       3.647   9.100  -1.805  1.00  0.00     0.031 A 
ATOM     26  C   UNL     1      -0.554   8.931   3.465  1.00  0.00     0.031 A 
ATOM     27  C   UNL     1       4.551   9.552  -0.784  1.00  0.00     0.049 A 
ATOM     28  C   UNL     1       0.366   9.989   2.994  1.00  0.00     0.074 A 
ATOM     29  C   UNL     1       5.733   9.090  -0.244  1.00  0.00     0.029 A 
ATOM     30  N   UNL     1       4.116  10.542   0.062  1.00  0.00    -0.354 N 
ATOM     31  N   UNL     1       1.525  10.232   3.535  1.00  0.00    -0.248 NA
ATOM     32  C   UNL     1       0.173  10.550   1.665  1.00  0.00     0.031 C 
ATOM     33  C   UNL     1       5.700   9.493   1.123  1.00  0.00     0.029 A 
ATOM     34  C   UNL     1       4.504  10.185   1.326  1.00  0.00     0.049 A 
ATOM     35  H   UNL     1       3.619  11.354  -0.192  1.00  0.00     0.167 HD
ATOM     36  C   UNL     1       2.344  10.606   2.479  1.00  0.00     0.074 A 
ATOM     37  C   UNL     1       1.429  10.908   1.383  1.00  0.00     0.031 C 
ATOM     38  C   UNL     1       3.689  10.366   2.507  1.00  0.00     0.031 A 
BRANCH  25  39
ATOM     39  C   UNL     1       3.130  10.035  -2.866  1.00  0.00    -0.014 A 
ATOM     40  C   UNL     1       3.883  11.174  -3.209  1.00  0.00     0.009 A 
ATOM     41  C   UNL     1       1.808   9.981  -3.345  1.00  0.00     0.009 A 
ATOM     42  C   UNL     1       3.325  12.220  -3.954  1.00  0.00     0.001 A 
ATOM     43  C   UNL     1       1.261  11.003  -4.125  1.00  0.00     0.001 A 
ATOM     44  C   UNL     1       2.013  12.135  -4.410  1.00  0.00     0.000 A 
ENDBRANCH  25  39
BRANCH  26  45
ATOM     45  C   UNL     1      -1.939   9.187   3.903  1.00  0.00    -0.014 A 
ATOM     46  C   UNL     1      -2.297  10.392   4.519  1.00  0.00     0.009 A 
ATOM     47  C   UNL     1      -2.975   8.319   3.503  1.00  0.00     0.009 A 
ATOM     48  C   UNL     1      -3.645  10.722   4.711  1.00  0.00     0.001 A 
ATOM     49  C   UNL     1      -4.317   8.642   3.703  1.00  0.00     0.001 A 
ATOM     50  C   UNL     1      -4.653   9.852   4.297  1.00  0.00     0.000 A 
ENDBRANCH  26  45
BRANCH  38  51
ATOM     51  C   UNL     1       4.301   9.933   3.815  1.00  0.00    -0.014 A 
ATOM     52  C   UNL     1       3.914   8.749   4.468  1.00  0.00     0.009 A 
ATOM     53  C   UNL     1       5.397  10.645   4.324  1.00  0.00     0.009 A 
ATOM     54  C   UNL     1       4.579   8.313   5.617  1.00  0.00     0.001 A 
ATOM     55  C   UNL     1       6.076  10.197   5.460  1.00  0.00     0.001 A 
ATOM     56  C   UNL     1       5.662   9.036   6.110  1.00  0.00     0.000 A 
ENDBRANCH  38  51
ENDBRANCH  12  13
ENDBRANCH   5   7
ENDBRANCH   4   5
ENDBRANCH   3   4
ENDBRANCH   2   3
ENDBRANCH   1   2
BRANCH   1  57
ATOM     57  C   UNL     1       3.567   0.468  -1.695  1.00  0.00     0.349 C 
ATOM     58  O   UNL     1       2.837  -0.189  -0.951  1.00  0.00    -0.245 OA
BRANCH  57  59
ATOM     59  C   UNL     1       3.119   1.151  -2.872  1.00  0.00     0.133 A 
ATOM     60  S   UNL     1       2.150   2.549  -2.643  1.00  0.00    -0.136 S 
ATOM     61  C   UNL     1       3.252   0.846  -4.214  1.00  0.00     0.113 A 
ATOM     62  C   UNL     1       1.973   2.800  -4.319  1.00  0.00     0.067 A 
ATOM     63  C   UNL     1       2.616   1.827  -5.048  1.00  0.00     0.035 A 
BRANCH  61  64
ATOM     64  S   UNL     1       4.055  -0.521  -4.923  1.00  0.00     0.263 S 
ATOM     65  O   UNL     1       3.054  -1.086  -5.802  1.00  0.00    -0.201 OA
ATOM     66  O   UNL     1       5.266   0.068  -5.452  1.00  0.00    -0.201 OA
BRANCH  64  67
ATOM     67  N   UNL     1       4.552  -1.685  -3.843  1.00  0.00    -0.280 N 
ATOM     68  H   UNL     1       5.522  -1.809  -3.732  1.00  0.00     0.180 HD
BRANCH  67  69
ATOM     69  C   UNL     1       3.697  -2.521  -3.061  1.00  0.00     0.049 A 
ATOM     70  C   UNL     1       4.349  -3.313  -2.109  1.00  0.00     0.027 A 
ATOM     71  C   UNL     1       2.320  -2.355  -2.970  1.00  0.00     0.027 A 
ATOM     72  C   UNL     1       3.687  -3.711  -0.942  1.00  0.00     0.008 A 
ATOM     73  C   UNL     1       1.649  -2.779  -1.818  1.00  0.00     0.008 A 
ATOM     74  C   UNL     1       2.348  -3.359  -0.743  1.00  0.00    -0.026 A 
BRANCH  74  75
ATOM     75  C   UNL     1       1.711  -3.274   0.631  1.00  0.00     0.181 C 
BRANCH  75  76
ATOM     76  N   UNL     1       2.089  -4.299   1.584  1.00  0.00    -0.249 N 
ATOM     77  C   UNL     1       3.157  -4.286   2.432  1.00  0.00     0.220 A 
ATOM     78  N   UNL     1       1.228  -5.284   1.917  1.00  0.00    -0.160 NA
ATOM     79  N   UNL     1       3.050  -5.271   3.293  1.00  0.00    -0.224 NA
ATOM     80  C   UNL     1       1.849  -5.831   2.965  1.00  0.00     0.246 A 
ENDBRANCH  75  76
ENDBRANCH  74  75
ENDBRANCH  67  69
ENDBRANCH  64  67
ENDBRANCH  61  64
ENDBRANCH  57  59
ENDBRANCH   1  57
TORSDOF 16
