REMARK SMILES O=C(OCCOC(=O)[C@H]1C[C@](O)(c2ccc(Cl)cc2)[C@@H](c2ccc(Cl)cc2)O1)c1ccc(-c2c3nc(c(-c4ccccc4)c4ccc([nH]4)c(-c4ccccc4)c4nc(c(-c5ccccc5)c5ccc2[nH]5)C=C4)C=C3)cc1
REMARK SMILES IDX 4 1 3 2 2 3 1 4 29 5 30 6 76 7 31 8 75 9 32 10 33 11 34 12
REMARK SMILES IDX 69 13 35 14 74 15 68 16 70 17 36 18 73 19 67 20 66 21 37 23
REMARK SMILES IDX 59 24 44 25 58 26 45 27 48 28 57 29 71 30 46 31 47 32 56 34
REMARK SMILES IDX 72 35 49 36 38 37 39 38 43 39 40 40 42 41 41 42 60 43 61 44
REMARK SMILES IDX 65 45 62 46 64 47 63 48 50 49 51 50 55 51 52 52 54 53 53 54
REMARK SMILES IDX 5 55 6 56 7 57 8 58 9 59 10 60 28 61 11 62 20 63 13 64 14 65
REMARK SMILES IDX 19 66 15 67 18 68 16 69 17 70 12 71 21 73 22 74 27 75 23 76
REMARK SMILES IDX 26 77 24 78 25 79
REMARK H PARENT 70 22 48 33 12 72
REMARK Flexibility Score: inf
ROOT
ATOM      1  C   UNL     1       4.660  -0.543  -6.337  1.00  0.00     0.275 C 
ENDROOT
BRANCH   1   2
ATOM      2  O   UNL     1       5.355   0.329  -5.401  1.00  0.00    -0.458 OA
BRANCH   2   3
ATOM      3  C   UNL     1       5.378   1.699  -5.402  1.00  0.00     0.338 C 
ATOM      4  O   UNL     1       6.460   2.288  -5.348  1.00  0.00    -0.246 OA
BRANCH   3   5
ATOM      5  C   UNL     1       4.105   2.487  -5.135  1.00  0.00     0.060 A 
ATOM      6  C   UNL     1       2.862   1.947  -5.320  1.00  0.00     0.016 A 
ATOM      7  C   UNL     1       4.055   3.777  -4.571  1.00  0.00     0.016 A 
ATOM      8  C   UNL     1       1.681   2.562  -4.802  1.00  0.00     0.010 A 
ATOM      9  C   UNL     1       2.819   4.326  -3.973  1.00  0.00     0.010 A 
ATOM     10  C   UNL     1       1.587   3.614  -3.923  1.00  0.00    -0.014 A 
BRANCH  10  11
ATOM     11  C   UNL     1       0.131   3.980  -3.280  1.00  0.00     0.031 A 
ATOM     12  C   UNL     1      -0.376   5.278  -3.764  1.00  0.00     0.074 A 
ATOM     13  C   UNL     1      -0.883   3.381  -2.517  1.00  0.00     0.049 A 
ATOM     14  N   UNL     1      -1.247   6.063  -3.200  1.00  0.00    -0.248 NA
ATOM     15  C   UNL     1       0.194   5.742  -5.029  1.00  0.00     0.031 C 
ATOM     16  C   UNL     1      -0.959   2.045  -2.004  1.00  0.00     0.029 A 
ATOM     17  N   UNL     1      -2.102   3.824  -1.929  1.00  0.00    -0.354 N 
ATOM     18  C   UNL     1      -1.268   7.170  -4.003  1.00  0.00     0.074 A 
ATOM     19  C   UNL     1      -0.258   6.979  -5.029  1.00  0.00     0.031 C 
ATOM     20  C   UNL     1      -2.033   1.687  -1.304  1.00  0.00     0.029 A 
ATOM     21  C   UNL     1      -2.694   2.912  -1.023  1.00  0.00     0.049 A 
ATOM     22  H   UNL     1      -2.503   4.699  -2.138  1.00  0.00     0.167 HD
ATOM     23  C   UNL     1      -2.076   8.242  -3.914  1.00  0.00     0.031 A 
ATOM     24  C   UNL     1      -3.507   2.954   0.063  1.00  0.00     0.031 A 
ATOM     25  C   UNL     1      -3.129   8.438  -2.965  1.00  0.00     0.049 A 
ATOM     26  C   UNL     1      -4.157   4.237   0.380  1.00  0.00     0.074 A 
ATOM     27  C   UNL     1      -3.973   9.528  -2.871  1.00  0.00     0.029 A 
ATOM     28  N   UNL     1      -3.501   7.559  -1.960  1.00  0.00    -0.354 N 
ATOM     29  N   UNL     1      -4.014   5.355  -0.270  1.00  0.00    -0.248 NA
ATOM     30  C   UNL     1      -5.090   4.281   1.513  1.00  0.00     0.031 C 
ATOM     31  C   UNL     1      -4.819   9.339  -1.778  1.00  0.00     0.029 A 
ATOM     32  C   UNL     1      -4.551   8.100  -1.229  1.00  0.00     0.049 A 
ATOM     33  H   UNL     1      -3.084   6.683  -1.791  1.00  0.00     0.167 HD
ATOM     34  C   UNL     1      -4.913   6.218   0.309  1.00  0.00     0.074 A 
ATOM     35  C   UNL     1      -5.552   5.520   1.405  1.00  0.00     0.031 C 
ATOM     36  C   UNL     1      -5.202   7.463  -0.116  1.00  0.00     0.031 A 
BRANCH  23  37
ATOM     37  C   UNL     1      -1.720   9.328  -4.866  1.00  0.00    -0.014 A 
ATOM     38  C   UNL     1      -1.911   9.182  -6.249  1.00  0.00     0.009 A 
ATOM     39  C   UNL     1      -1.009  10.423  -4.362  1.00  0.00     0.009 A 
ATOM     40  C   UNL     1      -1.307  10.081  -7.122  1.00  0.00     0.001 A 
ATOM     41  C   UNL     1      -0.451  11.345  -5.238  1.00  0.00     0.001 A 
ATOM     42  C   UNL     1      -0.580  11.159  -6.615  1.00  0.00     0.000 A 
ENDBRANCH  23  37
BRANCH  24  43
ATOM     43  C   UNL     1      -3.661   1.807   1.045  1.00  0.00    -0.014 A 
ATOM     44  C   UNL     1      -4.827   1.026   1.111  1.00  0.00     0.009 A 
ATOM     45  C   UNL     1      -2.657   1.557   2.005  1.00  0.00     0.009 A 
ATOM     46  C   UNL     1      -4.987   0.046   2.108  1.00  0.00     0.001 A 
ATOM     47  C   UNL     1      -2.808   0.562   2.984  1.00  0.00     0.001 A 
ATOM     48  C   UNL     1      -3.977  -0.189   3.040  1.00  0.00     0.000 A 
ENDBRANCH  24  43
BRANCH  36  49
ATOM     49  C   UNL     1      -6.343   8.153   0.548  1.00  0.00    -0.014 A 
ATOM     50  C   UNL     1      -6.233   8.685   1.839  1.00  0.00     0.009 A 
ATOM     51  C   UNL     1      -7.541   8.307  -0.166  1.00  0.00     0.009 A 
ATOM     52  C   UNL     1      -7.308   9.375   2.399  1.00  0.00     0.001 A 
ATOM     53  C   UNL     1      -8.600   9.021   0.384  1.00  0.00     0.001 A 
ATOM     54  C   UNL     1      -8.482   9.555   1.666  1.00  0.00     0.000 A 
ENDBRANCH  36  49
ENDBRANCH  10  11
ENDBRANCH   3   5
ENDBRANCH   2   3
ENDBRANCH   1   2
BRANCH   1  55
ATOM     55  C   UNL     1       4.021  -1.738  -5.610  1.00  0.00     0.274 C 
BRANCH  55  56
ATOM     56  O   UNL     1       3.148  -1.323  -4.550  1.00  0.00    -0.460 OA
BRANCH  56  57
ATOM     57  C   UNL     1       3.521  -1.471  -3.251  1.00  0.00     0.335 C 
ATOM     58  O   UNL     1       4.670  -1.773  -2.876  1.00  0.00    -0.249 OA
BRANCH  57  59
ATOM     59  C   UNL     1       2.311  -1.357  -2.307  1.00  0.00     0.232 C 
ATOM     60  C   UNL     1       2.341  -0.224  -1.268  1.00  0.00     0.087 C 
ATOM     61  O   UNL     1       1.133  -1.281  -3.115  1.00  0.00    -0.355 OA
ATOM     62  C   UNL     1       1.865   0.995  -2.033  1.00  0.00     0.123 C 
ATOM     63  C   UNL     1       0.619   0.064  -3.089  1.00  0.00     0.186 C 
BRANCH  62  64
ATOM     64  C   UNL     1       1.817   2.305  -0.905  1.00  0.00    -0.013 A 
ATOM     65  C   UNL     1       2.873   3.265  -0.815  1.00  0.00     0.008 A 
ATOM     66  C   UNL     1       0.786   2.626   0.023  1.00  0.00     0.008 A 
ATOM     67  C   UNL     1       2.761   4.526  -0.148  1.00  0.00     0.021 A 
ATOM     68  C   UNL     1       0.611   3.924   0.611  1.00  0.00     0.021 A 
ATOM     69  C   UNL     1       1.589   4.889   0.488  1.00  0.00     0.041 A 
ATOM     70  Cl  UNL     1       1.385   6.463   1.158  1.00  0.00    -0.084 Cl
ENDBRANCH  62  64
BRANCH  62  71
ATOM     71  O   UNL     1       3.050   1.218  -2.800  1.00  0.00    -0.382 OA
ATOM     72  H   UNL     1       3.144   0.514  -3.461  1.00  0.00     0.212 HD
ENDBRANCH  62  71
BRANCH  63  73
ATOM     73  C   UNL     1      -0.104   0.303  -4.557  1.00  0.00    -0.016 A 
ATOM     74  C   UNL     1       0.483  -0.154  -5.764  1.00  0.00     0.008 A 
ATOM     75  C   UNL     1      -1.296   1.067  -4.804  1.00  0.00     0.008 A 
ATOM     76  C   UNL     1       0.123   0.338  -7.056  1.00  0.00     0.021 A 
ATOM     77  C   UNL     1      -1.679   1.552  -6.095  1.00  0.00     0.021 A 
ATOM     78  C   UNL     1      -0.933   1.222  -7.213  1.00  0.00     0.041 A 
ATOM     79  Cl  UNL     1      -1.291   1.906  -8.753  1.00  0.00    -0.084 Cl
ENDBRANCH  63  73
ENDBRANCH  57  59
ENDBRANCH  56  57
ENDBRANCH  55  56
ENDBRANCH   1  55
TORSDOF 14
