REMARK SMILES C[C@H](C(=O)OCCOC(=O)c1ccc(-c2c3nc(c(-c4ccccc4)c4ccc([nH]4)c(-c4ccccc4)c4nc(c(-c5ccccc5)c5ccc2[nH]5)C=C4)C=C3)cc1)N1CCc2ccccc21
REMARK SMILES IDX 7 1 6 2 5 3 3 4 4 5 2 6 1 7 59 8 60 9 67 10 61 11 62 12
REMARK SMILES IDX 66 13 63 14 65 15 64 16 8 17 9 18 10 19 11 20 12 21 58 22
REMARK SMILES IDX 13 23 57 24 14 25 15 26 16 27 51 28 17 29 56 30 50 31 52 32
REMARK SMILES IDX 18 33 55 34 49 35 48 36 19 38 41 39 26 40 40 41 27 42 30 43
REMARK SMILES IDX 39 44 53 45 28 46 29 47 38 49 54 50 31 51 20 52 21 53 25 54
REMARK SMILES IDX 22 55 24 56 23 57 42 58 43 59 47 60 44 61 46 62 45 63 32 64
REMARK SMILES IDX 33 65 37 66 34 67 36 68 35 69
REMARK H PARENT 52 37 30 48
REMARK Flexibility Score: inf
ROOT
ATOM      1  C   UNL     1       1.140  -1.768  -1.884  1.00  0.00     0.275 C 
ENDROOT
BRANCH   1   2
ATOM      2  C   UNL     1       0.726  -1.944  -0.428  1.00  0.00     0.274 C 
BRANCH   2   3
ATOM      3  O   UNL     1       0.137  -0.734   0.089  1.00  0.00    -0.461 OA
BRANCH   3   4
ATOM      4  C   UNL     1       0.949   0.065   0.844  1.00  0.00     0.328 C 
ATOM      5  O   UNL     1       2.124  -0.193   1.087  1.00  0.00    -0.250 OA
BRANCH   4   6
ATOM      6  C   UNL     1       0.179   1.246   1.476  1.00  0.00     0.189 C 
ATOM      7  C   UNL     1       1.147   2.146   2.244  1.00  0.00     0.044 C 
BRANCH   6   8
ATOM      8  N   UNL     1      -0.693   1.990   0.541  1.00  0.00    -0.358 N 
ATOM      9  C   UNL     1      -1.997   1.414   0.165  1.00  0.00     0.122 C 
ATOM     10  C   UNL     1      -0.297   2.800  -0.510  1.00  0.00     0.041 A 
ATOM     11  C   UNL     1      -2.379   1.940  -1.228  1.00  0.00     0.059 C 
ATOM     12  C   UNL     1      -1.171   2.727  -1.597  1.00  0.00    -0.023 A 
ATOM     13  C   UNL     1       0.770   3.673  -0.591  1.00  0.00     0.026 A 
ATOM     14  C   UNL     1      -0.925   3.364  -2.806  1.00  0.00     0.006 A 
ATOM     15  C   UNL     1       1.007   4.375  -1.780  1.00  0.00     0.002 A 
ATOM     16  C   UNL     1       0.194   4.183  -2.900  1.00  0.00     0.000 A 
ENDBRANCH   6   8
ENDBRANCH   4   6
ENDBRANCH   3   4
ENDBRANCH   2   3
ENDBRANCH   1   2
BRANCH   1  17
ATOM     17  O   UNL     1       2.108  -0.713  -1.974  1.00  0.00    -0.458 OA
BRANCH  17  18
ATOM     18  C   UNL     1       1.934   0.156  -2.992  1.00  0.00     0.338 C 
ATOM     19  O   UNL     1       1.115   0.066  -3.901  1.00  0.00    -0.246 OA
BRANCH  18  20
ATOM     20  C   UNL     1       2.918   1.252  -2.900  1.00  0.00     0.060 A 
ATOM     21  C   UNL     1       3.306   1.782  -1.667  1.00  0.00     0.016 A 
ATOM     22  C   UNL     1       3.396   1.825  -4.082  1.00  0.00     0.016 A 
ATOM     23  C   UNL     1       4.088   2.938  -1.622  1.00  0.00     0.010 A 
ATOM     24  C   UNL     1       4.243   2.935  -4.031  1.00  0.00     0.010 A 
ATOM     25  C   UNL     1       4.562   3.534  -2.803  1.00  0.00    -0.014 A 
BRANCH  25  26
ATOM     26  C   UNL     1       5.374   4.782  -2.757  1.00  0.00     0.031 A 
ATOM     27  C   UNL     1       4.902   6.046  -3.435  1.00  0.00     0.074 A 
ATOM     28  C   UNL     1       6.548   4.789  -2.097  1.00  0.00     0.049 A 
ATOM     29  N   UNL     1       5.516   7.198  -3.560  1.00  0.00    -0.248 NA
ATOM     30  C   UNL     1       3.562   6.022  -4.043  1.00  0.00     0.031 C 
ATOM     31  C   UNL     1       7.113   3.657  -1.359  1.00  0.00     0.029 A 
ATOM     32  N   UNL     1       7.480   5.785  -1.944  1.00  0.00    -0.354 N 
ATOM     33  C   UNL     1       4.643   8.026  -4.257  1.00  0.00     0.074 A 
ATOM     34  C   UNL     1       3.456   7.248  -4.536  1.00  0.00     0.031 C 
ATOM     35  C   UNL     1       8.280   4.028  -0.814  1.00  0.00     0.029 A 
ATOM     36  C   UNL     1       8.587   5.390  -1.235  1.00  0.00     0.049 A 
ATOM     37  H   UNL     1       7.366   6.693  -2.307  1.00  0.00     0.167 HD
ATOM     38  C   UNL     1       4.817   9.312  -4.645  1.00  0.00     0.031 A 
ATOM     39  C   UNL     1       9.749   6.024  -0.991  1.00  0.00     0.031 A 
ATOM     40  C   UNL     1       6.010  10.081  -4.409  1.00  0.00     0.049 A 
ATOM     41  C   UNL     1       9.970   7.399  -1.544  1.00  0.00     0.074 A 
ATOM     42  C   UNL     1       6.279  11.390  -4.773  1.00  0.00     0.029 A 
ATOM     43  N   UNL     1       7.140   9.605  -3.766  1.00  0.00    -0.354 N 
ATOM     44  N   UNL     1       9.143   8.158  -2.220  1.00  0.00    -0.248 NA
ATOM     45  C   UNL     1      11.293   7.996  -1.318  1.00  0.00     0.031 C 
ATOM     46  C   UNL     1       7.596  11.685  -4.405  1.00  0.00     0.029 A 
ATOM     47  C   UNL     1       8.125  10.580  -3.760  1.00  0.00     0.049 A 
ATOM     48  H   UNL     1       7.231   8.708  -3.372  1.00  0.00     0.167 HD
ATOM     49  C   UNL     1       9.843   9.323  -2.498  1.00  0.00     0.074 A 
ATOM     50  C   UNL     1      11.154   9.180  -1.898  1.00  0.00     0.031 C 
ATOM     51  C   UNL     1       9.434  10.415  -3.188  1.00  0.00     0.031 A 
BRANCH  38  52
ATOM     52  C   UNL     1       3.707   9.968  -5.419  1.00  0.00    -0.014 A 
ATOM     53  C   UNL     1       2.547  10.432  -4.782  1.00  0.00     0.009 A 
ATOM     54  C   UNL     1       3.864  10.193  -6.796  1.00  0.00     0.009 A 
ATOM     55  C   UNL     1       1.561  11.101  -5.512  1.00  0.00     0.001 A 
ATOM     56  C   UNL     1       2.886  10.877  -7.519  1.00  0.00     0.001 A 
ATOM     57  C   UNL     1       1.734  11.329  -6.877  1.00  0.00     0.000 A 
ENDBRANCH  38  52
BRANCH  39  58
ATOM     58  C   UNL     1      10.818   5.317  -0.242  1.00  0.00    -0.014 A 
ATOM     59  C   UNL     1      11.153   5.700   1.064  1.00  0.00     0.009 A 
ATOM     60  C   UNL     1      11.480   4.223  -0.823  1.00  0.00     0.009 A 
ATOM     61  C   UNL     1      12.132   4.999   1.773  1.00  0.00     0.001 A 
ATOM     62  C   UNL     1      12.435   3.506  -0.101  1.00  0.00     0.001 A 
ATOM     63  C   UNL     1      12.762   3.898   1.195  1.00  0.00     0.000 A 
ENDBRANCH  39  58
BRANCH  51  64
ATOM     64  C   UNL     1      10.417  11.540  -3.321  1.00  0.00    -0.014 A 
ATOM     65  C   UNL     1      11.509  11.446  -4.197  1.00  0.00     0.009 A 
ATOM     66  C   UNL     1      10.243  12.711  -2.568  1.00  0.00     0.009 A 
ATOM     67  C   UNL     1      12.431  12.491  -4.287  1.00  0.00     0.001 A 
ATOM     68  C   UNL     1      11.152  13.763  -2.679  1.00  0.00     0.001 A 
ATOM     69  C   UNL     1      12.251  13.648  -3.530  1.00  0.00     0.000 A 
ENDBRANCH  51  64
ENDBRANCH  25  26
ENDBRANCH  18  20
ENDBRANCH  17  18
ENDBRANCH   1  17
TORSDOF 12
