REMARK SMILES N#C/C(=C\c1cn(CC(=O)OCCOC(=O)c2ccc(-c3c4nc(c(-c5ccccc5)c5ccc([nH]5)c(-c5ccccc5)c5nc(c(-c6ccccc6)c6ccc3[nH]6)C=C5)C=C4)cc2)c2ccccc12)C(=O)N1CCCC[C@@H]1C#N
REMARK SMILES IDX 11 1 9 2 10 3 8 4 7 5 5 6 6 7 70 8 65 9 69 10 66 11 68 12
REMARK SMILES IDX 67 13 4 14 3 15 2 16 1 17 71 18 72 19 73 20 74 21 78 22
REMARK SMILES IDX 75 23 77 24 76 25 79 26 80 27 12 28 13 29 14 30 15 31 16 32
REMARK SMILES IDX 17 33 18 34 64 35 19 36 63 37 20 38 21 39 22 40 57 41 23 42
REMARK SMILES IDX 62 43 56 44 58 45 24 46 61 47 55 48 54 49 25 51 47 52 32 53
REMARK SMILES IDX 46 54 33 55 36 56 45 57 59 58 34 59 35 60 44 62 60 63 37 64
REMARK SMILES IDX 26 65 27 66 31 67 28 68 30 69 29 70 48 71 49 72 53 73 50 74
REMARK SMILES IDX 52 75 51 76 38 77 39 78 43 79 40 80 42 81 41 82
REMARK H PARENT 58 50 36 61
REMARK Flexibility Score: inf
ROOT
ATOM      1  O   UNL     1       1.138  -2.046   5.162  1.00  0.00    -0.461 OA
ENDROOT
BRANCH   1   2
ATOM      2  C   UNL     1       2.134  -2.780   5.700  1.00  0.00     0.326 C 
ATOM      3  O   UNL     1       2.167  -3.111   6.884  1.00  0.00    -0.250 OA
BRANCH   2   4
ATOM      4  C   UNL     1       3.294  -3.078   4.801  1.00  0.00     0.244 C 
BRANCH   4   5
ATOM      5  N   UNL     1       3.240  -2.992   3.341  1.00  0.00    -0.336 N 
ATOM      6  C   UNL     1       3.885  -1.942   1.546  1.00  0.00     0.002 A 
ATOM      7  C   UNL     1       4.208  -2.158   2.836  1.00  0.00     0.095 A 
ATOM      8  C   UNL     1       2.901  -2.843   1.123  1.00  0.00     0.007 A 
ATOM      9  C   UNL     1       2.541  -3.579   2.267  1.00  0.00     0.049 A 
ATOM     10  C   UNL     1       2.279  -3.071  -0.135  1.00  0.00     0.011 A 
ATOM     11  C   UNL     1       1.632  -4.638   2.016  1.00  0.00     0.027 A 
ATOM     12  C   UNL     1       1.230  -3.963  -0.266  1.00  0.00     0.001 A 
ATOM     13  C   UNL     1       0.930  -4.762   0.805  1.00  0.00     0.002 A 
BRANCH   6  14
ATOM     14  C   UNL     1       4.468  -0.888   0.865  1.00  0.00     0.035 C 
ATOM     15  C   UNL     1       3.788  -0.071   0.070  1.00  0.00     0.118 C 
BRANCH  15  16
ATOM     16  C   UNL     1       2.268  -0.071   0.070  1.00  0.00     0.105 C 
ATOM     17  N   UNL     1       1.007  -0.071   0.070  1.00  0.00    -0.192 NA
ENDBRANCH  15  16
BRANCH  15  18
ATOM     18  C   UNL     1       4.550   1.044  -0.592  1.00  0.00     0.265 C 
ATOM     19  O   UNL     1       3.931   2.063  -0.900  1.00  0.00    -0.268 OA
BRANCH  18  20
ATOM     20  N   UNL     1       5.944   0.969  -0.753  1.00  0.00    -0.322 N 
ATOM     21  C   UNL     1       6.690   2.230  -0.748  1.00  0.00     0.121 C 
ATOM     22  C   UNL     1       6.795  -0.240  -0.965  1.00  0.00     0.189 C 
ATOM     23  C   UNL     1       7.723   2.206   0.380  1.00  0.00     0.022 C 
ATOM     24  C   UNL     1       7.908  -0.306   0.111  1.00  0.00     0.041 C 
ATOM     25  C   UNL     1       8.672   1.013   0.257  1.00  0.00     0.005 C 
BRANCH  22  26
ATOM     26  C   UNL     1       7.420  -0.273  -2.320  1.00  0.00     0.087 C 
ATOM     27  N   UNL     1       7.947  -0.315  -3.343  1.00  0.00    -0.196 NA
ENDBRANCH  22  26
ENDBRANCH  18  20
ENDBRANCH  15  18
ENDBRANCH   6  14
ENDBRANCH   4   5
ENDBRANCH   2   4
ENDBRANCH   1   2
BRANCH   1  28
ATOM     28  C   UNL     1       0.070  -1.714   6.084  1.00  0.00     0.274 C 
BRANCH  28  29
ATOM     29  C   UNL     1      -1.162  -2.580   5.808  1.00  0.00     0.275 C 
BRANCH  29  30
ATOM     30  O   UNL     1      -0.915  -3.914   6.295  1.00  0.00    -0.458 OA
BRANCH  30  31
ATOM     31  C   UNL     1      -0.778  -4.878   5.354  1.00  0.00     0.338 C 
ATOM     32  O   UNL     1      -1.144  -4.836   4.191  1.00  0.00    -0.246 OA
BRANCH  31  33
ATOM     33  C   UNL     1       0.329  -5.734   5.825  1.00  0.00     0.060 A 
ATOM     34  C   UNL     1       0.419  -6.422   7.015  1.00  0.00     0.016 A 
ATOM     35  C   UNL     1       1.472  -5.587   5.066  1.00  0.00     0.016 A 
ATOM     36  C   UNL     1       1.701  -6.755   7.486  1.00  0.00     0.010 A 
ATOM     37  C   UNL     1       2.710  -6.044   5.436  1.00  0.00     0.010 A 
ATOM     38  C   UNL     1       2.852  -6.435   6.740  1.00  0.00    -0.014 A 
BRANCH  38  39
ATOM     39  C   UNL     1       4.215  -6.672   7.199  1.00  0.00     0.031 A 
ATOM     40  C   UNL     1       4.564  -8.090   7.009  1.00  0.00     0.074 A 
ATOM     41  C   UNL     1       5.160  -5.785   7.592  1.00  0.00     0.049 A 
ATOM     42  N   UNL     1       4.479  -8.988   7.926  1.00  0.00    -0.248 NA
ATOM     43  C   UNL     1       4.782  -8.614   5.653  1.00  0.00     0.031 C 
ATOM     44  C   UNL     1       5.174  -4.321   7.595  1.00  0.00     0.029 A 
ATOM     45  N   UNL     1       6.398  -6.073   8.095  1.00  0.00    -0.354 N 
ATOM     46  C   UNL     1       4.816 -10.178   7.314  1.00  0.00     0.074 A 
ATOM     47  C   UNL     1       4.785  -9.926   5.895  1.00  0.00     0.031 C 
ATOM     48  C   UNL     1       6.417  -3.857   7.891  1.00  0.00     0.029 A 
ATOM     49  C   UNL     1       7.247  -4.984   8.277  1.00  0.00     0.049 A 
ATOM     50  H   UNL     1       6.673  -6.993   8.314  1.00  0.00     0.167 HD
ATOM     51  C   UNL     1       5.325 -11.203   8.044  1.00  0.00     0.031 A 
ATOM     52  C   UNL     1       8.504  -4.995   8.799  1.00  0.00     0.031 A 
ATOM     53  C   UNL     1       5.140 -10.979   9.460  1.00  0.00     0.049 A 
ATOM     54  C   UNL     1       8.613  -6.229   9.610  1.00  0.00     0.074 A 
ATOM     55  C   UNL     1       4.033 -10.843  10.275  1.00  0.00     0.029 A 
ATOM     56  N   UNL     1       6.187 -10.402  10.143  1.00  0.00    -0.354 N 
ATOM     57  N   UNL     1       7.937  -6.421  10.706  1.00  0.00    -0.248 NA
ATOM     58  C   UNL     1       9.099  -7.426   8.945  1.00  0.00     0.031 C 
ATOM     59  C   UNL     1       4.364  -9.787  11.173  1.00  0.00     0.029 A 
ATOM     60  C   UNL     1       5.680  -9.391  10.922  1.00  0.00     0.049 A 
ATOM     61  H   UNL     1       7.133 -10.667  10.083  1.00  0.00     0.167 HD
ATOM     62  C   UNL     1       7.532  -7.745  10.634  1.00  0.00     0.074 A 
ATOM     63  C   UNL     1       8.333  -8.331   9.559  1.00  0.00     0.031 C 
ATOM     64  C   UNL     1       6.393  -8.172  11.252  1.00  0.00     0.031 A 
BRANCH  51  65
ATOM     65  C   UNL     1       6.316 -12.185   7.494  1.00  0.00    -0.014 A 
ATOM     66  C   UNL     1       7.007 -12.002   6.280  1.00  0.00     0.009 A 
ATOM     67  C   UNL     1       6.762 -13.221   8.327  1.00  0.00     0.009 A 
ATOM     68  C   UNL     1       8.090 -12.803   5.915  1.00  0.00     0.001 A 
ATOM     69  C   UNL     1       7.872 -14.000   7.984  1.00  0.00     0.001 A 
ATOM     70  C   UNL     1       8.537 -13.789   6.779  1.00  0.00     0.000 A 
ENDBRANCH  51  65
BRANCH  52  71
ATOM     71  C   UNL     1       9.729  -4.321   8.288  1.00  0.00    -0.014 A 
ATOM     72  C   UNL     1       9.844  -4.019   6.920  1.00  0.00     0.009 A 
ATOM     73  C   UNL     1      10.908  -4.289   9.060  1.00  0.00     0.009 A 
ATOM     74  C   UNL     1      11.090  -3.757   6.334  1.00  0.00     0.001 A 
ATOM     75  C   UNL     1      12.155  -4.023   8.472  1.00  0.00     0.001 A 
ATOM     76  C   UNL     1      12.248  -3.776   7.106  1.00  0.00     0.000 A 
ENDBRANCH  52  71
BRANCH  64  77
ATOM     77  C   UNL     1       5.675  -7.216  12.184  1.00  0.00    -0.014 A 
ATOM     78  C   UNL     1       5.383  -7.666  13.481  1.00  0.00     0.009 A 
ATOM     79  C   UNL     1       5.103  -6.002  11.760  1.00  0.00     0.009 A 
ATOM     80  C   UNL     1       4.517  -6.955  14.314  1.00  0.00     0.001 A 
ATOM     81  C   UNL     1       4.252  -5.276  12.605  1.00  0.00     0.001 A 
ATOM     82  C   UNL     1       3.947  -5.762  13.875  1.00  0.00     0.000 A 
ENDBRANCH  64  77
ENDBRANCH  38  39
ENDBRANCH  31  33
ENDBRANCH  30  31
ENDBRANCH  29  30
ENDBRANCH  28  29
ENDBRANCH   1  28
TORSDOF 17
