REMARK SMILES O=C(C[C@@H](NC(=O)C1CCC1)c1ccc(Cl)cc1)OCCOC(=O)c1ccc(-c2c3nc(c(-c4ccccc4)c4ccc([nH]4)c(-c4ccccc4)c4nc(c(-c5ccccc5)c5ccc2[nH]5)C=C4)C=C3)cc1
REMARK SMILES IDX 20 1 19 2 2 3 1 4 3 5 4 6 5 7 6 8 7 10 8 11 9 12 11 13 10 14
REMARK SMILES IDX 12 15 13 16 18 17 14 18 17 19 15 20 16 21 21 22 22 23 23 24
REMARK SMILES IDX 24 25 25 26 26 27 72 28 27 29 71 30 28 31 29 32 30 33 65 34
REMARK SMILES IDX 31 35 70 36 64 37 66 38 32 39 69 40 63 41 62 42 33 44 55 45
REMARK SMILES IDX 40 46 54 47 41 48 44 49 53 50 67 51 42 52 43 53 52 55 68 56
REMARK SMILES IDX 45 57 34 58 35 59 39 60 36 61 38 62 37 63 56 64 57 65 61 66
REMARK SMILES IDX 58 67 60 68 59 69 46 70 47 71 51 72 48 73 50 74 49 75
REMARK H PARENT 5 9 66 43 44 54
REMARK Flexibility Score: inf
ROOT
ATOM      1  C   UNL     1       4.306  -0.396  -1.360  1.00  0.00     0.274 C 
ENDROOT
BRANCH   1   2
ATOM      2  O   UNL     1       2.991  -0.709  -0.858  1.00  0.00    -0.462 OA
BRANCH   2   3
ATOM      3  C   UNL     1       2.772  -0.809   0.477  1.00  0.00     0.308 C 
ATOM      4  O   UNL     1       2.018  -1.661   0.939  1.00  0.00    -0.252 OA
BRANCH   3   5
ATOM      5  C   UNL     1       3.349   0.282   1.341  1.00  0.00     0.152 C 
BRANCH   5   6
ATOM      6  C   UNL     1       4.058  -0.236   2.594  1.00  0.00     0.123 C 
BRANCH   6   7
ATOM      7  N   UNL     1       5.201  -1.094   2.247  1.00  0.00    -0.348 N 
ATOM      8  C   UNL     1       6.454  -0.940   1.710  1.00  0.00     0.223 C 
ATOM      9  H   UNL     1       5.017  -2.037   2.458  1.00  0.00     0.164 HD
ATOM     10  O   UNL     1       6.853  -1.949   1.099  1.00  0.00    -0.275 OA
BRANCH   8  11
ATOM     11  C   UNL     1       7.367   0.279   1.824  1.00  0.00     0.078 C 
ATOM     12  C   UNL     1       7.005   1.686   1.334  1.00  0.00     0.013 C 
ATOM     13  C   UNL     1       7.753   0.868   3.189  1.00  0.00     0.013 C 
ATOM     14  C   UNL     1       7.719   2.271   2.566  1.00  0.00     0.002 C 
ENDBRANCH   8  11
ENDBRANCH   6   7
BRANCH   6  15
ATOM     15  C   UNL     1       4.338   0.837   3.635  1.00  0.00    -0.025 A 
ATOM     16  C   UNL     1       4.667   0.463   4.948  1.00  0.00     0.007 A 
ATOM     17  C   UNL     1       4.236   2.211   3.355  1.00  0.00     0.007 A 
ATOM     18  C   UNL     1       4.946   1.431   5.921  1.00  0.00     0.021 A 
ATOM     19  C   UNL     1       4.505   3.179   4.324  1.00  0.00     0.021 A 
ATOM     20  C   UNL     1       4.874   2.784   5.601  1.00  0.00     0.041 A 
ATOM     21  Cl  UNL     1       5.259   3.975   6.780  1.00  0.00    -0.084 Cl
ENDBRANCH   6  15
ENDBRANCH   5   6
ENDBRANCH   3   5
ENDBRANCH   2   3
ENDBRANCH   1   2
BRANCH   1  22
ATOM     22  C   UNL     1       4.363   0.953  -2.086  1.00  0.00     0.275 C 
BRANCH  22  23
ATOM     23  O   UNL     1       3.923   2.033  -1.240  1.00  0.00    -0.458 OA
BRANCH  23  24
ATOM     24  C   UNL     1       2.614   2.366  -1.373  1.00  0.00     0.338 C 
ATOM     25  O   UNL     1       1.832   1.930  -2.201  1.00  0.00    -0.246 OA
BRANCH  24  26
ATOM     26  C   UNL     1       2.191   3.219  -0.237  1.00  0.00     0.060 A 
ATOM     27  C   UNL     1       0.925   2.979   0.311  1.00  0.00     0.016 A 
ATOM     28  C   UNL     1       3.004   4.223   0.300  1.00  0.00     0.016 A 
ATOM     29  C   UNL     1       0.459   3.755   1.374  1.00  0.00     0.010 A 
ATOM     30  C   UNL     1       2.536   4.997   1.372  1.00  0.00     0.010 A 
ATOM     31  C   UNL     1       1.248   4.787   1.899  1.00  0.00    -0.014 A 
BRANCH  31  32
ATOM     32  C   UNL     1       0.655   5.714   2.900  1.00  0.00     0.031 A 
ATOM     33  C   UNL     1       0.187   7.075   2.456  1.00  0.00     0.074 A 
ATOM     34  C   UNL     1       0.461   5.334   4.177  1.00  0.00     0.049 A 
ATOM     35  N   UNL     1      -0.470   7.987   3.130  1.00  0.00    -0.248 NA
ATOM     36  C   UNL     1       0.497   7.460   1.070  1.00  0.00     0.031 C 
ATOM     37  C   UNL     1       0.854   4.049   4.753  1.00  0.00     0.029 A 
ATOM     38  N   UNL     1      -0.134   6.000   5.222  1.00  0.00    -0.354 N 
ATOM     39  C   UNL     1      -0.672   9.037   2.244  1.00  0.00     0.074 A 
ATOM     40  C   UNL     1      -0.013   8.680   1.007  1.00  0.00     0.031 C 
ATOM     41  C   UNL     1       0.489   4.019   6.047  1.00  0.00     0.029 A 
ATOM     42  C   UNL     1      -0.164   5.280   6.392  1.00  0.00     0.049 A 
ATOM     43  H   UNL     1      -0.503   6.909   5.140  1.00  0.00     0.167 HD
ATOM     44  C   UNL     1      -1.366  10.187   2.425  1.00  0.00     0.031 A 
ATOM     45  C   UNL     1      -0.671   5.595   7.601  1.00  0.00     0.031 A 
ATOM     46  C   UNL     1      -2.005  10.572   3.654  1.00  0.00     0.049 A 
ATOM     47  C   UNL     1      -1.386   6.907   7.796  1.00  0.00     0.074 A 
ATOM     48  C   UNL     1      -2.735  11.717   3.924  1.00  0.00     0.029 A 
ATOM     49  N   UNL     1      -1.983   9.828   4.822  1.00  0.00    -0.354 N 
ATOM     50  N   UNL     1      -1.628   7.858   6.927  1.00  0.00    -0.248 NA
ATOM     51  C   UNL     1      -1.923   7.174   9.140  1.00  0.00     0.031 C 
ATOM     52  C   UNL     1      -3.114  11.689   5.271  1.00  0.00     0.029 A 
ATOM     53  C   UNL     1      -2.667  10.499   5.822  1.00  0.00     0.049 A 
ATOM     54  H   UNL     1      -1.546   8.952   4.926  1.00  0.00     0.167 HD
ATOM     55  C   UNL     1      -2.366   8.819   7.610  1.00  0.00     0.074 A 
ATOM     56  C   UNL     1      -2.554   8.325   8.957  1.00  0.00     0.031 C 
ATOM     57  C   UNL     1      -2.846  10.005   7.162  1.00  0.00     0.031 A 
BRANCH  44  58
ATOM     58  C   UNL     1      -1.464  11.117   1.250  1.00  0.00    -0.014 A 
ATOM     59  C   UNL     1      -2.267  10.794   0.143  1.00  0.00     0.009 A 
ATOM     60  C   UNL     1      -0.774  12.337   1.258  1.00  0.00     0.009 A 
ATOM     61  C   UNL     1      -2.349  11.662  -0.948  1.00  0.00     0.001 A 
ATOM     62  C   UNL     1      -0.879  13.215   0.177  1.00  0.00     0.001 A 
ATOM     63  C   UNL     1      -1.659  12.874  -0.927  1.00  0.00     0.000 A 
ENDBRANCH  44  58
BRANCH  45  64
ATOM     64  C   UNL     1      -0.534   4.649   8.741  1.00  0.00    -0.014 A 
ATOM     65  C   UNL     1      -1.656   3.996   9.275  1.00  0.00     0.009 A 
ATOM     66  C   UNL     1       0.719   4.441   9.339  1.00  0.00     0.009 A 
ATOM     67  C   UNL     1      -1.533   3.188  10.408  1.00  0.00     0.001 A 
ATOM     68  C   UNL     1       0.844   3.609  10.453  1.00  0.00     0.001 A 
ATOM     69  C   UNL     1      -0.283   2.994  10.995  1.00  0.00     0.000 A 
ENDBRANCH  45  64
BRANCH  57  70
ATOM     70  C   UNL     1      -3.642  10.839   8.129  1.00  0.00    -0.014 A 
ATOM     71  C   UNL     1      -3.031  11.475   9.221  1.00  0.00     0.009 A 
ATOM     72  C   UNL     1      -5.022  11.008   7.932  1.00  0.00     0.009 A 
ATOM     73  C   UNL     1      -3.793  12.226  10.120  1.00  0.00     0.001 A 
ATOM     74  C   UNL     1      -5.776  11.785   8.814  1.00  0.00     0.001 A 
ATOM     75  C   UNL     1      -5.163  12.383   9.914  1.00  0.00     0.000 A 
ENDBRANCH  57  70
ENDBRANCH  31  32
ENDBRANCH  24  26
ENDBRANCH  23  24
ENDBRANCH  22  23
ENDBRANCH   1  22
TORSDOF 15
