REMARK SMILES CC(C)c1cc2c(cc1Cl)C=C(C(=O)OCCOC(=O)c1ccc(-c3c4nc(c(-c5ccccc5)c5ccc([nH]5)c(-c5ccccc5)c5nc(c(-c6ccccc6)c6ccc3[nH]6)C=C5)C=C4)cc1)[C@@H](C(F)(F)F)O2
REMARK SMILES IDX 17 1 16 2 15 3 13 4 14 5 12 6 4 7 5 8 9 9 6 10 8 11 10 12
REMARK SMILES IDX 7 13 74 14 11 15 69 16 2 17 1 18 3 19 70 20 71 21 72 22
REMARK SMILES IDX 73 23 18 24 19 25 20 26 21 27 22 28 68 29 23 30 67 31 24 32
REMARK SMILES IDX 25 33 26 34 61 35 27 36 66 37 60 38 62 39 28 40 65 41 59 42
REMARK SMILES IDX 58 43 29 45 51 46 36 47 50 48 37 49 40 50 49 51 63 52 38 53
REMARK SMILES IDX 39 54 48 56 64 57 41 58 30 59 31 60 35 61 32 62 34 63 33 64
REMARK SMILES IDX 52 65 53 66 57 67 54 68 56 69 55 70 42 71 43 72 47 73 44 74
REMARK SMILES IDX 46 75 45 76
REMARK H PARENT 62 44 40 55
REMARK Flexibility Score: inf
ROOT
ATOM      1  C   UNL     1      -9.867  -0.609   2.302  1.00  0.00     0.275 C 
ENDROOT
BRANCH   1   2
ATOM      2  C   UNL     1      -9.185  -1.420   1.199  1.00  0.00     0.275 C 
BRANCH   2   3
ATOM      3  O   UNL     1      -7.747  -1.404   1.346  1.00  0.00    -0.459 OA
BRANCH   3   4
ATOM      4  C   UNL     1      -7.090  -0.571   0.507  1.00  0.00     0.338 C 
ATOM      5  O   UNL     1      -7.589   0.143  -0.350  1.00  0.00    -0.246 OA
BRANCH   4   6
ATOM      6  C   UNL     1      -5.644  -0.572   0.795  1.00  0.00     0.087 C 
ATOM      7  C   UNL     1      -0.795   0.853   1.114  1.00  0.00    -0.023 A 
ATOM      8  C   UNL     1      -1.490  -0.392   1.145  1.00  0.00     0.052 A 
ATOM      9  C   UNL     1      -1.590   2.015   1.143  1.00  0.00     0.045 A 
ATOM     10  C   UNL     1      -2.883  -0.481   1.090  1.00  0.00     0.128 A 
ATOM     11  C   UNL     1      -2.987   1.922   1.109  1.00  0.00     0.032 A 
ATOM     12  Cl  UNL     1      -1.010   3.640   1.230  1.00  0.00    -0.084 Cl
ATOM     13  C   UNL     1      -3.624   0.684   1.048  1.00  0.00     0.019 A 
ATOM     14  O   UNL     1      -3.442  -1.729   1.082  1.00  0.00    -0.475 OA
ATOM     15  C   UNL     1      -5.058   0.623   0.907  1.00  0.00     0.027 C 
ATOM     16  C   UNL     1      -4.872  -1.861   0.800  1.00  0.00     0.316 C 
BRANCH   7  17
ATOM     17  C   UNL     1       0.739   0.781   1.070  1.00  0.00     0.014 C 
ATOM     18  C   UNL     1       1.219  -0.168  -0.049  1.00  0.00     0.012 C 
ATOM     19  C   UNL     1       1.542   2.078   0.907  1.00  0.00     0.012 C 
ENDBRANCH   7  17
BRANCH  16  20
ATOM     20  C   UNL     1      -5.049  -2.614  -0.529  1.00  0.00     0.430 C 
ATOM     21  F   UNL     1      -4.347  -3.772  -0.540  1.00  0.00    -0.167 F 
ATOM     22  F   UNL     1      -6.345  -2.945  -0.744  1.00  0.00    -0.167 F 
ATOM     23  F   UNL     1      -4.639  -1.879  -1.589  1.00  0.00    -0.167 F 
ENDBRANCH  16  20
ENDBRANCH   4   6
ENDBRANCH   3   4
ENDBRANCH   2   3
ENDBRANCH   1   2
BRANCH   1  24
ATOM     24  O   UNL     1      -9.570   0.791   2.146  1.00  0.00    -0.458 OA
BRANCH  24  25
ATOM     25  C   UNL     1      -8.807   1.341   3.118  1.00  0.00     0.338 C 
ATOM     26  O   UNL     1      -8.370   0.801   4.118  1.00  0.00    -0.246 OA
BRANCH  25  27
ATOM     27  C   UNL     1      -8.490   2.734   2.765  1.00  0.00     0.060 A 
ATOM     28  C   UNL     1      -8.878   3.792   3.578  1.00  0.00     0.016 A 
ATOM     29  C   UNL     1      -7.655   2.967   1.681  1.00  0.00     0.016 A 
ATOM     30  C   UNL     1      -8.430   5.086   3.276  1.00  0.00     0.010 A 
ATOM     31  C   UNL     1      -7.074   4.217   1.488  1.00  0.00     0.010 A 
ATOM     32  C   UNL     1      -7.486   5.313   2.253  1.00  0.00    -0.014 A 
BRANCH  32  33
ATOM     33  C   UNL     1      -6.952   6.679   1.959  1.00  0.00     0.031 A 
ATOM     34  C   UNL     1      -7.009   7.253   0.558  1.00  0.00     0.074 A 
ATOM     35  C   UNL     1      -6.375   7.407   2.940  1.00  0.00     0.049 A 
ATOM     36  N   UNL     1      -6.580   8.414   0.124  1.00  0.00    -0.248 NA
ATOM     37  C   UNL     1      -7.577   6.406  -0.505  1.00  0.00     0.031 C 
ATOM     38  C   UNL     1      -6.162   6.957   4.317  1.00  0.00     0.029 A 
ATOM     39  N   UNL     1      -5.881   8.690   2.935  1.00  0.00    -0.354 N 
ATOM     40  C   UNL     1      -6.787   8.408  -1.252  1.00  0.00     0.074 A 
ATOM     41  C   UNL     1      -7.313   7.109  -1.595  1.00  0.00     0.031 C 
ATOM     42  C   UNL     1      -5.664   7.971   5.041  1.00  0.00     0.029 A 
ATOM     43  C   UNL     1      -5.473   9.129   4.174  1.00  0.00     0.049 A 
ATOM     44  H   UNL     1      -5.824   9.243   2.123  1.00  0.00     0.167 HD
ATOM     45  C   UNL     1      -6.606   9.405  -2.150  1.00  0.00     0.031 A 
ATOM     46  C   UNL     1      -5.014  10.331   4.578  1.00  0.00     0.031 A 
ATOM     47  C   UNL     1      -6.164  10.728  -1.806  1.00  0.00     0.049 A 
ATOM     48  C   UNL     1      -4.891  11.449   3.582  1.00  0.00     0.074 A 
ATOM     49  C   UNL     1      -6.044  11.833  -2.631  1.00  0.00     0.029 A 
ATOM     50  N   UNL     1      -5.795  11.131  -0.534  1.00  0.00    -0.354 N 
ATOM     51  N   UNL     1      -5.167  11.443   2.301  1.00  0.00    -0.248 NA
ATOM     52  C   UNL     1      -4.404  12.743   4.085  1.00  0.00     0.031 C 
ATOM     53  C   UNL     1      -5.564  12.896  -1.865  1.00  0.00     0.029 A 
ATOM     54  C   UNL     1      -5.439  12.468  -0.554  1.00  0.00     0.049 A 
ATOM     55  H   UNL     1      -5.787  10.554   0.264  1.00  0.00     0.167 HD
ATOM     56  C   UNL     1      -4.908  12.731   1.850  1.00  0.00     0.074 A 
ATOM     57  C   UNL     1      -4.469  13.499   2.996  1.00  0.00     0.031 C 
ATOM     58  C   UNL     1      -5.020  13.227   0.595  1.00  0.00     0.031 A 
BRANCH  45  59
ATOM     59  C   UNL     1      -6.932   9.131  -3.594  1.00  0.00    -0.014 A 
ATOM     60  C   UNL     1      -5.912   9.145  -4.559  1.00  0.00     0.009 A 
ATOM     61  C   UNL     1      -8.260   8.952  -4.014  1.00  0.00     0.009 A 
ATOM     62  C   UNL     1      -6.216   8.990  -5.914  1.00  0.00     0.001 A 
ATOM     63  C   UNL     1      -8.557   8.764  -5.365  1.00  0.00     0.001 A 
ATOM     64  C   UNL     1      -7.536   8.793  -6.315  1.00  0.00     0.000 A 
ENDBRANCH  45  59
BRANCH  46  65
ATOM     65  C   UNL     1      -4.705  10.550   6.017  1.00  0.00    -0.014 A 
ATOM     66  C   UNL     1      -3.597   9.933   6.620  1.00  0.00     0.009 A 
ATOM     67  C   UNL     1      -5.551  11.342   6.809  1.00  0.00     0.009 A 
ATOM     68  C   UNL     1      -3.356  10.088   7.988  1.00  0.00     0.001 A 
ATOM     69  C   UNL     1      -5.292  11.518   8.170  1.00  0.00     0.001 A 
ATOM     70  C   UNL     1      -4.200  10.883   8.760  1.00  0.00     0.000 A 
ENDBRANCH  46  65
BRANCH  58  71
ATOM     71  C   UNL     1      -4.689  14.674   0.369  1.00  0.00    -0.014 A 
ATOM     72  C   UNL     1      -5.714  15.578   0.045  1.00  0.00     0.009 A 
ATOM     73  C   UNL     1      -3.357  15.111   0.337  1.00  0.00     0.009 A 
ATOM     74  C   UNL     1      -5.410  16.887  -0.330  1.00  0.00     0.001 A 
ATOM     75  C   UNL     1      -3.058  16.429  -0.014  1.00  0.00     0.001 A 
ATOM     76  C   UNL     1      -4.083  17.311  -0.358  1.00  0.00     0.000 A 
ENDBRANCH  58  71
ENDBRANCH  32  33
ENDBRANCH  25  27
ENDBRANCH  24  25
ENDBRANCH   1  24
TORSDOF 13
