REMARK SMILES CC1=C(C(=O)OCCOC(=O)c2ccc(-c3c4nc(c(-c5ccccc5)c5ccc([nH]5)c(-c5ccccc5)c5nc(c(-c6ccccc6)c6ccc3[nH]6)C=C5)C=C4)cc2)N2C(=O)[C@H](NC(=O)c3cc(C(F)(F)F)nn3C)[C@@H]2SC1
REMARK SMILES IDX 7 1 6 2 4 3 5 4 3 5 1 6 2 7 79 8 60 9 78 10 61 11 77 12
REMARK SMILES IDX 62 13 63 14 64 15 65 16 66 18 67 19 68 20 75 21 69 22 74 23
REMARK SMILES IDX 76 24 70 25 71 26 72 27 73 28 8 29 9 30 10 31 11 32 12 33
REMARK SMILES IDX 13 34 59 35 14 36 58 37 15 38 16 39 17 40 52 41 18 42 57 43
REMARK SMILES IDX 51 44 53 45 19 46 56 47 50 48 49 49 20 51 42 52 27 53 41 54
REMARK SMILES IDX 28 55 31 56 40 57 54 58 29 59 30 60 39 62 55 63 32 64 21 65
REMARK SMILES IDX 22 66 26 67 23 68 25 69 24 70 43 71 44 72 48 73 45 74 47 75
REMARK SMILES IDX 46 76 33 77 34 78 38 79 35 80 37 81 36 82
REMARK H PARENT 64 17 53 50 31 61
REMARK Flexibility Score: inf
ROOT
ATOM      1  C   UNL     1      -0.282  -3.476   0.461  1.00  0.00     0.275 C 
ENDROOT
BRANCH   1   2
ATOM      2  O   UNL     1       0.021  -2.132   0.897  1.00  0.00    -0.457 OA
BRANCH   2   3
ATOM      3  C   UNL     1      -1.025  -1.353   1.287  1.00  0.00     0.355 C 
ATOM      4  O   UNL     1      -2.187  -1.718   1.349  1.00  0.00    -0.244 OA
BRANCH   3   5
ATOM      5  C   UNL     1      -0.535   0.006   1.732  1.00  0.00     0.131 C 
ATOM      6  C   UNL     1       0.987   0.317  -0.285  1.00  0.00     0.043 C 
ATOM      7  C   UNL     1       0.367   0.741   1.028  1.00  0.00    -0.032 C 
ATOM      8  C   UNL     1       0.840   2.134   1.436  1.00  0.00     0.105 C 
ATOM      9  N   UNL     1      -1.045   0.517   2.892  1.00  0.00    -0.289 N 
ATOM     10  S   UNL     1      -0.229   2.985   2.641  1.00  0.00    -0.129 SA
ATOM     11  C   UNL     1      -2.076   0.320   3.742  1.00  0.00     0.253 C 
ATOM     12  C   UNL     1      -0.359   1.522   3.678  1.00  0.00     0.181 C 
ATOM     13  O   UNL     1      -3.028  -0.419   3.760  1.00  0.00    -0.272 OA
ATOM     14  C   UNL     1      -1.513   1.415   4.702  1.00  0.00     0.206 C 
BRANCH  14  15
ATOM     15  N   UNL     1      -2.404   2.573   4.945  1.00  0.00    -0.336 N 
ATOM     16  C   UNL     1      -2.860   3.036   6.159  1.00  0.00     0.270 C 
ATOM     17  H   UNL     1      -2.703   3.068   4.148  1.00  0.00     0.164 HD
ATOM     18  O   UNL     1      -3.858   3.752   6.171  1.00  0.00    -0.268 OA
BRANCH  16  19
ATOM     19  C   UNL     1      -2.143   2.675   7.358  1.00  0.00     0.126 A 
ATOM     20  C   UNL     1      -0.781   2.667   7.611  1.00  0.00     0.069 A 
ATOM     21  N   UNL     1      -2.720   2.361   8.565  1.00  0.00    -0.262 N 
ATOM     22  C   UNL     1      -0.625   2.327   8.981  1.00  0.00     0.167 A 
ATOM     23  N   UNL     1      -1.826   2.136   9.550  1.00  0.00    -0.168 NA
ATOM     24  C   UNL     1      -4.123   2.223   8.884  1.00  0.00     0.174 C 
BRANCH  22  25
ATOM     25  C   UNL     1       0.671   2.215   9.741  1.00  0.00     0.435 C 
ATOM     26  F   UNL     1       0.802   3.165  10.704  1.00  0.00    -0.164 F 
ATOM     27  F   UNL     1       0.841   1.006  10.338  1.00  0.00    -0.164 F 
ATOM     28  F   UNL     1       1.742   2.372   8.908  1.00  0.00    -0.164 F 
ENDBRANCH  22  25
ENDBRANCH  16  19
ENDBRANCH  14  15
ENDBRANCH   3   5
ENDBRANCH   2   3
ENDBRANCH   1   2
BRANCH   1  29
ATOM     29  C   UNL     1       0.602  -4.490   1.193  1.00  0.00     0.275 C 
BRANCH  29  30
ATOM     30  O   UNL     1       0.252  -4.552   2.589  1.00  0.00    -0.458 OA
BRANCH  30  31
ATOM     31  C   UNL     1       0.957  -3.719   3.385  1.00  0.00     0.338 C 
ATOM     32  O   UNL     1       1.902  -3.011   3.078  1.00  0.00    -0.246 OA
BRANCH  31  33
ATOM     33  C   UNL     1       0.267  -3.585   4.675  1.00  0.00     0.060 A 
ATOM     34  C   UNL     1      -0.355  -2.362   4.905  1.00  0.00     0.016 A 
ATOM     35  C   UNL     1       0.286  -4.562   5.666  1.00  0.00     0.016 A 
ATOM     36  C   UNL     1      -0.949  -2.090   6.129  1.00  0.00     0.010 A 
ATOM     37  C   UNL     1      -0.322  -4.290   6.903  1.00  0.00     0.010 A 
ATOM     38  C   UNL     1      -0.930  -3.043   7.148  1.00  0.00    -0.014 A 
BRANCH  38  39
ATOM     39  C   UNL     1      -1.472  -2.669   8.480  1.00  0.00     0.031 A 
ATOM     40  C   UNL     1      -0.532  -2.487   9.640  1.00  0.00     0.074 A 
ATOM     41  C   UNL     1      -2.783  -2.398   8.638  1.00  0.00     0.049 A 
ATOM     42  N   UNL     1      -0.804  -2.253  10.899  1.00  0.00    -0.248 NA
ATOM     43  C   UNL     1       0.905  -2.575   9.339  1.00  0.00     0.031 C 
ATOM     44  C   UNL     1      -3.791  -2.421   7.577  1.00  0.00     0.029 A 
ATOM     45  N   UNL     1      -3.489  -2.038   9.760  1.00  0.00    -0.354 N 
ATOM     46  C   UNL     1       0.425  -2.187  11.543  1.00  0.00     0.074 A 
ATOM     47  C   UNL     1       1.441  -2.432  10.542  1.00  0.00     0.031 C 
ATOM     48  C   UNL     1      -4.983  -2.090   8.099  1.00  0.00     0.029 A 
ATOM     49  C   UNL     1      -4.838  -1.900   9.538  1.00  0.00     0.049 A 
ATOM     50  H   UNL     1      -3.069  -1.892  10.638  1.00  0.00     0.167 HD
ATOM     51  C   UNL     1       0.686  -1.947  12.851  1.00  0.00     0.031 A 
ATOM     52  C   UNL     1      -5.849  -1.687  10.402  1.00  0.00     0.031 A 
ATOM     53  C   UNL     1      -0.323  -1.697  13.846  1.00  0.00     0.049 A 
ATOM     54  C   UNL     1      -5.547  -1.552  11.870  1.00  0.00     0.074 A 
ATOM     55  C   UNL     1      -0.161  -1.472  15.203  1.00  0.00     0.029 A 
ATOM     56  N   UNL     1      -1.684  -1.632  13.591  1.00  0.00    -0.354 N 
ATOM     57  N   UNL     1      -4.387  -1.546  12.479  1.00  0.00    -0.248 NA
ATOM     58  C   UNL     1      -6.699  -1.397  12.770  1.00  0.00     0.031 C 
ATOM     59  C   UNL     1      -1.429  -1.342  15.779  1.00  0.00     0.029 A 
ATOM     60  C   UNL     1      -2.376  -1.410  14.770  1.00  0.00     0.049 A 
ATOM     61  H   UNL     1      -2.098  -1.728  12.702  1.00  0.00     0.167 HD
ATOM     62  C   UNL     1      -4.666  -1.353  13.827  1.00  0.00     0.074 A 
ATOM     63  C   UNL     1      -6.104  -1.231  13.943  1.00  0.00     0.031 C 
ATOM     64  C   UNL     1      -3.807  -1.285  14.874  1.00  0.00     0.031 A 
BRANCH  51  65
ATOM     65  C   UNL     1       2.122  -2.013  13.292  1.00  0.00    -0.014 A 
ATOM     66  C   UNL     1       3.054  -1.027  12.929  1.00  0.00     0.009 A 
ATOM     67  C   UNL     1       2.543  -3.078  14.104  1.00  0.00     0.009 A 
ATOM     68  C   UNL     1       4.386  -1.130  13.339  1.00  0.00     0.001 A 
ATOM     69  C   UNL     1       3.867  -3.161  14.540  1.00  0.00     0.001 A 
ATOM     70  C   UNL     1       4.789  -2.193  14.147  1.00  0.00     0.000 A 
ENDBRANCH  51  65
BRANCH  52  71
ATOM     71  C   UNL     1      -7.256  -1.651   9.916  1.00  0.00    -0.014 A 
ATOM     72  C   UNL     1      -8.019  -0.477  10.004  1.00  0.00     0.009 A 
ATOM     73  C   UNL     1      -7.855  -2.809   9.394  1.00  0.00     0.009 A 
ATOM     74  C   UNL     1      -9.359  -0.473   9.607  1.00  0.00     0.001 A 
ATOM     75  C   UNL     1      -9.183  -2.792   8.964  1.00  0.00     0.001 A 
ATOM     76  C   UNL     1      -9.938  -1.628   9.083  1.00  0.00     0.000 A 
ENDBRANCH  52  71
BRANCH  64  77
ATOM     77  C   UNL     1      -4.396  -1.016  16.232  1.00  0.00    -0.014 A 
ATOM     78  C   UNL     1      -5.166  -1.977  16.905  1.00  0.00     0.009 A 
ATOM     79  C   UNL     1      -4.145   0.214  16.862  1.00  0.00     0.009 A 
ATOM     80  C   UNL     1      -5.705  -1.696  18.163  1.00  0.00     0.001 A 
ATOM     81  C   UNL     1      -4.656   0.479  18.133  1.00  0.00     0.001 A 
ATOM     82  C   UNL     1      -5.446  -0.471  18.777  1.00  0.00     0.000 A 
ENDBRANCH  64  77
ENDBRANCH  38  39
ENDBRANCH  31  33
ENDBRANCH  30  31
ENDBRANCH  29  30
ENDBRANCH   1  29
TORSDOF 14
