REMARK SMILES C=CC[NH2+][C@@H](C(=O)OCCOC(=O)c1ccc(-c2c3nc(c(-c4ccccc4)c4ccc([nH]4)c(-c4ccccc4)c4nc(c(-c5ccccc5)c5ccc2[nH]5)C=C4)C=C3)cc1)c1ccc(CC(C)C)cc1
REMARK SMILES IDX 9 1 8 2 6 3 7 4 5 5 4 6 3 9 2 10 1 11 62 12 63 13 71 14
REMARK SMILES IDX 64 15 70 16 65 17 66 18 67 19 68 20 69 21 10 22 11 23 12 24
REMARK SMILES IDX 13 25 14 26 15 27 61 28 16 29 60 30 17 31 18 32 19 33 54 34
REMARK SMILES IDX 20 35 59 36 53 37 55 38 21 39 58 40 52 41 51 42 22 44 44 45
REMARK SMILES IDX 29 46 43 47 30 48 33 49 42 50 56 51 31 52 32 53 41 55 57 56
REMARK SMILES IDX 34 57 23 58 24 59 28 60 25 61 27 62 26 63 45 64 46 65 50 66
REMARK SMILES IDX 47 67 49 68 48 69 35 70 36 71 40 72 37 73 39 74 38 75
REMARK H PARENT 4 7 4 8 55 43 33 54
REMARK Flexibility Score: inf
ROOT
ATOM      1  C   UNL     1      -3.866   1.331  -1.048  1.00  0.00     0.274 C 
ENDROOT
BRANCH   1   2
ATOM      2  O   UNL     1      -3.192   0.212  -0.442  1.00  0.00    -0.457 OA
BRANCH   2   3
ATOM      3  C   UNL     1      -3.945  -0.859  -0.053  1.00  0.00     0.369 C 
ATOM      4  O   UNL     1      -5.169  -0.869  -0.124  1.00  0.00    -0.245 OA
BRANCH   3   5
ATOM      5  C   UNL     1      -3.070  -2.031   0.522  1.00  0.00     0.325 C 
BRANCH   5   6
ATOM      6  N   UNL     1      -1.631  -1.848   0.191  1.00  0.00    -0.327 N 
ATOM      7  H   UNL     1      -1.175  -2.759   0.237  1.00  0.00     0.347 HD
ATOM      8  H   UNL     1      -1.599  -1.432  -0.740  1.00  0.00     0.347 HD
BRANCH   6   9
ATOM      9  C   UNL     1      -0.920  -0.939   1.074  1.00  0.00     0.289 C 
BRANCH   9  10
ATOM     10  C   UNL     1       0.540  -1.031   0.748  1.00  0.00     0.025 C 
ATOM     11  C   UNL     1       1.261  -0.056   0.179  1.00  0.00     0.010 C 
ENDBRANCH   9  10
ENDBRANCH   6   9
ENDBRANCH   5   6
BRANCH   5  12
ATOM     12  C   UNL     1      -3.551  -3.420   0.045  1.00  0.00     0.021 A 
ATOM     13  C   UNL     1      -4.904  -3.796   0.096  1.00  0.00     0.011 A 
ATOM     14  C   UNL     1      -2.654  -4.377  -0.454  1.00  0.00     0.011 A 
ATOM     15  C   UNL     1      -5.357  -5.006  -0.464  1.00  0.00     0.004 A 
ATOM     16  C   UNL     1      -3.104  -5.582  -1.005  1.00  0.00     0.004 A 
ATOM     17  C   UNL     1      -4.470  -5.898  -1.065  1.00  0.00    -0.048 A 
BRANCH  17  18
ATOM     18  C   UNL     1      -4.858  -7.115  -1.879  1.00  0.00     0.038 C 
BRANCH  18  19
ATOM     19  C   UNL     1      -6.233  -7.804  -1.729  1.00  0.00    -0.013 C 
ATOM     20  C   UNL     1      -7.402  -6.995  -2.297  1.00  0.00     0.008 C 
ATOM     21  C   UNL     1      -6.179  -9.143  -2.488  1.00  0.00     0.008 C 
ENDBRANCH  18  19
ENDBRANCH  17  18
ENDBRANCH   5  12
ENDBRANCH   3   5
ENDBRANCH   2   3
ENDBRANCH   1   2
BRANCH   1  22
ATOM     22  C   UNL     1      -3.372   1.520  -2.483  1.00  0.00     0.275 C 
BRANCH  22  23
ATOM     23  O   UNL     1      -3.864   0.468  -3.333  1.00  0.00    -0.458 OA
BRANCH  23  24
ATOM     24  C   UNL     1      -3.067  -0.620  -3.422  1.00  0.00     0.338 C 
ATOM     25  O   UNL     1      -1.976  -0.794  -2.902  1.00  0.00    -0.246 OA
BRANCH  24  26
ATOM     26  C   UNL     1      -3.778  -1.663  -4.167  1.00  0.00     0.060 A 
ATOM     27  C   UNL     1      -4.487  -2.614  -3.439  1.00  0.00     0.016 A 
ATOM     28  C   UNL     1      -3.668  -1.765  -5.553  1.00  0.00     0.016 A 
ATOM     29  C   UNL     1      -5.044  -3.712  -4.087  1.00  0.00     0.010 A 
ATOM     30  C   UNL     1      -4.269  -2.848  -6.207  1.00  0.00     0.010 A 
ATOM     31  C   UNL     1      -4.937  -3.847  -5.476  1.00  0.00    -0.014 A 
BRANCH  31  32
ATOM     32  C   UNL     1      -5.451  -5.070  -6.149  1.00  0.00     0.031 A 
ATOM     33  C   UNL     1      -4.488  -6.005  -6.827  1.00  0.00     0.074 A 
ATOM     34  C   UNL     1      -6.761  -5.381  -6.119  1.00  0.00     0.049 A 
ATOM     35  N   UNL     1      -4.738  -7.006  -7.634  1.00  0.00    -0.248 NA
ATOM     36  C   UNL     1      -3.056  -5.779  -6.573  1.00  0.00     0.031 C 
ATOM     37  C   UNL     1      -7.799  -4.628  -5.413  1.00  0.00     0.029 A 
ATOM     38  N   UNL     1      -7.438  -6.439  -6.674  1.00  0.00    -0.354 N 
ATOM     39  C   UNL     1      -3.497  -7.473  -8.047  1.00  0.00     0.074 A 
ATOM     40  C   UNL     1      -2.496  -6.673  -7.376  1.00  0.00     0.031 C 
ATOM     41  C   UNL     1      -8.966  -5.285  -5.522  1.00  0.00     0.029 A 
ATOM     42  C   UNL     1      -8.780  -6.449  -6.383  1.00  0.00     0.049 A 
ATOM     43  H   UNL     1      -7.002  -7.127  -7.228  1.00  0.00     0.167 HD
ATOM     44  C   UNL     1      -3.221  -8.463  -8.930  1.00  0.00     0.031 A 
ATOM     45  C   UNL     1      -9.758  -7.281  -6.792  1.00  0.00     0.031 A 
ATOM     46  C   UNL     1      -4.217  -9.287  -9.559  1.00  0.00     0.049 A 
ATOM     47  C   UNL     1      -9.433  -8.366  -7.780  1.00  0.00     0.074 A 
ATOM     48  C   UNL     1      -4.046 -10.276 -10.513  1.00  0.00     0.029 A 
ATOM     49  N   UNL     1      -5.571  -9.237  -9.272  1.00  0.00    -0.354 N 
ATOM     50  N   UNL     1      -8.270  -8.713  -8.274  1.00  0.00    -0.248 NA
ATOM     51  C   UNL     1     -10.565  -9.149  -8.299  1.00  0.00     0.031 C 
ATOM     52  C   UNL     1      -5.302 -10.810 -10.819  1.00  0.00     0.029 A 
ATOM     53  C   UNL     1      -6.248 -10.178 -10.028  1.00  0.00     0.049 A 
ATOM     54  H   UNL     1      -5.990  -8.623  -8.627  1.00  0.00     0.167 HD
ATOM     55  C   UNL     1      -8.529  -9.745  -9.165  1.00  0.00     0.074 A 
ATOM     56  C   UNL     1      -9.955  -9.993  -9.121  1.00  0.00     0.031 C 
ATOM     57  C   UNL     1      -7.665 -10.415  -9.964  1.00  0.00     0.031 A 
BRANCH  44  58
ATOM     58  C   UNL     1      -1.787  -8.654  -9.325  1.00  0.00    -0.014 A 
ATOM     59  C   UNL     1      -0.868  -9.301  -8.486  1.00  0.00     0.009 A 
ATOM     60  C   UNL     1      -1.359  -8.196 -10.582  1.00  0.00     0.009 A 
ATOM     61  C   UNL     1       0.460  -9.460  -8.890  1.00  0.00     0.001 A 
ATOM     62  C   UNL     1      -0.037  -8.376 -10.991  1.00  0.00     0.001 A 
ATOM     63  C   UNL     1       0.873  -9.001 -10.141  1.00  0.00     0.000 A 
ENDBRANCH  44  58
BRANCH  45  64
ATOM     64  C   UNL     1     -11.151  -7.091  -6.310  1.00  0.00    -0.014 A 
ATOM     65  C   UNL     1     -11.736  -8.033  -5.450  1.00  0.00     0.009 A 
ATOM     66  C   UNL     1     -11.904  -5.975  -6.708  1.00  0.00     0.009 A 
ATOM     67  C   UNL     1     -13.051  -7.865  -5.008  1.00  0.00     0.001 A 
ATOM     68  C   UNL     1     -13.207  -5.796  -6.241  1.00  0.00     0.001 A 
ATOM     69  C   UNL     1     -13.782  -6.744  -5.398  1.00  0.00     0.000 A 
ENDBRANCH  45  64
BRANCH  57  70
ATOM     70  C   UNL     1      -8.231 -11.489 -10.844  1.00  0.00    -0.014 A 
ATOM     71  C   UNL     1      -8.901 -11.165 -12.034  1.00  0.00     0.009 A 
ATOM     72  C   UNL     1      -8.033 -12.838 -10.514  1.00  0.00     0.009 A 
ATOM     73  C   UNL     1      -9.378 -12.177 -12.869  1.00  0.00     0.001 A 
ATOM     74  C   UNL     1      -8.497 -13.846 -11.360  1.00  0.00     0.001 A 
ATOM     75  C   UNL     1      -9.172 -13.515 -12.534  1.00  0.00     0.000 A 
ENDBRANCH  57  70
ENDBRANCH  31  32
ENDBRANCH  24  26
ENDBRANCH  23  24
ENDBRANCH  22  23
ENDBRANCH   1  22
TORSDOF 17
