REMARK SMILES O=C(CSc1nc(-c2cccc(F)c2)n[nH]1)OCCOC(=O)c1ccc(-c2c3nc(c(-c4ccccc4)c4ccc([nH]4)c(-c4ccccc4)c4nc(c(-c5ccccc5)c5ccc2[nH]5)C=C4)C=C3)cc1
REMARK SMILES IDX 18 1 17 2 2 3 1 4 3 5 4 6 5 7 6 8 16 9 7 10 15 11 8 13 9 14
REMARK SMILES IDX 14 15 10 16 12 17 11 18 13 19 19 20 20 21 21 22 22 23 23 24
REMARK SMILES IDX 24 25 70 26 25 27 69 28 26 29 27 30 28 31 63 32 29 33 68 34
REMARK SMILES IDX 62 35 64 36 30 37 67 38 61 39 60 40 31 42 53 43 38 44 52 45
REMARK SMILES IDX 39 46 42 47 51 48 65 49 40 50 41 51 50 53 66 54 43 55 32 56
REMARK SMILES IDX 33 57 37 58 34 59 36 60 35 61 54 62 55 63 59 64 56 65 58 66
REMARK SMILES IDX 57 67 44 68 45 69 49 70 46 71 48 72 47 73
REMARK H PARENT 16 12 64 41 42 52
REMARK Flexibility Score: inf
ROOT
ATOM      1  C   UNL     1       4.623  -0.579  -0.793  1.00  0.00     0.274 C 
ENDROOT
BRANCH   1   2
ATOM      2  O   UNL     1       3.306  -0.811  -0.246  1.00  0.00    -0.461 OA
BRANCH   2   3
ATOM      3  C   UNL     1       2.713  -0.060   0.715  1.00  0.00     0.316 C 
ATOM      4  O   UNL     1       1.543  -0.278   1.026  1.00  0.00    -0.251 OA
BRANCH   3   5
ATOM      5  C   UNL     1       3.531   0.984   1.440  1.00  0.00     0.200 C 
BRANCH   5   6
ATOM      6  S   UNL     1       4.501   0.203   2.756  1.00  0.00    -0.075 SA
BRANCH   6   7
ATOM      7  C   UNL     1       3.242  -0.119   3.877  1.00  0.00     0.184 A 
ATOM      8  N   UNL     1       2.488   0.744   4.505  1.00  0.00    -0.201 NA
ATOM      9  N   UNL     1       2.923  -1.384   4.249  1.00  0.00    -0.254 N 
ATOM     10  C   UNL     1       1.744  -0.062   5.338  1.00  0.00     0.182 A 
ATOM     11  N   UNL     1       1.996  -1.376   5.218  1.00  0.00    -0.153 NA
ATOM     12  H   UNL     1       3.318  -2.197   3.859  1.00  0.00     0.192 HD
BRANCH  10  13
ATOM     13  C   UNL     1       0.840   0.481   6.330  1.00  0.00     0.024 A 
ATOM     14  C   UNL     1      -0.262   1.258   5.949  1.00  0.00     0.012 A 
ATOM     15  C   UNL     1       1.078   0.229   7.685  1.00  0.00     0.051 A 
ATOM     16  C   UNL     1      -1.129   1.769   6.920  1.00  0.00     0.004 A 
ATOM     17  C   UNL     1       0.219   0.755   8.640  1.00  0.00     0.123 A 
ATOM     18  C   UNL     1      -0.884   1.518   8.270  1.00  0.00     0.039 A 
ATOM     19  F   UNL     1       0.458   0.526   9.938  1.00  0.00    -0.207 F 
ENDBRANCH  10  13
ENDBRANCH   6   7
ENDBRANCH   5   6
ENDBRANCH   3   5
ENDBRANCH   2   3
ENDBRANCH   1   2
BRANCH   1  20
ATOM     20  C   UNL     1       4.554   0.285  -2.052  1.00  0.00     0.275 C 
BRANCH  20  21
ATOM     21  O   UNL     1       4.059   1.597  -1.721  1.00  0.00    -0.458 OA
BRANCH  21  22
ATOM     22  C   UNL     1       2.742   1.804  -1.976  1.00  0.00     0.338 C 
ATOM     23  O   UNL     1       1.983   1.044  -2.551  1.00  0.00    -0.246 OA
BRANCH  22  24
ATOM     24  C   UNL     1       2.298   3.034  -1.282  1.00  0.00     0.060 A 
ATOM     25  C   UNL     1       1.026   3.033  -0.697  1.00  0.00     0.016 A 
ATOM     26  C   UNL     1       3.111   4.169  -1.190  1.00  0.00     0.016 A 
ATOM     27  C   UNL     1       0.553   4.175  -0.050  1.00  0.00     0.010 A 
ATOM     28  C   UNL     1       2.636   5.312  -0.537  1.00  0.00     0.010 A 
ATOM     29  C   UNL     1       1.345   5.330   0.015  1.00  0.00    -0.014 A 
BRANCH  29  30
ATOM     30  C   UNL     1       0.781   6.581   0.581  1.00  0.00     0.031 A 
ATOM     31  C   UNL     1       0.264   7.648  -0.345  1.00  0.00     0.074 A 
ATOM     32  C   UNL     1       0.704   6.758   1.913  1.00  0.00     0.049 A 
ATOM     33  N   UNL     1      -0.307   8.790  -0.054  1.00  0.00    -0.248 NA
ATOM     34  C   UNL     1       0.408   7.395  -1.788  1.00  0.00     0.031 C 
ATOM     35  C   UNL     1       1.153   5.803   2.925  1.00  0.00     0.029 A 
ATOM     36  N   UNL     1       0.212   7.814   2.640  1.00  0.00    -0.354 N 
ATOM     37  C   UNL     1      -0.606   9.383  -1.274  1.00  0.00     0.074 A 
ATOM     38  C   UNL     1      -0.113   8.498  -2.308  1.00  0.00     0.031 C 
ATOM     39  C   UNL     1       0.916   6.318   4.145  1.00  0.00     0.029 A 
ATOM     40  C   UNL     1       0.315   7.642   3.999  1.00  0.00     0.049 A 
ATOM     41  H   UNL     1      -0.178   8.618   2.227  1.00  0.00     0.167 HD
ATOM     42  C   UNL     1      -1.249  10.550  -1.517  1.00  0.00     0.031 A 
ATOM     43  C   UNL     1      -0.033   8.461   5.010  1.00  0.00     0.031 A 
ATOM     44  C   UNL     1      -1.725  11.450  -0.501  1.00  0.00     0.049 A 
ATOM     45  C   UNL     1      -0.677   9.789   4.710  1.00  0.00     0.074 A 
ATOM     46  C   UNL     1      -2.401  12.648  -0.658  1.00  0.00     0.029 A 
ATOM     47  N   UNL     1      -1.568  11.256   0.861  1.00  0.00    -0.354 N 
ATOM     48  N   UNL     1      -1.005  10.309   3.552  1.00  0.00    -0.248 NA
ATOM     49  C   UNL     1      -1.014  10.636   5.865  1.00  0.00     0.031 C 
ATOM     50  C   UNL     1      -2.610  13.204   0.609  1.00  0.00     0.029 A 
ATOM     51  C   UNL     1      -2.110  12.325   1.555  1.00  0.00     0.049 A 
ATOM     52  H   UNL     1      -1.135  10.474   1.275  1.00  0.00     0.167 HD
ATOM     53  C   UNL     1      -1.612  11.525   3.842  1.00  0.00     0.074 A 
ATOM     54  C   UNL     1      -1.623  11.659   5.283  1.00  0.00     0.031 C 
ATOM     55  C   UNL     1      -2.116  12.450   2.989  1.00  0.00     0.031 A 
BRANCH  42  56
ATOM     56  C   UNL     1      -1.471  10.929  -2.953  1.00  0.00    -0.014 A 
ATOM     57  C   UNL     1      -2.440  10.273  -3.729  1.00  0.00     0.009 A 
ATOM     58  C   UNL     1      -0.744  11.986  -3.521  1.00  0.00     0.009 A 
ATOM     59  C   UNL     1      -2.659  10.654  -5.054  1.00  0.00     0.001 A 
ATOM     60  C   UNL     1      -0.982  12.379  -4.839  1.00  0.00     0.001 A 
ATOM     61  C   UNL     1      -1.934  11.710  -5.606  1.00  0.00     0.000 A 
ENDBRANCH  42  56
BRANCH  43  62
ATOM     62  C   UNL     1       0.225   8.064   6.419  1.00  0.00    -0.014 A 
ATOM     63  C   UNL     1      -0.838   7.762   7.284  1.00  0.00     0.009 A 
ATOM     64  C   UNL     1       1.536   8.040   6.919  1.00  0.00     0.009 A 
ATOM     65  C   UNL     1      -0.595   7.481   8.630  1.00  0.00     0.001 A 
ATOM     66  C   UNL     1       1.778   7.731   8.258  1.00  0.00     0.001 A 
ATOM     67  C   UNL     1       0.712   7.464   9.116  1.00  0.00     0.000 A 
ENDBRANCH  43  62
BRANCH  55  68
ATOM     68  C   UNL     1      -2.751  13.671   3.593  1.00  0.00    -0.014 A 
ATOM     69  C   UNL     1      -1.976  14.671   4.202  1.00  0.00     0.009 A 
ATOM     70  C   UNL     1      -4.144  13.836   3.528  1.00  0.00     0.009 A 
ATOM     71  C   UNL     1      -2.588  15.792   4.767  1.00  0.00     0.001 A 
ATOM     72  C   UNL     1      -4.750  14.972   4.069  1.00  0.00     0.001 A 
ATOM     73  C   UNL     1      -3.972  15.943   4.697  1.00  0.00     0.000 A 
ENDBRANCH  55  68
ENDBRANCH  29  30
ENDBRANCH  22  24
ENDBRANCH  21  22
ENDBRANCH  20  21
ENDBRANCH   1  20
TORSDOF 14
