REMARK SMILES C[NH2+][C@@]1(C(=O)OCCOC(=O)c2ccc(-c3c4nc(c(-c5ccccc5)c5ccc([nH]5)c(-c5ccccc5)c5nc(c(-c6ccccc6)c6ccc3[nH]6)C=C5)C=C4)cc2)CCC[C@H]([N@H+](C)C2CC[NH+](C)CC2)C1
REMARK SMILES IDX 7 1 6 2 4 3 5 4 3 5 60 6 73 7 61 8 63 9 62 10 2 11 1 12
REMARK SMILES IDX 64 15 65 16 66 18 67 19 72 20 68 21 71 22 69 23 70 24 8 26
REMARK SMILES IDX 9 27 10 28 11 29 12 30 13 31 59 32 14 33 58 34 15 35 16 36
REMARK SMILES IDX 17 37 52 38 18 39 57 40 51 41 53 42 19 43 56 44 50 45 49 46
REMARK SMILES IDX 20 48 42 49 27 50 41 51 28 52 31 53 40 54 54 55 29 56 30 57
REMARK SMILES IDX 39 59 55 60 32 61 21 62 22 63 26 64 23 65 25 66 24 67 43 68
REMARK SMILES IDX 44 69 48 70 45 71 47 72 46 73 33 74 34 75 38 76 35 77 37 78
REMARK SMILES IDX 36 79
REMARK H PARENT 2 13 2 14 64 17 69 25 53 47 31 58
REMARK Flexibility Score: inf
ROOT
ATOM      1  C   UNL     1      -1.790  -1.312  -3.259  1.00  0.00     0.274 C 
ENDROOT
BRANCH   1   2
ATOM      2  O   UNL     1      -1.529  -0.923  -1.895  1.00  0.00    -0.457 OA
BRANCH   2   3
ATOM      3  C   UNL     1      -1.317  -1.971  -1.044  1.00  0.00     0.368 C 
ATOM      4  O   UNL     1      -1.222  -3.133  -1.432  1.00  0.00    -0.245 OA
BRANCH   3   5
ATOM      5  C   UNL     1      -1.018  -1.520   0.426  1.00  0.00     0.199 C 
ATOM      6  C   UNL     1      -1.319  -2.690   1.393  1.00  0.00     0.081 C 
ATOM      7  C   UNL     1      -1.836  -0.277   0.856  1.00  0.00     0.146 C 
ATOM      8  C   UNL     1      -2.805  -2.929   1.615  1.00  0.00     0.013 C 
ATOM      9  C   UNL     1      -3.378  -0.501   0.995  1.00  0.00     0.190 C 
ATOM     10  C   UNL     1      -3.537  -1.650   2.009  1.00  0.00     0.065 C 
BRANCH   5  11
ATOM     11  N   UNL     1       0.466  -1.367   0.566  1.00  0.00    -0.334 N 
ATOM     12  C   UNL     1       1.002  -0.025   0.650  1.00  0.00     0.331 C 
ATOM     13  H   UNL     1       0.743  -1.859   1.415  1.00  0.00     0.347 HD
ATOM     14  H   UNL     1       0.846  -1.741  -0.304  1.00  0.00     0.347 HD
ENDBRANCH   5  11
BRANCH   9  15
ATOM     15  N   UNL     1      -4.069  -0.574  -0.335  1.00  0.00    -0.332 N 
ATOM     16  C   UNL     1      -4.057   0.805  -0.901  1.00  0.00     0.333 C 
ATOM     17  H   UNL     1      -3.556  -1.266  -0.880  1.00  0.00     0.348 HD
BRANCH  15  18
ATOM     18  C   UNL     1      -5.492  -1.080  -0.341  1.00  0.00     0.195 C 
ATOM     19  C   UNL     1      -5.671  -2.603  -0.167  1.00  0.00     0.126 C 
ATOM     20  C   UNL     1      -6.265  -0.809  -1.671  1.00  0.00     0.126 C 
ATOM     21  C   UNL     1      -5.052  -3.384  -1.323  1.00  0.00     0.268 C 
ATOM     22  C   UNL     1      -5.692  -1.610  -2.850  1.00  0.00     0.268 C 
ATOM     23  N   UNL     1      -5.710  -3.056  -2.594  1.00  0.00    -0.337 N 
ATOM     24  C   UNL     1      -5.078  -3.804  -3.681  1.00  0.00     0.332 C 
ATOM     25  H   UNL     1      -6.691  -3.330  -2.537  1.00  0.00     0.347 HD
ENDBRANCH  15  18
ENDBRANCH   9  15
ENDBRANCH   3   5
ENDBRANCH   2   3
ENDBRANCH   1   2
BRANCH   1  26
ATOM     26  C   UNL     1      -2.008  -0.078  -4.139  1.00  0.00     0.275 C 
BRANCH  26  27
ATOM     27  O   UNL     1      -0.721   0.447  -4.499  1.00  0.00    -0.458 OA
BRANCH  27  28
ATOM     28  C   UNL     1      -0.181   1.270  -3.574  1.00  0.00     0.338 C 
ATOM     29  O   UNL     1      -0.747   1.951  -2.740  1.00  0.00    -0.246 OA
BRANCH  28  30
ATOM     30  C   UNL     1       1.246   0.942  -3.536  1.00  0.00     0.060 A 
ATOM     31  C   UNL     1       1.633  -0.078  -2.665  1.00  0.00     0.016 A 
ATOM     32  C   UNL     1       2.184   1.629  -4.295  1.00  0.00     0.016 A 
ATOM     33  C   UNL     1       2.972  -0.361  -2.463  1.00  0.00     0.010 A 
ATOM     34  C   UNL     1       3.532   1.301  -4.140  1.00  0.00     0.010 A 
ATOM     35  C   UNL     1       3.935   0.334  -3.195  1.00  0.00    -0.014 A 
BRANCH  35  36
ATOM     36  C   UNL     1       5.369   0.142  -2.891  1.00  0.00     0.031 A 
ATOM     37  C   UNL     1       6.145   1.304  -2.346  1.00  0.00     0.074 A 
ATOM     38  C   UNL     1       5.966  -1.050  -3.070  1.00  0.00     0.049 A 
ATOM     39  N   UNL     1       7.437   1.475  -2.273  1.00  0.00    -0.248 NA
ATOM     40  C   UNL     1       5.353   2.437  -1.835  1.00  0.00     0.031 C 
ATOM     41  C   UNL     1       5.300  -2.287  -3.482  1.00  0.00     0.029 A 
ATOM     42  N   UNL     1       7.281  -1.409  -2.928  1.00  0.00    -0.354 N 
ATOM     43  C   UNL     1       7.613   2.763  -1.786  1.00  0.00     0.074 A 
ATOM     44  C   UNL     1       6.298   3.323  -1.562  1.00  0.00     0.031 C 
ATOM     45  C   UNL     1       6.210  -3.271  -3.550  1.00  0.00     0.029 A 
ATOM     46  C   UNL     1       7.529  -2.713  -3.276  1.00  0.00     0.049 A 
ATOM     47  H   UNL     1       7.978  -0.792  -2.608  1.00  0.00     0.167 HD
ATOM     48  C   UNL     1       8.775   3.421  -1.567  1.00  0.00     0.031 A 
ATOM     49  C   UNL     1       8.697  -3.366  -3.419  1.00  0.00     0.031 A 
ATOM     50  C   UNL     1      10.071   2.829  -1.754  1.00  0.00     0.049 A 
ATOM     51  C   UNL     1       9.977  -2.610  -3.204  1.00  0.00     0.074 A 
ATOM     52  C   UNL     1      11.319   3.401  -1.586  1.00  0.00     0.029 A 
ATOM     53  N   UNL     1      10.280   1.510  -2.127  1.00  0.00    -0.354 N 
ATOM     54  N   UNL     1      10.147  -1.356  -2.858  1.00  0.00    -0.248 NA
ATOM     55  C   UNL     1      11.226  -3.352  -3.422  1.00  0.00     0.031 C 
ATOM     56  C   UNL     1      12.284   2.432  -1.884  1.00  0.00     0.029 A 
ATOM     57  C   UNL     1      11.636   1.247  -2.196  1.00  0.00     0.049 A 
ATOM     58  H   UNL     1       9.568   0.856  -2.316  1.00  0.00     0.167 HD
ATOM     59  C   UNL     1      11.520  -1.159  -2.812  1.00  0.00     0.074 A 
ATOM     60  C   UNL     1      12.136  -2.429  -3.144  1.00  0.00     0.031 C 
ATOM     61  C   UNL     1      12.212  -0.028  -2.531  1.00  0.00     0.031 A 
BRANCH  48  62
ATOM     62  C   UNL     1       8.683   4.865  -1.170  1.00  0.00    -0.014 A 
ATOM     63  C   UNL     1       8.271   5.255   0.114  1.00  0.00     0.009 A 
ATOM     64  C   UNL     1       9.013   5.856  -2.108  1.00  0.00     0.009 A 
ATOM     65  C   UNL     1       8.159   6.610   0.437  1.00  0.00     0.001 A 
ATOM     66  C   UNL     1       8.925   7.209  -1.774  1.00  0.00     0.001 A 
ATOM     67  C   UNL     1       8.489   7.584  -0.505  1.00  0.00     0.000 A 
ENDBRANCH  48  62
BRANCH  49  68
ATOM     68  C   UNL     1       8.703  -4.785  -3.856  1.00  0.00    -0.014 A 
ATOM     69  C   UNL     1       9.068  -5.805  -2.966  1.00  0.00     0.009 A 
ATOM     70  C   UNL     1       8.324  -5.129  -5.164  1.00  0.00     0.009 A 
ATOM     71  C   UNL     1       9.061  -7.140  -3.380  1.00  0.00     0.001 A 
ATOM     72  C   UNL     1       8.291  -6.465  -5.567  1.00  0.00     0.001 A 
ATOM     73  C   UNL     1       8.666  -7.469  -4.677  1.00  0.00     0.000 A 
ENDBRANCH  49  68
BRANCH  61  74
ATOM     74  C   UNL     1      13.708  -0.132  -2.543  1.00  0.00    -0.014 A 
ATOM     75  C   UNL     1      14.420  -0.169  -3.752  1.00  0.00     0.009 A 
ATOM     76  C   UNL     1      14.411  -0.159  -1.330  1.00  0.00     0.009 A 
ATOM     77  C   UNL     1      15.812  -0.260  -3.743  1.00  0.00     0.001 A 
ATOM     78  C   UNL     1      15.804  -0.228  -1.325  1.00  0.00     0.001 A 
ATOM     79  C   UNL     1      16.502  -0.285  -2.531  1.00  0.00     0.000 A 
ENDBRANCH  61  74
ENDBRANCH  35  36
ENDBRANCH  28  30
ENDBRANCH  27  28
ENDBRANCH  26  27
ENDBRANCH   1  26
TORSDOF 14
