REMARK SMILES O=C(OCCOC(=O)[C@@H](Cc1ccccc1)N1C(=O)/C(=C/c2ccc3ncccc3c2)SC1=S)c1ccc(-c2c3nc(c(-c4ccccc4)c4ccc([nH]4)c(-c4ccccc4)c4nc(c(-c5ccccc5)c5ccc2[nH]5)C=C4)C=C3)cc1
REMARK SMILES IDX 4 1 3 2 2 3 1 4 35 5 36 6 82 7 37 8 81 9 38 10 39 11 40 12
REMARK SMILES IDX 75 13 41 14 80 15 74 16 76 17 42 18 79 19 73 20 72 21 43 23
REMARK SMILES IDX 65 24 50 25 64 26 51 27 54 28 63 29 77 30 52 31 53 32 62 34
REMARK SMILES IDX 78 35 55 36 44 37 45 38 49 39 46 40 48 41 47 42 66 43 67 44
REMARK SMILES IDX 71 45 68 46 70 47 69 48 56 49 57 50 61 51 58 52 60 53 59 54
REMARK SMILES IDX 5 55 6 56 7 57 8 58 9 59 10 60 11 61 12 62 16 63 13 64 15 65
REMARK SMILES IDX 14 66 17 67 18 68 33 69 19 70 20 71 32 72 34 73 21 74 22 75
REMARK SMILES IDX 23 76 31 77 24 78 30 79 25 80 29 81 26 82 28 83 27 84
REMARK H PARENT 76 22 54 33
REMARK Flexibility Score: inf
ROOT
ATOM      1  C   UNL     1       3.875   2.304  -0.214  1.00  0.00     0.275 C 
ENDROOT
BRANCH   1   2
ATOM      2  O   UNL     1       3.109   1.552  -1.157  1.00  0.00    -0.458 OA
BRANCH   2   3
ATOM      3  C   UNL     1       2.789   0.254  -1.069  1.00  0.00     0.338 C 
ATOM      4  O   UNL     1       1.817  -0.161  -1.699  1.00  0.00    -0.246 OA
BRANCH   3   5
ATOM      5  C   UNL     1       3.515  -0.776  -0.267  1.00  0.00     0.060 A 
ATOM      6  C   UNL     1       4.436  -0.650   1.337  1.00  0.00     0.016 A 
ATOM      7  C   UNL     1       3.108  -2.421  -0.908  1.00  0.00     0.016 A 
ATOM      8  C   UNL     1       4.954  -2.179   2.208  1.00  0.00     0.010 A 
ATOM      9  C   UNL     1       3.473  -3.899   0.070  1.00  0.00     0.010 A 
ATOM     10  C   UNL     1       4.488  -3.828   1.573  1.00  0.00    -0.014 A 
BRANCH  10  11
ATOM     11  C   UNL     1       5.114  -5.072   2.185  1.00  0.00     0.031 A 
ATOM     12  C   UNL     1       5.723  -6.196   1.362  1.00  0.00     0.074 A 
ATOM     13  C   UNL     1       5.347  -5.102   3.510  1.00  0.00     0.049 A 
ATOM     14  N   UNL     1       6.836  -6.859   1.589  1.00  0.00    -0.248 NA
ATOM     15  C   UNL     1       5.066  -6.613   0.118  1.00  0.00     0.031 C 
ATOM     16  C   UNL     1       4.779  -4.176   4.477  1.00  0.00     0.029 A 
ATOM     17  N   UNL     1       6.152  -5.915   4.270  1.00  0.00    -0.354 N 
ATOM     18  C   UNL     1       7.092  -7.587   0.429  1.00  0.00     0.074 A 
ATOM     19  C   UNL     1       6.001  -7.340  -0.479  1.00  0.00     0.031 C 
ATOM     20  C   UNL     1       5.317  -4.394   5.681  1.00  0.00     0.029 A 
ATOM     21  C   UNL     1       6.204  -5.547   5.595  1.00  0.00     0.049 A 
ATOM     22  H   UNL     1       6.643  -6.685   3.903  1.00  0.00     0.167 HD
ATOM     23  C   UNL     1       8.111  -8.432   0.149  1.00  0.00     0.031 A 
ATOM     24  C   UNL     1       6.869  -6.090   6.633  1.00  0.00     0.031 A 
ATOM     25  C   UNL     1       8.957  -9.006   1.157  1.00  0.00     0.049 A 
ATOM     26  C   UNL     1       7.803  -7.237   6.353  1.00  0.00     0.074 A 
ATOM     27  C   UNL     1       9.901 -10.009   1.028  1.00  0.00     0.029 A 
ATOM     28  N   UNL     1       8.855  -8.715   2.507  1.00  0.00    -0.354 N 
ATOM     29  N   UNL     1       8.208  -7.710   5.197  1.00  0.00    -0.248 NA
ATOM     30  C   UNL     1       8.375  -7.923   7.518  1.00  0.00     0.031 C 
ATOM     31  C   UNL     1      10.290 -10.399   2.316  1.00  0.00     0.029 A 
ATOM     32  C   UNL     1       9.647  -9.584   3.234  1.00  0.00     0.049 A 
ATOM     33  H   UNL     1       8.302  -7.997   2.891  1.00  0.00     0.167 HD
ATOM     34  C   UNL     1       9.085  -8.744   5.500  1.00  0.00     0.074 A 
ATOM     35  C   UNL     1       9.201  -8.783   6.943  1.00  0.00     0.031 C 
ATOM     36  C   UNL     1       9.724  -9.605   4.669  1.00  0.00     0.031 A 
BRANCH  23  37
ATOM     37  C   UNL     1       8.286  -8.866  -1.279  1.00  0.00    -0.014 A 
ATOM     38  C   UNL     1       8.948  -8.023  -2.189  1.00  0.00     0.009 A 
ATOM     39  C   UNL     1       7.839 -10.120  -1.719  1.00  0.00     0.009 A 
ATOM     40  C   UNL     1       9.152  -8.426  -3.512  1.00  0.00     0.001 A 
ATOM     41  C   UNL     1       8.048 -10.521  -3.042  1.00  0.00     0.001 A 
ATOM     42  C   UNL     1       8.702  -9.675  -3.937  1.00  0.00     0.000 A 
ENDBRANCH  23  37
BRANCH  24  43
ATOM     43  C   UNL     1       6.604  -5.622   8.028  1.00  0.00    -0.014 A 
ATOM     44  C   UNL     1       7.639  -5.260   8.901  1.00  0.00     0.009 A 
ATOM     45  C   UNL     1       5.285  -5.599   8.520  1.00  0.00     0.009 A 
ATOM     46  C   UNL     1       7.362  -4.946  10.236  1.00  0.00     0.001 A 
ATOM     47  C   UNL     1       5.003  -5.192   9.823  1.00  0.00     0.001 A 
ATOM     48  C   UNL     1       6.045  -4.884  10.688  1.00  0.00     0.000 A 
ENDBRANCH  24  43
BRANCH  36  49
ATOM     49  C   UNL     1      10.585 -10.646   5.323  1.00  0.00    -0.014 A 
ATOM     50  C   UNL     1      10.015 -11.690   6.070  1.00  0.00     0.009 A 
ATOM     51  C   UNL     1      11.980 -10.568   5.210  1.00  0.00     0.009 A 
ATOM     52  C   UNL     1      10.831 -12.598   6.746  1.00  0.00     0.001 A 
ATOM     53  C   UNL     1      12.792 -11.499   5.857  1.00  0.00     0.001 A 
ATOM     54  C   UNL     1      12.218 -12.502   6.638  1.00  0.00     0.000 A 
ENDBRANCH  36  49
ENDBRANCH  10  11
ENDBRANCH   3   5
ENDBRANCH   2   3
ENDBRANCH   1   2
BRANCH   1  55
ATOM     55  C   UNL     1       3.059   2.577   1.049  1.00  0.00     0.274 C 
BRANCH  55  56
ATOM     56  O   UNL     1       2.959   1.345   1.776  1.00  0.00    -0.461 OA
BRANCH  56  57
ATOM     57  C   UNL     1       1.864   0.552   1.780  1.00  0.00     0.329 C 
ATOM     58  O   UNL     1       0.736   0.954   1.535  1.00  0.00    -0.250 OA
BRANCH  57  59
ATOM     59  C   UNL     1       2.221  -0.927   2.211  1.00  0.00     0.206 C 
BRANCH  59  60
ATOM     60  C   UNL     1       3.163  -2.167   1.183  1.00  0.00     0.073 C 
BRANCH  60  61
ATOM     61  C   UNL     1       5.015  -2.270   0.094  1.00  0.00    -0.045 A 
ATOM     62  C   UNL     1       5.752  -3.424  -0.498  1.00  0.00     0.004 A 
ATOM     63  C   UNL     1       6.079  -1.188  -0.113  1.00  0.00     0.004 A 
ATOM     64  C   UNL     1       7.165  -3.618  -0.483  1.00  0.00     0.000 A 
ATOM     65  C   UNL     1       7.483  -1.350  -0.083  1.00  0.00     0.000 A 
ATOM     66  C   UNL     1       8.022  -2.606  -0.128  1.00  0.00     0.000 A 
ENDBRANCH  60  61
ENDBRANCH  59  60
BRANCH  59  67
ATOM     67  N   UNL     1       2.333  -1.084   3.704  1.00  0.00    -0.278 N 
ATOM     68  C   UNL     1       3.196  -0.275   4.419  1.00  0.00     0.267 C 
ATOM     69  C   UNL     1       1.650  -2.023   4.462  1.00  0.00     0.149 C 
ATOM     70  O   UNL     1       3.914   0.612   3.982  1.00  0.00    -0.268 OA
ATOM     71  C   UNL     1       3.215  -0.637   5.856  1.00  0.00     0.081 C 
ATOM     72  S   UNL     1       2.142  -1.921   6.163  1.00  0.00    -0.054 SA
ATOM     73  S   UNL     1       0.549  -3.172   3.957  1.00  0.00    -0.052 S 
ATOM     74  C   UNL     1       4.098  -0.025   6.653  1.00  0.00     0.029 C 
BRANCH  74  75
ATOM     75  C   UNL     1       4.527  -0.382   8.001  1.00  0.00    -0.024 A 
ATOM     76  C   UNL     1       3.811  -0.069   9.150  1.00  0.00     0.010 A 
ATOM     77  C   UNL     1       5.806  -0.937   8.117  1.00  0.00     0.018 A 
ATOM     78  C   UNL     1       4.388  -0.301  10.408  1.00  0.00     0.029 A 
ATOM     79  C   UNL     1       6.386  -1.139   9.375  1.00  0.00     0.001 A 
ATOM     80  C   UNL     1       5.671  -0.824  10.548  1.00  0.00     0.070 A 
ATOM     81  C   UNL     1       7.693  -1.621   9.495  1.00  0.00     0.012 A 
ATOM     82  N   UNL     1       6.205  -0.994  11.772  1.00  0.00    -0.256 NA
ATOM     83  C   UNL     1       8.253  -1.774  10.755  1.00  0.00     0.021 A 
ATOM     84  C   UNL     1       7.473  -1.460  11.851  1.00  0.00     0.112 A 
ENDBRANCH  74  75
ENDBRANCH  59  67
ENDBRANCH  57  59
ENDBRANCH  56  57
ENDBRANCH  55  56
ENDBRANCH   1  55
TORSDOF 15
