REMARK SMILES C[NH2+][C@]1(C(=O)OCCOC(=O)c2ccc(-c3c4nc(c(-c5ccccc5)c5ccc([nH]5)c(-c5ccccc5)c5nc(c(-c6ccccc6)c6ccc3[nH]6)C=C5)C=C4)cc2)CCC[C@@H](Sc2nccn2C)C1
REMARK SMILES IDX 7 1 6 2 4 3 5 4 3 5 60 6 71 7 61 8 63 9 62 10 2 11 1 12
REMARK SMILES IDX 64 15 65 16 66 17 69 18 67 19 68 20 70 21 8 22 9 23 10 24
REMARK SMILES IDX 11 25 12 26 13 27 59 28 14 29 58 30 15 31 16 32 17 33 52 34
REMARK SMILES IDX 18 35 57 36 51 37 53 38 19 39 56 40 50 41 49 42 20 44 42 45
REMARK SMILES IDX 27 46 41 47 28 48 31 49 40 50 54 51 29 52 30 53 39 55 55 56
REMARK SMILES IDX 32 57 21 58 22 59 26 60 23 61 25 62 24 63 43 64 44 65 48 66
REMARK SMILES IDX 45 67 47 68 46 69 33 70 34 71 38 72 35 73 37 74 36 75
REMARK H PARENT 2 13 2 14 53 43 31 54
REMARK Flexibility Score: inf
ROOT
ATOM      1  C   UNL     1       2.443  -2.054   0.699  1.00  0.00     0.274 C 
ENDROOT
BRANCH   1   2
ATOM      2  O   UNL     1       1.022  -2.277   0.605  1.00  0.00    -0.457 OA
BRANCH   2   3
ATOM      3  C   UNL     1       0.307  -1.234   0.100  1.00  0.00     0.368 C 
ATOM      4  O   UNL     1       0.814  -0.214  -0.361  1.00  0.00    -0.245 OA
BRANCH   3   5
ATOM      5  C   UNL     1      -1.231  -1.447   0.162  1.00  0.00     0.195 C 
ATOM      6  C   UNL     1      -1.652  -2.647   1.036  1.00  0.00     0.081 C 
ATOM      7  C   UNL     1      -1.760  -0.147   0.819  1.00  0.00     0.096 C 
ATOM      8  C   UNL     1      -3.162  -2.700   1.278  1.00  0.00     0.008 C 
ATOM      9  C   UNL     1      -3.261  -0.178   1.109  1.00  0.00     0.061 C 
ATOM     10  C   UNL     1      -3.666  -1.411   1.924  1.00  0.00     0.015 C 
BRANCH   5  11
ATOM     11  N   UNL     1      -1.804  -1.499  -1.214  1.00  0.00    -0.335 N 
ATOM     12  C   UNL     1      -1.571  -2.741  -1.936  1.00  0.00     0.331 C 
ATOM     13  H   UNL     1      -2.812  -1.361  -1.142  1.00  0.00     0.347 HD
ATOM     14  H   UNL     1      -1.331  -0.769  -1.747  1.00  0.00     0.347 HD
ENDBRANCH   5  11
BRANCH   9  15
ATOM     15  S   UNL     1      -3.833   1.379   1.894  1.00  0.00    -0.084 SA
BRANCH  15  16
ATOM     16  C   UNL     1      -3.023   1.335   3.424  1.00  0.00     0.167 A 
ATOM     17  N   UNL     1      -1.722   1.391   3.588  1.00  0.00    -0.231 NA
ATOM     18  N   UNL     1      -3.674   1.210   4.621  1.00  0.00    -0.329 N 
ATOM     19  C   UNL     1      -1.516   1.268   4.936  1.00  0.00     0.132 A 
ATOM     20  C   UNL     1      -2.713   1.144   5.599  1.00  0.00     0.108 A 
ATOM     21  C   UNL     1      -5.090   1.128   4.878  1.00  0.00     0.152 C 
ENDBRANCH  15  16
ENDBRANCH   9  15
ENDBRANCH   3   5
ENDBRANCH   2   3
ENDBRANCH   1   2
BRANCH   1  22
ATOM     22  C   UNL     1       3.181  -2.609  -0.518  1.00  0.00     0.275 C 
BRANCH  22  23
ATOM     23  O   UNL     1       2.724  -1.952  -1.712  1.00  0.00    -0.458 OA
BRANCH  23  24
ATOM     24  C   UNL     1       2.389  -2.763  -2.741  1.00  0.00     0.338 C 
ATOM     25  O   UNL     1       2.505  -3.976  -2.791  1.00  0.00    -0.246 OA
BRANCH  24  26
ATOM     26  C   UNL     1       1.825  -1.972  -3.854  1.00  0.00     0.060 A 
ATOM     27  C   UNL     1       0.872  -0.981  -3.620  1.00  0.00     0.016 A 
ATOM     28  C   UNL     1       2.157  -2.315  -5.164  1.00  0.00     0.016 A 
ATOM     29  C   UNL     1       0.180  -0.400  -4.681  1.00  0.00     0.010 A 
ATOM     30  C   UNL     1       1.535  -1.661  -6.231  1.00  0.00     0.010 A 
ATOM     31  C   UNL     1       0.511  -0.724  -6.003  1.00  0.00    -0.014 A 
BRANCH  31  32
ATOM     32  C   UNL     1      -0.234  -0.132  -7.146  1.00  0.00     0.031 A 
ATOM     33  C   UNL     1      -0.944  -1.029  -8.124  1.00  0.00     0.074 A 
ATOM     34  C   UNL     1      -0.280   1.203  -7.323  1.00  0.00     0.049 A 
ATOM     35  N   UNL     1      -1.440  -0.742  -9.301  1.00  0.00    -0.248 NA
ATOM     36  C   UNL     1      -1.103  -2.440  -7.733  1.00  0.00     0.031 C 
ATOM     37  C   UNL     1       0.304   2.205  -6.430  1.00  0.00     0.029 A 
ATOM     38  N   UNL     1      -0.856   1.947  -8.323  1.00  0.00    -0.354 N 
ATOM     39  C   UNL     1      -1.900  -1.946  -9.820  1.00  0.00     0.074 A 
ATOM     40  C   UNL     1      -1.639  -2.964  -8.826  1.00  0.00     0.031 C 
ATOM     41  C   UNL     1       0.023   3.430  -6.900  1.00  0.00     0.029 A 
ATOM     42  C   UNL     1      -0.680   3.301  -8.171  1.00  0.00     0.049 A 
ATOM     43  H   UNL     1      -1.348   1.549  -9.078  1.00  0.00     0.167 HD
ATOM     44  C   UNL     1      -2.475  -2.183 -11.023  1.00  0.00     0.031 A 
ATOM     45  C   UNL     1      -1.004   4.325  -8.981  1.00  0.00     0.031 A 
ATOM     46  C   UNL     1      -2.784  -1.164 -11.991  1.00  0.00     0.049 A 
ATOM     47  C   UNL     1      -1.634   4.041 -10.313  1.00  0.00     0.074 A 
ATOM     48  C   UNL     1      -3.359  -1.306 -13.242  1.00  0.00     0.029 A 
ATOM     49  N   UNL     1      -2.569   0.191 -11.800  1.00  0.00    -0.354 N 
ATOM     50  N   UNL     1      -1.970   2.887 -10.836  1.00  0.00    -0.248 NA
ATOM     51  C   UNL     1      -1.903   5.199 -11.176  1.00  0.00     0.031 C 
ATOM     52  C   UNL     1      -3.472  -0.035 -13.818  1.00  0.00     0.029 A 
ATOM     53  C   UNL     1      -2.999   0.897 -12.909  1.00  0.00     0.049 A 
ATOM     54  H   UNL     1      -2.169   0.592 -10.994  1.00  0.00     0.167 HD
ATOM     55  C   UNL     1      -2.485   3.179 -12.091  1.00  0.00     0.074 A 
ATOM     56  C   UNL     1      -2.443   4.620 -12.240  1.00  0.00     0.031 C 
ATOM     57  C   UNL     1      -2.942   2.328 -13.041  1.00  0.00     0.031 A 
BRANCH  44  58
ATOM     58  C   UNL     1      -2.763  -3.612 -11.380  1.00  0.00    -0.014 A 
ATOM     59  C   UNL     1      -3.853  -4.302 -10.829  1.00  0.00     0.009 A 
ATOM     60  C   UNL     1      -1.938  -4.269 -12.307  1.00  0.00     0.009 A 
ATOM     61  C   UNL     1      -4.095  -5.632 -11.181  1.00  0.00     0.001 A 
ATOM     62  C   UNL     1      -2.194  -5.591 -12.672  1.00  0.00     0.001 A 
ATOM     63  C   UNL     1      -3.268  -6.274 -12.103  1.00  0.00     0.000 A 
ENDBRANCH  44  58
BRANCH  45  64
ATOM     64  C   UNL     1      -0.681   5.715  -8.575  1.00  0.00    -0.014 A 
ATOM     65  C   UNL     1      -1.699   6.593  -8.175  1.00  0.00     0.009 A 
ATOM     66  C   UNL     1       0.649   6.164  -8.565  1.00  0.00     0.009 A 
ATOM     67  C   UNL     1      -1.390   7.897  -7.781  1.00  0.00     0.001 A 
ATOM     68  C   UNL     1       0.957   7.459  -8.146  1.00  0.00     0.001 A 
ATOM     69  C   UNL     1      -0.064   8.326  -7.760  1.00  0.00     0.000 A 
ENDBRANCH  45  64
BRANCH  57  70
ATOM     70  C   UNL     1      -3.441   2.940 -14.315  1.00  0.00    -0.014 A 
ATOM     71  C   UNL     1      -2.545   3.392 -15.295  1.00  0.00     0.009 A 
ATOM     72  C   UNL     1      -4.821   3.043 -14.546  1.00  0.00     0.009 A 
ATOM     73  C   UNL     1      -3.024   3.962 -16.476  1.00  0.00     0.001 A 
ATOM     74  C   UNL     1      -5.296   3.598 -15.735  1.00  0.00     0.001 A 
ATOM     75  C   UNL     1      -4.398   4.063 -16.695  1.00  0.00     0.000 A 
ENDBRANCH  57  70
ENDBRANCH  31  32
ENDBRANCH  24  26
ENDBRANCH  23  24
ENDBRANCH  22  23
ENDBRANCH   1  22
TORSDOF 14
