REMARK SMILES Cc1cc([C@H](C)NC(=O)N2CC[C@H](C(=O)OCCOC(=O)c3ccc(-c4c5nc(c(-c6ccccc6)c6ccc([nH]6)c(-c6ccccc6)c6nc(c(-c7ccccc7)c7ccc4[nH]7)C=C6)C=C5)cc3)[C@@H]2C)c(C)s1
REMARK SMILES IDX 17 1 16 2 14 3 15 4 13 5 10 6 11 7 70 8 12 9 71 10 8 11 7 12
REMARK SMILES IDX 9 14 5 15 6 16 4 17 1 18 2 19 3 20 74 21 72 22 73 23 18 24
REMARK SMILES IDX 19 25 20 26 21 27 22 28 23 29 69 30 24 31 68 32 25 33 26 34
REMARK SMILES IDX 27 35 62 36 28 37 67 38 61 39 63 40 29 41 66 42 60 43 59 44
REMARK SMILES IDX 30 46 52 47 37 48 51 49 38 50 41 51 50 52 64 53 39 54 40 55
REMARK SMILES IDX 49 57 65 58 42 59 31 60 32 61 36 62 33 63 35 64 34 65 53 66
REMARK SMILES IDX 54 67 58 68 55 69 57 70 56 71 43 72 44 73 48 74 45 75 47 76
REMARK SMILES IDX 46 77
REMARK H PARENT 7 13 63 45 41 56
REMARK Flexibility Score: inf
ROOT
ATOM      1  C   UNL     1       0.686  -9.903   0.413  1.00  0.00     0.274 C 
ENDROOT
BRANCH   1   2
ATOM      2  O   UNL     1       0.085  -8.622   0.108  1.00  0.00    -0.462 OA
BRANCH   2   3
ATOM      3  C   UNL     1      -0.230  -7.825   1.172  1.00  0.00     0.311 C 
ATOM      4  O   UNL     1      -0.013  -8.108   2.342  1.00  0.00    -0.252 OA
BRANCH   3   5
ATOM      5  C   UNL     1      -0.942  -6.558   0.706  1.00  0.00     0.123 C 
ATOM      6  N   UNL     1       0.135  -4.482   1.266  1.00  0.00    -0.321 N 
ATOM      7  C   UNL     1      -0.605  -4.937   2.433  1.00  0.00     0.122 C 
ATOM      8  C   UNL     1      -0.044  -5.425   0.152  1.00  0.00     0.098 C 
ATOM      9  C   UNL     1      -1.659  -5.880   1.877  1.00  0.00     0.039 C 
ATOM     10  C   UNL     1       1.260  -5.923  -0.441  1.00  0.00     0.032 C 
BRANCH   6  11
ATOM     11  C   UNL     1       0.938  -3.385   1.392  1.00  0.00     0.318 C 
ATOM     12  N   UNL     1       1.509  -2.790   0.320  1.00  0.00    -0.331 N 
ATOM     13  H   UNL     1       2.464  -2.571   0.413  1.00  0.00     0.165 HD
ATOM     14  O   UNL     1       1.203  -2.907   2.497  1.00  0.00    -0.249 OA
BRANCH  12  15
ATOM     15  C   UNL     1       0.901  -2.431  -0.952  1.00  0.00     0.112 C 
ATOM     16  C   UNL     1       0.014  -1.194  -0.763  1.00  0.00     0.036 C 
BRANCH  15  17
ATOM     17  C   UNL     1       2.000  -2.209  -1.984  1.00  0.00    -0.012 A 
ATOM     18  C   UNL     1       4.471   0.112  -3.728  1.00  0.00     0.056 C 
ATOM     19  C   UNL     1       3.623  -0.990  -3.195  1.00  0.00     0.002 A 
ATOM     20  C   UNL     1       2.768  -0.990  -2.113  1.00  0.00     0.021 A 
ATOM     21  S   UNL     1       3.635  -2.499  -3.975  1.00  0.00    -0.146 S 
ATOM     22  C   UNL     1       2.378  -3.106  -2.982  1.00  0.00     0.007 A 
ATOM     23  C   UNL     1       1.868  -4.470  -3.309  1.00  0.00     0.057 C 
ENDBRANCH  15  17
ENDBRANCH  12  15
ENDBRANCH   6  11
ENDBRANCH   3   5
ENDBRANCH   2   3
ENDBRANCH   1   2
BRANCH   1  24
ATOM     24  C   UNL     1       2.194  -9.887   0.154  1.00  0.00     0.275 C 
BRANCH  24  25
ATOM     25  O   UNL     1       2.808  -8.953   1.056  1.00  0.00    -0.458 OA
BRANCH  25  26
ATOM     26  C   UNL     1       3.882  -8.274   0.581  1.00  0.00     0.338 C 
ATOM     27  O   UNL     1       4.483  -8.511  -0.452  1.00  0.00    -0.246 OA
BRANCH  26  28
ATOM     28  C   UNL     1       4.151  -7.087   1.442  1.00  0.00     0.060 A 
ATOM     29  C   UNL     1       3.200  -6.636   2.361  1.00  0.00     0.016 A 
ATOM     30  C   UNL     1       5.295  -6.315   1.216  1.00  0.00     0.016 A 
ATOM     31  C   UNL     1       3.332  -5.380   2.946  1.00  0.00     0.010 A 
ATOM     32  C   UNL     1       5.479  -5.106   1.906  1.00  0.00     0.010 A 
ATOM     33  C   UNL     1       4.486  -4.605   2.762  1.00  0.00    -0.014 A 
BRANCH  33  34
ATOM     34  C   UNL     1       4.647  -3.306   3.482  1.00  0.00     0.031 A 
ATOM     35  C   UNL     1       4.963  -2.026   2.747  1.00  0.00     0.074 A 
ATOM     36  C   UNL     1       4.499  -3.254   4.824  1.00  0.00     0.049 A 
ATOM     37  N   UNL     1       5.313  -0.859   3.236  1.00  0.00    -0.248 NA
ATOM     38  C   UNL     1       4.878  -2.050   1.277  1.00  0.00     0.031 C 
ATOM     39  C   UNL     1       4.125  -4.378   5.686  1.00  0.00     0.029 A 
ATOM     40  N   UNL     1       4.640  -2.205   5.702  1.00  0.00    -0.354 N 
ATOM     41  C   UNL     1       5.507  -0.024   2.144  1.00  0.00     0.074 A 
ATOM     42  C   UNL     1       5.248  -0.815   0.959  1.00  0.00     0.031 C 
ATOM     43  C   UNL     1       4.012  -3.950   6.949  1.00  0.00     0.029 A 
ATOM     44  C   UNL     1       4.434  -2.557   7.013  1.00  0.00     0.049 A 
ATOM     45  H   UNL     1       4.866  -1.290   5.418  1.00  0.00     0.167 HD
ATOM     46  C   UNL     1       5.872   1.282   2.128  1.00  0.00     0.031 A 
ATOM     47  C   UNL     1       4.630  -1.881   8.160  1.00  0.00     0.031 A 
ATOM     48  C   UNL     1       6.131   2.083   3.298  1.00  0.00     0.049 A 
ATOM     49  C   UNL     1       5.189  -0.494   8.117  1.00  0.00     0.074 A 
ATOM     50  C   UNL     1       6.511   3.414   3.362  1.00  0.00     0.029 A 
ATOM     51  N   UNL     1       6.039   1.634   4.605  1.00  0.00    -0.354 N 
ATOM     52  N   UNL     1       5.452   0.255   7.077  1.00  0.00    -0.248 NA
ATOM     53  C   UNL     1       5.514   0.125   9.410  1.00  0.00     0.031 C 
ATOM     54  C   UNL     1       6.704   3.755   4.706  1.00  0.00     0.029 A 
ATOM     55  C   UNL     1       6.392   2.651   5.480  1.00  0.00     0.049 A 
ATOM     56  H   UNL     1       5.763   0.728   4.873  1.00  0.00     0.167 HD
ATOM     57  C   UNL     1       5.977   1.433   7.587  1.00  0.00     0.074 A 
ATOM     58  C   UNL     1       5.973   1.309   9.030  1.00  0.00     0.031 C 
ATOM     59  C   UNL     1       6.424   2.519   6.911  1.00  0.00     0.031 A 
BRANCH  46  60
ATOM     60  C   UNL     1       6.059   1.944   0.793  1.00  0.00    -0.014 A 
ATOM     61  C   UNL     1       4.963   2.403   0.049  1.00  0.00     0.009 A 
ATOM     62  C   UNL     1       7.359   2.215   0.334  1.00  0.00     0.009 A 
ATOM     63  C   UNL     1       5.167   3.121  -1.132  1.00  0.00     0.001 A 
ATOM     64  C   UNL     1       7.558   2.945  -0.838  1.00  0.00     0.001 A 
ATOM     65  C   UNL     1       6.462   3.397  -1.571  1.00  0.00     0.000 A 
ENDBRANCH  46  60
BRANCH  47  66
ATOM     66  C   UNL     1       4.399  -2.571   9.454  1.00  0.00    -0.014 A 
ATOM     67  C   UNL     1       3.323  -2.214  10.277  1.00  0.00     0.009 A 
ATOM     68  C   UNL     1       5.240  -3.627   9.847  1.00  0.00     0.009 A 
ATOM     69  C   UNL     1       3.091  -2.908  11.467  1.00  0.00     0.001 A 
ATOM     70  C   UNL     1       4.985  -4.339  11.018  1.00  0.00     0.001 A 
ATOM     71  C   UNL     1       3.912  -3.976  11.829  1.00  0.00     0.000 A 
ENDBRANCH  47  66
BRANCH  59  72
ATOM     72  C   UNL     1       6.941   3.662   7.734  1.00  0.00    -0.014 A 
ATOM     73  C   UNL     1       8.193   3.589   8.363  1.00  0.00     0.009 A 
ATOM     74  C   UNL     1       6.165   4.820   7.890  1.00  0.00     0.009 A 
ATOM     75  C   UNL     1       8.643   4.642   9.163  1.00  0.00     0.001 A 
ATOM     76  C   UNL     1       6.628   5.880   8.671  1.00  0.00     0.001 A 
ATOM     77  C   UNL     1       7.860   5.786   9.316  1.00  0.00     0.000 A 
ENDBRANCH  59  72
ENDBRANCH  33  34
ENDBRANCH  26  28
ENDBRANCH  25  26
ENDBRANCH  24  25
ENDBRANCH   1  24
TORSDOF 14
