REMARK SMILES CCc1cc(S(F)(F)(F)(F)F)cc2c1O[C@@H](C(F)(F)F)C(C(=O)OCCOC(=O)c1ccc(-c3c4nc(c(-c5ccccc5)c5ccc([nH]5)c(-c5ccccc5)c5nc(c(-c6ccccc6)c6ccc3[nH]6)C=C5)C=C4)cc1)=C2
REMARK SMILES IDX 26 1 25 2 24 3 22 4 23 5 21 6 3 7 4 8 14 9 5 10 13 11 15 12
REMARK SMILES IDX 12 13 78 14 16 15 2 16 1 17 6 18 7 19 8 20 9 21 10 22 11 23
REMARK SMILES IDX 17 24 18 25 19 26 20 27 27 28 28 29 29 30 30 31 31 32 77 33
REMARK SMILES IDX 32 34 76 35 33 36 34 37 35 38 70 39 36 40 75 41 69 42 71 43
REMARK SMILES IDX 37 44 74 45 68 46 67 47 38 49 60 50 45 51 59 52 46 53 49 54
REMARK SMILES IDX 58 55 72 56 47 57 48 58 57 60 73 61 50 62 39 63 40 64 44 65
REMARK SMILES IDX 41 66 43 67 42 68 61 69 62 70 66 71 63 72 65 73 64 74 51 75
REMARK SMILES IDX 52 76 56 77 53 78 55 79 54 80
REMARK H PARENT 71 48 49 59
REMARK Flexibility Score: inf
ROOT
ATOM      1  C   UNL     1       4.566   0.335 -10.027  1.00  0.00     0.275 C 
ENDROOT
BRANCH   1   2
ATOM      2  C   UNL     1       5.351  -0.461  -8.998  1.00  0.00     0.275 C 
BRANCH   2   3
ATOM      3  O   UNL     1       4.515  -0.756  -7.889  1.00  0.00    -0.459 OA
BRANCH   3   4
ATOM      4  C   UNL     1       3.935   0.299  -7.137  1.00  0.00     0.338 C 
ATOM      5  O   UNL     1       4.164   1.508  -7.456  1.00  0.00    -0.246 OA
BRANCH   4   6
ATOM      6  C   UNL     1       3.040  -0.016  -5.949  1.00  0.00     0.087 C 
ATOM      7  C   UNL     1       0.990  -0.792  -2.393  1.00  0.00    -0.004 A 
ATOM      8  C   UNL     1       0.552  -2.074  -2.115  1.00  0.00     0.032 A 
ATOM      9  C   UNL     1       1.708  -0.575  -3.544  1.00  0.00     0.131 A 
ATOM     10  C   UNL     1       0.830  -3.113  -2.963  1.00  0.00     0.108 A 
ATOM     11  C   UNL     1       1.991  -1.596  -4.434  1.00  0.00     0.019 A 
ATOM     12  O   UNL     1       2.232   0.677  -3.751  1.00  0.00    -0.475 OA
ATOM     13  C   UNL     1       1.541  -2.874  -4.121  1.00  0.00     0.036 A 
ATOM     14  C   UNL     1       2.791  -1.273  -5.603  1.00  0.00     0.027 C 
ATOM     15  C   UNL     1       2.409   1.103  -5.131  1.00  0.00     0.316 C 
BRANCH   7  16
ATOM     16  C   UNL     1       0.483   0.312  -1.480  1.00  0.00     0.036 C 
ATOM     17  C   UNL     1       0.990   0.073  -0.067  1.00  0.00     0.009 C 
ENDBRANCH   7  16
BRANCH  10  18
ATOM     18  S   UNL     1       0.269  -4.788  -2.568  1.00  0.00     0.310 S 
ATOM     19  F   UNL     1       1.051  -4.746  -1.189  1.00  0.00    -0.094 F 
ATOM     20  F   UNL     1       1.607  -5.287  -3.233  1.00  0.00    -0.094 F 
ATOM     21  F   UNL     1      -0.137  -6.249  -2.223  1.00  0.00    -0.094 F 
ATOM     22  F   UNL     1      -0.997  -4.260  -1.784  1.00  0.00    -0.094 F 
ATOM     23  F   UNL     1       0.723  -3.294  -2.812  1.00  0.00    -0.094 F 
ENDBRANCH  10  18
BRANCH  15  24
ATOM     24  C   UNL     1       3.325   2.316  -5.162  1.00  0.00     0.430 C 
ATOM     25  F   UNL     1       3.490   2.715  -6.420  1.00  0.00    -0.167 F 
ATOM     26  F   UNL     1       2.780   3.301  -4.453  1.00  0.00    -0.167 F 
ATOM     27  F   UNL     1       4.505   1.995  -4.641  1.00  0.00    -0.167 F 
ENDBRANCH  15  24
ENDBRANCH   4   6
ENDBRANCH   3   4
ENDBRANCH   2   3
ENDBRANCH   1   2
BRANCH   1  28
ATOM     28  O   UNL     1       4.111   1.546  -9.443  1.00  0.00    -0.458 OA
BRANCH  28  29
ATOM     29  C   UNL     1       3.254   1.510  -8.310  1.00  0.00     0.338 C 
ATOM     30  O   UNL     1       2.895   0.394  -7.821  1.00  0.00    -0.246 OA
BRANCH  29  31
ATOM     31  C   UNL     1       2.767   2.807  -7.684  1.00  0.00     0.060 A 
ATOM     32  C   UNL     1       2.689   2.859  -6.302  1.00  0.00     0.016 A 
ATOM     33  C   UNL     1       2.318   3.804  -8.438  1.00  0.00     0.016 A 
ATOM     34  C   UNL     1       1.851   3.888  -5.814  1.00  0.00     0.010 A 
ATOM     35  C   UNL     1       1.623   4.847  -7.875  1.00  0.00     0.010 A 
ATOM     36  C   UNL     1       1.457   4.932  -6.521  1.00  0.00    -0.014 A 
BRANCH  36  37
ATOM     37  C   UNL     1       0.851   6.161  -5.864  1.00  0.00     0.031 A 
ATOM     38  C   UNL     1      -0.440   6.597  -6.167  1.00  0.00     0.074 A 
ATOM     39  C   UNL     1       1.646   6.724  -4.880  1.00  0.00     0.049 A 
ATOM     40  N   UNL     1      -1.132   7.569  -5.572  1.00  0.00    -0.248 NA
ATOM     41  C   UNL     1      -1.274   6.023  -7.234  1.00  0.00     0.031 C 
ATOM     42  C   UNL     1       2.946   6.285  -4.562  1.00  0.00     0.029 A 
ATOM     43  N   UNL     1       1.343   7.781  -4.051  1.00  0.00    -0.354 N 
ATOM     44  C   UNL     1      -2.341   7.682  -6.127  1.00  0.00     0.074 A 
ATOM     45  C   UNL     1      -2.447   6.693  -7.208  1.00  0.00     0.031 C 
ATOM     46  C   UNL     1       3.425   7.073  -3.564  1.00  0.00     0.029 A 
ATOM     47  C   UNL     1       2.432   8.017  -3.240  1.00  0.00     0.049 A 
ATOM     48  H   UNL     1       0.496   8.281  -4.039  1.00  0.00     0.167 HD
ATOM     49  C   UNL     1      -3.358   8.569  -5.773  1.00  0.00     0.031 A 
ATOM     50  C   UNL     1       2.570   8.996  -2.269  1.00  0.00     0.031 A 
ATOM     51  C   UNL     1      -3.235   9.520  -4.772  1.00  0.00     0.049 A 
ATOM     52  C   UNL     1       1.573   9.922  -1.954  1.00  0.00     0.074 A 
ATOM     53  C   UNL     1      -4.254  10.417  -4.397  1.00  0.00     0.029 A 
ATOM     54  N   UNL     1      -2.138   9.772  -3.978  1.00  0.00    -0.354 N 
ATOM     55  N   UNL     1       0.351  10.009  -2.482  1.00  0.00    -0.248 NA
ATOM     56  C   UNL     1       1.721  10.984  -0.950  1.00  0.00     0.031 C 
ATOM     57  C   UNL     1      -3.775  11.205  -3.398  1.00  0.00     0.029 A 
ATOM     58  C   UNL     1      -2.449  10.814  -3.133  1.00  0.00     0.049 A 
ATOM     59  H   UNL     1      -1.280   9.291  -4.010  1.00  0.00     0.167 HD
ATOM     60  C   UNL     1      -0.325  11.009  -1.914  1.00  0.00     0.074 A 
ATOM     61  C   UNL     1       0.549  11.656  -0.925  1.00  0.00     0.031 C 
ATOM     62  C   UNL     1      -1.637  11.406  -2.178  1.00  0.00     0.031 A 
BRANCH  49  63
ATOM     63  C   UNL     1      -4.675   8.488  -6.527  1.00  0.00    -0.014 A 
ATOM     64  C   UNL     1      -5.403   7.310  -6.498  1.00  0.00     0.009 A 
ATOM     65  C   UNL     1      -5.107   9.548  -7.200  1.00  0.00     0.009 A 
ATOM     66  C   UNL     1      -6.443   7.255  -7.456  1.00  0.00     0.001 A 
ATOM     67  C   UNL     1      -6.211   9.458  -8.013  1.00  0.00     0.001 A 
ATOM     68  C   UNL     1      -6.944   8.306  -8.079  1.00  0.00     0.000 A 
ENDBRANCH  49  63
BRANCH  50  69
ATOM     69  C   UNL     1       3.882   9.066  -1.504  1.00  0.00    -0.014 A 
ATOM     70  C   UNL     1       3.874   8.910  -0.127  1.00  0.00     0.009 A 
ATOM     71  C   UNL     1       5.013   9.277  -2.167  1.00  0.00     0.009 A 
ATOM     72  C   UNL     1       5.088   9.283   0.498  1.00  0.00     0.001 A 
ATOM     73  C   UNL     1       6.189   9.499  -1.492  1.00  0.00     0.001 A 
ATOM     74  C   UNL     1       6.242   9.419  -0.128  1.00  0.00     0.000 A 
ENDBRANCH  50  69
BRANCH  62  75
ATOM     75  C   UNL     1      -2.210  12.558  -1.369  1.00  0.00    -0.014 A 
ATOM     76  C   UNL     1      -1.474  13.731  -1.335  1.00  0.00     0.009 A 
ATOM     77  C   UNL     1      -3.289  12.400  -0.610  1.00  0.00     0.009 A 
ATOM     78  C   UNL     1      -1.792  14.576  -0.245  1.00  0.00     0.001 A 
ATOM     79  C   UNL     1      -3.616  13.333   0.343  1.00  0.00     0.001 A 
ATOM     80  C   UNL     1      -2.897  14.489   0.473  1.00  0.00     0.000 A 
ENDBRANCH  62  75
ENDBRANCH  36  37
ENDBRANCH  29  31
ENDBRANCH  28  29
ENDBRANCH   1  28
TORSDOF 14
