REMARK SMILES CCCCCCNC(=O)Oc1cccc(-c2ccc([C@H](C)C(=O)OCCOC(=O)c3ccc(-c4c5nc(c(-c6ccccc6)c6ccc([nH]6)c(-c6ccccc6)c6nc(c(-c7ccccc7)c7ccc4[nH]7)C=C6)C=C5)cc3)cc2F)c1
REMARK SMILES IDX 20 1 21 2 19 3 16 4 17 5 79 6 18 7 78 8 80 9 15 10 11 11
REMARK SMILES IDX 12 12 81 13 13 14 14 15 10 16 8 17 7 18 9 20 6 21 5 22 4 23
REMARK SMILES IDX 3 24 2 25 1 26 22 27 23 28 24 29 25 30 26 31 27 32 28 33
REMARK SMILES IDX 29 34 30 35 31 36 77 37 32 38 76 39 33 40 34 41 35 42 70 43
REMARK SMILES IDX 36 44 75 45 69 46 71 47 37 48 74 49 68 50 67 51 38 53 60 54
REMARK SMILES IDX 45 55 59 56 46 57 49 58 58 59 72 60 47 61 48 62 57 64 73 65
REMARK SMILES IDX 50 66 39 67 40 68 44 69 41 70 43 71 42 72 61 73 62 74 66 75
REMARK SMILES IDX 63 76 65 77 64 78 51 79 52 80 56 81 53 82 55 83 54 84
REMARK H PARENT 7 19 71 52 49 63
REMARK Flexibility Score: inf
ROOT
ATOM      1  C   UNL     1      -5.102  -0.144  13.681  1.00  0.00     0.126 C 
ATOM      2  C   UNL     1      -5.047  -0.899  12.342  1.00  0.00     0.025 C 
ENDROOT
BRANCH   1   3
ATOM      3  C   UNL     1      -6.434  -0.217  14.414  1.00  0.00    -0.031 A 
ATOM      4  C   UNL     1      -8.931  -0.189  15.769  1.00  0.00     0.018 A 
ATOM      5  C   UNL     1      -7.739  -0.429  16.462  1.00  0.00     0.012 A 
ATOM      6  C   UNL     1      -8.848   0.059  14.395  1.00  0.00     0.131 A 
ATOM      7  C   UNL     1      -6.512  -0.443  15.797  1.00  0.00     0.005 A 
ATOM      8  C   UNL     1      -7.626   0.060  13.727  1.00  0.00     0.044 A 
ATOM      9  F   UNL     1      -9.957   0.307  13.681  1.00  0.00    -0.206 F 
BRANCH   4  10
ATOM     10  C   UNL     1     -10.214  -0.261  16.471  1.00  0.00    -0.012 A 
ATOM     11  C   UNL     1     -12.374  -1.312  16.761  1.00  0.00     0.133 A 
ATOM     12  C   UNL     1     -12.639  -0.523  17.876  1.00  0.00     0.047 A 
ATOM     13  C   UNL     1     -11.188  -1.172  16.046  1.00  0.00     0.056 A 
ATOM     14  C   UNL     1     -11.686   0.401  18.299  1.00  0.00     0.004 A 
ATOM     15  C   UNL     1     -10.480   0.527  17.603  1.00  0.00     0.009 A 
BRANCH  11  16
ATOM     16  O   UNL     1     -13.388  -2.170  16.316  1.00  0.00    -0.410 OA
BRANCH  16  17
ATOM     17  C   UNL     1     -13.040  -3.474  15.993  1.00  0.00     0.412 C 
ATOM     18  N   UNL     1     -14.040  -4.144  15.345  1.00  0.00    -0.321 N 
ATOM     19  H   UNL     1     -13.868  -5.085  15.114  1.00  0.00     0.167 HD
ATOM     20  O   UNL     1     -11.972  -4.022  16.238  1.00  0.00    -0.224 OA
BRANCH  18  21
ATOM     21  C   UNL     1     -15.328  -3.602  14.966  1.00  0.00     0.119 C 
BRANCH  21  22
ATOM     22  C   UNL     1     -15.574  -3.716  13.463  1.00  0.00     0.021 C 
BRANCH  22  23
ATOM     23  C   UNL     1     -15.668  -5.152  12.934  1.00  0.00     0.002 C 
BRANCH  23  24
ATOM     24  C   UNL     1     -16.724  -6.034  13.610  1.00  0.00    -0.000 C 
BRANCH  24  25
ATOM     25  C   UNL     1     -18.154  -5.489  13.576  1.00  0.00    -0.003 C 
ATOM     26  C   UNL     1     -18.708  -5.346  12.168  1.00  0.00     0.004 C 
ENDBRANCH  24  25
ENDBRANCH  23  24
ENDBRANCH  22  23
ENDBRANCH  21  22
ENDBRANCH  18  21
ENDBRANCH  16  17
ENDBRANCH  11  16
ENDBRANCH   4  10
ENDBRANCH   1   3
BRANCH   1  27
ATOM     27  C   UNL     1      -3.900  -0.432  14.579  1.00  0.00     0.313 C 
ATOM     28  O   UNL     1      -3.431   0.405  15.346  1.00  0.00    -0.252 OA
BRANCH  27  29
ATOM     29  O   UNL     1      -3.461  -1.715  14.494  1.00  0.00    -0.462 OA
BRANCH  29  30
ATOM     30  C   UNL     1      -2.315  -2.050  15.297  1.00  0.00     0.274 C 
BRANCH  30  31
ATOM     31  C   UNL     1      -1.000  -1.847  14.534  1.00  0.00     0.275 C 
BRANCH  31  32
ATOM     32  O   UNL     1      -0.694  -0.453  14.332  1.00  0.00    -0.458 OA
BRANCH  32  33
ATOM     33  C   UNL     1      -1.180   0.084  13.189  1.00  0.00     0.338 C 
ATOM     34  O   UNL     1      -1.796  -0.492  12.307  1.00  0.00    -0.246 OA
BRANCH  33  35
ATOM     35  C   UNL     1      -1.003   1.544  13.199  1.00  0.00     0.060 A 
ATOM     36  C   UNL     1      -2.146   2.344  13.094  1.00  0.00     0.016 A 
ATOM     37  C   UNL     1       0.265   2.123  13.215  1.00  0.00     0.016 A 
ATOM     38  C   UNL     1      -2.036   3.725  12.998  1.00  0.00     0.010 A 
ATOM     39  C   UNL     1       0.378   3.513  13.106  1.00  0.00     0.010 A 
ATOM     40  C   UNL     1      -0.770   4.316  12.982  1.00  0.00    -0.014 A 
BRANCH  40  41
ATOM     41  C   UNL     1      -0.648   5.768  12.730  1.00  0.00     0.031 A 
ATOM     42  C   UNL     1      -0.217   6.239  11.372  1.00  0.00     0.074 A 
ATOM     43  C   UNL     1      -0.950   6.653  13.696  1.00  0.00     0.049 A 
ATOM     44  N   UNL     1       0.078   7.449  10.971  1.00  0.00    -0.248 NA
ATOM     45  C   UNL     1      -0.104   5.210  10.325  1.00  0.00     0.031 C 
ATOM     46  C   UNL     1      -1.463   6.316  15.024  1.00  0.00     0.029 A 
ATOM     47  N   UNL     1      -0.862   8.021  13.705  1.00  0.00    -0.354 N 
ATOM     48  C   UNL     1       0.438   7.323   9.636  1.00  0.00     0.074 A 
ATOM     49  C   UNL     1       0.332   5.921   9.295  1.00  0.00     0.031 C 
ATOM     50  C   UNL     1      -1.635   7.450  15.725  1.00  0.00     0.029 A 
ATOM     51  C   UNL     1      -1.194   8.582  14.914  1.00  0.00     0.049 A 
ATOM     52  H   UNL     1      -0.588   8.550  12.921  1.00  0.00     0.167 HD
ATOM     53  C   UNL     1       0.827   8.293   8.775  1.00  0.00     0.031 A 
ATOM     54  C   UNL     1      -1.112   9.860  15.329  1.00  0.00     0.031 A 
ATOM     55  C   UNL     1       0.929   9.684   9.122  1.00  0.00     0.049 A 
ATOM     56  C   UNL     1      -0.594  10.905  14.379  1.00  0.00     0.074 A 
ATOM     57  C   UNL     1       1.331  10.745   8.329  1.00  0.00     0.029 A 
ATOM     58  N   UNL     1       0.621  10.208  10.368  1.00  0.00    -0.354 N 
ATOM     59  N   UNL     1      -0.220  10.773  13.129  1.00  0.00    -0.248 NA
ATOM     60  C   UNL     1      -0.484  12.275  14.899  1.00  0.00     0.031 C 
ATOM     61  C   UNL     1       1.305  11.905   9.109  1.00  0.00     0.029 A 
ATOM     62  C   UNL     1       0.837  11.574  10.371  1.00  0.00     0.049 A 
ATOM     63  H   UNL     1       0.295   9.685  11.136  1.00  0.00     0.167 HD
ATOM     64  C   UNL     1       0.144  12.045  12.706  1.00  0.00     0.074 A 
ATOM     65  C   UNL     1      -0.066  12.936  13.829  1.00  0.00     0.031 C 
ATOM     66  C   UNL     1       0.610  12.442  11.497  1.00  0.00     0.031 A 
BRANCH  53  67
ATOM     67  C   UNL     1       1.214   7.870   7.388  1.00  0.00    -0.014 A 
ATOM     68  C   UNL     1       0.250   7.483   6.444  1.00  0.00     0.009 A 
ATOM     69  C   UNL     1       2.566   7.889   7.011  1.00  0.00     0.009 A 
ATOM     70  C   UNL     1       0.636   7.099   5.158  1.00  0.00     0.001 A 
ATOM     71  C   UNL     1       2.947   7.528   5.717  1.00  0.00     0.001 A 
ATOM     72  C   UNL     1       1.983   7.126   4.795  1.00  0.00     0.000 A 
ENDBRANCH  53  67
BRANCH  54  73
ATOM     73  C   UNL     1      -1.482  10.219  16.722  1.00  0.00    -0.014 A 
ATOM     74  C   UNL     1      -2.615  11.003  16.984  1.00  0.00     0.009 A 
ATOM     75  C   UNL     1      -0.687   9.795  17.799  1.00  0.00     0.009 A 
ATOM     76  C   UNL     1      -2.929  11.378  18.293  1.00  0.00     0.001 A 
ATOM     77  C   UNL     1      -1.019  10.147  19.109  1.00  0.00     0.001 A 
ATOM     78  C   UNL     1      -2.133  10.947  19.354  1.00  0.00     0.000 A 
ENDBRANCH  54  73
BRANCH  66  79
ATOM     79  C   UNL     1       0.875  13.908  11.312  1.00  0.00    -0.014 A 
ATOM     80  C   UNL     1       1.995  14.526  11.888  1.00  0.00     0.009 A 
ATOM     81  C   UNL     1       0.009  14.670  10.512  1.00  0.00     0.009 A 
ATOM     82  C   UNL     1       2.227  15.888  11.689  1.00  0.00     0.001 A 
ATOM     83  C   UNL     1       0.258  16.025  10.293  1.00  0.00     0.001 A 
ATOM     84  C   UNL     1       1.362  16.635  10.889  1.00  0.00     0.000 A 
ENDBRANCH  66  79
ENDBRANCH  40  41
ENDBRANCH  33  35
ENDBRANCH  32  33
ENDBRANCH  31  32
ENDBRANCH  30  31
ENDBRANCH  29  30
ENDBRANCH  27  29
ENDBRANCH   1  27
TORSDOF 20
