REMARK SMILES COC(=O)c1c(NC(=O)[C@@H]2[C@H]3CC[C@H](CC3)[C@H]2C(=O)OCCOC(=O)c2ccc(-c3c4nc(c(-c5ccccc5)c5ccc([nH]5)c(-c5ccccc5)c5nc(c(-c6ccccc6)c6ccc3[nH]6)C=C5)C=C4)cc2)sc(C)c1-c1ccc(C)cc1
REMARK SMILES IDX 21 1 20 2 18 3 19 4 17 5 10 6 11 7 12 8 16 9 14 10 13 11
REMARK SMILES IDX 15 12 8 13 7 14 9 16 6 17 5 18 77 19 74 20 75 21 76 22 3 23
REMARK SMILES IDX 4 24 2 25 1 26 78 27 79 28 84 29 80 30 83 31 81 32 82 33
REMARK SMILES IDX 22 34 23 35 24 36 25 37 26 38 27 39 73 40 28 41 72 42 29 43
REMARK SMILES IDX 30 44 31 45 66 46 32 47 71 48 65 49 67 50 33 51 70 52 64 53
REMARK SMILES IDX 63 54 34 56 56 57 41 58 55 59 42 60 45 61 54 62 68 63 43 64
REMARK SMILES IDX 44 65 53 67 69 68 46 69 35 70 36 71 40 72 37 73 39 74 38 75
REMARK SMILES IDX 57 76 58 77 62 78 59 79 61 80 60 81 47 82 48 83 52 84 49 85
REMARK SMILES IDX 51 86 50 87
REMARK H PARENT 7 15 67 55 45 66
REMARK Flexibility Score: inf
ROOT
ATOM      1  C   UNL     1       4.407  -4.438   0.480  1.00  0.00     0.274 C 
ENDROOT
BRANCH   1   2
ATOM      2  O   UNL     1       3.909  -5.438  -0.436  1.00  0.00    -0.462 OA
BRANCH   2   3
ATOM      3  C   UNL     1       2.593  -5.705  -0.271  1.00  0.00     0.310 C 
ATOM      4  O   UNL     1       1.876  -5.093   0.523  1.00  0.00    -0.252 OA
BRANCH   3   5
ATOM      5  C   UNL     1       2.065  -6.955  -0.952  1.00  0.00     0.115 C 
ATOM      6  C   UNL     1       2.850  -7.673  -2.117  1.00  0.00     0.096 C 
ATOM      7  C   UNL     1       3.287  -9.011  -1.540  1.00  0.00     0.002 C 
ATOM      8  C   UNL     1       4.130  -8.792  -0.280  1.00  0.00     0.005 C 
ATOM      9  C   UNL     1       2.030  -9.843  -1.167  1.00  0.00     0.005 C 
ATOM     10  C   UNL     1       1.861  -7.896   0.284  1.00  0.00     0.004 C 
ATOM     11  C   UNL     1       3.220  -8.352   0.858  1.00  0.00     0.005 C 
ATOM     12  C   UNL     1       1.112  -9.113  -0.206  1.00  0.00     0.005 C 
BRANCH   6  13
ATOM     13  C   UNL     1       2.067  -7.750  -3.493  1.00  0.00     0.229 C 
ATOM     14  N   UNL     1       2.215  -8.702  -4.505  1.00  0.00    -0.317 N 
ATOM     15  H   UNL     1       2.475  -8.376  -5.396  1.00  0.00     0.170 HD
ATOM     16  O   UNL     1       1.358  -6.775  -3.796  1.00  0.00    -0.274 OA
BRANCH  14  17
ATOM     17  C   UNL     1       2.022 -10.079  -4.356  1.00  0.00     0.111 A 
ATOM     18  C   UNL     1       1.051 -10.963  -4.842  1.00  0.00     0.102 A 
ATOM     19  C   UNL     1       1.114 -12.192  -4.059  1.00  0.00     0.012 A 
ATOM     20  S   UNL     1       3.356 -11.077  -3.913  1.00  0.00    -0.122 S 
ATOM     21  C   UNL     1       2.247 -12.216  -3.263  1.00  0.00     0.012 A 
ATOM     22  C   UNL     1       2.577 -13.084  -2.095  1.00  0.00     0.057 C 
BRANCH  18  23
ATOM     23  C   UNL     1       0.113 -10.657  -5.920  1.00  0.00     0.341 C 
ATOM     24  O   UNL     1       0.249  -9.708  -6.669  1.00  0.00    -0.246 OA
BRANCH  23  25
ATOM     25  O   UNL     1      -0.845 -11.621  -6.049  1.00  0.00    -0.465 OA
ATOM     26  C   UNL     1      -1.559 -11.654  -7.283  1.00  0.00     0.282 C 
ENDBRANCH  23  25
ENDBRANCH  18  23
BRANCH  19  27
ATOM     27  C   UNL     1       0.297 -13.396  -4.106  1.00  0.00    -0.016 A 
ATOM     28  C   UNL     1       0.673 -14.393  -5.012  1.00  0.00     0.009 A 
ATOM     29  C   UNL     1      -0.723 -13.644  -3.183  1.00  0.00     0.009 A 
ATOM     30  C   UNL     1       0.058 -15.640  -4.981  1.00  0.00     0.004 A 
ATOM     31  C   UNL     1      -1.343 -14.900  -3.156  1.00  0.00     0.004 A 
ATOM     32  C   UNL     1      -0.946 -15.909  -4.045  1.00  0.00    -0.051 A 
ATOM     33  C   UNL     1      -1.559 -17.277  -4.008  1.00  0.00     0.044 C 
ENDBRANCH  19  27
ENDBRANCH  14  17
ENDBRANCH   6  13
ENDBRANCH   3   5
ENDBRANCH   2   3
ENDBRANCH   1   2
BRANCH   1  34
ATOM     34  C   UNL     1       4.243  -2.994  -0.021  1.00  0.00     0.275 C 
BRANCH  34  35
ATOM     35  O   UNL     1       2.872  -2.602  -0.231  1.00  0.00    -0.458 OA
BRANCH  35  36
ATOM     36  C   UNL     1       2.382  -2.902  -1.460  1.00  0.00     0.338 C 
ATOM     37  O   UNL     1       2.999  -3.397  -2.389  1.00  0.00    -0.246 OA
BRANCH  36  38
ATOM     38  C   UNL     1       0.927  -2.682  -1.512  1.00  0.00     0.060 A 
ATOM     39  C   UNL     1       0.088  -3.796  -1.589  1.00  0.00     0.016 A 
ATOM     40  C   UNL     1       0.393  -1.403  -1.636  1.00  0.00     0.016 A 
ATOM     41  C   UNL     1      -1.277  -3.660  -1.788  1.00  0.00     0.010 A 
ATOM     42  C   UNL     1      -0.984  -1.258  -1.842  1.00  0.00     0.010 A 
ATOM     43  C   UNL     1      -1.823  -2.387  -1.931  1.00  0.00    -0.014 A 
BRANCH  43  44
ATOM     44  C   UNL     1      -3.256  -2.251  -2.271  1.00  0.00     0.031 A 
ATOM     45  C   UNL     1      -3.639  -1.769  -3.639  1.00  0.00     0.074 A 
ATOM     46  C   UNL     1      -4.200  -2.585  -1.372  1.00  0.00     0.049 A 
ATOM     47  N   UNL     1      -4.812  -1.403  -4.086  1.00  0.00    -0.248 NA
ATOM     48  C   UNL     1      -2.557  -1.680  -4.634  1.00  0.00     0.031 C 
ATOM     49  C   UNL     1      -3.949  -3.159  -0.048  1.00  0.00     0.029 A 
ATOM     50  N   UNL     1      -5.566  -2.481  -1.437  1.00  0.00    -0.354 N 
ATOM     51  C   UNL     1      -4.600  -0.991  -5.396  1.00  0.00     0.074 A 
ATOM     52  C   UNL     1      -3.190  -1.153  -5.673  1.00  0.00     0.031 C 
ATOM     53  C   UNL     1      -5.122  -3.346   0.577  1.00  0.00     0.029 A 
ATOM     54  C   UNL     1      -6.196  -2.840  -0.271  1.00  0.00     0.049 A 
ATOM     55  H   UNL     1      -6.048  -2.179  -2.241  1.00  0.00     0.167 HD
ATOM     56  C   UNL     1      -5.507  -0.513  -6.280  1.00  0.00     0.031 A 
ATOM     57  C   UNL     1      -7.487  -2.721   0.091  1.00  0.00     0.031 A 
ATOM     58  C   UNL     1      -6.911  -0.383  -5.995  1.00  0.00     0.049 A 
ATOM     59  C   UNL     1      -8.458  -2.113  -0.883  1.00  0.00     0.074 A 
ATOM     60  C   UNL     1      -7.918   0.083  -6.822  1.00  0.00     0.029 A 
ATOM     61  N   UNL     1      -7.505  -0.728  -4.791  1.00  0.00    -0.354 N 
ATOM     62  N   UNL     1      -8.248  -1.692  -2.107  1.00  0.00    -0.248 NA
ATOM     63  C   UNL     1      -9.844  -1.958  -0.422  1.00  0.00     0.031 C 
ATOM     64  C   UNL     1      -9.114   0.070  -6.098  1.00  0.00     0.029 A 
ATOM     65  C   UNL     1      -8.863  -0.463  -4.844  1.00  0.00     0.049 A 
ATOM     66  H   UNL     1      -7.032  -1.106  -4.015  1.00  0.00     0.167 HD
ATOM     67  C   UNL     1      -9.478  -1.248  -2.571  1.00  0.00     0.074 A 
ATOM     68  C   UNL     1     -10.433  -1.470  -1.504  1.00  0.00     0.031 C 
ATOM     69  C   UNL     1      -9.793  -0.703  -3.772  1.00  0.00     0.031 A 
BRANCH  56  70
ATOM     70  C   UNL     1      -5.004  -0.045  -7.616  1.00  0.00    -0.014 A 
ATOM     71  C   UNL     1      -4.577  -0.947  -8.601  1.00  0.00     0.009 A 
ATOM     72  C   UNL     1      -5.007   1.329  -7.908  1.00  0.00     0.009 A 
ATOM     73  C   UNL     1      -4.142  -0.480  -9.845  1.00  0.00     0.001 A 
ATOM     74  C   UNL     1      -4.599   1.791  -9.159  1.00  0.00     0.001 A 
ATOM     75  C   UNL     1      -4.161   0.886 -10.125  1.00  0.00     0.000 A 
ENDBRANCH  56  70
BRANCH  57  76
ATOM     76  C   UNL     1      -7.926  -3.119   1.455  1.00  0.00    -0.014 A 
ATOM     77  C   UNL     1      -8.811  -4.191   1.641  1.00  0.00     0.009 A 
ATOM     78  C   UNL     1      -7.486  -2.404   2.581  1.00  0.00     0.009 A 
ATOM     79  C   UNL     1      -9.272  -4.517   2.919  1.00  0.00     0.001 A 
ATOM     80  C   UNL     1      -7.920  -2.753   3.861  1.00  0.00     0.001 A 
ATOM     81  C   UNL     1      -8.823  -3.800   4.028  1.00  0.00     0.000 A 
ENDBRANCH  57  76
BRANCH  69  82
ATOM     82  C   UNL     1     -11.236  -0.360  -4.009  1.00  0.00    -0.014 A 
ATOM     83  C   UNL     1     -11.843   0.732  -3.370  1.00  0.00     0.009 A 
ATOM     84  C   UNL     1     -11.986  -1.124  -4.916  1.00  0.00     0.009 A 
ATOM     85  C   UNL     1     -13.185   1.029  -3.609  1.00  0.00     0.001 A 
ATOM     86  C   UNL     1     -13.319  -0.804  -5.177  1.00  0.00     0.001 A 
ATOM     87  C   UNL     1     -13.920   0.265  -4.516  1.00  0.00     0.000 A 
ENDBRANCH  69  82
ENDBRANCH  43  44
ENDBRANCH  36  38
ENDBRANCH  35  36
ENDBRANCH  34  35
ENDBRANCH   1  34
TORSDOF 16
