REMARK SMILES COc1ccc(C2=NN(C(=O)CCC(=O)OCCOC(=O)c3ccc(-c4c5nc(c(-c6ccccc6)c6ccc([nH]6)c(-c6ccccc6)c6nc(c(-c7ccccc7)c7ccc4[nH]7)C=C6)C=C5)cc3)[C@H](c3ccc(Cl)cc3Cl)C2)cc1
REMARK SMILES IDX 16 1 14 2 15 3 13 4 12 5 10 6 11 7 9 8 7 9 8 10 79 11 70 12
REMARK SMILES IDX 6 13 3 14 4 15 81 16 5 17 80 18 2 19 1 20 71 21 72 22 77 23
REMARK SMILES IDX 73 24 76 25 78 26 74 27 75 28 17 29 18 30 19 31 20 32 21 33
REMARK SMILES IDX 22 34 23 35 69 36 24 37 68 38 25 39 26 40 27 41 62 42 28 43
REMARK SMILES IDX 67 44 61 45 63 46 29 47 66 48 60 49 59 50 30 52 52 53 37 54
REMARK SMILES IDX 51 55 38 56 41 57 50 58 64 59 39 60 40 61 49 63 65 64 42 65
REMARK SMILES IDX 31 66 32 67 36 68 33 69 35 70 34 71 53 72 54 73 58 74 55 75
REMARK SMILES IDX 57 76 56 77 43 78 44 79 48 80 45 81 47 82 46 83
REMARK H PARENT 63 51 41 62
REMARK Flexibility Score: inf
ROOT
ATOM      1  O   UNL     1       5.121   6.230   4.955  1.00  0.00    -0.462 OA
ENDROOT
BRANCH   1   2
ATOM      2  C   UNL     1       5.455   6.656   6.203  1.00  0.00     0.306 C 
ATOM      3  O   UNL     1       6.552   7.098   6.518  1.00  0.00    -0.252 OA
BRANCH   2   4
ATOM      4  C   UNL     1       4.324   6.478   7.184  1.00  0.00     0.132 C 
BRANCH   4   5
ATOM      5  C   UNL     1       3.109   7.355   6.892  1.00  0.00     0.114 C 
BRANCH   5   6
ATOM      6  C   UNL     1       1.948   6.500   6.426  1.00  0.00     0.243 C 
ATOM      7  O   UNL     1       1.464   5.696   7.232  1.00  0.00    -0.273 OA
BRANCH   6   8
ATOM      8  N   UNL     1       1.542   6.582   5.095  1.00  0.00    -0.225 N 
ATOM      9  C   UNL     1       1.153   5.423   3.317  1.00  0.00     0.071 C 
ATOM     10  N   UNL     1       1.003   5.399   4.597  1.00  0.00    -0.174 NA
ATOM     11  C   UNL     1       1.653   6.692   2.731  1.00  0.00     0.091 C 
ATOM     12  C   UNL     1       2.060   7.435   4.005  1.00  0.00     0.149 C 
BRANCH   9  13
ATOM     13  C   UNL     1       0.944   4.274   2.444  1.00  0.00    -0.002 A 
ATOM     14  C   UNL     1       0.675   2.167   0.658  1.00  0.00     0.118 A 
ATOM     15  C   UNL     1      -0.383   3.062   0.861  1.00  0.00     0.047 A 
ATOM     16  C   UNL     1       1.881   2.345   1.340  1.00  0.00     0.047 A 
ATOM     17  C   UNL     1      -0.256   4.119   1.761  1.00  0.00     0.014 A 
ATOM     18  C   UNL     1       2.016   3.400   2.242  1.00  0.00     0.014 A 
BRANCH  14  19
ATOM     19  O   UNL     1       0.436   1.179  -0.257  1.00  0.00    -0.497 OA
ATOM     20  C   UNL     1       1.148  -0.035  -0.038  1.00  0.00     0.278 C 
ENDBRANCH  14  19
ENDBRANCH   9  13
BRANCH  12  21
ATOM     21  C   UNL     1       1.769   8.935   3.881  1.00  0.00    -0.004 A 
ATOM     22  C   UNL     1       2.267   9.552   2.695  1.00  0.00     0.009 A 
ATOM     23  C   UNL     1       1.248   9.799   4.857  1.00  0.00     0.047 A 
ATOM     24  C   UNL     1       2.326  10.937   2.532  1.00  0.00     0.021 A 
ATOM     25  C   UNL     1       1.339  11.196   4.706  1.00  0.00     0.041 A 
ATOM     26  Cl  UNL     1       0.440   9.270   6.282  1.00  0.00    -0.084 Cl
ATOM     27  C   UNL     1       1.896  11.755   3.561  1.00  0.00     0.042 A 
ATOM     28  Cl  UNL     1       2.071  13.460   3.425  1.00  0.00    -0.084 Cl
ENDBRANCH  12  21
ENDBRANCH   6   8
ENDBRANCH   5   6
ENDBRANCH   4   5
ENDBRANCH   2   4
ENDBRANCH   1   2
BRANCH   1  29
ATOM     29  C   UNL     1       6.178   6.241   3.973  1.00  0.00     0.274 C 
BRANCH  29  30
ATOM     30  C   UNL     1       6.178   7.500   3.096  1.00  0.00     0.275 C 
BRANCH  30  31
ATOM     31  O   UNL     1       6.684   8.662   3.781  1.00  0.00    -0.458 OA
BRANCH  31  32
ATOM     32  C   UNL     1       5.738   9.362   4.438  1.00  0.00     0.338 C 
ATOM     33  O   UNL     1       4.553   9.101   4.495  1.00  0.00    -0.246 OA
BRANCH  32  34
ATOM     34  C   UNL     1       6.261  10.506   5.171  1.00  0.00     0.060 A 
ATOM     35  C   UNL     1       6.136  10.495   6.563  1.00  0.00     0.016 A 
ATOM     36  C   UNL     1       6.676  11.646   4.484  1.00  0.00     0.016 A 
ATOM     37  C   UNL     1       6.458  11.634   7.286  1.00  0.00     0.010 A 
ATOM     38  C   UNL     1       7.012  12.785   5.213  1.00  0.00     0.010 A 
ATOM     39  C   UNL     1       6.910  12.779   6.614  1.00  0.00    -0.014 A 
BRANCH  39  40
ATOM     40  C   UNL     1       7.369  13.944   7.394  1.00  0.00     0.031 A 
ATOM     41  C   UNL     1       6.526  15.175   7.512  1.00  0.00     0.074 A 
ATOM     42  C   UNL     1       8.575  13.867   7.983  1.00  0.00     0.049 A 
ATOM     43  N   UNL     1       6.798  16.296   8.129  1.00  0.00    -0.248 NA
ATOM     44  C   UNL     1       5.213  15.148   6.851  1.00  0.00     0.031 C 
ATOM     45  C   UNL     1       9.462  12.701   7.932  1.00  0.00     0.029 A 
ATOM     46  N   UNL     1       9.261  14.779   8.737  1.00  0.00    -0.354 N 
ATOM     47  C   UNL     1       5.696  17.114   7.926  1.00  0.00     0.074 A 
ATOM     48  C   UNL     1       4.758  16.366   7.114  1.00  0.00     0.031 C 
ATOM     49  C   UNL     1      10.572  12.967   8.637  1.00  0.00     0.029 A 
ATOM     50  C   UNL     1      10.487  14.327   9.153  1.00  0.00     0.049 A 
ATOM     51  H   UNL     1       8.909  15.671   8.959  1.00  0.00     0.167 HD
ATOM     52  C   UNL     1       5.493  18.376   8.375  1.00  0.00     0.031 A 
ATOM     53  C   UNL     1      11.444  14.948   9.864  1.00  0.00     0.031 A 
ATOM     54  C   UNL     1       6.446  19.115   9.163  1.00  0.00     0.049 A 
ATOM     55  C   UNL     1      11.199  16.351  10.331  1.00  0.00     0.074 A 
ATOM     56  C   UNL     1       6.344  20.402   9.662  1.00  0.00     0.029 A 
ATOM     57  N   UNL     1       7.680  18.627   9.567  1.00  0.00    -0.354 N 
ATOM     58  N   UNL     1      10.150  17.112  10.137  1.00  0.00    -0.248 NA
ATOM     59  C   UNL     1      12.266  16.976  11.123  1.00  0.00     0.031 C 
ATOM     60  C   UNL     1       7.532  20.704  10.340  1.00  0.00     0.029 A 
ATOM     61  C   UNL     1       8.354  19.589  10.301  1.00  0.00     0.049 A 
ATOM     62  H   UNL     1       8.026  17.728   9.362  1.00  0.00     0.167 HD
ATOM     63  C   UNL     1      10.418  18.300  10.800  1.00  0.00     0.074 A 
ATOM     64  C   UNL     1      11.724  18.150  11.413  1.00  0.00     0.031 C 
ATOM     65  C   UNL     1       9.654  19.415  10.894  1.00  0.00     0.031 A 
BRANCH  52  66
ATOM     66  C   UNL     1       4.204  19.045   7.992  1.00  0.00    -0.014 A 
ATOM     67  C   UNL     1       2.990  18.682   8.596  1.00  0.00     0.009 A 
ATOM     68  C   UNL     1       4.206  20.070   7.034  1.00  0.00     0.009 A 
ATOM     69  C   UNL     1       1.800  19.313   8.227  1.00  0.00     0.001 A 
ATOM     70  C   UNL     1       3.018  20.714   6.682  1.00  0.00     0.001 A 
ATOM     71  C   UNL     1       1.815  20.330   7.272  1.00  0.00     0.000 A 
ENDBRANCH  52  66
BRANCH  53  72
ATOM     72  C   UNL     1      12.705  14.235  10.178  1.00  0.00    -0.014 A 
ATOM     73  C   UNL     1      12.957  13.773  11.477  1.00  0.00     0.009 A 
ATOM     74  C   UNL     1      13.648  13.982   9.169  1.00  0.00     0.009 A 
ATOM     75  C   UNL     1      14.138  13.086  11.765  1.00  0.00     0.001 A 
ATOM     76  C   UNL     1      14.816  13.273   9.454  1.00  0.00     0.001 A 
ATOM     77  C   UNL     1      15.063  12.832  10.753  1.00  0.00     0.000 A 
ENDBRANCH  53  72
BRANCH  65  78
ATOM     78  C   UNL     1      10.210  20.538  11.718  1.00  0.00    -0.014 A 
ATOM     79  C   UNL     1      11.251  21.346  11.236  1.00  0.00     0.009 A 
ATOM     80  C   UNL     1       9.682  20.789  12.993  1.00  0.00     0.009 A 
ATOM     81  C   UNL     1      11.779  22.363  12.034  1.00  0.00     0.001 A 
ATOM     82  C   UNL     1      10.197  21.820  13.779  1.00  0.00     0.001 A 
ATOM     83  C   UNL     1      11.251  22.599  13.303  1.00  0.00     0.000 A 
ENDBRANCH  65  78
ENDBRANCH  39  40
ENDBRANCH  32  34
ENDBRANCH  31  32
ENDBRANCH  30  31
ENDBRANCH  29  30
ENDBRANCH   1  29
TORSDOF 17
