REMARK SMILES Cc1ccccc1S(=O)(=O)Nc1ccc(N2CCOCC2)cc1C(=O)OCCOC(=O)c1ccc(-c2c3nc(c(-c4ccccc4)c4ccc([nH]4)c(-c4ccccc4)c4nc(c(-c5ccccc5)c5ccc2[nH]5)C=C4)C=C3)cc1
REMARK SMILES IDX 27 1 26 2 24 3 25 4 23 5 12 6 13 7 14 8 22 9 15 10 11 11
REMARK SMILES IDX 8 13 9 14 10 15 7 16 1 17 2 18 3 19 4 20 6 21 5 22 16 23
REMARK SMILES IDX 17 24 21 25 18 26 20 27 19 28 28 29 29 30 30 31 31 32 32 33
REMARK SMILES IDX 33 34 79 35 34 36 78 37 35 38 36 39 37 40 72 41 38 42 77 43
REMARK SMILES IDX 71 44 73 45 39 46 76 47 70 48 69 49 40 51 62 52 47 53 61 54
REMARK SMILES IDX 48 55 51 56 60 57 74 58 49 59 50 60 59 62 75 63 52 64 41 65
REMARK SMILES IDX 42 66 46 67 43 68 45 69 44 70 63 71 64 72 68 73 65 74 67 75
REMARK SMILES IDX 66 76 53 77 54 78 58 79 55 80 57 81 56 82
REMARK H PARENT 11 12 73 50 51 61
REMARK Flexibility Score: inf
ROOT
ATOM      1  C   UNL     1      -0.542  -1.139  -2.123  1.00  0.00     0.275 C 
ENDROOT
BRANCH   1   2
ATOM      2  O   UNL     1       0.455  -0.594  -1.234  1.00  0.00    -0.458 OA
BRANCH   2   3
ATOM      3  C   UNL     1       1.695  -1.062  -1.556  1.00  0.00     0.340 C 
ATOM      4  O   UNL     1       1.911  -1.759  -2.547  1.00  0.00    -0.246 OA
BRANCH   3   5
ATOM      5  C   UNL     1       2.809  -0.870  -0.586  1.00  0.00     0.086 A 
ATOM      6  C   UNL     1       3.114   0.225   0.231  1.00  0.00     0.064 A 
ATOM      7  C   UNL     1       4.294   0.202   0.994  1.00  0.00     0.030 A 
ATOM      8  C   UNL     1       5.140  -0.912   0.987  1.00  0.00     0.028 A 
ATOM      9  C   UNL     1       3.702  -1.963  -0.588  1.00  0.00     0.043 A 
ATOM     10  C   UNL     1       4.864  -2.011   0.179  1.00  0.00     0.038 A 
BRANCH   6  11
ATOM     11  N   UNL     1       2.331   1.411   0.281  1.00  0.00    -0.279 N 
ATOM     12  H   UNL     1       2.290   2.009  -0.500  1.00  0.00     0.180 HD
BRANCH  11  13
ATOM     13  S   UNL     1       1.466   1.791   1.693  1.00  0.00     0.262 S 
ATOM     14  O   UNL     1       0.896   3.095   1.412  1.00  0.00    -0.201 OA
ATOM     15  O   UNL     1       2.310   1.621   2.853  1.00  0.00    -0.201 OA
BRANCH  13  16
ATOM     16  C   UNL     1       0.162   0.579   1.688  1.00  0.00     0.090 A 
ATOM     17  C   UNL     1       1.587  -1.360   2.671  1.00  0.00     0.046 C 
ATOM     18  C   UNL     1       0.364  -0.775   2.025  1.00  0.00    -0.031 A 
ATOM     19  C   UNL     1      -0.669  -1.689   1.738  1.00  0.00     0.005 A 
ATOM     20  C   UNL     1      -1.895  -1.262   1.236  1.00  0.00     0.000 A 
ATOM     21  C   UNL     1      -1.093   1.010   1.235  1.00  0.00     0.022 A 
ATOM     22  C   UNL     1      -2.123   0.093   1.034  1.00  0.00     0.001 A 
ENDBRANCH  13  16
ENDBRANCH  11  13
ENDBRANCH   6  11
BRANCH  10  23
ATOM     23  N   UNL     1       5.725  -3.090   0.134  1.00  0.00    -0.367 N 
ATOM     24  C   UNL     1       6.048  -3.736  -1.151  1.00  0.00     0.145 C 
ATOM     25  C   UNL     1       5.757  -3.999   1.290  1.00  0.00     0.145 C 
ATOM     26  C   UNL     1       5.242  -5.032  -1.344  1.00  0.00     0.181 C 
ATOM     27  C   UNL     1       4.932  -5.264   0.988  1.00  0.00     0.181 C 
ATOM     28  O   UNL     1       5.378  -5.913  -0.217  1.00  0.00    -0.378 OA
ENDBRANCH  10  23
ENDBRANCH   3   5
ENDBRANCH   2   3
ENDBRANCH   1   2
BRANCH   1  29
ATOM     29  C   UNL     1      -1.925  -0.461  -2.211  1.00  0.00     0.275 C 
BRANCH  29  30
ATOM     30  O   UNL     1      -2.138   0.914  -1.801  1.00  0.00    -0.458 OA
BRANCH  30  31
ATOM     31  C   UNL     1      -1.419   2.019  -2.088  1.00  0.00     0.338 C 
ATOM     32  O   UNL     1      -1.664   3.122  -1.616  1.00  0.00    -0.246 OA
BRANCH  31  33
ATOM     33  C   UNL     1      -0.261   1.816  -2.940  1.00  0.00     0.060 A 
ATOM     34  C   UNL     1       0.999   2.169  -2.442  1.00  0.00     0.016 A 
ATOM     35  C   UNL     1      -0.432   1.185  -4.167  1.00  0.00     0.016 A 
ATOM     36  C   UNL     1       2.135   1.810  -3.147  1.00  0.00     0.010 A 
ATOM     37  C   UNL     1       0.687   0.760  -4.835  1.00  0.00     0.010 A 
ATOM     38  C   UNL     1       1.955   1.130  -4.352  1.00  0.00    -0.014 A 
BRANCH  38  39
ATOM     39  C   UNL     1       2.925   1.239  -5.422  1.00  0.00     0.031 A 
ATOM     40  C   UNL     1       3.912   0.197  -5.717  1.00  0.00     0.074 A 
ATOM     41  C   UNL     1       2.618   2.289  -6.218  1.00  0.00     0.049 A 
ATOM     42  N   UNL     1       4.976   0.407  -6.412  1.00  0.00    -0.248 NA
ATOM     43  C   UNL     1       3.824  -1.174  -5.214  1.00  0.00     0.031 C 
ATOM     44  C   UNL     1       2.974   2.563  -7.593  1.00  0.00     0.029 A 
ATOM     45  N   UNL     1       1.937   3.451  -5.814  1.00  0.00    -0.354 N 
ATOM     46  C   UNL     1       5.470  -0.834  -6.752  1.00  0.00     0.074 A 
ATOM     47  C   UNL     1       4.838  -1.768  -5.856  1.00  0.00     0.031 C 
ATOM     48  C   UNL     1       2.804   3.884  -7.812  1.00  0.00     0.029 A 
ATOM     49  C   UNL     1       2.507   4.500  -6.521  1.00  0.00     0.049 A 
ATOM     50  H   UNL     1       1.204   3.509  -5.160  1.00  0.00     0.167 HD
ATOM     51  C   UNL     1       6.167  -0.976  -7.913  1.00  0.00     0.031 A 
ATOM     52  C   UNL     1       3.271   5.433  -5.878  1.00  0.00     0.031 A 
ATOM     53  C   UNL     1       6.254   0.299  -8.613  1.00  0.00     0.049 A 
ATOM     54  C   UNL     1       4.682   5.396  -6.416  1.00  0.00     0.074 A 
ATOM     55  C   UNL     1       5.475   0.851  -9.617  1.00  0.00     0.029 A 
ATOM     56  N   UNL     1       6.957   1.344  -8.033  1.00  0.00    -0.354 N 
ATOM     57  N   UNL     1       5.263   4.320  -6.874  1.00  0.00    -0.248 NA
ATOM     58  C   UNL     1       5.522   6.580  -6.518  1.00  0.00     0.031 C 
ATOM     59  C   UNL     1       5.665   2.257  -9.591  1.00  0.00     0.029 A 
ATOM     60  C   UNL     1       6.567   2.549  -8.582  1.00  0.00     0.049 A 
ATOM     61  H   UNL     1       7.638   1.241  -7.330  1.00  0.00     0.167 HD
ATOM     62  C   UNL     1       6.456   4.666  -7.451  1.00  0.00     0.074 A 
ATOM     63  C   UNL     1       6.594   6.084  -7.160  1.00  0.00     0.031 C 
ATOM     64  C   UNL     1       7.217   3.779  -8.158  1.00  0.00     0.031 A 
BRANCH  51  65
ATOM     65  C   UNL     1       6.432  -2.305  -8.568  1.00  0.00    -0.014 A 
ATOM     66  C   UNL     1       6.393  -2.401  -9.973  1.00  0.00     0.009 A 
ATOM     67  C   UNL     1       6.711  -3.490  -7.867  1.00  0.00     0.009 A 
ATOM     68  C   UNL     1       6.555  -3.619 -10.642  1.00  0.00     0.001 A 
ATOM     69  C   UNL     1       6.854  -4.719  -8.533  1.00  0.00     0.001 A 
ATOM     70  C   UNL     1       6.770  -4.783  -9.920  1.00  0.00     0.000 A 
ENDBRANCH  51  65
BRANCH  52  71
ATOM     71  C   UNL     1       2.918   5.708  -4.446  1.00  0.00    -0.014 A 
ATOM     72  C   UNL     1       1.619   6.174  -4.141  1.00  0.00     0.009 A 
ATOM     73  C   UNL     1       3.716   5.265  -3.379  1.00  0.00     0.009 A 
ATOM     74  C   UNL     1       1.111   6.123  -2.837  1.00  0.00     0.001 A 
ATOM     75  C   UNL     1       3.210   5.236  -2.067  1.00  0.00     0.001 A 
ATOM     76  C   UNL     1       1.903   5.641  -1.800  1.00  0.00     0.000 A 
ENDBRANCH  52  71
BRANCH  64  77
ATOM     77  C   UNL     1       8.647   3.972  -8.600  1.00  0.00    -0.014 A 
ATOM     78  C   UNL     1       9.513   4.931  -8.072  1.00  0.00     0.009 A 
ATOM     79  C   UNL     1       9.217   3.023  -9.485  1.00  0.00     0.009 A 
ATOM     80  C   UNL     1      10.868   4.959  -8.427  1.00  0.00     0.001 A 
ATOM     81  C   UNL     1      10.576   3.008  -9.793  1.00  0.00     0.001 A 
ATOM     82  C   UNL     1      11.402   3.988  -9.269  1.00  0.00     0.000 A 
ENDBRANCH  64  77
ENDBRANCH  38  39
ENDBRANCH  31  33
ENDBRANCH  30  31
ENDBRANCH  29  30
ENDBRANCH   1  29
TORSDOF 15
