REMARK SMILES Cc1ccccc1NC(=S)NN1C(=O)CS[C@H]1c1ccccc1C(=O)OCCOC(=O)c1ccc(-c2c3nc(c(-c4ccccc4)c4ccc([nH]4)c(-c4ccccc4)c4nc(c(-c5ccccc5)c5ccc2[nH]5)C=C4)C=C3)cc1
REMARK SMILES IDX 26 1 24 2 25 3 23 4 18 5 19 6 20 7 22 8 21 9 17 10 12 11
REMARK SMILES IDX 13 12 14 13 15 14 16 15 11 16 9 18 10 19 8 20 7 22 1 23 2 24
REMARK SMILES IDX 3 25 4 26 6 27 5 28 27 29 28 30 29 31 30 32 31 33 32 34
REMARK SMILES IDX 33 35 79 36 34 37 78 38 35 39 36 40 37 41 72 42 38 43 77 44
REMARK SMILES IDX 71 45 73 46 39 47 76 48 70 49 69 50 40 52 62 53 47 54 61 55
REMARK SMILES IDX 48 56 51 57 60 58 74 59 49 60 50 61 59 63 75 64 52 65 41 66
REMARK SMILES IDX 42 67 46 68 43 69 45 70 44 71 63 72 64 73 68 74 65 75 67 76
REMARK SMILES IDX 66 77 53 78 54 79 58 80 55 81 57 82 56 83
REMARK H PARENT 11 17 8 21 73 51 51 62
REMARK Flexibility Score: inf
ROOT
ATOM      1  O   UNL     1      -0.323   3.543   0.918  1.00  0.00    -0.458 OA
ENDROOT
BRANCH   1   2
ATOM      2  C   UNL     1      -1.208   5.070   0.893  1.00  0.00     0.338 C 
ATOM      3  O   UNL     1      -0.201   5.812   0.800  1.00  0.00    -0.246 OA
BRANCH   2   4
ATOM      4  C   UNL     1      -3.360   5.308   0.597  1.00  0.00     0.066 A 
ATOM      5  C   UNL     1      -4.251   4.242  -0.400  1.00  0.00     0.001 A 
ATOM      6  C   UNL     1      -5.651   4.284  -0.602  1.00  0.00     0.008 A 
ATOM      7  C   UNL     1      -6.372   5.353  -0.123  1.00  0.00     0.000 A 
ATOM      8  C   UNL     1      -4.347   6.370   0.906  1.00  0.00     0.016 A 
ATOM      9  C   UNL     1      -5.728   6.392   0.536  1.00  0.00     0.001 A 
BRANCH   5  10
ATOM     10  C   UNL     1      -3.480   2.981  -1.445  1.00  0.00     0.197 C 
ATOM     11  N   UNL     1      -1.894   2.421  -1.210  1.00  0.00    -0.236 N 
ATOM     12  C   UNL     1      -2.134   1.045  -0.332  1.00  0.00     0.252 C 
ATOM     13  O   UNL     1      -1.707   0.735   0.790  1.00  0.00    -0.272 OA
ATOM     14  C   UNL     1      -3.319   0.276  -0.761  1.00  0.00     0.174 C 
ATOM     15  S   UNL     1      -4.585   1.421  -1.209  1.00  0.00    -0.120 SA
BRANCH  11  16
ATOM     16  N   UNL     1      -0.282   3.596  -1.170  1.00  0.00    -0.270 N 
ATOM     17  H   UNL     1      -0.508   4.518  -0.908  1.00  0.00     0.191 HD
BRANCH  16  18
ATOM     18  C   UNL     1       1.399   3.413  -1.476  1.00  0.00     0.189 C 
ATOM     19  S   UNL     1       2.384   4.768  -1.263  1.00  0.00    -0.039 S 
BRANCH  18  20
ATOM     20  N   UNL     1       2.140   1.970  -1.464  1.00  0.00    -0.331 N 
ATOM     21  H   UNL     1       3.115   2.091  -1.535  1.00  0.00     0.169 HD
BRANCH  20  22
ATOM     22  C   UNL     1       1.794   0.441  -1.375  1.00  0.00     0.043 A 
ATOM     23  C   UNL     1       3.672  -0.319   0.218  1.00  0.00     0.046 C 
ATOM     24  C   UNL     1       2.292  -0.405  -0.358  1.00  0.00    -0.028 A 
ATOM     25  C   UNL     1       1.543  -1.560   0.055  1.00  0.00     0.005 A 
ATOM     26  C   UNL     1       0.342  -1.914  -0.541  1.00  0.00     0.000 A 
ATOM     27  C   UNL     1       0.832  -0.215  -2.169  1.00  0.00     0.026 A 
ATOM     28  C   UNL     1       0.015  -1.266  -1.705  1.00  0.00     0.002 A 
ENDBRANCH  20  22
ENDBRANCH  18  20
ENDBRANCH  16  18
ENDBRANCH  11  16
ENDBRANCH   5  10
ENDBRANCH   2   4
ENDBRANCH   1   2
BRANCH   1  29
ATOM     29  C   UNL     1       0.083   2.053  -0.146  1.00  0.00     0.275 C 
BRANCH  29  30
ATOM     30  C   UNL     1      -0.233   2.007  -2.206  1.00  0.00     0.275 C 
BRANCH  30  31
ATOM     31  O   UNL     1      -1.056   3.464  -3.014  1.00  0.00    -0.458 OA
BRANCH  31  32
ATOM     32  C   UNL     1      -1.547   4.799  -2.510  1.00  0.00     0.338 C 
ATOM     33  O   UNL     1      -1.565   5.772  -3.259  1.00  0.00    -0.246 OA
BRANCH  32  34
ATOM     34  C   UNL     1      -2.028   5.060  -0.929  1.00  0.00     0.060 A 
ATOM     35  C   UNL     1      -1.974   6.700  -0.166  1.00  0.00     0.016 A 
ATOM     36  C   UNL     1      -2.346   3.693   0.364  1.00  0.00     0.016 A 
ATOM     37  C   UNL     1      -2.071   6.785   1.672  1.00  0.00     0.010 A 
ATOM     38  C   UNL     1      -2.536   3.920   2.024  1.00  0.00     0.010 A 
ATOM     39  C   UNL     1      -2.312   5.366   2.728  1.00  0.00    -0.014 A 
BRANCH  39  40
ATOM     40  C   UNL     1      -1.403   4.735   3.843  1.00  0.00     0.031 A 
ATOM     41  C   UNL     1      -2.043   3.453   4.596  1.00  0.00     0.074 A 
ATOM     42  C   UNL     1      -0.067   5.038   3.778  1.00  0.00     0.049 A 
ATOM     43  N   UNL     1      -2.214   3.353   5.878  1.00  0.00    -0.248 NA
ATOM     44  C   UNL     1      -2.757   2.231   3.981  1.00  0.00     0.031 C 
ATOM     45  C   UNL     1       1.151   4.503   4.397  1.00  0.00     0.029 A 
ATOM     46  N   UNL     1       0.446   6.158   3.121  1.00  0.00    -0.354 N 
ATOM     47  C   UNL     1      -2.437   1.989   6.106  1.00  0.00     0.074 A 
ATOM     48  C   UNL     1      -3.183   1.516   5.009  1.00  0.00     0.031 C 
ATOM     49  C   UNL     1       2.095   5.479   4.438  1.00  0.00     0.029 A 
ATOM     50  C   UNL     1       1.571   6.662   3.769  1.00  0.00     0.049 A 
ATOM     51  H   UNL     1       0.060   6.544   2.301  1.00  0.00     0.167 HD
ATOM     52  C   UNL     1      -1.543   1.257   6.839  1.00  0.00     0.031 A 
ATOM     53  C   UNL     1       1.407   7.916   4.278  1.00  0.00     0.031 A 
ATOM     54  C   UNL     1      -0.481   2.142   7.314  1.00  0.00     0.049 A 
ATOM     55  C   UNL     1       0.865   7.749   5.691  1.00  0.00     0.074 A 
ATOM     56  C   UNL     1       0.877   2.243   7.086  1.00  0.00     0.029 A 
ATOM     57  N   UNL     1      -0.866   3.364   7.841  1.00  0.00    -0.354 N 
ATOM     58  N   UNL     1       0.413   6.616   6.169  1.00  0.00    -0.248 NA
ATOM     59  C   UNL     1       0.923   8.783   6.716  1.00  0.00     0.031 C 
ATOM     60  C   UNL     1       1.266   3.586   7.417  1.00  0.00     0.029 A 
ATOM     61  C   UNL     1       0.145   4.294   7.821  1.00  0.00     0.049 A 
ATOM     62  H   UNL     1      -1.768   3.546   8.192  1.00  0.00     0.167 HD
ATOM     63  C   UNL     1       0.203   6.709   7.509  1.00  0.00     0.074 A 
ATOM     64  C   UNL     1       0.514   8.098   7.801  1.00  0.00     0.031 C 
ATOM     65  C   UNL     1      -0.159   5.647   8.293  1.00  0.00     0.031 A 
BRANCH  52  66
ATOM     66  C   UNL     1      -1.486  -0.263   6.935  1.00  0.00    -0.014 A 
ATOM     67  C   UNL     1      -0.581  -0.821   7.853  1.00  0.00     0.009 A 
ATOM     68  C   UNL     1      -2.268  -1.201   6.223  1.00  0.00     0.009 A 
ATOM     69  C   UNL     1      -0.478  -2.205   8.067  1.00  0.00     0.001 A 
ATOM     70  C   UNL     1      -2.177  -2.589   6.435  1.00  0.00     0.001 A 
ATOM     71  C   UNL     1      -1.284  -3.091   7.366  1.00  0.00     0.000 A 
ENDBRANCH  52  66
BRANCH  53  72
ATOM     72  C   UNL     1       0.963   8.857   3.171  1.00  0.00    -0.014 A 
ATOM     73  C   UNL     1       1.814   8.921   2.033  1.00  0.00     0.009 A 
ATOM     74  C   UNL     1      -0.345   9.325   2.999  1.00  0.00     0.009 A 
ATOM     75  C   UNL     1       1.327   9.213   0.751  1.00  0.00     0.001 A 
ATOM     76  C   UNL     1      -0.812   9.701   1.714  1.00  0.00     0.001 A 
ATOM     77  C   UNL     1      -0.001   9.572   0.586  1.00  0.00     0.000 A 
ENDBRANCH  53  72
BRANCH  65  78
ATOM     78  C   UNL     1      -0.836   5.795   9.642  1.00  0.00    -0.014 A 
ATOM     79  C   UNL     1      -1.320   7.007  10.139  1.00  0.00     0.009 A 
ATOM     80  C   UNL     1      -1.124   4.649  10.422  1.00  0.00     0.009 A 
ATOM     81  C   UNL     1      -1.928   7.090  11.396  1.00  0.00     0.001 A 
ATOM     82  C   UNL     1      -1.828   4.708  11.622  1.00  0.00     0.001 A 
ATOM     83  C   UNL     1      -2.187   5.941  12.133  1.00  0.00     0.000 A 
ENDBRANCH  65  78
ENDBRANCH  39  40
ENDBRANCH  32  34
ENDBRANCH  31  32
ENDBRANCH  30  31
ENDBRANCH  29  30
ENDBRANCH   1  29
TORSDOF 16
