REMARK SMILES COc1ccc2[nH]cc([C@H](C(=O)OCCOC(=O)c3ccc(-c4c5nc(c(-c6ccccc6)c6ccc([nH]6)c(-c6ccccc6)c6nc(c(-c7ccccc7)c7ccc4[nH]7)C=C6)C=C5)cc3)[NH+]3CC[NH+](Cc4cccc5ccccc45)CC3)c2c1
REMARK SMILES IDX 14 1 13 2 11 3 12 4 10 5 9 6 3 7 4 8 85 9 5 10 84 11 6 12
REMARK SMILES IDX 7 13 8 14 2 16 1 17 67 18 68 19 83 20 69 22 82 23 70 24
REMARK SMILES IDX 71 26 72 27 73 28 81 29 74 30 76 31 80 32 75 33 77 34 79 35
REMARK SMILES IDX 78 36 15 37 16 38 17 39 18 40 19 41 20 42 66 43 21 44 65 45
REMARK SMILES IDX 22 46 23 47 24 48 59 49 25 50 64 51 58 52 60 53 26 54 63 55
REMARK SMILES IDX 57 56 56 57 27 59 49 60 34 61 48 62 35 63 38 64 47 65 61 66
REMARK SMILES IDX 36 67 37 68 46 70 62 71 39 72 28 73 29 74 33 75 30 76 32 77
REMARK SMILES IDX 31 78 50 79 51 80 55 81 52 82 54 83 53 84 40 85 41 86 45 87
REMARK SMILES IDX 42 88 44 89 43 90
REMARK H PARENT 7 15 67 21 70 25 60 58 38 69
REMARK Flexibility Score: inf
ROOT
ATOM      1  C   UNL     1       1.808   2.320   4.888  1.00  0.00     0.274 C 
ENDROOT
BRANCH   1   2
ATOM      2  O   UNL     1       0.543   2.989   4.719  1.00  0.00    -0.457 OA
BRANCH   2   3
ATOM      3  C   UNL     1      -0.415   2.442   3.928  1.00  0.00     0.370 C 
ATOM      4  O   UNL     1      -0.181   1.563   3.101  1.00  0.00    -0.245 OA
BRANCH   3   5
ATOM      5  C   UNL     1      -1.835   2.996   4.233  1.00  0.00     0.328 C 
BRANCH   5   6
ATOM      6  C   UNL     1      -2.687   2.080   5.106  1.00  0.00     0.046 A 
ATOM      7  C   UNL     1      -0.877  -0.900   6.702  1.00  0.00     0.119 A 
ATOM      8  C   UNL     1      -1.962  -1.337   7.434  1.00  0.00     0.048 A 
ATOM      9  C   UNL     1      -1.068   0.149   5.822  1.00  0.00     0.057 A 
ATOM     10  C   UNL     1      -3.216  -0.701   7.381  1.00  0.00     0.030 A 
ATOM     11  C   UNL     1      -2.275   0.871   5.766  1.00  0.00     0.013 A 
ATOM     12  C   UNL     1      -3.336   0.414   6.545  1.00  0.00     0.046 A 
ATOM     13  N   UNL     1      -4.397   1.254   6.311  1.00  0.00    -0.361 N 
ATOM     14  C   UNL     1      -4.024   2.252   5.448  1.00  0.00     0.094 A 
ATOM     15  H   UNL     1      -5.293   1.154   6.705  1.00  0.00     0.166 HD
BRANCH   7  16
ATOM     16  O   UNL     1       0.403  -1.377   6.720  1.00  0.00    -0.497 OA
ATOM     17  C   UNL     1       0.844  -2.042   7.889  1.00  0.00     0.278 C 
ENDBRANCH   7  16
ENDBRANCH   5   6
BRANCH   5  18
ATOM     18  N   UNL     1      -1.858   4.413   4.666  1.00  0.00    -0.310 N 
ATOM     19  C   UNL     1      -1.913   4.802   6.073  1.00  0.00     0.325 C 
ATOM     20  C   UNL     1      -1.126   5.339   3.813  1.00  0.00     0.325 C 
ATOM     21  H   UNL     1      -2.857   4.525   4.490  1.00  0.00     0.349 HD
ATOM     22  C   UNL     1      -0.754   5.665   6.667  1.00  0.00     0.324 C 
ATOM     23  C   UNL     1       0.101   6.051   4.443  1.00  0.00     0.324 C 
ATOM     24  N   UNL     1      -0.053   6.604   5.790  1.00  0.00    -0.322 N 
ATOM     25  H   UNL     1       0.897   6.697   6.151  1.00  0.00     0.348 HD
BRANCH  24  26
ATOM     26  C   UNL     1      -0.474   8.005   5.892  1.00  0.00     0.300 C 
BRANCH  26  27
ATOM     27  C   UNL     1      -1.844   8.302   5.318  1.00  0.00     0.014 A 
ATOM     28  C   UNL     1      -1.913   8.594   3.944  1.00  0.00     0.010 A 
ATOM     29  C   UNL     1      -3.037   8.072   6.056  1.00  0.00    -0.010 A 
ATOM     30  C   UNL     1      -3.111   8.461   3.258  1.00  0.00     0.001 A 
ATOM     31  C   UNL     1      -4.230   7.850   5.331  1.00  0.00    -0.018 A 
ATOM     32  C   UNL     1      -3.098   7.997   7.469  1.00  0.00     0.009 A 
ATOM     33  C   UNL     1      -4.246   8.028   3.939  1.00  0.00     0.009 A 
ATOM     34  C   UNL     1      -5.382   7.421   6.010  1.00  0.00     0.009 A 
ATOM     35  C   UNL     1      -4.270   7.633   8.133  1.00  0.00     0.001 A 
ATOM     36  C   UNL     1      -5.402   7.310   7.400  1.00  0.00     0.001 A 
ENDBRANCH  26  27
ENDBRANCH  24  26
ENDBRANCH   5  18
ENDBRANCH   3   5
ENDBRANCH   2   3
ENDBRANCH   1   2
BRANCH   1  37
ATOM     37  C   UNL     1       2.424   2.744   6.244  1.00  0.00     0.275 C 
BRANCH  37  38
ATOM     38  O   UNL     1       1.960   2.007   7.421  1.00  0.00    -0.458 OA
BRANCH  38  39
ATOM     39  C   UNL     1       0.682   2.263   7.769  1.00  0.00     0.338 C 
ATOM     40  O   UNL     1      -0.076   2.945   7.096  1.00  0.00    -0.246 OA
BRANCH  39  41
ATOM     41  C   UNL     1       0.116   1.634   8.977  1.00  0.00     0.060 A 
ATOM     42  C   UNL     1      -1.278   1.743   9.112  1.00  0.00     0.016 A 
ATOM     43  C   UNL     1       0.829   0.879   9.905  1.00  0.00     0.016 A 
ATOM     44  C   UNL     1      -1.969   0.953  10.016  1.00  0.00     0.010 A 
ATOM     45  C   UNL     1       0.126   0.106  10.854  1.00  0.00     0.010 A 
ATOM     46  C   UNL     1      -1.278   0.075  10.858  1.00  0.00    -0.014 A 
BRANCH  46  47
ATOM     47  C   UNL     1      -2.118  -0.807  11.716  1.00  0.00     0.031 A 
ATOM     48  C   UNL     1      -2.869  -0.185  12.837  1.00  0.00     0.074 A 
ATOM     49  C   UNL     1      -2.385  -2.086  11.380  1.00  0.00     0.049 A 
ATOM     50  N   UNL     1      -3.734  -0.743  13.636  1.00  0.00    -0.248 NA
ATOM     51  C   UNL     1      -2.575   1.226  13.126  1.00  0.00     0.031 C 
ATOM     52  C   UNL     1      -1.692  -2.813  10.341  1.00  0.00     0.029 A 
ATOM     53  N   UNL     1      -3.349  -2.979  11.786  1.00  0.00    -0.354 N 
ATOM     54  C   UNL     1      -4.033   0.226  14.574  1.00  0.00     0.074 A 
ATOM     55  C   UNL     1      -3.315   1.427  14.204  1.00  0.00     0.031 C 
ATOM     56  C   UNL     1      -2.379  -3.914  10.009  1.00  0.00     0.029 A 
ATOM     57  C   UNL     1      -3.436  -4.104  10.985  1.00  0.00     0.049 A 
ATOM     58  H   UNL     1      -3.923  -2.832  12.573  1.00  0.00     0.167 HD
ATOM     59  C   UNL     1      -4.774   0.081  15.694  1.00  0.00     0.031 A 
ATOM     60  C   UNL     1      -4.213  -5.205  11.068  1.00  0.00     0.031 A 
ATOM     61  C   UNL     1      -5.392  -1.156  16.085  1.00  0.00     0.049 A 
ATOM     62  C   UNL     1      -5.010  -5.348  12.331  1.00  0.00     0.074 A 
ATOM     63  C   UNL     1      -6.075  -1.446  17.250  1.00  0.00     0.029 A 
ATOM     64  N   UNL     1      -5.384  -2.319  15.324  1.00  0.00    -0.354 N 
ATOM     65  N   UNL     1      -5.208  -4.461  13.275  1.00  0.00    -0.248 NA
ATOM     66  C   UNL     1      -5.592  -6.668  12.603  1.00  0.00     0.031 C 
ATOM     67  C   UNL     1      -6.436  -2.798  17.217  1.00  0.00     0.029 A 
ATOM     68  C   UNL     1      -6.047  -3.331  15.997  1.00  0.00     0.049 A 
ATOM     69  H   UNL     1      -4.968  -2.410  14.436  1.00  0.00     0.167 HD
ATOM     70  C   UNL     1      -5.900  -5.122  14.274  1.00  0.00     0.074 A 
ATOM     71  C   UNL     1      -6.143  -6.469  13.792  1.00  0.00     0.031 C 
ATOM     72  C   UNL     1      -6.271  -4.663  15.494  1.00  0.00     0.031 A 
BRANCH  59  73
ATOM     73  C   UNL     1      -4.789   1.257  16.620  1.00  0.00    -0.014 A 
ATOM     74  C   UNL     1      -5.471   2.441  16.299  1.00  0.00     0.009 A 
ATOM     75  C   UNL     1      -4.027   1.203  17.797  1.00  0.00     0.009 A 
ATOM     76  C   UNL     1      -5.353   3.562  17.122  1.00  0.00     0.001 A 
ATOM     77  C   UNL     1      -3.938   2.314  18.633  1.00  0.00     0.001 A 
ATOM     78  C   UNL     1      -4.590   3.496  18.289  1.00  0.00     0.000 A 
ENDBRANCH  59  73
BRANCH  60  79
ATOM     79  C   UNL     1      -4.135  -6.324  10.073  1.00  0.00    -0.014 A 
ATOM     80  C   UNL     1      -5.277  -6.783   9.393  1.00  0.00     0.009 A 
ATOM     81  C   UNL     1      -2.915  -6.975   9.817  1.00  0.00     0.009 A 
ATOM     82  C   UNL     1      -5.192  -7.849   8.485  1.00  0.00     0.001 A 
ATOM     83  C   UNL     1      -2.821  -7.999   8.871  1.00  0.00     0.001 A 
ATOM     84  C   UNL     1      -3.961  -8.443   8.211  1.00  0.00     0.000 A 
ENDBRANCH  60  79
BRANCH  72  85
ATOM     85  C   UNL     1      -7.039  -5.620  16.355  1.00  0.00    -0.014 A 
ATOM     86  C   UNL     1      -6.423  -6.720  16.970  1.00  0.00     0.009 A 
ATOM     87  C   UNL     1      -8.410  -5.401  16.552  1.00  0.00     0.009 A 
ATOM     88  C   UNL     1      -7.180  -7.609  17.735  1.00  0.00     0.001 A 
ATOM     89  C   UNL     1      -9.156  -6.271  17.344  1.00  0.00     0.001 A 
ATOM     90  C   UNL     1      -8.543  -7.380  17.924  1.00  0.00     0.000 A 
ENDBRANCH  72  85
ENDBRANCH  46  47
ENDBRANCH  39  41
ENDBRANCH  38  39
ENDBRANCH  37  38
ENDBRANCH   1  37
TORSDOF 16
