REMARK SMILES O=C(COc1ccccc1/C=N\N1CC[NH+](Cc2ccc(Cl)cc2)CC1)OCCOC(=O)c1ccc(-c2c3nc(c(-c4ccccc4)c4ccc([nH]4)c(-c4ccccc4)c4nc(c(-c5ccccc5)c5ccc2[nH]5)C=C4)C=C3)cc1
REMARK SMILES IDX 1 1 2 2 3 3 4 4 5 5 6 6 10 7 7 8 9 9 8 10 11 11 12 12 13 13
REMARK SMILES IDX 14 14 26 15 15 16 25 17 16 18 17 20 18 21 19 22 24 23 20 24
REMARK SMILES IDX 23 25 21 26 22 27 27 28 28 29 29 30 30 31 31 32 32 33 33 34
REMARK SMILES IDX 34 35 80 36 35 37 79 38 36 39 37 40 38 41 73 42 39 43 78 44
REMARK SMILES IDX 72 45 74 46 40 47 77 48 71 49 70 50 41 52 63 53 48 54 62 55
REMARK SMILES IDX 49 56 52 57 61 58 75 59 50 60 51 61 60 63 76 64 53 65 42 66
REMARK SMILES IDX 43 67 47 68 44 69 46 70 45 71 64 72 65 73 69 74 66 75 68 76
REMARK SMILES IDX 67 77 54 78 55 79 59 80 56 81 58 82 57 83
REMARK H PARENT 16 19 74 51 52 62
REMARK Flexibility Score: inf
ROOT
ATOM      1  O   UNL     1       1.844   0.451  -0.428  1.00  0.00    -0.248 OA
ATOM      2  C   UNL     1       2.968   0.237   0.016  1.00  0.00     0.344 C 
ENDROOT
BRANCH   2   3
ATOM      3  C   UNL     1       3.356   0.593   1.465  1.00  0.00     0.352 C 
BRANCH   3   4
ATOM      4  O   UNL     1       4.154  -0.229   2.274  1.00  0.00    -0.481 OA
BRANCH   4   5
ATOM      5  C   UNL     1       3.696  -1.360   2.886  1.00  0.00     0.129 A 
ATOM      6  C   UNL     1       4.448  -1.652   4.038  1.00  0.00     0.047 A 
ATOM      7  C   UNL     1       2.771  -2.305   2.426  1.00  0.00     0.037 A 
ATOM      8  C   UNL     1       4.375  -2.894   4.662  1.00  0.00     0.004 A 
ATOM      9  C   UNL     1       2.854  -3.603   2.953  1.00  0.00     0.013 A 
ATOM     10  C   UNL     1       3.628  -3.896   4.072  1.00  0.00     0.001 A 
BRANCH   7  11
ATOM     11  C   UNL     1       1.654  -1.915   1.534  1.00  0.00     0.145 C 
ATOM     12  N   UNL     1       0.802  -2.568   0.798  1.00  0.00    -0.185 NA
BRANCH  12  13
ATOM     13  N   UNL     1       0.738  -3.900   0.938  1.00  0.00    -0.286 NA
ATOM     14  C   UNL     1       0.411  -4.629  -0.300  1.00  0.00     0.200 C 
ATOM     15  C   UNL     1      -0.220  -4.290   1.998  1.00  0.00     0.200 C 
ATOM     16  C   UNL     1       0.287  -6.155  -0.090  1.00  0.00     0.286 C 
ATOM     17  C   UNL     1      -0.232  -5.802   2.246  1.00  0.00     0.286 C 
ATOM     18  N   UNL     1      -0.507  -6.618   1.060  1.00  0.00    -0.328 N 
ATOM     19  H   UNL     1      -0.180  -7.564   1.254  1.00  0.00     0.348 HD
BRANCH  18  20
ATOM     20  C   UNL     1      -1.934  -6.861   0.807  1.00  0.00     0.299 C 
BRANCH  20  21
ATOM     21  C   UNL     1      -2.812  -5.655   0.555  1.00  0.00     0.006 A 
ATOM     22  C   UNL     1      -3.457  -4.999   1.619  1.00  0.00     0.011 A 
ATOM     23  C   UNL     1      -2.926  -5.119  -0.735  1.00  0.00     0.011 A 
ATOM     24  C   UNL     1      -4.105  -3.778   1.411  1.00  0.00     0.021 A 
ATOM     25  C   UNL     1      -3.573  -3.899  -0.943  1.00  0.00     0.021 A 
ATOM     26  C   UNL     1      -4.140  -3.224   0.135  1.00  0.00     0.041 A 
ATOM     27  Cl  UNL     1      -4.868  -1.684  -0.109  1.00  0.00    -0.084 Cl
ENDBRANCH  20  21
ENDBRANCH  18  20
ENDBRANCH  12  13
ENDBRANCH   7  11
ENDBRANCH   4   5
ENDBRANCH   3   4
ENDBRANCH   2   3
BRANCH   2  28
ATOM     28  O   UNL     1       3.920  -0.338  -0.750  1.00  0.00    -0.460 OA
BRANCH  28  29
ATOM     29  C   UNL     1       5.135   0.398  -0.962  1.00  0.00     0.274 C 
BRANCH  29  30
ATOM     30  C   UNL     1       4.889   1.771  -1.610  1.00  0.00     0.275 C 
BRANCH  30  31
ATOM     31  O   UNL     1       4.349   2.674  -0.616  1.00  0.00    -0.458 OA
BRANCH  31  32
ATOM     32  C   UNL     1       3.151   3.255  -0.895  1.00  0.00     0.338 C 
ATOM     33  O   UNL     1       2.574   3.272  -1.953  1.00  0.00    -0.246 OA
BRANCH  32  34
ATOM     34  C   UNL     1       2.559   3.714   0.397  1.00  0.00     0.060 A 
ATOM     35  C   UNL     1       1.234   3.366   0.688  1.00  0.00     0.016 A 
ATOM     36  C   UNL     1       3.315   4.421   1.338  1.00  0.00     0.016 A 
ATOM     37  C   UNL     1       0.654   3.753   1.901  1.00  0.00     0.010 A 
ATOM     38  C   UNL     1       2.728   4.819   2.547  1.00  0.00     0.010 A 
ATOM     39  C   UNL     1       1.383   4.516   2.823  1.00  0.00    -0.014 A 
BRANCH  39  40
ATOM     40  C   UNL     1       0.678   5.173   3.956  1.00  0.00     0.031 A 
ATOM     41  C   UNL     1       0.187   6.585   3.765  1.00  0.00     0.074 A 
ATOM     42  C   UNL     1       0.436   4.543   5.121  1.00  0.00     0.049 A 
ATOM     43  N   UNL     1      -0.497   7.347   4.581  1.00  0.00    -0.248 NA
ATOM     44  C   UNL     1       0.512   7.220   2.477  1.00  0.00     0.031 C 
ATOM     45  C   UNL     1       0.832   3.176   5.450  1.00  0.00     0.029 A 
ATOM     46  N   UNL     1      -0.213   4.987   6.250  1.00  0.00    -0.354 N 
ATOM     47  C   UNL     1      -0.704   8.538   3.897  1.00  0.00     0.074 A 
ATOM     48  C   UNL     1      -0.026   8.420   2.624  1.00  0.00     0.031 C 
ATOM     49  C   UNL     1       0.420   2.893   6.701  1.00  0.00     0.029 A 
ATOM     50  C   UNL     1      -0.257   4.061   7.264  1.00  0.00     0.049 A 
ATOM     51  H   UNL     1      -0.609   5.885   6.324  1.00  0.00     0.167 HD
ATOM     52  C   UNL     1      -1.410   9.630   4.276  1.00  0.00     0.031 A 
ATOM     53  C   UNL     1      -0.780   4.147   8.505  1.00  0.00     0.031 A 
ATOM     54  C   UNL     1      -2.058   9.784   5.549  1.00  0.00     0.049 A 
ATOM     55  C   UNL     1      -1.493   5.405   8.936  1.00  0.00     0.074 A 
ATOM     56  C   UNL     1      -2.789  10.861   6.020  1.00  0.00     0.029 A 
ATOM     57  N   UNL     1      -2.046   8.836   6.559  1.00  0.00    -0.354 N 
ATOM     58  N   UNL     1      -1.720   6.505   8.260  1.00  0.00    -0.248 NA
ATOM     59  C   UNL     1      -2.040   5.421  10.303  1.00  0.00     0.031 C 
ATOM     60  C   UNL     1      -3.175  10.586   7.336  1.00  0.00     0.029 A 
ATOM     61  C   UNL     1      -2.737   9.313   7.661  1.00  0.00     0.049 A 
ATOM     62  H   UNL     1      -1.611   7.955   6.502  1.00  0.00     0.167 HD
ATOM     63  C   UNL     1      -2.460   7.327   9.106  1.00  0.00     0.074 A 
ATOM     64  C   UNL     1      -2.662   6.591  10.335  1.00  0.00     0.031 C 
ATOM     65  C   UNL     1      -2.930   8.579   8.884  1.00  0.00     0.031 A 
BRANCH  52  66
ATOM     66  C   UNL     1      -1.500  10.759   3.288  1.00  0.00    -0.014 A 
ATOM     67  C   UNL     1      -2.279  10.640   2.126  1.00  0.00     0.009 A 
ATOM     68  C   UNL     1      -0.818  11.961   3.532  1.00  0.00     0.009 A 
ATOM     69  C   UNL     1      -2.348  11.692   1.211  1.00  0.00     0.001 A 
ATOM     70  C   UNL     1      -0.912  13.021   2.629  1.00  0.00     0.001 A 
ATOM     71  C   UNL     1      -1.668  12.883   1.465  1.00  0.00     0.000 A 
ENDBRANCH  52  66
BRANCH  53  72
ATOM     72  C   UNL     1      -0.649   3.010   9.457  1.00  0.00    -0.014 A 
ATOM     73  C   UNL     1      -1.774   2.276   9.865  1.00  0.00     0.009 A 
ATOM     74  C   UNL     1       0.601   2.696  10.014  1.00  0.00     0.009 A 
ATOM     75  C   UNL     1      -1.657   1.279  10.836  1.00  0.00     0.001 A 
ATOM     76  C   UNL     1       0.721   1.677  10.961  1.00  0.00     0.001 A 
ATOM     77  C   UNL     1      -0.409   0.978  11.382  1.00  0.00     0.000 A 
ENDBRANCH  53  72
BRANCH  65  78
ATOM     78  C   UNL     1      -3.737   9.222   9.980  1.00  0.00    -0.014 A 
ATOM     79  C   UNL     1      -3.142   9.638  11.182  1.00  0.00     0.009 A 
ATOM     80  C   UNL     1      -5.112   9.438   9.797  1.00  0.00     0.009 A 
ATOM     81  C   UNL     1      -3.915  10.214  12.193  1.00  0.00     0.001 A 
ATOM     82  C   UNL     1      -5.877  10.043  10.796  1.00  0.00     0.001 A 
ATOM     83  C   UNL     1      -5.280  10.418  11.998  1.00  0.00     0.000 A 
ENDBRANCH  65  78
ENDBRANCH  39  40
ENDBRANCH  32  34
ENDBRANCH  31  32
ENDBRANCH  30  31
ENDBRANCH  29  30
ENDBRANCH  28  29
ENDBRANCH   2  28
TORSDOF 17
