REMARK SMILES O=C(/C=C/c1ccc(O)c(O)c1)OCCOC(=O)c1ccc(-c2c3nc(c(-c4ccccc4)c4ccc([nH]4)c(-c4ccccc4)c4nc(c(-c5ccccc5)c5ccc2[nH]5)C=C4)C=C3)cc1
REMARK SMILES IDX 14 1 13 2 2 3 1 4 3 5 4 6 5 7 6 8 12 9 7 10 10 11 8 12 11 13
REMARK SMILES IDX 9 15 15 17 16 18 17 19 18 20 19 21 20 22 66 23 21 24 65 25
REMARK SMILES IDX 22 26 23 27 24 28 59 29 25 30 64 31 58 32 60 33 26 34 63 35
REMARK SMILES IDX 57 36 56 37 27 39 49 40 34 41 48 42 35 43 38 44 47 45 61 46
REMARK SMILES IDX 36 47 37 48 46 50 62 51 39 52 28 53 29 54 33 55 30 56 32 57
REMARK SMILES IDX 31 58 50 59 51 60 55 61 52 62 54 63 53 64 40 65 41 66 45 67
REMARK SMILES IDX 42 68 44 69 43 70
REMARK H PARENT 11 14 9 16 60 38 38 49
REMARK Flexibility Score: inf
ROOT
ATOM      1  C   UNL     1       4.405   1.162   0.640  1.00  0.00     0.275 C 
ENDROOT
BRANCH   1   2
ATOM      2  O   UNL     1       3.200   1.091  -0.153  1.00  0.00    -0.459 OA
BRANCH   2   3
ATOM      3  C   UNL     1       2.878   0.195  -1.113  1.00  0.00     0.330 C 
ATOM      4  O   UNL     1       1.883   0.357  -1.815  1.00  0.00    -0.247 OA
BRANCH   3   5
ATOM      5  C   UNL     1       3.586  -1.091  -1.210  1.00  0.00     0.094 C 
ATOM      6  C   UNL     1       4.906  -1.310  -1.269  1.00  0.00     0.016 C 
BRANCH   6   7
ATOM      7  C   UNL     1       5.473  -2.660  -1.172  1.00  0.00    -0.021 A 
ATOM      8  C   UNL     1       5.048  -3.720  -1.988  1.00  0.00     0.012 A 
ATOM      9  C   UNL     1       6.475  -2.886  -0.219  1.00  0.00     0.058 A 
ATOM     10  C   UNL     1       5.617  -4.992  -1.858  1.00  0.00     0.051 A 
ATOM     11  C   UNL     1       7.031  -4.151  -0.094  1.00  0.00     0.157 A 
ATOM     12  C   UNL     1       6.613  -5.197  -0.910  1.00  0.00     0.157 A 
BRANCH  11  13
ATOM     13  O   UNL     1       8.001  -4.360   0.845  1.00  0.00    -0.504 OA
ATOM     14  H   UNL     1       8.385  -5.210   0.939  1.00  0.00     0.293 HD
ENDBRANCH  11  13
BRANCH  12  15
ATOM     15  O   UNL     1       7.218  -6.411  -0.743  1.00  0.00    -0.504 OA
ATOM     16  H   UNL     1       6.962  -7.139  -1.275  1.00  0.00     0.293 HD
ENDBRANCH  12  15
ENDBRANCH   6   7
ENDBRANCH   3   5
ENDBRANCH   2   3
ENDBRANCH   1   2
BRANCH   1  17
ATOM     17  C   UNL     1       4.371   0.378   1.954  1.00  0.00     0.275 C 
BRANCH  17  18
ATOM     18  O   UNL     1       4.020  -1.001   1.772  1.00  0.00    -0.458 OA
BRANCH  18  19
ATOM     19  C   UNL     1       2.716  -1.291   2.006  1.00  0.00     0.338 C 
ATOM     20  O   UNL     1       1.860  -0.521   2.409  1.00  0.00    -0.246 OA
BRANCH  19  21
ATOM     21  C   UNL     1       2.411  -2.670   1.565  1.00  0.00     0.060 A 
ATOM     22  C   UNL     1       1.178  -2.891   0.936  1.00  0.00     0.016 A 
ATOM     23  C   UNL     1       3.300  -3.732   1.755  1.00  0.00     0.016 A 
ATOM     24  C   UNL     1       0.820  -4.176   0.525  1.00  0.00     0.010 A 
ATOM     25  C   UNL     1       2.939  -5.020   1.344  1.00  0.00     0.010 A 
ATOM     26  C   UNL     1       1.686  -5.254   0.751  1.00  0.00    -0.014 A 
BRANCH  26  27
ATOM     27  C   UNL     1       1.228  -6.638   0.476  1.00  0.00     0.031 A 
ATOM     28  C   UNL     1       0.718  -7.483   1.611  1.00  0.00     0.074 A 
ATOM     29  C   UNL     1       1.242  -7.139  -0.773  1.00  0.00     0.049 A 
ATOM     30  N   UNL     1       0.256  -8.709   1.589  1.00  0.00    -0.248 NA
ATOM     31  C   UNL     1       0.728  -6.864   2.946  1.00  0.00     0.031 C 
ATOM     32  C   UNL     1       1.674  -6.422  -1.970  1.00  0.00     0.029 A 
ATOM     33  N   UNL     1       0.873  -8.378  -1.236  1.00  0.00    -0.354 N 
ATOM     34  C   UNL     1      -0.082  -9.006   2.903  1.00  0.00     0.074 A 
ATOM     35  C   UNL     1       0.261  -7.848   3.701  1.00  0.00     0.031 C 
ATOM     36  C   UNL     1       1.546  -7.235  -3.034  1.00  0.00     0.029 A 
ATOM     37  C   UNL     1       1.045  -8.535  -2.588  1.00  0.00     0.049 A 
ATOM     38  H   UNL     1       0.519  -9.088  -0.652  1.00  0.00     0.167 HD
ATOM     39  C   UNL     1      -0.638 -10.135   3.405  1.00  0.00     0.031 A 
ATOM     40  C   UNL     1       0.831  -9.606  -3.377  1.00  0.00     0.031 A 
ATOM     41  C   UNL     1      -0.966 -11.300   2.627  1.00  0.00     0.049 A 
ATOM     42  C   UNL     1       0.291 -10.881  -2.783  1.00  0.00     0.074 A 
ATOM     43  C   UNL     1      -1.548 -12.482   3.050  1.00  0.00     0.029 A 
ATOM     44  N   UNL     1      -0.729 -11.434   1.269  1.00  0.00    -0.354 N 
ATOM     45  N   UNL     1      -0.062 -11.133  -1.546  1.00  0.00    -0.248 NA
ATOM     46  C   UNL     1       0.113 -12.017  -3.701  1.00  0.00     0.031 C 
ATOM     47  C   UNL     1      -1.612 -13.354   1.959  1.00  0.00     0.029 A 
ATOM     48  C   UNL     1      -1.123 -12.692   0.844  1.00  0.00     0.049 A 
ATOM     49  H   UNL     1      -0.339 -10.739   0.691  1.00  0.00     0.167 HD
ATOM     50  C   UNL     1      -0.534 -12.441  -1.545  1.00  0.00     0.074 A 
ATOM     51  C   UNL     1      -0.430 -12.927  -2.904  1.00  0.00     0.031 C 
ATOM     52  C   UNL     1      -1.016 -13.171  -0.509  1.00  0.00     0.031 A 
BRANCH  39  53
ATOM     53  C   UNL     1      -0.899 -10.173   4.883  1.00  0.00    -0.014 A 
ATOM     54  C   UNL     1      -1.936  -9.421   5.458  1.00  0.00     0.009 A 
ATOM     55  C   UNL     1      -0.116 -10.995   5.708  1.00  0.00     0.009 A 
ATOM     56  C   UNL     1      -2.160  -9.466   6.835  1.00  0.00     0.001 A 
ATOM     57  C   UNL     1      -0.360 -11.059   7.080  1.00  0.00     0.001 A 
ATOM     58  C   UNL     1      -1.375 -10.287   7.644  1.00  0.00     0.000 A 
ENDBRANCH  39  53
BRANCH  40  59
ATOM     59  C   UNL     1       1.138  -9.535  -4.829  1.00  0.00    -0.014 A 
ATOM     60  C   UNL     1       0.107  -9.543  -5.780  1.00  0.00     0.009 A 
ATOM     61  C   UNL     1       2.470  -9.495  -5.271  1.00  0.00     0.009 A 
ATOM     62  C   UNL     1       0.404  -9.542  -7.145  1.00  0.00     0.001 A 
ATOM     63  C   UNL     1       2.763  -9.465  -6.636  1.00  0.00     0.001 A 
ATOM     64  C   UNL     1       1.730  -9.499  -7.571  1.00  0.00     0.000 A 
ENDBRANCH  40  59
BRANCH  52  65
ATOM     65  C   UNL     1      -1.502 -14.563  -0.805  1.00  0.00    -0.014 A 
ATOM     66  C   UNL     1      -0.606 -15.605  -1.090  1.00  0.00     0.009 A 
ATOM     67  C   UNL     1      -2.876 -14.846  -0.750  1.00  0.00     0.009 A 
ATOM     68  C   UNL     1      -1.080 -16.895  -1.342  1.00  0.00     0.001 A 
ATOM     69  C   UNL     1      -3.345 -16.141  -0.975  1.00  0.00     0.001 A 
ATOM     70  C   UNL     1      -2.447 -17.163  -1.279  1.00  0.00     0.000 A 
ENDBRANCH  52  65
ENDBRANCH  26  27
ENDBRANCH  19  21
ENDBRANCH  18  19
ENDBRANCH  17  18
ENDBRANCH   1  17
TORSDOF 14
