REMARK SMILES C[C@H]1[C@@H](C(=O)OCCOC(=O)c2ccc(-c3c4nc(c(-c5ccccc5)c5ccc([nH]5)c(-c5ccccc5)c5nc(c(-c6ccccc6)c6ccc3[nH]6)C=C5)C=C4)cc2)CC[N@@H+]1Cc1ccn(-c2ccccc2)n1
REMARK SMILES IDX 7 1 6 2 4 3 5 4 3 5 1 6 2 7 62 8 60 9 61 10 63 12 64 13
REMARK SMILES IDX 65 14 74 15 66 16 67 17 68 18 69 19 73 20 70 21 72 22 71 23
REMARK SMILES IDX 8 24 9 25 10 26 11 27 12 28 13 29 59 30 14 31 58 32 15 33
REMARK SMILES IDX 16 34 17 35 52 36 18 37 57 38 51 39 53 40 19 41 56 42 50 43
REMARK SMILES IDX 49 44 20 46 42 47 27 48 41 49 28 50 31 51 40 52 54 53 29 54
REMARK SMILES IDX 30 55 39 57 55 58 32 59 21 60 22 61 26 62 23 63 25 64 24 65
REMARK SMILES IDX 43 66 44 67 48 68 45 69 47 70 46 71 33 72 34 73 38 74 35 75
REMARK SMILES IDX 37 76 36 77
REMARK H PARENT 62 11 53 45 31 56
REMARK Flexibility Score: inf
ROOT
ATOM      1  C   UNL     1       2.039   2.553  -2.520  1.00  0.00     0.274 C 
ENDROOT
BRANCH   1   2
ATOM      2  O   UNL     1       1.527   1.575  -1.591  1.00  0.00    -0.462 OA
BRANCH   2   3
ATOM      3  C   UNL     1       0.973   2.035  -0.442  1.00  0.00     0.315 C 
ATOM      4  O   UNL     1       0.860   3.220  -0.151  1.00  0.00    -0.252 OA
BRANCH   3   5
ATOM      5  C   UNL     1       0.387   0.927   0.412  1.00  0.00     0.162 C 
ATOM      6  C   UNL     1       2.458  -0.588  -0.099  1.00  0.00     0.076 C 
ATOM      7  C   UNL     1       1.275  -0.256   0.812  1.00  0.00     0.195 C 
ATOM      8  N   UNL     1       0.384  -1.430   0.798  1.00  0.00    -0.327 N 
ATOM      9  C   UNL     1      -0.862   0.322  -0.220  1.00  0.00     0.083 C 
ATOM     10  C   UNL     1      -0.665  -1.180  -0.180  1.00  0.00     0.263 C 
ATOM     11  H   UNL     1       0.918  -2.248   0.504  1.00  0.00     0.348 HD
BRANCH   8  12
ATOM     12  C   UNL     1      -0.069  -1.898   2.112  1.00  0.00     0.321 C 
BRANCH  12  13
ATOM     13  C   UNL     1      -1.002  -0.993   2.867  1.00  0.00     0.117 A 
ATOM     14  C   UNL     1      -2.414  -0.972   2.807  1.00  0.00     0.052 A 
ATOM     15  N   UNL     1      -0.543  -0.138   3.793  1.00  0.00    -0.167 NA
ATOM     16  C   UNL     1      -2.800  -0.113   3.806  1.00  0.00     0.115 A 
ATOM     17  N   UNL     1      -1.652   0.305   4.443  1.00  0.00    -0.241 N 
BRANCH  17  18
ATOM     18  C   UNL     1      -1.548   1.031   5.662  1.00  0.00     0.065 A 
ATOM     19  C   UNL     1      -2.661   1.192   6.500  1.00  0.00     0.028 A 
ATOM     20  C   UNL     1      -0.305   1.544   6.059  1.00  0.00     0.028 A 
ATOM     21  C   UNL     1      -2.523   1.847   7.727  1.00  0.00     0.002 A 
ATOM     22  C   UNL     1      -0.180   2.215   7.278  1.00  0.00     0.002 A 
ATOM     23  C   UNL     1      -1.286   2.359   8.114  1.00  0.00     0.000 A 
ENDBRANCH  17  18
ENDBRANCH  12  13
ENDBRANCH   8  12
ENDBRANCH   3   5
ENDBRANCH   2   3
ENDBRANCH   1   2
BRANCH   1  24
ATOM     24  C   UNL     1       1.309   2.403  -3.848  1.00  0.00     0.275 C 
BRANCH  24  25
ATOM     25  O   UNL     1      -0.083   2.702  -3.639  1.00  0.00    -0.458 OA
BRANCH  25  26
ATOM     26  C   UNL     1      -0.941   1.684  -3.868  1.00  0.00     0.338 C 
ATOM     27  O   UNL     1      -0.690   0.580  -4.317  1.00  0.00    -0.246 OA
BRANCH  26  28
ATOM     28  C   UNL     1      -2.302   2.102  -3.491  1.00  0.00     0.060 A 
ATOM     29  C   UNL     1      -2.567   2.629  -2.223  1.00  0.00     0.016 A 
ATOM     30  C   UNL     1      -3.341   1.860  -4.389  1.00  0.00     0.016 A 
ATOM     31  C   UNL     1      -3.887   2.850  -1.828  1.00  0.00     0.010 A 
ATOM     32  C   UNL     1      -4.649   2.174  -4.024  1.00  0.00     0.010 A 
ATOM     33  C   UNL     1      -4.940   2.651  -2.733  1.00  0.00    -0.014 A 
BRANCH  33  34
ATOM     34  C   UNL     1      -6.352   2.946  -2.377  1.00  0.00     0.031 A 
ATOM     35  C   UNL     1      -7.397   1.870  -2.494  1.00  0.00     0.074 A 
ATOM     36  C   UNL     1      -6.720   4.195  -2.034  1.00  0.00     0.049 A 
ATOM     37  N   UNL     1      -8.699   1.984  -2.556  1.00  0.00    -0.248 NA
ATOM     38  C   UNL     1      -6.908   0.483  -2.572  1.00  0.00     0.031 C 
ATOM     39  C   UNL     1      -5.815   5.327  -1.829  1.00  0.00     0.029 A 
ATOM     40  N   UNL     1      -7.970   4.727  -1.824  1.00  0.00    -0.354 N 
ATOM     41  C   UNL     1      -9.181   0.695  -2.746  1.00  0.00     0.074 A 
ATOM     42  C   UNL     1      -8.034  -0.188  -2.773  1.00  0.00     0.031 C 
ATOM     43  C   UNL     1      -6.535   6.416  -1.519  1.00  0.00     0.029 A 
ATOM     44  C   UNL     1      -7.952   6.081  -1.597  1.00  0.00     0.049 A 
ATOM     45  H   UNL     1      -8.795   4.191  -1.836  1.00  0.00     0.167 HD
ATOM     46  C   UNL     1     -10.464   0.290  -2.901  1.00  0.00     0.031 A 
ATOM     47  C   UNL     1      -8.956   6.974  -1.526  1.00  0.00     0.031 A 
ATOM     48  C   UNL     1     -11.602   1.168  -2.840  1.00  0.00     0.049 A 
ATOM     49  C   UNL     1     -10.367   6.514  -1.744  1.00  0.00     0.074 A 
ATOM     50  C   UNL     1     -12.944   0.854  -2.975  1.00  0.00     0.029 A 
ATOM     51  N   UNL     1     -11.531   2.533  -2.609  1.00  0.00    -0.354 N 
ATOM     52  N   UNL     1     -10.809   5.306  -1.993  1.00  0.00    -0.248 NA
ATOM     53  C   UNL     1     -11.413   7.544  -1.694  1.00  0.00     0.031 C 
ATOM     54  C   UNL     1     -13.684   2.036  -2.853  1.00  0.00     0.029 A 
ATOM     55  C   UNL     1     -12.803   3.077  -2.605  1.00  0.00     0.049 A 
ATOM     56  H   UNL     1     -10.699   3.040  -2.469  1.00  0.00     0.167 HD
ATOM     57  C   UNL     1     -12.185   5.427  -2.118  1.00  0.00     0.074 A 
ATOM     58  C   UNL     1     -12.507   6.824  -1.906  1.00  0.00     0.031 C 
ATOM     59  C   UNL     1     -13.101   4.467  -2.386  1.00  0.00     0.031 A 
BRANCH  46  60
ATOM     60  C   UNL     1     -10.706  -1.161  -3.199  1.00  0.00    -0.014 A 
ATOM     61  C   UNL     1     -10.610  -2.141  -2.200  1.00  0.00     0.009 A 
ATOM     62  C   UNL     1     -11.083  -1.546  -4.496  1.00  0.00     0.009 A 
ATOM     63  C   UNL     1     -10.863  -3.482  -2.502  1.00  0.00     0.001 A 
ATOM     64  C   UNL     1     -11.356  -2.882  -4.789  1.00  0.00     0.001 A 
ATOM     65  C   UNL     1     -11.239  -3.851  -3.793  1.00  0.00     0.000 A 
ENDBRANCH  46  60
BRANCH  47  66
ATOM     66  C   UNL     1      -8.645   8.408  -1.303  1.00  0.00    -0.014 A 
ATOM     67  C   UNL     1      -8.909   9.008  -0.064  1.00  0.00     0.009 A 
ATOM     68  C   UNL     1      -8.046   9.173  -2.318  1.00  0.00     0.009 A 
ATOM     69  C   UNL     1      -8.585  10.349   0.153  1.00  0.00     0.001 A 
ATOM     70  C   UNL     1      -7.701  10.505  -2.089  1.00  0.00     0.001 A 
ATOM     71  C   UNL     1      -7.975  11.094  -0.856  1.00  0.00     0.000 A 
ENDBRANCH  47  66
BRANCH  59  72
ATOM     72  C   UNL     1     -14.540   4.887  -2.423  1.00  0.00    -0.014 A 
ATOM     73  C   UNL     1     -15.077   5.531  -3.547  1.00  0.00     0.009 A 
ATOM     74  C   UNL     1     -15.376   4.592  -1.335  1.00  0.00     0.009 A 
ATOM     75  C   UNL     1     -16.425   5.890  -3.572  1.00  0.00     0.001 A 
ATOM     76  C   UNL     1     -16.727   4.937  -1.371  1.00  0.00     0.001 A 
ATOM     77  C   UNL     1     -17.249   5.590  -2.486  1.00  0.00     0.000 A 
ENDBRANCH  59  72
ENDBRANCH  33  34
ENDBRANCH  26  28
ENDBRANCH  25  26
ENDBRANCH  24  25
ENDBRANCH   1  24
TORSDOF 14
