REMARK SMILES CN1C(=O)C[C@@H](C(=O)OCCOC(=O)c2ccc(-c3c4nc(c(-c5ccccc5)c5ccc([nH]5)c(-c5ccccc5)c5nc(c(-c6ccccc6)c6ccc3[nH]6)C=C5)C=C4)cc2)C12CCN(c1ccc(Cl)cn1)CC2
REMARK SMILES IDX 11 1 10 2 9 3 7 4 8 5 6 6 1 7 2 8 3 9 63 10 4 11 5 12 64 13
REMARK SMILES IDX 75 14 65 15 74 16 66 17 67 18 68 19 73 20 69 21 72 22 70 23
REMARK SMILES IDX 71 24 12 25 13 26 14 27 15 28 16 29 62 30 17 31 61 32 18 33
REMARK SMILES IDX 19 34 20 35 55 36 21 37 60 38 54 39 56 40 22 41 59 42 53 43
REMARK SMILES IDX 52 44 23 46 45 47 30 48 44 49 31 50 34 51 43 52 57 53 32 54
REMARK SMILES IDX 33 55 42 57 58 58 35 59 24 60 25 61 29 62 26 63 28 64 27 65
REMARK SMILES IDX 46 66 47 67 51 68 48 69 50 70 49 71 36 72 37 73 41 74 38 75
REMARK SMILES IDX 40 76 39 77
REMARK H PARENT 56 45 34 56
REMARK Flexibility Score: inf
ROOT
ATOM      1  C   UNL     1      -3.031  -2.034   4.945  1.00  0.00     0.275 C 
ENDROOT
BRANCH   1   2
ATOM      2  C   UNL     1      -3.138  -0.951   3.869  1.00  0.00     0.274 C 
BRANCH   2   3
ATOM      3  O   UNL     1      -1.846  -0.634   3.307  1.00  0.00    -0.462 OA
BRANCH   3   4
ATOM      4  C   UNL     1      -1.207   0.396   3.898  1.00  0.00     0.311 C 
ATOM      5  O   UNL     1      -1.674   1.045   4.832  1.00  0.00    -0.252 OA
BRANCH   4   6
ATOM      6  C   UNL     1       0.161   0.746   3.340  1.00  0.00     0.134 C 
ATOM      7  C   UNL     1       0.651   0.056  -0.310  1.00  0.00     0.147 C 
ATOM      8  N   UNL     1       0.441   0.588   1.024  1.00  0.00    -0.339 N 
ATOM      9  C   UNL     1      -0.074   1.858   1.236  1.00  0.00     0.223 C 
ATOM     10  C   UNL     1       0.915  -0.069   2.254  1.00  0.00     0.060 C 
ATOM     11  O   UNL     1      -0.471   2.636   0.395  1.00  0.00    -0.275 OA
ATOM     12  C   UNL     1      -0.009   2.142   2.711  1.00  0.00     0.118 C 
ATOM     13  C   UNL     1       0.691  -1.598   2.200  1.00  0.00     0.051 C 
ATOM     14  C   UNL     1       2.455   0.205   2.413  1.00  0.00     0.051 C 
ATOM     15  C   UNL     1       1.379  -2.348   3.328  1.00  0.00     0.120 C 
ATOM     16  C   UNL     1       3.143  -0.644   3.497  1.00  0.00     0.120 C 
ATOM     17  N   UNL     1       2.799  -2.036   3.264  1.00  0.00    -0.356 N 
BRANCH  17  18
ATOM     18  C   UNL     1       3.672  -3.026   3.691  1.00  0.00     0.128 A 
ATOM     19  C   UNL     1       3.709  -4.242   2.998  1.00  0.00     0.048 A 
ATOM     20  N   UNL     1       4.479  -2.803   4.749  1.00  0.00    -0.238 NA
ATOM     21  C   UNL     1       4.555  -5.269   3.417  1.00  0.00     0.026 A 
ATOM     22  C   UNL     1       5.292  -3.819   5.142  1.00  0.00     0.134 A 
ATOM     23  C   UNL     1       5.354  -5.057   4.525  1.00  0.00     0.059 A 
ATOM     24  Cl  UNL     1       6.388  -6.293   5.113  1.00  0.00    -0.083 Cl
ENDBRANCH  17  18
ENDBRANCH   4   6
ENDBRANCH   3   4
ENDBRANCH   2   3
ENDBRANCH   1   2
BRANCH   1  25
ATOM     25  O   UNL     1      -2.060  -1.665   5.944  1.00  0.00    -0.458 OA
BRANCH  25  26
ATOM     26  C   UNL     1      -1.039  -2.535   6.117  1.00  0.00     0.338 C 
ATOM     27  O   UNL     1      -0.886  -3.608   5.556  1.00  0.00    -0.246 OA
BRANCH  26  28
ATOM     28  C   UNL     1      -0.052  -2.005   7.079  1.00  0.00     0.060 A 
ATOM     29  C   UNL     1       0.480  -0.723   6.934  1.00  0.00     0.016 A 
ATOM     30  C   UNL     1       0.453  -2.858   8.061  1.00  0.00     0.016 A 
ATOM     31  C   UNL     1       1.558  -0.315   7.720  1.00  0.00     0.010 A 
ATOM     32  C   UNL     1       1.471  -2.415   8.909  1.00  0.00     0.010 A 
ATOM     33  C   UNL     1       2.052  -1.147   8.734  1.00  0.00    -0.014 A 
BRANCH  33  34
ATOM     34  C   UNL     1       3.154  -0.700   9.628  1.00  0.00     0.031 A 
ATOM     35  C   UNL     1       4.449  -1.466   9.693  1.00  0.00     0.074 A 
ATOM     36  C   UNL     1       2.982   0.376  10.421  1.00  0.00     0.049 A 
ATOM     37  N   UNL     1       5.443  -1.340  10.538  1.00  0.00    -0.248 NA
ATOM     38  C   UNL     1       4.647  -2.518   8.684  1.00  0.00     0.031 C 
ATOM     39  C   UNL     1       1.799   1.238  10.443  1.00  0.00     0.029 A 
ATOM     40  N   UNL     1       3.806   0.919  11.376  1.00  0.00    -0.354 N 
ATOM     41  C   UNL     1       6.369  -2.312  10.181  1.00  0.00     0.074 A 
ATOM     42  C   UNL     1       5.809  -3.037   9.060  1.00  0.00     0.031 C 
ATOM     43  C   UNL     1       1.979   2.209  11.351  1.00  0.00     0.029 A 
ATOM     44  C   UNL     1       3.252   1.993  12.028  1.00  0.00     0.049 A 
ATOM     45  H   UNL     1       4.707   0.573  11.573  1.00  0.00     0.167 HD
ATOM     46  C   UNL     1       7.578  -2.578  10.733  1.00  0.00     0.031 A 
ATOM     47  C   UNL     1       3.691   2.701  13.085  1.00  0.00     0.031 A 
ATOM     48  C   UNL     1       8.143  -1.863  11.848  1.00  0.00     0.049 A 
ATOM     49  C   UNL     1       4.990   2.329  13.738  1.00  0.00     0.074 A 
ATOM     50  C   UNL     1       9.361  -2.063  12.475  1.00  0.00     0.029 A 
ATOM     51  N   UNL     1       7.527  -0.807  12.500  1.00  0.00    -0.354 N 
ATOM     52  N   UNL     1       5.842   1.391  13.406  1.00  0.00    -0.248 NA
ATOM     53  C   UNL     1       5.379   3.111  14.921  1.00  0.00     0.031 C 
ATOM     54  C   UNL     1       9.463  -1.157  13.536  1.00  0.00     0.029 A 
ATOM     55  C   UNL     1       8.331  -0.359  13.536  1.00  0.00     0.049 A 
ATOM     56  H   UNL     1       6.649  -0.431  12.263  1.00  0.00     0.167 HD
ATOM     57  C   UNL     1       6.879   1.483  14.325  1.00  0.00     0.074 A 
ATOM     58  C   UNL     1       6.556   2.576  15.218  1.00  0.00     0.031 C 
ATOM     59  C   UNL     1       7.999   0.727  14.419  1.00  0.00     0.031 A 
BRANCH  46  60
ATOM     60  C   UNL     1       8.370  -3.717  10.153  1.00  0.00    -0.014 A 
ATOM     61  C   UNL     1       9.018  -3.596   8.914  1.00  0.00     0.009 A 
ATOM     62  C   UNL     1       8.510  -4.909  10.881  1.00  0.00     0.009 A 
ATOM     63  C   UNL     1       9.770  -4.658   8.404  1.00  0.00     0.001 A 
ATOM     64  C   UNL     1       9.282  -5.959  10.380  1.00  0.00     0.001 A 
ATOM     65  C   UNL     1       9.905  -5.835   9.140  1.00  0.00     0.000 A 
ENDBRANCH  46  60
BRANCH  47  66
ATOM     66  C   UNL     1       2.866   3.814  13.622  1.00  0.00    -0.014 A 
ATOM     67  C   UNL     1       3.280   5.144  13.466  1.00  0.00     0.009 A 
ATOM     68  C   UNL     1       1.661   3.549  14.292  1.00  0.00     0.009 A 
ATOM     69  C   UNL     1       2.511   6.188  13.987  1.00  0.00     0.001 A 
ATOM     70  C   UNL     1       0.880   4.595  14.785  1.00  0.00     0.001 A 
ATOM     71  C   UNL     1       1.310   5.913  14.639  1.00  0.00     0.000 A 
ENDBRANCH  47  66
BRANCH  59  72
ATOM     72  C   UNL     1       8.973   1.086  15.503  1.00  0.00    -0.014 A 
ATOM     73  C   UNL     1       8.709   0.786  16.848  1.00  0.00     0.009 A 
ATOM     74  C   UNL     1      10.180   1.720  15.169  1.00  0.00     0.009 A 
ATOM     75  C   UNL     1       9.621   1.147  17.843  1.00  0.00     0.001 A 
ATOM     76  C   UNL     1      11.100   2.057  16.163  1.00  0.00     0.001 A 
ATOM     77  C   UNL     1      10.816   1.780  17.499  1.00  0.00     0.000 A 
ENDBRANCH  59  72
ENDBRANCH  33  34
ENDBRANCH  26  28
ENDBRANCH  25  26
ENDBRANCH   1  25
TORSDOF 12
