REMARK SMILES O=C(CCNC(=O)c1ccccc1OC(F)F)OCCOC(=O)c1ccc(-c2c3nc(c(-c4ccccc4)c4ccc([nH]4)c(-c4ccccc4)c4nc(c(-c5ccccc5)c5ccc2[nH]5)C=C4)C=C3)cc1
REMARK SMILES IDX 18 1 2 2 1 3 3 4 4 5 5 6 6 7 7 9 8 10 9 11 13 12 10 13 12 14
REMARK SMILES IDX 11 15 14 16 15 17 16 18 17 19 19 20 20 21 21 22 22 23 23 24
REMARK SMILES IDX 24 25 25 26 71 27 26 28 70 29 27 30 28 31 29 32 64 33 30 34
REMARK SMILES IDX 69 35 63 36 65 37 31 38 68 39 62 40 61 41 32 43 54 44 39 45
REMARK SMILES IDX 53 46 40 47 43 48 52 49 66 50 41 51 42 52 51 54 67 55 44 56
REMARK SMILES IDX 33 57 34 58 38 59 35 60 37 61 36 62 55 63 56 64 60 65 57 66
REMARK SMILES IDX 59 67 58 68 45 69 46 70 50 71 47 72 49 73 48 74
REMARK H PARENT 5 8 65 42 43 53
REMARK Flexibility Score: inf
ROOT
ATOM      1  O   UNL     1       2.647   0.928   0.748  1.00  0.00    -0.462 OA
ENDROOT
BRANCH   1   2
ATOM      2  C   UNL     1       2.377   0.379  -0.463  1.00  0.00     0.307 C 
ATOM      3  O   UNL     1       1.627   0.932  -1.261  1.00  0.00    -0.252 OA
BRANCH   2   4
ATOM      4  C   UNL     1       2.936  -0.995  -0.727  1.00  0.00     0.144 C 
BRANCH   4   5
ATOM      5  C   UNL     1       3.786  -1.057  -1.979  1.00  0.00     0.128 C 
BRANCH   5   6
ATOM      6  N   UNL     1       4.939  -0.174  -1.891  1.00  0.00    -0.351 N 
ATOM      7  C   UNL     1       6.273  -0.455  -1.772  1.00  0.00     0.255 C 
ATOM      8  H   UNL     1       4.723   0.786  -1.923  1.00  0.00     0.163 HD
ATOM      9  O   UNL     1       7.039   0.438  -1.417  1.00  0.00    -0.269 OA
BRANCH   7  10
ATOM     10  C   UNL     1       6.802  -1.813  -2.025  1.00  0.00     0.082 A 
ATOM     11  C   UNL     1       7.742  -2.298  -1.099  1.00  0.00     0.018 A 
ATOM     12  C   UNL     1       6.467  -2.595  -3.140  1.00  0.00     0.138 A 
ATOM     13  C   UNL     1       8.287  -3.575  -1.243  1.00  0.00     0.001 A 
ATOM     14  C   UNL     1       6.985  -3.891  -3.251  1.00  0.00     0.047 A 
ATOM     15  C   UNL     1       7.895  -4.377  -2.311  1.00  0.00     0.004 A 
BRANCH  12  16
ATOM     16  O   UNL     1       5.586  -2.240  -4.124  1.00  0.00    -0.434 OA
BRANCH  16  17
ATOM     17  C   UNL     1       5.942  -1.089  -4.896  1.00  0.00     0.542 C 
ATOM     18  F   UNL     1       5.012  -0.129  -4.679  1.00  0.00    -0.167 F 
ATOM     19  F   UNL     1       7.149  -0.590  -4.547  1.00  0.00    -0.167 F 
ENDBRANCH  16  17
ENDBRANCH  12  16
ENDBRANCH   7  10
ENDBRANCH   5   6
ENDBRANCH   4   5
ENDBRANCH   2   4
ENDBRANCH   1   2
BRANCH   1  20
ATOM     20  C   UNL     1       3.994   0.941   1.266  1.00  0.00     0.274 C 
BRANCH  20  21
ATOM     21  C   UNL     1       4.106   0.224   2.612  1.00  0.00     0.275 C 
BRANCH  21  22
ATOM     22  O   UNL     1       3.799  -1.175   2.465  1.00  0.00    -0.458 OA
BRANCH  22  23
ATOM     23  C   UNL     1       2.510  -1.510   2.716  1.00  0.00     0.338 C 
ATOM     24  O   UNL     1       1.651  -0.798   3.208  1.00  0.00    -0.246 OA
BRANCH  23  25
ATOM     25  C   UNL     1       2.221  -2.840   2.129  1.00  0.00     0.060 A 
ATOM     26  C   UNL     1       0.955  -3.034   1.559  1.00  0.00     0.016 A 
ATOM     27  C   UNL     1       3.163  -3.873   2.112  1.00  0.00     0.016 A 
ATOM     28  C   UNL     1       0.614  -4.271   1.011  1.00  0.00     0.010 A 
ATOM     29  C   UNL     1       2.817  -5.117   1.573  1.00  0.00     0.010 A 
ATOM     30  C   UNL     1       1.529  -5.330   1.052  1.00  0.00    -0.014 A 
BRANCH  30  31
ATOM     31  C   UNL     1       1.067  -6.706   0.749  1.00  0.00     0.031 A 
ATOM     32  C   UNL     1       0.554  -7.548   1.885  1.00  0.00     0.074 A 
ATOM     33  C   UNL     1       1.079  -7.201  -0.501  1.00  0.00     0.049 A 
ATOM     34  N   UNL     1       0.074  -8.765   1.866  1.00  0.00    -0.248 NA
ATOM     35  C   UNL     1       0.586  -6.931   3.222  1.00  0.00     0.031 C 
ATOM     36  C   UNL     1       1.520  -6.487  -1.697  1.00  0.00     0.029 A 
ATOM     37  N   UNL     1       0.703  -8.438  -0.964  1.00  0.00    -0.354 N 
ATOM     38  C   UNL     1      -0.263  -9.054   3.182  1.00  0.00     0.074 A 
ATOM     39  C   UNL     1       0.101  -7.903   3.979  1.00  0.00     0.031 C 
ATOM     40  C   UNL     1       1.395  -7.303  -2.760  1.00  0.00     0.029 A 
ATOM     41  C   UNL     1       0.882  -8.599  -2.316  1.00  0.00     0.049 A 
ATOM     42  H   UNL     1       0.339  -9.143  -0.382  1.00  0.00     0.167 HD
ATOM     43  C   UNL     1      -0.834 -10.172   3.687  1.00  0.00     0.031 A 
ATOM     44  C   UNL     1       0.664  -9.673  -3.100  1.00  0.00     0.031 A 
ATOM     45  C   UNL     1      -1.169 -11.335   2.915  1.00  0.00     0.049 A 
ATOM     46  C   UNL     1       0.114 -10.940  -2.498  1.00  0.00     0.074 A 
ATOM     47  C   UNL     1      -1.758 -12.512   3.341  1.00  0.00     0.029 A 
ATOM     48  N   UNL     1      -0.930 -11.472   1.558  1.00  0.00    -0.354 N 
ATOM     49  N   UNL     1      -0.248 -11.182  -1.262  1.00  0.00    -0.248 NA
ATOM     50  C   UNL     1      -0.065 -12.082  -3.409  1.00  0.00     0.031 C 
ATOM     51  C   UNL     1      -1.829 -13.383   2.248  1.00  0.00     0.029 A 
ATOM     52  C   UNL     1      -1.331 -12.727   1.135  1.00  0.00     0.049 A 
ATOM     53  H   UNL     1      -0.534 -10.780   0.981  1.00  0.00     0.167 HD
ATOM     54  C   UNL     1      -0.726 -12.488  -1.254  1.00  0.00     0.074 A 
ATOM     55  C   UNL     1      -0.615 -12.985  -2.608  1.00  0.00     0.031 C 
ATOM     56  C   UNL     1      -1.218 -13.208  -0.217  1.00  0.00     0.031 A 
BRANCH  43  57
ATOM     57  C   UNL     1      -1.101 -10.189   5.164  1.00  0.00    -0.014 A 
ATOM     58  C   UNL     1      -2.146  -9.433   5.718  1.00  0.00     0.009 A 
ATOM     59  C   UNL     1      -0.301 -10.972   6.009  1.00  0.00     0.009 A 
ATOM     60  C   UNL     1      -2.364  -9.435   7.096  1.00  0.00     0.001 A 
ATOM     61  C   UNL     1      -0.536 -10.991   7.384  1.00  0.00     0.001 A 
ATOM     62  C   UNL     1      -1.560 -10.216   7.927  1.00  0.00     0.000 A 
ENDBRANCH  43  57
BRANCH  44  63
ATOM     63  C   UNL     1       0.974  -9.615  -4.552  1.00  0.00    -0.014 A 
ATOM     64  C   UNL     1      -0.058  -9.607  -5.502  1.00  0.00     0.009 A 
ATOM     65  C   UNL     1       2.306  -9.619  -4.995  1.00  0.00     0.009 A 
ATOM     66  C   UNL     1       0.237  -9.633  -6.867  1.00  0.00     0.001 A 
ATOM     67  C   UNL     1       2.598  -9.621  -6.360  1.00  0.00     0.001 A 
ATOM     68  C   UNL     1       1.564  -9.638  -7.295  1.00  0.00     0.000 A 
ENDBRANCH  44  63
BRANCH  56  69
ATOM     69  C   UNL     1      -1.709 -14.599  -0.507  1.00  0.00    -0.014 A 
ATOM     70  C   UNL     1      -0.813 -15.652  -0.746  1.00  0.00     0.009 A 
ATOM     71  C   UNL     1      -3.086 -14.868  -0.482  1.00  0.00     0.009 A 
ATOM     72  C   UNL     1      -1.291 -16.944  -0.980  1.00  0.00     0.001 A 
ATOM     73  C   UNL     1      -3.559 -16.164  -0.692  1.00  0.00     0.001 A 
ATOM     74  C   UNL     1      -2.662 -17.200  -0.947  1.00  0.00     0.000 A 
ENDBRANCH  56  69
ENDBRANCH  30  31
ENDBRANCH  23  25
ENDBRANCH  22  23
ENDBRANCH  21  22
ENDBRANCH  20  21
ENDBRANCH   1  20
TORSDOF 16
