REMARK SMILES Cc1ccc(CNc2ccc(C(=O)OCCOC(=O)c3ccc(-c4c5nc(c(-c6ccccc6)c6ccc([nH]6)c(-c6ccccc6)c6nc(c(-c7ccccc7)c7ccc4[nH]7)C=C6)C=C5)cc3)cc2Br)cc1
REMARK SMILES IDX 15 1 14 2 12 3 13 4 11 5 8 6 9 7 69 8 10 9 68 10 70 11 7 12
REMARK SMILES IDX 6 14 5 15 1 16 2 17 3 18 72 19 4 20 71 21 16 22 17 23 18 24
REMARK SMILES IDX 19 25 20 26 21 27 67 28 22 29 66 30 23 31 24 32 25 33 60 34
REMARK SMILES IDX 26 35 65 36 59 37 61 38 27 39 64 40 58 41 57 42 28 44 50 45
REMARK SMILES IDX 35 46 49 47 36 48 39 49 48 50 62 51 37 52 38 53 47 55 63 56
REMARK SMILES IDX 40 57 29 58 30 59 34 60 31 61 33 62 32 63 51 64 52 65 56 66
REMARK SMILES IDX 53 67 55 68 54 69 41 70 42 71 46 72 43 73 45 74 44 75
REMARK H PARENT 7 13 61 43 39 54
REMARK Flexibility Score: inf
ROOT
ATOM      1  C   UNL     1      -9.442  -7.498  -0.306  1.00  0.00     0.275 C 
ENDROOT
BRANCH   1   2
ATOM      2  O   UNL     1      -8.584  -6.464   0.210  1.00  0.00    -0.458 OA
BRANCH   2   3
ATOM      3  C   UNL     1      -7.334  -6.161  -0.558  1.00  0.00     0.338 C 
ATOM      4  O   UNL     1      -7.099  -7.314  -1.021  1.00  0.00    -0.246 OA
BRANCH   3   5
ATOM      5  C   UNL     1      -6.341  -4.251  -0.738  1.00  0.00     0.061 A 
ATOM      6  C   UNL     1      -4.729  -1.500  -0.953  1.00  0.00     0.049 A 
ATOM      7  C   UNL     1      -5.810  -1.668  -0.114  1.00  0.00     0.028 A 
ATOM      8  C   UNL     1      -4.404  -2.611  -1.702  1.00  0.00     0.042 A 
ATOM      9  C   UNL     1      -6.560  -2.900  -0.049  1.00  0.00     0.018 A 
ATOM     10  C   UNL     1      -5.116  -3.847  -1.579  1.00  0.00     0.033 A 
ATOM     11  Br  UNL     1      -2.944  -2.553  -2.938  1.00  0.00    -0.049 Br
BRANCH   6  12
ATOM     12  N   UNL     1      -3.985  -0.332  -1.004  1.00  0.00    -0.380 N 
ATOM     13  H   UNL     1      -3.876   0.134  -1.864  1.00  0.00     0.160 HD
BRANCH  12  14
ATOM     14  C   UNL     1      -3.363   0.219   0.191  1.00  0.00     0.148 C 
BRANCH  14  15
ATOM     15  C   UNL     1      -1.852   0.159   0.081  1.00  0.00    -0.029 A 
ATOM     16  C   UNL     1       2.473  -0.033  -0.037  1.00  0.00     0.044 C 
ATOM     17  C   UNL     1       0.974   0.042  -0.021  1.00  0.00    -0.051 A 
ATOM     18  C   UNL     1       0.215  -1.132   0.020  1.00  0.00     0.004 A 
ATOM     19  C   UNL     1       0.311   1.274  -0.037  1.00  0.00     0.004 A 
ATOM     20  C   UNL     1      -1.181  -1.073   0.078  1.00  0.00     0.006 A 
ATOM     21  C   UNL     1      -1.087   1.332   0.008  1.00  0.00     0.006 A 
ENDBRANCH  14  15
ENDBRANCH  12  14
ENDBRANCH   6  12
ENDBRANCH   3   5
ENDBRANCH   2   3
ENDBRANCH   1   2
BRANCH   1  22
ATOM     22  C   UNL     1     -10.191  -6.945  -1.525  1.00  0.00     0.275 C 
BRANCH  22  23
ATOM     23  O   UNL     1      -9.364  -6.688  -2.692  1.00  0.00    -0.458 OA
BRANCH  23  24
ATOM     24  C   UNL     1      -8.984  -5.415  -3.008  1.00  0.00     0.338 C 
ATOM     25  O   UNL     1      -9.222  -4.854  -4.062  1.00  0.00    -0.246 OA
BRANCH  24  26
ATOM     26  C   UNL     1      -7.928  -4.929  -2.098  1.00  0.00     0.060 A 
ATOM     27  C   UNL     1      -6.340  -5.765  -2.315  1.00  0.00     0.016 A 
ATOM     28  C   UNL     1      -8.477  -4.410  -0.463  1.00  0.00     0.016 A 
ATOM     29  C   UNL     1      -5.292  -6.133  -0.839  1.00  0.00     0.010 A 
ATOM     30  C   UNL     1      -7.460  -4.830   1.014  1.00  0.00     0.010 A 
ATOM     31  C   UNL     1      -5.880  -5.695   0.806  1.00  0.00    -0.014 A 
BRANCH  31  32
ATOM     32  C   UNL     1      -5.526  -6.485   1.973  1.00  0.00     0.031 A 
ATOM     33  C   UNL     1      -5.414  -5.765   3.247  1.00  0.00     0.074 A 
ATOM     34  C   UNL     1      -5.576  -7.836   1.877  1.00  0.00     0.049 A 
ATOM     35  N   UNL     1      -5.109  -6.337   4.347  1.00  0.00    -0.248 NA
ATOM     36  C   UNL     1      -5.602  -4.321   3.405  1.00  0.00     0.031 C 
ATOM     37  C   UNL     1      -5.700  -8.836   2.933  1.00  0.00     0.029 A 
ATOM     38  N   UNL     1      -5.356  -8.609   0.740  1.00  0.00    -0.354 N 
ATOM     39  C   UNL     1      -5.289  -5.440   5.367  1.00  0.00     0.074 A 
ATOM     40  C   UNL     1      -5.580  -4.184   4.735  1.00  0.00     0.031 C 
ATOM     41  C   UNL     1      -5.303 -10.034   2.464  1.00  0.00     0.029 A 
ATOM     42  C   UNL     1      -4.803  -9.838   1.114  1.00  0.00     0.049 A 
ATOM     43  H   UNL     1      -5.559  -8.334  -0.183  1.00  0.00     0.167 HD
ATOM     44  C   UNL     1      -5.244  -5.937   6.628  1.00  0.00     0.031 A 
ATOM     45  C   UNL     1      -3.531 -10.144   0.713  1.00  0.00     0.031 A 
ATOM     46  C   UNL     1      -4.667  -7.281   6.597  1.00  0.00     0.049 A 
ATOM     47  C   UNL     1      -2.547 -10.024   1.863  1.00  0.00     0.074 A 
ATOM     48  C   UNL     1      -5.217  -8.551   6.582  1.00  0.00     0.029 A 
ATOM     49  N   UNL     1      -3.373  -7.406   6.100  1.00  0.00    -0.354 N 
ATOM     50  N   UNL     1      -2.794  -9.365   2.968  1.00  0.00    -0.248 NA
ATOM     51  C   UNL     1      -1.248 -10.690   1.903  1.00  0.00     0.031 C 
ATOM     52  C   UNL     1      -4.260  -9.424   5.979  1.00  0.00     0.029 A 
ATOM     53  C   UNL     1      -3.120  -8.695   5.677  1.00  0.00     0.049 A 
ATOM     54  H   UNL     1      -2.722  -6.669   6.056  1.00  0.00     0.167 HD
ATOM     55  C   UNL     1      -1.777  -9.550   3.865  1.00  0.00     0.074 A 
ATOM     56  C   UNL     1      -0.824 -10.375   3.141  1.00  0.00     0.031 C 
ATOM     57  C   UNL     1      -1.806  -9.039   5.135  1.00  0.00     0.031 A 
BRANCH  44  58
ATOM     58  C   UNL     1      -5.859  -5.303   7.841  1.00  0.00    -0.014 A 
ATOM     59  C   UNL     1      -5.987  -6.083   9.005  1.00  0.00     0.009 A 
ATOM     60  C   UNL     1      -6.425  -4.017   7.890  1.00  0.00     0.009 A 
ATOM     61  C   UNL     1      -6.659  -5.617  10.141  1.00  0.00     0.001 A 
ATOM     62  C   UNL     1      -7.092  -3.541   9.028  1.00  0.00     0.001 A 
ATOM     63  C   UNL     1      -7.214  -4.345  10.153  1.00  0.00     0.000 A 
ENDBRANCH  44  58
BRANCH  45  64
ATOM     64  C   UNL     1      -3.314  -9.858  -0.742  1.00  0.00    -0.014 A 
ATOM     65  C   UNL     1      -4.167 -10.555  -1.632  1.00  0.00     0.009 A 
ATOM     66  C   UNL     1      -2.703  -8.686  -1.206  1.00  0.00     0.009 A 
ATOM     67  C   UNL     1      -4.595  -9.973  -2.828  1.00  0.00     0.001 A 
ATOM     68  C   UNL     1      -3.088  -8.136  -2.446  1.00  0.00     0.001 A 
ATOM     69  C   UNL     1      -4.088  -8.739  -3.213  1.00  0.00     0.000 A 
ENDBRANCH  45  64
BRANCH  57  70
ATOM     70  C   UNL     1      -0.601  -8.855   6.039  1.00  0.00    -0.014 A 
ATOM     71  C   UNL     1       0.728  -9.015   5.634  1.00  0.00     0.009 A 
ATOM     72  C   UNL     1      -0.790  -8.359   7.353  1.00  0.00     0.009 A 
ATOM     73  C   UNL     1       1.797  -8.757   6.503  1.00  0.00     0.001 A 
ATOM     74  C   UNL     1       0.271  -8.020   8.194  1.00  0.00     0.001 A 
ATOM     75  C   UNL     1       1.569  -8.244   7.775  1.00  0.00     0.000 A 
ENDBRANCH  57  70
ENDBRANCH  31  32
ENDBRANCH  24  26
ENDBRANCH  23  24
ENDBRANCH  22  23
ENDBRANCH   1  22
TORSDOF 14
