REMARK SMILES O=C(Nc1ccccc1C(=O)OCCOC(=O)c1ccc(-c2c3nc(c(-c4ccccc4)c4ccc([nH]4)c(-c4ccccc4)c4nc(c(-c5ccccc5)c5ccc2[nH]5)C=C4)C=C3)cc1)c1ccc(C[NH+]2CCOCC2)cc1
REMARK SMILES IDX 13 1 12 2 10 3 11 4 9 5 4 6 5 7 6 8 8 9 7 10 3 11 1 12 2 13
REMARK SMILES IDX 66 15 67 16 78 17 68 18 77 19 69 20 70 21 71 22 72 23 76 24
REMARK SMILES IDX 73 26 75 27 74 28 14 29 15 30 16 31 17 32 18 33 19 34 65 35
REMARK SMILES IDX 20 36 64 37 21 38 22 39 23 40 58 41 24 42 63 43 57 44 59 45
REMARK SMILES IDX 25 46 62 47 56 48 55 49 26 51 48 52 33 53 47 54 34 55 37 56
REMARK SMILES IDX 46 57 60 58 35 59 36 60 45 62 61 63 38 64 27 65 28 66 32 67
REMARK SMILES IDX 29 68 31 69 30 70 49 71 50 72 54 73 51 74 53 75 52 76 39 77
REMARK SMILES IDX 40 78 44 79 41 80 43 81 42 82
REMARK H PARENT 3 14 71 25 59 50 37 61
REMARK Flexibility Score: inf
ROOT
ATOM      1  C   UNL     1       2.341  -2.707  -1.012  1.00  0.00     0.275 C 
ENDROOT
BRANCH   1   2
ATOM      2  O   UNL     1       2.909  -1.435  -1.413  1.00  0.00    -0.458 OA
BRANCH   2   3
ATOM      3  C   UNL     1       4.095  -1.136  -0.834  1.00  0.00     0.340 C 
ATOM      4  O   UNL     1       4.776  -1.919  -0.189  1.00  0.00    -0.246 OA
BRANCH   3   5
ATOM      5  C   UNL     1       4.553   0.256  -1.023  1.00  0.00     0.083 A 
ATOM      6  C   UNL     1       3.837   1.394  -0.629  1.00  0.00     0.056 A 
ATOM      7  C   UNL     1       4.410   2.661  -0.858  1.00  0.00     0.027 A 
ATOM      8  C   UNL     1       5.706   2.799  -1.367  1.00  0.00     0.002 A 
ATOM      9  C   UNL     1       5.839   0.421  -1.575  1.00  0.00     0.018 A 
ATOM     10  C   UNL     1       6.426   1.674  -1.724  1.00  0.00     0.001 A 
BRANCH   6  11
ATOM     11  N   UNL     1       2.567   1.411  -0.018  1.00  0.00    -0.321 N 
ATOM     12  O   UNL     1       0.762   0.520   1.007  1.00  0.00    -0.269 OA
ATOM     13  C   UNL     1       1.986   0.556   0.893  1.00  0.00     0.255 C 
ATOM     14  H   UNL     1       1.996   2.166  -0.290  1.00  0.00     0.170 HD
BRANCH  13  15
ATOM     15  C   UNL     1       2.819  -0.232   1.837  1.00  0.00     0.040 A 
ATOM     16  C   UNL     1       3.961   0.307   2.430  1.00  0.00     0.014 A 
ATOM     17  C   UNL     1       2.417  -1.526   2.182  1.00  0.00     0.014 A 
ATOM     18  C   UNL     1       4.744  -0.482   3.278  1.00  0.00     0.010 A 
ATOM     19  C   UNL     1       3.244  -2.337   2.970  1.00  0.00     0.010 A 
ATOM     20  C   UNL     1       4.444  -1.838   3.496  1.00  0.00     0.006 A 
BRANCH  20  21
ATOM     21  C   UNL     1       5.340  -2.713   4.353  1.00  0.00     0.299 C 
BRANCH  21  22
ATOM     22  N   UNL     1       6.647  -3.150   3.847  1.00  0.00    -0.327 N 
ATOM     23  C   UNL     1       7.564  -2.115   3.350  1.00  0.00     0.291 C 
ATOM     24  C   UNL     1       6.636  -4.305   2.939  1.00  0.00     0.291 C 
ATOM     25  H   UNL     1       7.043  -3.463   4.733  1.00  0.00     0.348 HD
ATOM     26  C   UNL     1       7.439  -1.809   1.848  1.00  0.00     0.221 C 
ATOM     27  C   UNL     1       6.490  -3.933   1.464  1.00  0.00     0.221 C 
ATOM     28  O   UNL     1       7.512  -3.007   1.076  1.00  0.00    -0.370 OA
ENDBRANCH  21  22
ENDBRANCH  20  21
ENDBRANCH  13  15
ENDBRANCH   6  11
ENDBRANCH   3   5
ENDBRANCH   2   3
ENDBRANCH   1   2
BRANCH   1  29
ATOM     29  C   UNL     1       2.593  -3.876  -1.970  1.00  0.00     0.275 C 
BRANCH  29  30
ATOM     30  O   UNL     1       3.941  -4.375  -1.877  1.00  0.00    -0.458 OA
BRANCH  30  31
ATOM     31  C   UNL     1       4.796  -3.832  -2.771  1.00  0.00     0.338 C 
ATOM     32  O   UNL     1       4.532  -3.029  -3.649  1.00  0.00    -0.246 OA
BRANCH  31  33
ATOM     33  C   UNL     1       6.180  -4.215  -2.454  1.00  0.00     0.060 A 
ATOM     34  C   UNL     1       6.994  -3.198  -1.970  1.00  0.00     0.016 A 
ATOM     35  C   UNL     1       6.725  -5.463  -2.732  1.00  0.00     0.016 A 
ATOM     36  C   UNL     1       8.357  -3.364  -1.812  1.00  0.00     0.010 A 
ATOM     37  C   UNL     1       8.103  -5.656  -2.540  1.00  0.00     0.010 A 
ATOM     38  C   UNL     1       8.925  -4.597  -2.104  1.00  0.00    -0.014 A 
BRANCH  38  39
ATOM     39  C   UNL     1      10.399  -4.700  -2.091  1.00  0.00     0.031 A 
ATOM     40  C   UNL     1      11.119  -4.715  -3.405  1.00  0.00     0.074 A 
ATOM     41  C   UNL     1      11.088  -4.667  -0.936  1.00  0.00     0.049 A 
ATOM     42  N   UNL     1      12.385  -4.918  -3.653  1.00  0.00    -0.248 NA
ATOM     43  C   UNL     1      10.298  -4.463  -4.601  1.00  0.00     0.031 C 
ATOM     44  C   UNL     1      10.503  -4.497   0.393  1.00  0.00     0.029 A 
ATOM     45  N   UNL     1      12.434  -4.766  -0.696  1.00  0.00    -0.354 N 
ATOM     46  C   UNL     1      12.505  -4.861  -5.034  1.00  0.00     0.074 A 
ATOM     47  C   UNL     1      11.186  -4.609  -5.571  1.00  0.00     0.031 C 
ATOM     48  C   UNL     1      11.482  -4.507   1.312  1.00  0.00     0.029 A 
ATOM     49  C   UNL     1      12.752  -4.761   0.641  1.00  0.00     0.049 A 
ATOM     50  H   UNL     1      13.107  -4.835  -1.411  1.00  0.00     0.167 HD
ATOM     51  C   UNL     1      13.620  -5.019  -5.783  1.00  0.00     0.031 A 
ATOM     52  C   UNL     1      13.929  -4.990   1.252  1.00  0.00     0.031 A 
ATOM     53  C   UNL     1      14.921  -5.274  -5.228  1.00  0.00     0.049 A 
ATOM     54  C   UNL     1      15.130  -5.295   0.397  1.00  0.00     0.074 A 
ATOM     55  C   UNL     1      16.115  -5.490  -5.890  1.00  0.00     0.029 A 
ATOM     56  N   UNL     1      15.193  -5.345  -3.869  1.00  0.00    -0.354 N 
ATOM     57  N   UNL     1      15.232  -5.309  -0.911  1.00  0.00    -0.248 NA
ATOM     58  C   UNL     1      16.375  -5.625   1.102  1.00  0.00     0.031 C 
ATOM     59  C   UNL     1      17.099  -5.753  -4.931  1.00  0.00     0.029 A 
ATOM     60  C   UNL     1      16.532  -5.629  -3.671  1.00  0.00     0.049 A 
ATOM     61  H   UNL     1      14.531  -5.213  -3.152  1.00  0.00     0.167 HD
ATOM     62  C   UNL     1      16.557  -5.619  -1.186  1.00  0.00     0.074 A 
ATOM     63  C   UNL     1      17.223  -5.770   0.093  1.00  0.00     0.031 C 
ATOM     64  C   UNL     1      17.170  -5.767  -2.386  1.00  0.00     0.031 A 
BRANCH  51  65
ATOM     65  C   UNL     1      13.449  -5.003  -7.275  1.00  0.00    -0.014 A 
ATOM     66  C   UNL     1      13.141  -3.825  -7.973  1.00  0.00     0.009 A 
ATOM     67  C   UNL     1      13.587  -6.201  -7.993  1.00  0.00     0.009 A 
ATOM     68  C   UNL     1      12.934  -3.856  -9.354  1.00  0.00     0.001 A 
ATOM     69  C   UNL     1      13.411  -6.224  -9.377  1.00  0.00     0.001 A 
ATOM     70  C   UNL     1      13.073  -5.054 -10.055  1.00  0.00     0.000 A 
ENDBRANCH  51  65
BRANCH  52  71
ATOM     71  C   UNL     1      14.019  -5.017   2.737  1.00  0.00    -0.014 A 
ATOM     72  C   UNL     1      14.789  -4.070   3.429  1.00  0.00     0.009 A 
ATOM     73  C   UNL     1      13.358  -6.015   3.473  1.00  0.00     0.009 A 
ATOM     74  C   UNL     1      14.918  -4.140   4.820  1.00  0.00     0.001 A 
ATOM     75  C   UNL     1      13.462  -6.063   4.864  1.00  0.00     0.001 A 
ATOM     76  C   UNL     1      14.252  -5.133   5.536  1.00  0.00     0.000 A 
ENDBRANCH  52  71
BRANCH  64  77
ATOM     77  C   UNL     1      18.644  -6.055  -2.370  1.00  0.00    -0.014 A 
ATOM     78  C   UNL     1      19.144  -7.303  -1.969  1.00  0.00     0.009 A 
ATOM     79  C   UNL     1      19.542  -5.071  -2.814  1.00  0.00     0.009 A 
ATOM     80  C   UNL     1      20.518  -7.548  -1.982  1.00  0.00     0.001 A 
ATOM     81  C   UNL     1      20.912  -5.330  -2.858  1.00  0.00     0.001 A 
ATOM     82  C   UNL     1      21.399  -6.564  -2.433  1.00  0.00     0.000 A 
ENDBRANCH  64  77
ENDBRANCH  38  39
ENDBRANCH  31  33
ENDBRANCH  30  31
ENDBRANCH  29  30
ENDBRANCH   1  29
TORSDOF 15
