REMARK SMILES Cc1occc1-c1nnnn1C[C@@H](CC(C)C)C(=O)OCCOC(=O)c1ccc(-c2c3nc(c(-c4ccccc4)c4ccc([nH]4)c(-c4ccccc4)c4nc(c(-c5ccccc5)c5ccc2[nH]5)C=C4)C=C3)cc1
REMARK SMILES IDX 21 1 20 2 18 3 19 4 13 5 12 6 11 7 7 8 8 9 9 10 10 11 6 12
REMARK SMILES IDX 1 13 2 14 3 15 4 16 5 17 14 18 15 19 16 20 17 21 22 22 23 23
REMARK SMILES IDX 24 24 25 25 26 26 27 27 73 28 28 29 72 30 29 31 30 32 31 33
REMARK SMILES IDX 66 34 32 35 71 36 65 37 67 38 33 39 70 40 64 41 63 42 34 44
REMARK SMILES IDX 56 45 41 46 55 47 42 48 45 49 54 50 68 51 43 52 44 53 53 55
REMARK SMILES IDX 69 56 46 57 35 58 36 59 40 60 37 61 39 62 38 63 57 64 58 65
REMARK SMILES IDX 62 66 59 67 61 68 60 69 47 70 48 71 52 72 49 73 51 74 50 75
REMARK H PARENT 67 43 45 54
REMARK Flexibility Score: inf
ROOT
ATOM      1  C   UNL     1       3.486  -2.477   5.971  1.00  0.00     0.274 C 
ENDROOT
BRANCH   1   2
ATOM      2  O   UNL     1       2.924  -2.894   4.707  1.00  0.00    -0.462 OA
BRANCH   2   3
ATOM      3  C   UNL     1       1.615  -3.248   4.679  1.00  0.00     0.310 C 
ATOM      4  O   UNL     1       0.846  -3.154   5.632  1.00  0.00    -0.252 OA
BRANCH   3   5
ATOM      5  C   UNL     1       1.213  -3.866   3.356  1.00  0.00     0.121 C 
BRANCH   5   6
ATOM      6  C   UNL     1       1.713  -3.075   2.131  1.00  0.00     0.164 C 
BRANCH   6   7
ATOM      7  N   UNL     1       1.088  -3.445   0.874  1.00  0.00    -0.224 N 
ATOM      8  C   UNL     1       0.162  -2.772   0.110  1.00  0.00     0.185 A 
ATOM      9  N   UNL     1      -0.451  -3.669  -0.639  1.00  0.00    -0.108 NA
ATOM     10  N   UNL     1       0.227  -4.847  -0.467  1.00  0.00    -0.023 NA
ATOM     11  N   UNL     1       1.192  -4.710   0.427  1.00  0.00    -0.045 NA
BRANCH   8  12
ATOM     12  C   UNL     1      -0.179  -1.329   0.067  1.00  0.00     0.062 A 
ATOM     13  C   UNL     1       2.150  -0.079   0.210  1.00  0.00     0.088 C 
ATOM     14  C   UNL     1       0.683  -0.253   0.149  1.00  0.00     0.111 A 
ATOM     15  O   UNL     1      -0.025   0.911   0.047  1.00  0.00    -0.469 OA
ATOM     16  C   UNL     1      -1.323   0.579  -0.167  1.00  0.00     0.196 A 
ATOM     17  C   UNL     1      -1.465  -0.787  -0.201  1.00  0.00     0.054 A 
ENDBRANCH   8  12
ENDBRANCH   6   7
ENDBRANCH   5   6
BRANCH   5  18
ATOM     18  C   UNL     1       1.533  -5.373   3.420  1.00  0.00     0.020 C 
BRANCH  18  19
ATOM     19  C   UNL     1       2.988  -5.835   3.171  1.00  0.00    -0.017 C 
ATOM     20  C   UNL     1       3.983  -5.438   4.264  1.00  0.00     0.007 C 
ATOM     21  C   UNL     1       3.003  -7.361   3.053  1.00  0.00     0.007 C 
ENDBRANCH  18  19
ENDBRANCH   5  18
ENDBRANCH   3   5
ENDBRANCH   2   3
ENDBRANCH   1   2
BRANCH   1  22
ATOM     22  C   UNL     1       3.570  -0.964   6.061  1.00  0.00     0.275 C 
BRANCH  22  23
ATOM     23  O   UNL     1       2.249  -0.441   6.069  1.00  0.00    -0.458 OA
BRANCH  23  24
ATOM     24  C   UNL     1       1.710  -0.296   4.838  1.00  0.00     0.338 C 
ATOM     25  O   UNL     1       2.260  -0.480   3.767  1.00  0.00    -0.246 OA
BRANCH  24  26
ATOM     26  C   UNL     1       0.359   0.254   4.958  1.00  0.00     0.060 A 
ATOM     27  C   UNL     1      -0.313   0.459   3.750  1.00  0.00     0.016 A 
ATOM     28  C   UNL     1       0.101   1.004   6.104  1.00  0.00     0.016 A 
ATOM     29  C   UNL     1      -0.980   1.646   3.585  1.00  0.00     0.010 A 
ATOM     30  C   UNL     1      -0.500   2.215   5.920  1.00  0.00     0.010 A 
ATOM     31  C   UNL     1      -0.946   2.553   4.642  1.00  0.00    -0.014 A 
BRANCH  31  32
ATOM     32  C   UNL     1      -1.405   3.899   4.415  1.00  0.00     0.031 A 
ATOM     33  C   UNL     1      -2.837   4.067   4.704  1.00  0.00     0.074 A 
ATOM     34  C   UNL     1      -0.548   4.902   4.167  1.00  0.00     0.049 A 
ATOM     35  N   UNL     1      -3.803   4.204   3.859  1.00  0.00    -0.248 NA
ATOM     36  C   UNL     1      -3.266   3.833   6.093  1.00  0.00     0.031 C 
ATOM     37  C   UNL     1       0.918   4.869   4.205  1.00  0.00     0.029 A 
ATOM     38  N   UNL     1      -0.828   6.214   3.962  1.00  0.00    -0.354 N 
ATOM     39  C   UNL     1      -4.945   4.272   4.647  1.00  0.00     0.074 A 
ATOM     40  C   UNL     1      -4.583   3.744   5.934  1.00  0.00     0.031 C 
ATOM     41  C   UNL     1       1.384   6.138   4.254  1.00  0.00     0.029 A 
ATOM     42  C   UNL     1       0.261   7.054   4.128  1.00  0.00     0.049 A 
ATOM     43  H   UNL     1      -1.724   6.539   3.717  1.00  0.00     0.167 HD
ATOM     44  C   UNL     1      -5.986   5.082   4.319  1.00  0.00     0.031 A 
ATOM     45  C   UNL     1       0.214   8.403   4.230  1.00  0.00     0.031 A 
ATOM     46  C   UNL     1      -5.873   5.564   2.966  1.00  0.00     0.049 A 
ATOM     47  C   UNL     1      -1.110   8.850   3.739  1.00  0.00     0.074 A 
ATOM     48  C   UNL     1      -5.900   5.000   1.709  1.00  0.00     0.029 A 
ATOM     49  N   UNL     1      -5.312   6.812   2.833  1.00  0.00    -0.354 N 
ATOM     50  N   UNL     1      -1.473   8.785   2.491  1.00  0.00    -0.248 NA
ATOM     51  C   UNL     1      -2.201   9.016   4.690  1.00  0.00     0.031 C 
ATOM     52  C   UNL     1      -5.043   5.811   0.908  1.00  0.00     0.029 A 
ATOM     53  C   UNL     1      -4.546   6.849   1.699  1.00  0.00     0.049 A 
ATOM     54  H   UNL     1      -5.442   7.563   3.456  1.00  0.00     0.167 HD
ATOM     55  C   UNL     1      -2.821   8.462   2.530  1.00  0.00     0.074 A 
ATOM     56  C   UNL     1      -3.244   8.779   3.889  1.00  0.00     0.031 C 
ATOM     57  C   UNL     1      -3.378   7.692   1.549  1.00  0.00     0.031 A 
BRANCH  44  58
ATOM     58  C   UNL     1      -6.813   5.820   5.351  1.00  0.00    -0.014 A 
ATOM     59  C   UNL     1      -7.863   6.633   4.895  1.00  0.00     0.009 A 
ATOM     60  C   UNL     1      -6.449   5.970   6.705  1.00  0.00     0.009 A 
ATOM     61  C   UNL     1      -8.456   7.593   5.726  1.00  0.00     0.001 A 
ATOM     62  C   UNL     1      -7.067   6.893   7.550  1.00  0.00     0.001 A 
ATOM     63  C   UNL     1      -8.052   7.728   7.050  1.00  0.00     0.000 A 
ENDBRANCH  44  58
BRANCH  45  64
ATOM     64  C   UNL     1       1.135   9.312   4.936  1.00  0.00    -0.014 A 
ATOM     65  C   UNL     1       1.217  10.666   4.580  1.00  0.00     0.009 A 
ATOM     66  C   UNL     1       1.751   8.904   6.132  1.00  0.00     0.009 A 
ATOM     67  C   UNL     1       1.863  11.588   5.413  1.00  0.00     0.001 A 
ATOM     68  C   UNL     1       2.398   9.824   6.963  1.00  0.00     0.001 A 
ATOM     69  C   UNL     1       2.441  11.169   6.610  1.00  0.00     0.000 A 
ENDBRANCH  45  64
BRANCH  57  70
ATOM     70  C   UNL     1      -2.572   7.513   0.287  1.00  0.00    -0.014 A 
ATOM     71  C   UNL     1      -1.340   6.835   0.257  1.00  0.00     0.009 A 
ATOM     72  C   UNL     1      -3.128   7.943  -0.925  1.00  0.00     0.009 A 
ATOM     73  C   UNL     1      -0.669   6.627  -0.951  1.00  0.00     0.001 A 
ATOM     74  C   UNL     1      -2.468   7.715  -2.134  1.00  0.00     0.001 A 
ATOM     75  C   UNL     1      -1.236   7.064  -2.146  1.00  0.00     0.000 A 
ENDBRANCH  57  70
ENDBRANCH  31  32
ENDBRANCH  24  26
ENDBRANCH  23  24
ENDBRANCH  22  23
ENDBRANCH   1  22
TORSDOF 16
