REMARK SMILES Cc1ccccc1C(=O)Nc1cc(NC(=O)c2ccccc2C)cc(C(=O)OCCOC(=O)c2ccc(-c3c4nc(c(-c5ccccc5)c5ccc([nH]5)c(-c5ccccc5)c5nc(c(-c6ccccc6)c6ccc3[nH]6)C=C5)C=C4)cc2)c1
REMARK SMILES IDX 29 1 28 2 26 3 27 4 25 5 11 6 12 7 82 8 13 9 24 10 10 11
REMARK SMILES IDX 8 12 9 13 7 15 1 16 2 17 3 18 4 19 6 20 5 21 14 22 15 23
REMARK SMILES IDX 16 25 17 26 18 27 22 28 19 29 21 30 23 31 20 32 30 33 31 34
REMARK SMILES IDX 32 35 33 36 34 37 35 38 81 39 36 40 80 41 37 42 38 43 39 44
REMARK SMILES IDX 74 45 40 46 79 47 73 48 75 49 41 50 78 51 72 52 71 53 42 55
REMARK SMILES IDX 64 56 49 57 63 58 50 59 53 60 62 61 76 62 51 63 52 64 61 66
REMARK SMILES IDX 77 67 54 68 43 69 44 70 48 71 45 72 47 73 46 74 65 75 66 76
REMARK SMILES IDX 70 77 67 78 69 79 68 80 55 81 56 82 60 83 57 84 59 85 58 86
REMARK H PARENT 10 14 14 24 75 54 53 65
REMARK Flexibility Score: inf
ROOT
ATOM      1  C   UNL     1       8.773  -1.255   0.416  1.00  0.00     0.275 C 
ENDROOT
BRANCH   1   2
ATOM      2  O   UNL     1       7.609  -0.539  -0.046  1.00  0.00    -0.458 OA
BRANCH   2   3
ATOM      3  C   UNL     1       6.488  -1.294   0.086  1.00  0.00     0.338 C 
ATOM      4  O   UNL     1       6.464  -2.434   0.538  1.00  0.00    -0.246 OA
BRANCH   3   5
ATOM      5  C   UNL     1       5.247  -0.737  -0.492  1.00  0.00     0.064 A 
ATOM      6  C   UNL     1       3.356   0.774  -0.615  1.00  0.00     0.044 A 
ATOM      7  C   UNL     1       2.699  -0.135  -1.444  1.00  0.00     0.052 A 
ATOM      8  C   UNL     1       4.697   0.532  -0.257  1.00  0.00     0.042 A 
ATOM      9  C   UNL     1       3.298  -1.347  -1.768  1.00  0.00     0.044 A 
ATOM     10  C   UNL     1       4.516  -1.685  -1.207  1.00  0.00     0.042 A 
BRANCH   6  11
ATOM     11  N   UNL     1       2.688   1.893  -0.078  1.00  0.00    -0.322 N 
ATOM     12  C   UNL     1       1.341   2.097   0.203  1.00  0.00     0.255 C 
ATOM     13  O   UNL     1       0.967   3.239   0.482  1.00  0.00    -0.269 OA
ATOM     14  H   UNL     1       3.272   2.658   0.134  1.00  0.00     0.170 HD
BRANCH  12  15
ATOM     15  C   UNL     1       0.323   0.995   0.230  1.00  0.00     0.043 A 
ATOM     16  C   UNL     1       1.698  -0.654   1.657  1.00  0.00     0.045 C 
ATOM     17  C   UNL     1       0.521  -0.280   0.800  1.00  0.00    -0.038 A 
ATOM     18  C   UNL     1      -0.459  -1.274   0.606  1.00  0.00     0.004 A 
ATOM     19  C   UNL     1      -1.676  -0.976  -0.004  1.00  0.00     0.000 A 
ATOM     20  C   UNL     1      -0.939   1.299  -0.318  1.00  0.00     0.014 A 
ATOM     21  C   UNL     1      -1.937   0.325  -0.418  1.00  0.00     0.001 A 
ENDBRANCH  12  15
ENDBRANCH   6  11
BRANCH   9  22
ATOM     22  N   UNL     1       2.768  -2.260  -2.678  1.00  0.00    -0.322 N 
ATOM     23  C   UNL     1       2.087  -2.023  -3.846  1.00  0.00     0.255 C 
ATOM     24  H   UNL     1       2.901  -3.209  -2.450  1.00  0.00     0.170 HD
ATOM     25  O   UNL     1       1.604  -2.974  -4.461  1.00  0.00    -0.269 OA
BRANCH  23  26
ATOM     26  C   UNL     1       1.951  -0.651  -4.403  1.00  0.00     0.043 A 
ATOM     27  C   UNL     1       0.643  -0.300  -4.771  1.00  0.00     0.014 A 
ATOM     28  C   UNL     1       3.005   0.276  -4.576  1.00  0.00    -0.038 A 
ATOM     29  C   UNL     1       0.358   0.978  -5.242  1.00  0.00     0.001 A 
ATOM     30  C   UNL     1       2.684   1.575  -5.008  1.00  0.00     0.004 A 
ATOM     31  C   UNL     1       4.461  -0.006  -4.320  1.00  0.00     0.045 C 
ATOM     32  C   UNL     1       1.375   1.922  -5.337  1.00  0.00     0.000 A 
ENDBRANCH  23  26
ENDBRANCH   9  22
ENDBRANCH   3   5
ENDBRANCH   2   3
ENDBRANCH   1   2
BRANCH   1  33
ATOM     33  C   UNL     1       9.925  -0.375   0.922  1.00  0.00     0.275 C 
BRANCH  33  34
ATOM     34  O   UNL     1       9.648   0.996   1.319  1.00  0.00    -0.458 OA
BRANCH  34  35
ATOM     35  C   UNL     1       8.532   1.489   1.903  1.00  0.00     0.338 C 
ATOM     36  O   UNL     1       8.178   2.656   1.750  1.00  0.00    -0.246 OA
BRANCH  35  37
ATOM     37  C   UNL     1       7.711   0.565   2.696  1.00  0.00     0.060 A 
ATOM     38  C   UNL     1       6.316   0.721   2.687  1.00  0.00     0.016 A 
ATOM     39  C   UNL     1       8.309  -0.508   3.345  1.00  0.00     0.016 A 
ATOM     40  C   UNL     1       5.503  -0.252   3.242  1.00  0.00     0.010 A 
ATOM     41  C   UNL     1       7.519  -1.552   3.743  1.00  0.00     0.010 A 
ATOM     42  C   UNL     1       6.127  -1.380   3.761  1.00  0.00    -0.014 A 
BRANCH  42  43
ATOM     43  C   UNL     1       5.480  -2.237   4.733  1.00  0.00     0.031 A 
ATOM     44  C   UNL     1       4.626  -3.345   4.300  1.00  0.00     0.074 A 
ATOM     45  C   UNL     1       5.902  -1.921   5.979  1.00  0.00     0.049 A 
ATOM     46  N   UNL     1       3.691  -3.858   5.015  1.00  0.00    -0.248 NA
ATOM     47  C   UNL     1       4.694  -3.942   2.965  1.00  0.00     0.031 C 
ATOM     48  C   UNL     1       5.830  -2.597   7.255  1.00  0.00     0.029 A 
ATOM     49  N   UNL     1       6.444  -0.666   6.311  1.00  0.00    -0.354 N 
ATOM     50  C   UNL     1       3.377  -5.071   4.433  1.00  0.00     0.074 A 
ATOM     51  C   UNL     1       3.854  -4.978   3.079  1.00  0.00     0.031 C 
ATOM     52  C   UNL     1       5.982  -1.674   8.232  1.00  0.00     0.029 A 
ATOM     53  C   UNL     1       6.030  -0.356   7.598  1.00  0.00     0.049 A 
ATOM     54  H   UNL     1       7.014  -0.109   5.734  1.00  0.00     0.167 HD
ATOM     55  C   UNL     1       2.990  -6.094   5.246  1.00  0.00     0.031 A 
ATOM     56  C   UNL     1       5.087   0.629   7.709  1.00  0.00     0.031 A 
ATOM     57  C   UNL     1       2.932  -5.616   6.628  1.00  0.00     0.049 A 
ATOM     58  C   UNL     1       3.773   0.013   8.129  1.00  0.00     0.074 A 
ATOM     59  C   UNL     1       3.857  -5.680   7.656  1.00  0.00     0.029 A 
ATOM     60  N   UNL     1       2.042  -4.601   6.952  1.00  0.00    -0.354 N 
ATOM     61  N   UNL     1       3.363  -1.175   7.762  1.00  0.00    -0.248 NA
ATOM     62  C   UNL     1       2.891   0.648   9.098  1.00  0.00     0.031 C 
ATOM     63  C   UNL     1       3.582  -4.603   8.545  1.00  0.00     0.029 A 
ATOM     64  C   UNL     1       2.499  -3.895   8.050  1.00  0.00     0.049 A 
ATOM     65  H   UNL     1       1.206  -4.410   6.470  1.00  0.00     0.167 HD
ATOM     66  C   UNL     1       2.286  -1.525   8.532  1.00  0.00     0.074 A 
ATOM     67  C   UNL     1       1.999  -0.332   9.315  1.00  0.00     0.031 C 
ATOM     68  C   UNL     1       1.726  -2.770   8.551  1.00  0.00     0.031 A 
BRANCH  55  69
ATOM     69  C   UNL     1       3.007  -7.563   4.890  1.00  0.00    -0.014 A 
ATOM     70  C   UNL     1       3.035  -8.511   5.934  1.00  0.00     0.009 A 
ATOM     71  C   UNL     1       3.038  -8.089   3.587  1.00  0.00     0.009 A 
ATOM     72  C   UNL     1       3.143  -9.888   5.699  1.00  0.00     0.001 A 
ATOM     73  C   UNL     1       3.155  -9.469   3.343  1.00  0.00     0.001 A 
ATOM     74  C   UNL     1       3.214 -10.368   4.399  1.00  0.00     0.000 A 
ENDBRANCH  55  69
BRANCH  56  75
ATOM     75  C   UNL     1       5.258   1.780   6.746  1.00  0.00    -0.014 A 
ATOM     76  C   UNL     1       6.527   2.409   6.670  1.00  0.00     0.009 A 
ATOM     77  C   UNL     1       4.323   2.106   5.755  1.00  0.00     0.009 A 
ATOM     78  C   UNL     1       6.886   3.229   5.591  1.00  0.00     0.001 A 
ATOM     79  C   UNL     1       4.672   2.962   4.691  1.00  0.00     0.001 A 
ATOM     80  C   UNL     1       5.959   3.495   4.592  1.00  0.00     0.000 A 
ENDBRANCH  56  75
BRANCH  68  81
ATOM     81  C   UNL     1       0.370  -3.081   9.121  1.00  0.00    -0.014 A 
ATOM     82  C   UNL     1      -0.646  -2.128   9.245  1.00  0.00     0.009 A 
ATOM     83  C   UNL     1       0.022  -4.429   9.365  1.00  0.00     0.009 A 
ATOM     84  C   UNL     1      -1.932  -2.496   9.647  1.00  0.00     0.001 A 
ATOM     85  C   UNL     1      -1.275  -4.808   9.696  1.00  0.00     0.001 A 
ATOM     86  C   UNL     1      -2.250  -3.835   9.856  1.00  0.00     0.000 A 
ENDBRANCH  68  81
ENDBRANCH  42  43
ENDBRANCH  35  37
ENDBRANCH  34  35
ENDBRANCH  33  34
ENDBRANCH   1  33
TORSDOF 15
