REMARK SMILES C[C@H](CNc1cccc(F)c1C(=O)OCCOC(=O)c1ccc(-c2c3nc(c(-c4ccccc4)c4ccc([nH]4)c(-c4ccccc4)c4nc(c(-c5ccccc5)c5ccc2[nH]5)C=C4)C=C3)cc1)C[NH+]1CCCC1
REMARK SMILES IDX 14 1 12 2 13 3 11 4 5 5 6 6 7 7 9 8 8 9 10 10 4 11 3 13 2 14
REMARK SMILES IDX 1 15 68 16 69 17 70 18 73 19 71 21 72 22 15 23 16 24 17 25
REMARK SMILES IDX 18 26 19 27 20 28 21 29 67 30 22 31 66 32 23 33 24 34 25 35
REMARK SMILES IDX 60 36 26 37 65 38 59 39 61 40 27 41 64 42 58 43 57 44 28 46
REMARK SMILES IDX 50 47 35 48 49 49 36 50 39 51 48 52 62 53 37 54 38 55 47 57
REMARK SMILES IDX 63 58 40 59 29 60 30 61 34 62 31 63 33 64 32 65 51 66 52 67
REMARK SMILES IDX 56 68 53 69 55 70 54 71 41 72 42 73 46 74 43 75 45 76 44 77
REMARK H PARENT 4 12 69 20 61 45 39 56
REMARK Flexibility Score: inf
ROOT
ATOM      1  O   UNL     1      -1.502  -4.402   0.979  1.00  0.00    -0.458 OA
ENDROOT
BRANCH   1   2
ATOM      2  C   UNL     1      -0.435  -4.137   0.187  1.00  0.00     0.343 C 
ATOM      3  O   UNL     1      -0.419  -4.115  -1.035  1.00  0.00    -0.246 OA
BRANCH   2   4
ATOM      4  C   UNL     1       0.734  -3.846   1.025  1.00  0.00     0.118 A 
ATOM      5  C   UNL     1       1.378  -2.596   0.936  1.00  0.00     0.052 A 
ATOM      6  C   UNL     1       2.514  -2.400   1.737  1.00  0.00     0.027 A 
ATOM      7  C   UNL     1       2.998  -3.418   2.578  1.00  0.00     0.005 A 
ATOM      8  C   UNL     1       1.220  -4.859   1.852  1.00  0.00     0.139 A 
ATOM      9  C   UNL     1       2.347  -4.649   2.636  1.00  0.00     0.040 A 
ATOM     10  F   UNL     1       0.613  -6.054   1.905  1.00  0.00    -0.206 F 
BRANCH   5  11
ATOM     11  N   UNL     1       0.768  -1.553   0.264  1.00  0.00    -0.384 N 
ATOM     12  H   UNL     1      -0.191  -1.420   0.445  1.00  0.00     0.160 HD
BRANCH  11  13
ATOM     13  C   UNL     1       1.373  -0.638  -0.672  1.00  0.00     0.122 C 
BRANCH  13  14
ATOM     14  C   UNL     1       0.684  -0.643  -2.058  1.00  0.00     0.060 C 
ATOM     15  C   UNL     1       1.284  -1.788  -2.888  1.00  0.00     0.015 C 
BRANCH  14  16
ATOM     16  C   UNL     1      -0.884  -0.717  -2.167  1.00  0.00     0.267 C 
BRANCH  16  17
ATOM     17  N   UNL     1      -1.741   0.431  -1.826  1.00  0.00    -0.335 N 
ATOM     18  C   UNL     1      -3.058   0.452  -2.488  1.00  0.00     0.262 C 
ATOM     19  C   UNL     1      -1.157   1.742  -2.023  1.00  0.00     0.262 C 
ATOM     20  H   UNL     1      -1.853   0.261  -0.826  1.00  0.00     0.348 HD
ATOM     21  C   UNL     1      -3.184   1.824  -3.155  1.00  0.00     0.067 C 
ATOM     22  C   UNL     1      -2.297   2.696  -2.304  1.00  0.00     0.067 C 
ENDBRANCH  16  17
ENDBRANCH  14  16
ENDBRANCH  13  14
ENDBRANCH  11  13
ENDBRANCH   5  11
ENDBRANCH   2   4
ENDBRANCH   1   2
BRANCH   1  23
ATOM     23  C   UNL     1      -2.727  -4.660   0.274  1.00  0.00     0.275 C 
BRANCH  23  24
ATOM     24  C   UNL     1      -3.865  -3.858   0.903  1.00  0.00     0.275 C 
BRANCH  24  25
ATOM     25  O   UNL     1      -3.575  -2.441   0.865  1.00  0.00    -0.458 OA
BRANCH  25  26
ATOM     26  C   UNL     1      -3.306  -1.868   2.066  1.00  0.00     0.338 C 
ATOM     27  O   UNL     1      -3.373  -2.394   3.164  1.00  0.00    -0.246 OA
BRANCH  26  28
ATOM     28  C   UNL     1      -2.761  -0.505   1.885  1.00  0.00     0.060 A 
ATOM     29  C   UNL     1      -1.446  -0.267   2.301  1.00  0.00     0.016 A 
ATOM     30  C   UNL     1      -3.526   0.553   1.404  1.00  0.00     0.016 A 
ATOM     31  C   UNL     1      -0.845   0.994   2.141  1.00  0.00     0.010 A 
ATOM     32  C   UNL     1      -2.942   1.830   1.300  1.00  0.00     0.010 A 
ATOM     33  C   UNL     1      -1.585   2.066   1.642  1.00  0.00    -0.014 A 
BRANCH  33  34
ATOM     34  C   UNL     1      -1.069   3.473   1.634  1.00  0.00     0.031 A 
ATOM     35  C   UNL     1      -1.590   4.407   2.678  1.00  0.00     0.074 A 
ATOM     36  C   UNL     1      -0.157   3.988   0.779  1.00  0.00     0.049 A 
ATOM     37  N   UNL     1      -1.455   5.703   2.752  1.00  0.00    -0.248 NA
ATOM     38  C   UNL     1      -2.254   3.789   3.836  1.00  0.00     0.031 C 
ATOM     39  C   UNL     1       0.766   3.262  -0.071  1.00  0.00     0.029 A 
ATOM     40  N   UNL     1       0.020   5.293   0.364  1.00  0.00    -0.354 N 
ATOM     41  C   UNL     1      -1.906   6.042   4.012  1.00  0.00     0.074 A 
ATOM     42  C   UNL     1      -2.444   4.841   4.616  1.00  0.00     0.031 C 
ATOM     43  C   UNL     1       1.139   4.035  -1.106  1.00  0.00     0.029 A 
ATOM     44  C   UNL     1       0.586   5.361  -0.897  1.00  0.00     0.049 A 
ATOM     45  H   UNL     1      -0.228   6.080   0.900  1.00  0.00     0.167 HD
ATOM     46  C   UNL     1      -1.793   7.236   4.636  1.00  0.00     0.031 A 
ATOM     47  C   UNL     1       0.616   6.369  -1.788  1.00  0.00     0.031 A 
ATOM     48  C   UNL     1      -1.292   8.428   4.007  1.00  0.00     0.049 A 
ATOM     49  C   UNL     1       0.316   7.740  -1.274  1.00  0.00     0.074 A 
ATOM     50  C   UNL     1      -1.138   9.692   4.546  1.00  0.00     0.029 A 
ATOM     51  N   UNL     1      -0.891   8.507   2.681  1.00  0.00    -0.354 N 
ATOM     52  N   UNL     1      -0.098   8.081  -0.080  1.00  0.00    -0.248 NA
ATOM     53  C   UNL     1       0.623   8.869  -2.159  1.00  0.00     0.031 C 
ATOM     54  C   UNL     1      -0.712  10.551   3.525  1.00  0.00     0.029 A 
ATOM     55  C   UNL     1      -0.545   9.810   2.366  1.00  0.00     0.049 A 
ATOM     56  H   UNL     1      -0.858   7.747   2.056  1.00  0.00     0.167 HD
ATOM     57  C   UNL     1       0.040   9.456  -0.017  1.00  0.00     0.074 A 
ATOM     58  C   UNL     1       0.489   9.893  -1.325  1.00  0.00     0.031 C 
ATOM     59  C   UNL     1      -0.112  10.257   1.064  1.00  0.00     0.031 A 
BRANCH  46  60
ATOM     60  C   UNL     1      -2.232   7.274   6.066  1.00  0.00    -0.014 A 
ATOM     61  C   UNL     1      -1.486   6.626   7.066  1.00  0.00     0.009 A 
ATOM     62  C   UNL     1      -3.425   7.919   6.412  1.00  0.00     0.009 A 
ATOM     63  C   UNL     1      -1.955   6.582   8.379  1.00  0.00     0.001 A 
ATOM     64  C   UNL     1      -3.879   7.895   7.731  1.00  0.00     0.001 A 
ATOM     65  C   UNL     1      -3.151   7.217   8.709  1.00  0.00     0.000 A 
ENDBRANCH  46  60
BRANCH  47  66
ATOM     66  C   UNL     1       0.994   6.156  -3.210  1.00  0.00    -0.014 A 
ATOM     67  C   UNL     1       2.282   6.439  -3.682  1.00  0.00     0.009 A 
ATOM     68  C   UNL     1       0.016   5.737  -4.129  1.00  0.00     0.009 A 
ATOM     69  C   UNL     1       2.576   6.331  -5.046  1.00  0.00     0.001 A 
ATOM     70  C   UNL     1       0.317   5.615  -5.490  1.00  0.00     0.001 A 
ATOM     71  C   UNL     1       1.595   5.921  -5.949  1.00  0.00     0.000 A 
ENDBRANCH  47  66
BRANCH  59  72
ATOM     72  C   UNL     1       0.291  11.692   0.905  1.00  0.00    -0.014 A 
ATOM     73  C   UNL     1      -0.464  12.591   0.139  1.00  0.00     0.009 A 
ATOM     74  C   UNL     1       1.445  12.152   1.560  1.00  0.00     0.009 A 
ATOM     75  C   UNL     1      -0.053  13.919   0.010  1.00  0.00     0.001 A 
ATOM     76  C   UNL     1       1.834  13.486   1.456  1.00  0.00     0.001 A 
ATOM     77  C   UNL     1       1.089  14.367   0.674  1.00  0.00     0.000 A 
ENDBRANCH  59  72
ENDBRANCH  33  34
ENDBRANCH  26  28
ENDBRANCH  25  26
ENDBRANCH  24  25
ENDBRANCH  23  24
ENDBRANCH   1  23
TORSDOF 16
