REMARK SMILES C[C@H](NC(=O)N[C@](C)(C(=O)OCCOC(=O)c1ccc(-c2c3nc(c(-c4ccccc4)c4ccc([nH]4)c(-c4ccccc4)c4nc(c(-c5ccccc5)c5ccc2[nH]5)C=C4)C=C3)cc1)C(F)(F)F)C(N)=O
REMARK SMILES IDX 12 1 11 2 9 3 10 4 7 5 8 6 6 7 3 8 4 9 5 11 2 13 1 14 69 15
REMARK SMILES IDX 70 16 71 17 65 20 66 21 67 22 68 23 13 24 14 25 15 26 16 27
REMARK SMILES IDX 17 28 18 29 64 30 19 31 63 32 20 33 21 34 22 35 57 36 23 37
REMARK SMILES IDX 62 38 56 39 58 40 24 41 61 42 55 43 54 44 25 46 47 47 32 48
REMARK SMILES IDX 46 49 33 50 36 51 45 52 59 53 34 54 35 55 44 57 60 58 37 59
REMARK SMILES IDX 26 60 27 61 31 62 28 63 30 64 29 65 48 66 49 67 53 68 50 69
REMARK SMILES IDX 52 70 51 71 38 72 39 73 43 74 40 75 42 76 41 77
REMARK H PARENT 3 10 6 12 70 18 70 19 58 45 36 56
REMARK Flexibility Score: inf
ROOT
ATOM      1  C   UNL     1      -1.448   5.201   0.403  1.00  0.00     0.274 C 
ENDROOT
BRANCH   1   2
ATOM      2  O   UNL     1      -0.272   4.403   0.129  1.00  0.00    -0.460 OA
BRANCH   2   3
ATOM      3  C   UNL     1       0.087   3.512   1.100  1.00  0.00     0.341 C 
ATOM      4  O   UNL     1      -0.648   3.266   2.045  1.00  0.00    -0.249 OA
BRANCH   3   5
ATOM      5  C   UNL     1       1.517   2.973   0.955  1.00  0.00     0.232 C 
ATOM      6  C   UNL     1       2.200   3.566  -0.305  1.00  0.00     0.058 C 
BRANCH   5   7
ATOM      7  N   UNL     1       2.342   3.413   2.125  1.00  0.00    -0.315 N 
ATOM      8  N   UNL     1       2.160   2.230   4.210  1.00  0.00    -0.327 N 
ATOM      9  C   UNL     1       2.660   3.095   3.361  1.00  0.00     0.316 C 
ATOM     10  H   UNL     1       2.781   2.201   4.974  1.00  0.00     0.166 HD
ATOM     11  O   UNL     1       3.617   3.750   3.804  1.00  0.00    -0.249 OA
ATOM     12  H   UNL     1       2.819   4.239   1.881  1.00  0.00     0.166 HD
BRANCH   8  13
ATOM     13  C   UNL     1       1.075   1.281   4.524  1.00  0.00     0.169 C 
ATOM     14  C   UNL     1      -0.338   1.817   4.383  1.00  0.00     0.041 C 
BRANCH  13  15
ATOM     15  C   UNL     1       1.286  -0.173   4.047  1.00  0.00     0.239 C 
ATOM     16  N   UNL     1       0.278  -1.055   4.334  1.00  0.00    -0.368 N 
ATOM     17  O   UNL     1       2.327  -0.582   3.540  1.00  0.00    -0.273 OA
ATOM     18  H   UNL     1      -0.558  -0.732   4.741  1.00  0.00     0.159 HD
ATOM     19  H   UNL     1       0.390  -2.013   4.134  1.00  0.00     0.159 HD
ENDBRANCH  13  15
ENDBRANCH   8  13
ENDBRANCH   5   7
BRANCH   5  20
ATOM     20  C   UNL     1       1.462   1.467   0.733  1.00  0.00     0.422 C 
ATOM     21  F   UNL     1       0.805   1.162  -0.413  1.00  0.00    -0.168 F 
ATOM     22  F   UNL     1       2.703   0.939   0.610  1.00  0.00    -0.168 F 
ATOM     23  F   UNL     1       0.837   0.813   1.725  1.00  0.00    -0.168 F 
ENDBRANCH   5  20
ENDBRANCH   3   5
ENDBRANCH   2   3
ENDBRANCH   1   2
BRANCH   1  24
ATOM     24  C   UNL     1      -2.708   4.705  -0.314  1.00  0.00     0.275 C 
BRANCH  24  25
ATOM     25  O   UNL     1      -3.209   3.476   0.247  1.00  0.00    -0.458 OA
BRANCH  25  26
ATOM     26  C   UNL     1      -2.801   2.358  -0.388  1.00  0.00     0.338 C 
ATOM     27  O   UNL     1      -2.086   2.300  -1.384  1.00  0.00    -0.246 OA
BRANCH  26  28
ATOM     28  C   UNL     1      -3.150   1.166   0.398  1.00  0.00     0.060 A 
ATOM     29  C   UNL     1      -2.079   0.454   0.929  1.00  0.00     0.016 A 
ATOM     30  C   UNL     1      -4.447   0.682   0.552  1.00  0.00     0.016 A 
ATOM     31  C   UNL     1      -2.268  -0.728   1.625  1.00  0.00     0.010 A 
ATOM     32  C   UNL     1      -4.648  -0.526   1.244  1.00  0.00     0.010 A 
ATOM     33  C   UNL     1      -3.557  -1.235   1.779  1.00  0.00    -0.014 A 
BRANCH  33  34
ATOM     34  C   UNL     1      -3.706  -2.550   2.441  1.00  0.00     0.031 A 
ATOM     35  C   UNL     1      -3.752  -3.797   1.610  1.00  0.00     0.074 A 
ATOM     36  C   UNL     1      -3.659  -2.635   3.783  1.00  0.00     0.049 A 
ATOM     37  N   UNL     1      -3.905  -5.038   1.992  1.00  0.00    -0.248 NA
ATOM     38  C   UNL     1      -3.580  -3.625   0.159  1.00  0.00     0.031 C 
ATOM     39  C   UNL     1      -3.473  -1.507   4.697  1.00  0.00     0.029 A 
ATOM     40  N   UNL     1      -3.737  -3.728   4.609  1.00  0.00    -0.354 N 
ATOM     41  C   UNL     1      -3.868  -5.796   0.829  1.00  0.00     0.074 A 
ATOM     42  C   UNL     1      -3.670  -4.875  -0.271  1.00  0.00     0.031 C 
ATOM     43  C   UNL     1      -3.441  -1.970   5.958  1.00  0.00     0.029 A 
ATOM     44  C   UNL     1      -3.666  -3.414   5.943  1.00  0.00     0.049 A 
ATOM     45  H   UNL     1      -3.835  -4.649   4.276  1.00  0.00     0.167 HD
ATOM     46  C   UNL     1      -4.004  -7.136   0.690  1.00  0.00     0.031 A 
ATOM     47  C   UNL     1      -3.809  -4.200   7.028  1.00  0.00     0.031 A 
ATOM     48  C   UNL     1      -4.228  -8.046   1.781  1.00  0.00     0.049 A 
ATOM     49  C   UNL     1      -4.102  -5.665   6.840  1.00  0.00     0.074 A 
ATOM     50  C   UNL     1      -4.449  -9.411   1.737  1.00  0.00     0.029 A 
ATOM     51  N   UNL     1      -4.261  -7.678   3.117  1.00  0.00    -0.354 N 
ATOM     52  N   UNL     1      -4.144  -6.364   5.732  1.00  0.00    -0.248 NA
ATOM     53  C   UNL     1      -4.391  -6.443   8.054  1.00  0.00     0.031 C 
ATOM     54  C   UNL     1      -4.670  -9.860   3.044  1.00  0.00     0.029 A 
ATOM     55  C   UNL     1      -4.528  -8.784   3.905  1.00  0.00     0.049 A 
ATOM     56  H   UNL     1      -4.115  -6.764   3.455  1.00  0.00     0.167 HD
ATOM     57  C   UNL     1      -4.452  -7.664   6.115  1.00  0.00     0.074 A 
ATOM     58  C   UNL     1      -4.561  -7.662   7.559  1.00  0.00     0.031 C 
ATOM     59  C   UNL     1      -4.637  -8.761   5.341  1.00  0.00     0.031 A 
BRANCH  46  60
ATOM     60  C   UNL     1      -4.001  -7.681  -0.709  1.00  0.00    -0.014 A 
ATOM     61  C   UNL     1      -2.816  -7.797  -1.450  1.00  0.00     0.009 A 
ATOM     62  C   UNL     1      -5.212  -8.090  -1.289  1.00  0.00     0.009 A 
ATOM     63  C   UNL     1      -2.850  -8.284  -2.760  1.00  0.00     0.001 A 
ATOM     64  C   UNL     1      -5.239  -8.597  -2.589  1.00  0.00     0.001 A 
ATOM     65  C   UNL     1      -4.060  -8.685  -3.326  1.00  0.00     0.000 A 
ENDBRANCH  46  60
BRANCH  47  66
ATOM     66  C   UNL     1      -3.754  -3.614   8.394  1.00  0.00    -0.014 A 
ATOM     67  C   UNL     1      -2.728  -3.964   9.285  1.00  0.00     0.009 A 
ATOM     68  C   UNL     1      -4.757  -2.732   8.829  1.00  0.00     0.009 A 
ATOM     69  C   UNL     1      -2.721  -3.461  10.589  1.00  0.00     0.001 A 
ATOM     70  C   UNL     1      -4.730  -2.207  10.121  1.00  0.00     0.001 A 
ATOM     71  C   UNL     1      -3.719  -2.580  11.004  1.00  0.00     0.000 A 
ENDBRANCH  47  66
BRANCH  59  72
ATOM     72  C   UNL     1      -4.956 -10.052   6.041  1.00  0.00    -0.014 A 
ATOM     73  C   UNL     1      -6.221 -10.278   6.606  1.00  0.00     0.009 A 
ATOM     74  C   UNL     1      -3.994 -11.072   6.096  1.00  0.00     0.009 A 
ATOM     75  C   UNL     1      -6.505 -11.491   7.237  1.00  0.00     0.001 A 
ATOM     76  C   UNL     1      -4.289 -12.293   6.704  1.00  0.00     0.001 A 
ATOM     77  C   UNL     1      -5.541 -12.498   7.281  1.00  0.00     0.000 A 
ENDBRANCH  59  72
ENDBRANCH  33  34
ENDBRANCH  26  28
ENDBRANCH  25  26
ENDBRANCH  24  25
ENDBRANCH   1  24
TORSDOF 15
