REMARK SMILES C[C@@H](C(=O)OCCOC(=O)c1ccc(-c2c3nc(c(-c4ccccc4)c4ccc([nH]4)c(-c4ccccc4)c4nc(c(-c5ccccc5)c5ccc2[nH]5)C=C4)C=C3)cc1)c1ccc(-c2ccccc2)cc1
REMARK SMILES IDX 6 1 5 2 3 3 4 4 2 5 1 6 59 7 60 8 70 9 61 10 69 11 62 12
REMARK SMILES IDX 63 13 64 14 68 15 65 16 67 17 66 18 7 19 8 20 9 21 10 22
REMARK SMILES IDX 11 23 12 24 58 25 13 26 57 27 14 28 15 29 16 30 51 31 17 32
REMARK SMILES IDX 56 33 50 34 52 35 18 36 55 37 49 38 48 39 19 41 41 42 26 43
REMARK SMILES IDX 40 44 27 45 30 46 39 47 53 48 28 49 29 50 38 52 54 53 31 54
REMARK SMILES IDX 20 55 21 56 25 57 22 58 24 59 23 60 42 61 43 62 47 63 44 64
REMARK SMILES IDX 46 65 45 66 32 67 33 68 37 69 34 70 36 71 35 72
REMARK H PARENT 52 40 30 51
REMARK Flexibility Score: inf
ROOT
ATOM      1  C   UNL     1       2.577  -3.419   1.660  1.00  0.00     0.274 C 
ENDROOT
BRANCH   1   2
ATOM      2  O   UNL     1       2.077  -2.354   0.823  1.00  0.00    -0.462 OA
BRANCH   2   3
ATOM      3  C   UNL     1       0.978  -2.617   0.059  1.00  0.00     0.313 C 
ATOM      4  O   UNL     1       0.406  -3.702   0.052  1.00  0.00    -0.252 OA
BRANCH   3   5
ATOM      5  C   UNL     1       0.591  -1.427  -0.847  1.00  0.00     0.126 C 
ATOM      6  C   UNL     1       1.326  -0.141  -0.431  1.00  0.00     0.025 C 
BRANCH   5   7
ATOM      7  C   UNL     1      -0.930  -1.247  -1.000  1.00  0.00    -0.034 A 
ATOM      8  C   UNL     1      -1.595  -0.060  -0.654  1.00  0.00     0.005 A 
ATOM      9  C   UNL     1      -1.719  -2.294  -1.512  1.00  0.00     0.005 A 
ATOM     10  C   UNL     1      -2.986   0.063  -0.787  1.00  0.00     0.009 A 
ATOM     11  C   UNL     1      -3.116  -2.177  -1.625  1.00  0.00     0.009 A 
ATOM     12  C   UNL     1      -3.772  -0.997  -1.259  1.00  0.00    -0.018 A 
BRANCH  12  13
ATOM     13  C   UNL     1      -5.236  -0.865  -1.306  1.00  0.00    -0.018 A 
ATOM     14  C   UNL     1      -5.862   0.010  -2.207  1.00  0.00     0.009 A 
ATOM     15  C   UNL     1      -6.049  -1.555  -0.395  1.00  0.00     0.009 A 
ATOM     16  C   UNL     1      -7.248   0.205  -2.174  1.00  0.00     0.001 A 
ATOM     17  C   UNL     1      -7.429  -1.347  -0.345  1.00  0.00     0.001 A 
ATOM     18  C   UNL     1      -8.029  -0.463  -1.233  1.00  0.00     0.000 A 
ENDBRANCH  12  13
ENDBRANCH   5   7
ENDBRANCH   3   5
ENDBRANCH   2   3
ENDBRANCH   1   2
BRANCH   1  19
ATOM     19  C   UNL     1       2.285  -3.130   3.131  1.00  0.00     0.275 C 
BRANCH  19  20
ATOM     20  O   UNL     1       0.873  -3.256   3.370  1.00  0.00    -0.458 OA
BRANCH  20  21
ATOM     21  C   UNL     1       0.222  -2.122   3.708  1.00  0.00     0.338 C 
ATOM     22  O   UNL     1       0.691  -1.018   3.927  1.00  0.00    -0.246 OA
BRANCH  21  23
ATOM     23  C   UNL     1      -1.219  -2.396   3.666  1.00  0.00     0.060 A 
ATOM     24  C   UNL     1      -1.842  -2.371   2.424  1.00  0.00     0.016 A 
ATOM     25  C   UNL     1      -1.966  -2.588   4.829  1.00  0.00     0.016 A 
ATOM     26  C   UNL     1      -3.220  -2.504   2.335  1.00  0.00     0.010 A 
ATOM     27  C   UNL     1      -3.356  -2.754   4.733  1.00  0.00     0.010 A 
ATOM     28  C   UNL     1      -3.998  -2.687   3.484  1.00  0.00    -0.014 A 
BRANCH  28  29
ATOM     29  C   UNL     1      -5.480  -2.695   3.354  1.00  0.00     0.031 A 
ATOM     30  C   UNL     1      -6.269  -1.485   3.778  1.00  0.00     0.074 A 
ATOM     31  C   UNL     1      -6.106  -3.696   2.703  1.00  0.00     0.049 A 
ATOM     32  N   UNL     1      -7.561  -1.274   3.713  1.00  0.00    -0.248 NA
ATOM     33  C   UNL     1      -5.502  -0.356   4.328  1.00  0.00     0.031 C 
ATOM     34  C   UNL     1      -5.444  -4.841   2.078  1.00  0.00     0.029 A 
ATOM     35  N   UNL     1      -7.431  -3.854   2.372  1.00  0.00    -0.354 N 
ATOM     36  C   UNL     1      -7.763  -0.009   4.252  1.00  0.00     0.074 A 
ATOM     37  C   UNL     1      -6.464   0.505   4.627  1.00  0.00     0.031 C 
ATOM     38  C   UNL     1      -6.346  -5.518   1.347  1.00  0.00     0.029 A 
ATOM     39  C   UNL     1      -7.660  -4.904   1.515  1.00  0.00     0.049 A 
ATOM     40  H   UNL     1      -8.146  -3.272   2.716  1.00  0.00     0.167 HD
ATOM     41  C   UNL     1      -8.925   0.662   4.434  1.00  0.00     0.031 A 
ATOM     42  C   UNL     1      -8.798  -5.316   0.921  1.00  0.00     0.031 A 
ATOM     43  C   UNL     1     -10.220   0.179   4.042  1.00  0.00     0.049 A 
ATOM     44  C   UNL     1     -10.089  -4.604   1.220  1.00  0.00     0.074 A 
ATOM     45  C   UNL     1     -11.460   0.755   4.261  1.00  0.00     0.029 A 
ATOM     46  N   UNL     1     -10.440  -0.986   3.329  1.00  0.00    -0.354 N 
ATOM     47  N   UNL     1     -10.284  -3.467   1.839  1.00  0.00    -0.248 NA
ATOM     48  C   UNL     1     -11.323  -5.259   0.756  1.00  0.00     0.031 C 
ATOM     49  C   UNL     1     -12.435  -0.084   3.710  1.00  0.00     0.029 A 
ATOM     50  C   UNL     1     -11.796  -1.158   3.114  1.00  0.00     0.049 A 
ATOM     51  H   UNL     1      -9.736  -1.602   3.020  1.00  0.00     0.167 HD
ATOM     52  C   UNL     1     -11.661  -3.272   1.843  1.00  0.00     0.074 A 
ATOM     53  C   UNL     1     -12.248  -4.386   1.129  1.00  0.00     0.031 C 
ATOM     54  C   UNL     1     -12.374  -2.268   2.405  1.00  0.00     0.031 A 
BRANCH  41  55
ATOM     55  C   UNL     1      -8.854   1.969   5.166  1.00  0.00    -0.014 A 
ATOM     56  C   UNL     1      -8.443   3.148   4.528  1.00  0.00     0.009 A 
ATOM     57  C   UNL     1      -9.235   2.017   6.516  1.00  0.00     0.009 A 
ATOM     58  C   UNL     1      -8.395   4.350   5.240  1.00  0.00     0.001 A 
ATOM     59  C   UNL     1      -9.205   3.222   7.218  1.00  0.00     0.001 A 
ATOM     60  C   UNL     1      -8.779   4.386   6.581  1.00  0.00     0.000 A 
ENDBRANCH  41  55
BRANCH  42  61
ATOM     61  C   UNL     1      -8.794  -6.472  -0.015  1.00  0.00    -0.014 A 
ATOM     62  C   UNL     1      -9.120  -6.285  -1.368  1.00  0.00     0.009 A 
ATOM     63  C   UNL     1      -8.520  -7.770   0.442  1.00  0.00     0.009 A 
ATOM     64  C   UNL     1      -9.191  -7.375  -2.237  1.00  0.00     0.001 A 
ATOM     65  C   UNL     1      -8.563  -8.855  -0.437  1.00  0.00     0.001 A 
ATOM     66  C   UNL     1      -8.908  -8.658  -1.772  1.00  0.00     0.000 A 
ENDBRANCH  42  61
BRANCH  54  67
ATOM     67  C   UNL     1     -13.870  -2.323   2.278  1.00  0.00    -0.014 A 
ATOM     68  C   UNL     1     -14.622  -3.232   3.039  1.00  0.00     0.009 A 
ATOM     69  C   UNL     1     -14.538  -1.426   1.431  1.00  0.00     0.009 A 
ATOM     70  C   UNL     1     -16.014  -3.259   2.933  1.00  0.00     0.001 A 
ATOM     71  C   UNL     1     -15.932  -1.440   1.345  1.00  0.00     0.001 A 
ATOM     72  C   UNL     1     -16.668  -2.360   2.091  1.00  0.00     0.000 A 
ENDBRANCH  54  67
ENDBRANCH  28  29
ENDBRANCH  21  23
ENDBRANCH  20  21
ENDBRANCH  19  20
ENDBRANCH   1  19
TORSDOF 13
