REMARK SMILES Cc1ccccc1/[NH+]=C1\S[C@@H](CC(=O)Nc2ccc(C(=O)OCCOC(=O)c3ccc(-c4c5nc(c(-c6ccccc6)c6ccc([nH]6)c(-c6ccccc6)c6nc(c(-c7ccccc7)c7ccc4[nH]7)C=C6)C=C5)cc3)cc2)C(=O)N1C
REMARK SMILES IDX 23 1 22 2 20 3 21 4 19 5 16 6 17 7 77 8 18 9 76 10 15 11
REMARK SMILES IDX 13 12 14 13 12 15 11 16 8 17 9 18 10 20 80 21 78 22 81 23
REMARK SMILES IDX 79 24 7 25 1 26 2 27 3 28 4 29 6 30 5 31 24 32 25 33 26 34
REMARK SMILES IDX 27 35 28 36 29 37 75 38 30 39 74 40 31 41 32 42 33 43 68 44
REMARK SMILES IDX 34 45 73 46 67 47 69 48 35 49 72 50 66 51 65 52 36 54 58 55
REMARK SMILES IDX 43 56 57 57 44 58 47 59 56 60 70 61 45 62 46 63 55 65 71 66
REMARK SMILES IDX 48 67 37 68 38 69 42 70 39 71 41 72 40 73 59 74 60 75 64 76
REMARK SMILES IDX 61 77 63 78 62 79 49 80 50 81 54 82 51 83 53 84 52 85
REMARK H PARENT 15 14 8 19 69 53 47 64
REMARK Flexibility Score: inf
ROOT
ATOM      1  C   UNL     1       3.043   7.486  -2.203  1.00  0.00     0.275 C 
ENDROOT
BRANCH   1   2
ATOM      2  O   UNL     1       4.157   7.198  -1.349  1.00  0.00    -0.458 OA
BRANCH   2   3
ATOM      3  C   UNL     1       4.489   5.887  -1.312  1.00  0.00     0.338 C 
ATOM      4  O   UNL     1       3.920   4.963  -1.873  1.00  0.00    -0.246 OA
BRANCH   3   5
ATOM      5  C   UNL     1       5.604   5.651  -0.386  1.00  0.00     0.060 A 
ATOM      6  C   UNL     1       7.157   4.214   1.373  1.00  0.00     0.041 A 
ATOM      7  C   UNL     1       6.115   4.998   1.865  1.00  0.00     0.027 A 
ATOM      8  C   UNL     1       7.580   4.334   0.054  1.00  0.00     0.027 A 
ATOM      9  C   UNL     1       5.311   5.704   0.974  1.00  0.00     0.018 A 
ATOM     10  C   UNL     1       6.780   5.040  -0.838  1.00  0.00     0.018 A 
BRANCH   6  11
ATOM     11  N   UNL     1       7.519   3.076   2.105  1.00  0.00    -0.326 N 
ATOM     12  C   UNL     1       6.791   1.900   2.054  1.00  0.00     0.226 C 
ATOM     13  O   UNL     1       6.881   1.089   2.978  1.00  0.00    -0.275 OA
ATOM     14  H   UNL     1       8.320   3.114   2.676  1.00  0.00     0.169 HD
BRANCH  12  15
ATOM     15  C   UNL     1       5.931   1.594   0.832  1.00  0.00     0.128 C 
BRANCH  15  16
ATOM     16  C   UNL     1       4.438   1.538   1.100  1.00  0.00     0.183 C 
ATOM     17  N   UNL     1       0.926   1.787   0.200  1.00  0.00    -0.234 N 
ATOM     18  C   UNL     1       2.178   2.055   0.151  1.00  0.00     0.319 C 
ATOM     19  H   UNL     1       0.369   2.532   0.523  1.00  0.00     0.313 HD
ATOM     20  S   UNL     1       3.540   1.195  -0.469  1.00  0.00    -0.022 SA
ATOM     21  N   UNL     1       2.651   3.134   0.830  1.00  0.00    -0.193 N 
ATOM     22  C   UNL     1       3.744   2.803   1.602  1.00  0.00     0.324 C 
ATOM     23  C   UNL     1       1.849   4.319   1.070  1.00  0.00     0.301 C 
ATOM     24  O   UNL     1       4.005   3.329   2.679  1.00  0.00    -0.245 OA
BRANCH  17  25
ATOM     25  C   UNL     1       0.201   0.633  -0.121  1.00  0.00     0.128 A 
ATOM     26  C   UNL     1       1.903  -1.217   0.514  1.00  0.00     0.049 C 
ATOM     27  C   UNL     1       0.559  -0.718   0.071  1.00  0.00    -0.004 A 
ATOM     28  C   UNL     1      -0.414  -1.726  -0.106  1.00  0.00     0.008 A 
ATOM     29  C   UNL     1      -1.745  -1.417  -0.358  1.00  0.00     0.001 A 
ATOM     30  C   UNL     1      -1.153   0.910  -0.396  1.00  0.00     0.052 A 
ATOM     31  C   UNL     1      -2.120  -0.091  -0.491  1.00  0.00     0.004 A 
ENDBRANCH  17  25
ENDBRANCH  15  16
ENDBRANCH  12  15
ENDBRANCH   6  11
ENDBRANCH   3   5
ENDBRANCH   2   3
ENDBRANCH   1   2
BRANCH   1  32
ATOM     32  C   UNL     1       3.166   8.870  -2.856  1.00  0.00     0.275 C 
BRANCH  32  33
ATOM     33  O   UNL     1       4.503   9.381  -3.134  1.00  0.00    -0.458 OA
BRANCH  33  34
ATOM     34  C   UNL     1       5.585   8.707  -3.614  1.00  0.00     0.338 C 
ATOM     35  O   UNL     1       6.722   9.074  -3.443  1.00  0.00    -0.246 OA
BRANCH  34  36
ATOM     36  C   UNL     1       5.296   7.451  -4.323  1.00  0.00     0.060 A 
ATOM     37  C   UNL     1       6.089   6.334  -4.040  1.00  0.00     0.016 A 
ATOM     38  C   UNL     1       4.187   7.367  -5.158  1.00  0.00     0.016 A 
ATOM     39  C   UNL     1       5.693   5.082  -4.486  1.00  0.00     0.010 A 
ATOM     40  C   UNL     1       3.724   6.124  -5.504  1.00  0.00     0.010 A 
ATOM     41  C   UNL     1       4.494   4.995  -5.191  1.00  0.00    -0.014 A 
BRANCH  41  42
ATOM     42  C   UNL     1       4.171   3.844  -6.006  1.00  0.00     0.031 A 
ATOM     43  C   UNL     1       3.496   2.671  -5.439  1.00  0.00     0.074 A 
ATOM     44  C   UNL     1       4.552   4.040  -7.288  1.00  0.00     0.049 A 
ATOM     45  N   UNL     1       3.758   1.461  -5.790  1.00  0.00    -0.248 NA
ATOM     46  C   UNL     1       2.496   2.749  -4.369  1.00  0.00     0.031 C 
ATOM     47  C   UNL     1       4.287   3.315  -8.512  1.00  0.00     0.029 A 
ATOM     48  N   UNL     1       5.470   5.002  -7.695  1.00  0.00    -0.354 N 
ATOM     49  C   UNL     1       2.715   0.691  -5.319  1.00  0.00     0.074 A 
ATOM     50  C   UNL     1       2.070   1.478  -4.297  1.00  0.00     0.031 C 
ATOM     51  C   UNL     1       5.224   3.664  -9.423  1.00  0.00     0.029 A 
ATOM     52  C   UNL     1       6.201   4.529  -8.761  1.00  0.00     0.049 A 
ATOM     53  H   UNL     1       5.581   5.889  -7.282  1.00  0.00     0.167 HD
ATOM     54  C   UNL     1       2.326  -0.400  -6.035  1.00  0.00     0.031 A 
ATOM     55  C   UNL     1       7.520   4.234  -8.549  1.00  0.00     0.031 A 
ATOM     56  C   UNL     1       3.106  -0.488  -7.265  1.00  0.00     0.049 A 
ATOM     57  C   UNL     1       7.731   2.741  -8.642  1.00  0.00     0.074 A 
ATOM     58  C   UNL     1       2.840   0.005  -8.533  1.00  0.00     0.029 A 
ATOM     59  N   UNL     1       4.471  -0.725  -7.204  1.00  0.00    -0.354 N 
ATOM     60  N   UNL     1       6.867   1.848  -8.239  1.00  0.00    -0.248 NA
ATOM     61  C   UNL     1       8.901   2.158  -9.284  1.00  0.00     0.031 C 
ATOM     62  C   UNL     1       4.070   0.110  -9.224  1.00  0.00     0.029 A 
ATOM     63  C   UNL     1       5.078  -0.310  -8.374  1.00  0.00     0.049 A 
ATOM     64  H   UNL     1       4.940  -1.129  -6.439  1.00  0.00     0.167 HD
ATOM     65  C   UNL     1       7.274   0.613  -8.678  1.00  0.00     0.074 A 
ATOM     66  C   UNL     1       8.571   0.855  -9.287  1.00  0.00     0.031 C 
ATOM     67  C   UNL     1       6.503  -0.511  -8.577  1.00  0.00     0.031 A 
BRANCH  54  68
ATOM     68  C   UNL     1       1.015  -1.116  -5.846  1.00  0.00    -0.014 A 
ATOM     69  C   UNL     1       0.328  -1.600  -6.979  1.00  0.00     0.009 A 
ATOM     70  C   UNL     1       0.411  -1.353  -4.601  1.00  0.00     0.009 A 
ATOM     71  C   UNL     1      -0.915  -2.234  -6.890  1.00  0.00     0.001 A 
ATOM     72  C   UNL     1      -0.843  -1.982  -4.506  1.00  0.00     0.001 A 
ATOM     73  C   UNL     1      -1.508  -2.416  -5.650  1.00  0.00     0.000 A 
ENDBRANCH  54  68
BRANCH  55  74
ATOM     74  C   UNL     1       8.255   5.144  -7.599  1.00  0.00    -0.014 A 
ATOM     75  C   UNL     1       8.190   6.543  -7.812  1.00  0.00     0.009 A 
ATOM     76  C   UNL     1       8.819   4.703  -6.394  1.00  0.00     0.009 A 
ATOM     77  C   UNL     1       8.566   7.458  -6.821  1.00  0.00     0.001 A 
ATOM     78  C   UNL     1       9.227   5.626  -5.411  1.00  0.00     0.001 A 
ATOM     79  C   UNL     1       9.073   6.998  -5.612  1.00  0.00     0.000 A 
ENDBRANCH  55  74
BRANCH  67  80
ATOM     80  C   UNL     1       6.964  -1.932  -8.781  1.00  0.00    -0.014 A 
ATOM     81  C   UNL     1       8.302  -2.333  -8.781  1.00  0.00     0.009 A 
ATOM     82  C   UNL     1       5.995  -2.965  -8.833  1.00  0.00     0.009 A 
ATOM     83  C   UNL     1       8.655  -3.683  -8.881  1.00  0.00     0.001 A 
ATOM     84  C   UNL     1       6.340  -4.314  -8.865  1.00  0.00     0.001 A 
ATOM     85  C   UNL     1       7.677  -4.673  -8.907  1.00  0.00     0.000 A 
ENDBRANCH  67  80
ENDBRANCH  41  42
ENDBRANCH  34  36
ENDBRANCH  33  34
ENDBRANCH  32  33
ENDBRANCH   1  32
TORSDOF 15
