REMARK SMILES COc1cc(C)cc2c1[C@@H](C)[C@@H](CC(=O)N[C@@H](Cc1c[nH]c3ccccc13)C(=O)OCCOC(=O)c1ccc(-c3c4nc(c(-c5ccccc5)c5ccc([nH]5)c(-c5ccccc5)c5nc(c(-c6ccccc6)c6ccc3[nH]6)C=C5)C=C4)cc1)C(=O)O2
REMARK SMILES IDX 31 1 30 2 28 3 29 4 17 5 16 6 14 7 15 8 13 10 12 11 3 12
REMARK SMILES IDX 4 13 9 14 5 15 8 16 10 17 6 18 7 19 86 20 11 21 84 22 85 23
REMARK SMILES IDX 2 24 1 25 18 26 19 27 20 28 27 29 21 30 22 31 26 32 23 34
REMARK SMILES IDX 25 35 24 36 32 37 33 38 34 39 35 40 36 41 37 42 83 43 38 44
REMARK SMILES IDX 82 45 39 46 40 47 41 48 76 49 42 50 81 51 75 52 77 53 43 54
REMARK SMILES IDX 80 55 74 56 73 57 44 59 66 60 51 61 65 62 52 63 55 64 64 65
REMARK SMILES IDX 78 66 53 67 54 68 63 70 79 71 56 72 45 73 46 74 50 75 47 76
REMARK SMILES IDX 49 77 48 78 67 79 68 80 72 81 69 82 71 83 70 84 57 85 58 86
REMARK SMILES IDX 62 87 59 88 61 89 60 90
REMARK H PARENT 16 9 21 33 77 58 55 69
REMARK Flexibility Score: inf
ROOT
ATOM      1  C   UNL     1      -0.649   9.398  -3.397  1.00  0.00     0.274 C 
ENDROOT
BRANCH   1   2
ATOM      2  O   UNL     1      -1.631   8.362  -3.196  1.00  0.00    -0.461 OA
BRANCH   2   3
ATOM      3  C   UNL     1      -1.385   7.209  -3.859  1.00  0.00     0.329 C 
ATOM      4  O   UNL     1      -0.456   7.042  -4.647  1.00  0.00    -0.250 OA
BRANCH   3   5
ATOM      5  C   UNL     1      -2.438   6.129  -3.640  1.00  0.00     0.196 C 
BRANCH   5   6
ATOM      6  N   UNL     1      -3.132   5.980  -2.373  1.00  0.00    -0.342 N 
ATOM      7  C   UNL     1      -3.623   4.812  -1.841  1.00  0.00     0.221 C 
ATOM      8  O   UNL     1      -4.622   4.835  -1.124  1.00  0.00    -0.275 OA
ATOM      9  H   UNL     1      -3.264   6.799  -1.841  1.00  0.00     0.164 HD
BRANCH   7  10
ATOM     10  C   UNL     1      -2.793   3.542  -1.972  1.00  0.00     0.116 C 
BRANCH  10  11
ATOM     11  C   UNL     1      -3.267   2.388  -2.886  1.00  0.00     0.116 C 
ATOM     12  C   UNL     1       0.300   1.354  -2.882  1.00  0.00     0.126 A 
ATOM     13  C   UNL     1       1.395   2.183  -3.172  1.00  0.00     0.050 A 
ATOM     14  C   UNL     1      -0.957   1.677  -3.399  1.00  0.00     0.041 A 
ATOM     15  C   UNL     1       1.241   3.332  -3.974  1.00  0.00    -0.044 A 
ATOM     16  C   UNL     1      -1.018   2.680  -4.377  1.00  0.00     0.138 A 
ATOM     17  C   UNL     1      -2.295   1.165  -2.887  1.00  0.00     0.038 C 
ATOM     18  C   UNL     1       2.267   4.418  -4.087  1.00  0.00     0.044 C 
ATOM     19  C   UNL     1       0.059   3.497  -4.678  1.00  0.00     0.051 A 
ATOM     20  O   UNL     1      -2.228   3.006  -5.010  1.00  0.00    -0.426 OA
ATOM     21  C   UNL     1      -2.316   0.504  -1.505  1.00  0.00     0.014 C 
ATOM     22  C   UNL     1      -3.414   2.747  -4.342  1.00  0.00     0.315 C 
ATOM     23  O   UNL     1      -4.495   2.815  -4.914  1.00  0.00    -0.251 OA
BRANCH  12  24
ATOM     24  O   UNL     1       0.408   0.187  -2.181  1.00  0.00    -0.496 OA
ATOM     25  C   UNL     1       1.125   0.234  -0.952  1.00  0.00     0.278 C 
ENDBRANCH  12  24
ENDBRANCH  10  11
ENDBRANCH   7  10
ENDBRANCH   5   6
BRANCH   5  26
ATOM     26  C   UNL     1      -3.378   6.131  -4.838  1.00  0.00     0.074 C 
BRANCH  26  27
ATOM     27  C   UNL     1      -4.601   6.994  -4.994  1.00  0.00    -0.020 A 
ATOM     28  C   UNL     1      -5.027   7.370  -6.263  1.00  0.00     0.087 A 
ATOM     29  C   UNL     1      -5.749   7.254  -4.159  1.00  0.00     0.003 A 
ATOM     30  N   UNL     1      -6.332   6.949  -6.267  1.00  0.00    -0.361 N 
ATOM     31  C   UNL     1      -6.851   7.175  -5.021  1.00  0.00     0.046 A 
ATOM     32  C   UNL     1      -6.035   7.465  -2.795  1.00  0.00     0.010 A 
ATOM     33  H   UNL     1      -6.811   6.553  -7.032  1.00  0.00     0.166 HD
ATOM     34  C   UNL     1      -8.185   7.257  -4.610  1.00  0.00     0.026 A 
ATOM     35  C   UNL     1      -7.363   7.637  -2.370  1.00  0.00     0.001 A 
ATOM     36  C   UNL     1      -8.421   7.526  -3.264  1.00  0.00     0.002 A 
ENDBRANCH  26  27
ENDBRANCH   5  26
ENDBRANCH   3   5
ENDBRANCH   2   3
ENDBRANCH   1   2
BRANCH   1  37
ATOM     37  C   UNL     1       0.106   9.670  -2.096  1.00  0.00     0.275 C 
BRANCH  37  38
ATOM     38  O   UNL     1       0.971   8.571  -1.733  1.00  0.00    -0.458 OA
BRANCH  38  39
ATOM     39  C   UNL     1       0.401   7.628  -0.933  1.00  0.00     0.338 C 
ATOM     40  O   UNL     1      -0.735   7.620  -0.524  1.00  0.00    -0.246 OA
BRANCH  39  41
ATOM     41  C   UNL     1       1.342   6.494  -0.729  1.00  0.00     0.060 A 
ATOM     42  C   UNL     1       2.719   6.646  -0.525  1.00  0.00     0.016 A 
ATOM     43  C   UNL     1       0.788   5.218  -0.711  1.00  0.00     0.016 A 
ATOM     44  C   UNL     1       3.547   5.515  -0.348  1.00  0.00     0.010 A 
ATOM     45  C   UNL     1       1.615   4.104  -0.550  1.00  0.00     0.010 A 
ATOM     46  C   UNL     1       3.010   4.221  -0.393  1.00  0.00    -0.014 A 
BRANCH  46  47
ATOM     47  C   UNL     1       3.828   2.982  -0.175  1.00  0.00     0.031 A 
ATOM     48  C   UNL     1       4.727   2.368  -1.230  1.00  0.00     0.074 A 
ATOM     49  C   UNL     1       3.626   2.293   0.963  1.00  0.00     0.049 A 
ATOM     50  N   UNL     1       5.334   1.202  -1.232  1.00  0.00    -0.248 NA
ATOM     51  C   UNL     1       4.903   3.113  -2.478  1.00  0.00     0.031 C 
ATOM     52  C   UNL     1       2.747   2.716   2.053  1.00  0.00     0.029 A 
ATOM     53  N   UNL     1       4.124   1.085   1.381  1.00  0.00    -0.354 N 
ATOM     54  C   UNL     1       5.880   1.047  -2.508  1.00  0.00     0.074 A 
ATOM     55  C   UNL     1       5.471   2.208  -3.266  1.00  0.00     0.031 C 
ATOM     56  C   UNL     1       2.767   1.784   3.015  1.00  0.00     0.029 A 
ATOM     57  C   UNL     1       3.679   0.713   2.624  1.00  0.00     0.049 A 
ATOM     58  H   UNL     1       4.741   0.538   0.842  1.00  0.00     0.167 HD
ATOM     59  C   UNL     1       6.678   0.058  -2.995  1.00  0.00     0.031 A 
ATOM     60  C   UNL     1       4.000  -0.341   3.397  1.00  0.00     0.031 A 
ATOM     61  C   UNL     1       7.180  -1.034  -2.197  1.00  0.00     0.049 A 
ATOM     62  C   UNL     1       5.041  -1.317   2.933  1.00  0.00     0.074 A 
ATOM     63  C   UNL     1       8.095  -2.015  -2.548  1.00  0.00     0.029 A 
ATOM     64  N   UNL     1       6.831  -1.272  -0.878  1.00  0.00    -0.354 N 
ATOM     65  N   UNL     1       5.638  -1.387   1.769  1.00  0.00    -0.248 NA
ATOM     66  C   UNL     1       5.489  -2.326   3.902  1.00  0.00     0.031 C 
ATOM     67  C   UNL     1       8.251  -2.880  -1.462  1.00  0.00     0.029 A 
ATOM     68  C   UNL     1       7.496  -2.391  -0.409  1.00  0.00     0.049 A 
ATOM     69  H   UNL     1       6.203  -0.726  -0.352  1.00  0.00     0.167 HD
ATOM     70  C   UNL     1       6.553  -2.428   1.875  1.00  0.00     0.074 A 
ATOM     71  C   UNL     1       6.442  -2.950   3.221  1.00  0.00     0.031 C 
ATOM     72  C   UNL     1       7.403  -2.902   0.934  1.00  0.00     0.031 A 
BRANCH  59  73
ATOM     73  C   UNL     1       7.099   0.104  -4.450  1.00  0.00    -0.014 A 
ATOM     74  C   UNL     1       6.765  -0.960  -5.309  1.00  0.00     0.009 A 
ATOM     75  C   UNL     1       7.899   1.139  -4.961  1.00  0.00     0.009 A 
ATOM     76  C   UNL     1       7.205  -0.980  -6.637  1.00  0.00     0.001 A 
ATOM     77  C   UNL     1       8.298   1.142  -6.301  1.00  0.00     0.001 A 
ATOM     78  C   UNL     1       7.957   0.081  -7.137  1.00  0.00     0.000 A 
ENDBRANCH  59  73
BRANCH  60  79
ATOM     79  C   UNL     1       3.436  -0.395   4.768  1.00  0.00    -0.014 A 
ATOM     80  C   UNL     1       2.092  -0.731   4.989  1.00  0.00     0.009 A 
ATOM     81  C   UNL     1       4.222   0.032   5.850  1.00  0.00     0.009 A 
ATOM     82  C   UNL     1       1.540  -0.613   6.266  1.00  0.00     0.001 A 
ATOM     83  C   UNL     1       3.673   0.124   7.128  1.00  0.00     0.001 A 
ATOM     84  C   UNL     1       2.331  -0.187   7.333  1.00  0.00     0.000 A 
ENDBRANCH  60  79
BRANCH  72  85
ATOM     85  C   UNL     1       8.315  -4.042   1.294  1.00  0.00    -0.014 A 
ATOM     86  C   UNL     1       9.703  -3.832   1.340  1.00  0.00     0.009 A 
ATOM     87  C   UNL     1       7.820  -5.347   1.432  1.00  0.00     0.009 A 
ATOM     88  C   UNL     1      10.579  -4.907   1.491  1.00  0.00     0.001 A 
ATOM     89  C   UNL     1       8.699  -6.419   1.609  1.00  0.00     0.001 A 
ATOM     90  C   UNL     1      10.076  -6.200   1.625  1.00  0.00     0.000 A 
ENDBRANCH  72  85
ENDBRANCH  46  47
ENDBRANCH  39  41
ENDBRANCH  38  39
ENDBRANCH  37  38
ENDBRANCH   1  37
TORSDOF 17
