REMARK SMILES COc1ccc(-c2cc(C(F)(F)F)n3nc(C(=O)OCCOC(=O)c4ccc(-c5c6nc(c(-c7ccccc7)c7ccc([nH]7)c(-c7ccccc7)c7nc(c(-c8ccccc8)c8ccc5[nH]8)C=C7)C=C6)cc4)cc3n2)cc1OC
REMARK SMILES IDX 20 1 19 2 17 3 18 4 16 5 7 6 8 7 75 8 9 9 74 10 14 11 73 12
REMARK SMILES IDX 15 13 6 14 3 15 4 16 77 17 5 18 76 19 2 20 1 21 78 22 79 23
REMARK SMILES IDX 10 24 11 25 12 26 13 27 21 28 22 29 23 30 24 31 25 32 26 33
REMARK SMILES IDX 72 34 27 35 71 36 28 37 29 38 30 39 65 40 31 41 70 42 64 43
REMARK SMILES IDX 66 44 32 45 69 46 63 47 62 48 33 50 55 51 40 52 54 53 41 54
REMARK SMILES IDX 44 55 53 56 67 57 42 58 43 59 52 61 68 62 45 63 34 64 35 65
REMARK SMILES IDX 39 66 36 67 38 68 37 69 56 70 57 71 61 72 58 73 60 74 59 75
REMARK SMILES IDX 46 76 47 77 51 78 48 79 50 80 49 81
REMARK H PARENT 66 49 44 60
REMARK Flexibility Score: inf
ROOT
ATOM      1  C   UNL     1       0.245   7.814  11.534  1.00  0.00     0.275 C 
ENDROOT
BRANCH   1   2
ATOM      2  O   UNL     1       0.397   7.084  10.300  1.00  0.00    -0.457 OA
BRANCH   2   3
ATOM      3  C   UNL     1       0.836   7.825   9.239  1.00  0.00     0.359 C 
ATOM      4  O   UNL     1       0.997   9.044   9.283  1.00  0.00    -0.244 OA
BRANCH   3   5
ATOM      5  C   UNL     1       1.169   7.016   8.056  1.00  0.00     0.173 A 
ATOM      6  C   UNL     1       1.891   4.471   4.514  1.00  0.00     0.075 A 
ATOM      7  C   UNL     1       3.047   5.405   4.330  1.00  0.00     0.062 A 
ATOM      8  N   UNL     1       1.063   4.497   5.520  1.00  0.00    -0.228 NA
ATOM      9  C   UNL     1       3.147   6.402   5.227  1.00  0.00     0.150 A 
ATOM     10  C   UNL     1       1.256   5.489   6.439  1.00  0.00     0.157 A 
ATOM     11  N   UNL     1       2.224   6.481   6.261  1.00  0.00    -0.209 N 
ATOM     12  C   UNL     1       0.645   5.769   7.643  1.00  0.00     0.087 A 
ATOM     13  N   UNL     1       2.084   7.455   7.175  1.00  0.00    -0.159 NA
BRANCH   6  14
ATOM     14  C   UNL     1       1.667   3.525   3.395  1.00  0.00     0.004 A 
ATOM     15  C   UNL     1       1.222   1.949   1.135  1.00  0.00     0.160 A 
ATOM     16  C   UNL     1       0.164   2.659   1.719  1.00  0.00     0.051 A 
ATOM     17  C   UNL     1       2.509   2.019   1.687  1.00  0.00     0.161 A 
ATOM     18  C   UNL     1       0.381   3.434   2.858  1.00  0.00     0.014 A 
ATOM     19  C   UNL     1       2.723   2.813   2.820  1.00  0.00     0.060 A 
BRANCH  15  20
ATOM     20  O   UNL     1       1.004   1.284  -0.042  1.00  0.00    -0.493 OA
ATOM     21  C   UNL     1       0.064   0.220   0.101  1.00  0.00     0.278 C 
ENDBRANCH  15  20
BRANCH  17  22
ATOM     22  O   UNL     1       3.653   1.420   1.231  1.00  0.00    -0.493 OA
ATOM     23  C   UNL     1       3.508   0.269   0.411  1.00  0.00     0.278 C 
ENDBRANCH  17  22
ENDBRANCH   6  14
BRANCH   9  24
ATOM     24  C   UNL     1       4.212   7.429   5.196  1.00  0.00     0.433 C 
ATOM     25  F   UNL     1       3.740   8.698   5.131  1.00  0.00    -0.165 F 
ATOM     26  F   UNL     1       5.033   7.351   6.274  1.00  0.00    -0.165 F 
ATOM     27  F   UNL     1       5.019   7.276   4.108  1.00  0.00    -0.165 F 
ENDBRANCH   9  24
ENDBRANCH   3   5
ENDBRANCH   2   3
ENDBRANCH   1   2
BRANCH   1  28
ATOM     28  C   UNL     1       1.502   7.746  12.412  1.00  0.00     0.275 C 
BRANCH  28  29
ATOM     29  O   UNL     1       2.598   8.513  11.873  1.00  0.00    -0.458 OA
BRANCH  29  30
ATOM     30  C   UNL     1       3.467   7.814  11.106  1.00  0.00     0.338 C 
ATOM     31  O   UNL     1       3.414   6.626  10.837  1.00  0.00    -0.246 OA
BRANCH  30  32
ATOM     32  C   UNL     1       4.465   8.719  10.514  1.00  0.00     0.060 A 
ATOM     33  C   UNL     1       4.410   8.928   9.138  1.00  0.00     0.016 A 
ATOM     34  C   UNL     1       5.511   9.261  11.260  1.00  0.00     0.016 A 
ATOM     35  C   UNL     1       5.407   9.639   8.483  1.00  0.00     0.010 A 
ATOM     36  C   UNL     1       6.504  10.004  10.606  1.00  0.00     0.010 A 
ATOM     37  C   UNL     1       6.469  10.181   9.210  1.00  0.00    -0.014 A 
BRANCH  37  38
ATOM     38  C   UNL     1       7.562  10.877   8.487  1.00  0.00     0.031 A 
ATOM     39  C   UNL     1       8.928  10.256   8.417  1.00  0.00     0.074 A 
ATOM     40  C   UNL     1       7.319  12.040   7.852  1.00  0.00     0.049 A 
ATOM     41  N   UNL     1      10.038  10.749   7.929  1.00  0.00    -0.248 NA
ATOM     42  C   UNL     1       9.063   8.899   8.970  1.00  0.00     0.031 C 
ATOM     43  C   UNL     1       6.016  12.704   7.768  1.00  0.00     0.029 A 
ATOM     44  N   UNL     1       8.160  12.865   7.149  1.00  0.00    -0.354 N 
ATOM     45  C   UNL     1      11.009   9.780   8.147  1.00  0.00     0.074 A 
ATOM     46  C   UNL     1      10.361   8.676   8.823  1.00  0.00     0.031 C 
ATOM     47  C   UNL     1       6.143  13.825   7.042  1.00  0.00     0.029 A 
ATOM     48  C   UNL     1       7.543  13.993   6.668  1.00  0.00     0.049 A 
ATOM     49  H   UNL     1       9.113  12.666   7.003  1.00  0.00     0.167 HD
ATOM     50  C   UNL     1      12.322   9.809   7.815  1.00  0.00     0.031 A 
ATOM     51  C   UNL     1       8.055  15.062   6.027  1.00  0.00     0.031 A 
ATOM     52  C   UNL     1      12.959  10.904   7.131  1.00  0.00     0.049 A 
ATOM     53  C   UNL     1       9.531  15.110   5.749  1.00  0.00     0.074 A 
ATOM     54  C   UNL     1      14.285  11.034   6.756  1.00  0.00     0.029 A 
ATOM     55  N   UNL     1      12.310  12.056   6.714  1.00  0.00    -0.354 N 
ATOM     56  N   UNL     1      10.449  14.207   5.997  1.00  0.00    -0.248 NA
ATOM     57  C   UNL     1      10.042  16.330   5.108  1.00  0.00     0.031 C 
ATOM     58  C   UNL     1      14.448  12.286   6.154  1.00  0.00     0.029 A 
ATOM     59  C   UNL     1      13.213  12.911   6.104  1.00  0.00     0.049 A 
ATOM     60  H   UNL     1      11.350  12.240   6.834  1.00  0.00     0.167 HD
ATOM     61  C   UNL     1      11.640  14.737   5.520  1.00  0.00     0.074 A 
ATOM     62  C   UNL     1      11.326  16.035   4.957  1.00  0.00     0.031 C 
ATOM     63  C   UNL     1      12.882  14.197   5.545  1.00  0.00     0.031 A 
BRANCH  50  64
ATOM     64  C   UNL     1      13.167   8.639   8.233  1.00  0.00    -0.014 A 
ATOM     65  C   UNL     1      13.054   7.388   7.606  1.00  0.00     0.009 A 
ATOM     66  C   UNL     1      14.109   8.799   9.262  1.00  0.00     0.009 A 
ATOM     67  C   UNL     1      13.842   6.314   8.026  1.00  0.00     0.001 A 
ATOM     68  C   UNL     1      14.915   7.732   9.660  1.00  0.00     0.001 A 
ATOM     69  C   UNL     1      14.774   6.487   9.049  1.00  0.00     0.000 A 
ENDBRANCH  50  64
BRANCH  51  70
ATOM     70  C   UNL     1       7.170  16.192   5.642  1.00  0.00    -0.014 A 
ATOM     71  C   UNL     1       6.899  16.461   4.293  1.00  0.00     0.009 A 
ATOM     72  C   UNL     1       6.597  17.015   6.626  1.00  0.00     0.009 A 
ATOM     73  C   UNL     1       6.088  17.542   3.936  1.00  0.00     0.001 A 
ATOM     74  C   UNL     1       5.763  18.075   6.268  1.00  0.00     0.001 A 
ATOM     75  C   UNL     1       5.517  18.344   4.923  1.00  0.00     0.000 A 
ENDBRANCH  51  70
BRANCH  63  76
ATOM     76  C   UNL     1      13.987  14.988   4.905  1.00  0.00    -0.014 A 
ATOM     77  C   UNL     1      14.515  16.134   5.518  1.00  0.00     0.009 A 
ATOM     78  C   UNL     1      14.534  14.552   3.687  1.00  0.00     0.009 A 
ATOM     79  C   UNL     1      15.550  16.845   4.908  1.00  0.00     0.001 A 
ATOM     80  C   UNL     1      15.587  15.249   3.094  1.00  0.00     0.001 A 
ATOM     81  C   UNL     1      16.088  16.399   3.701  1.00  0.00     0.000 A 
ENDBRANCH  63  76
ENDBRANCH  37  38
ENDBRANCH  30  32
ENDBRANCH  29  30
ENDBRANCH  28  29
ENDBRANCH   1  28
TORSDOF 15
