REMARK SMILES COc1cc(OC(F)(F)F)cc2c1O[C@@H](C(F)(F)F)C(C(=O)OCCOC(=O)c1ccc(-c3c4nc(c(-c5ccccc5)c5ccc([nH]5)c(-c5ccccc5)c5nc(c(-c6ccccc6)c6ccc3[nH]6)C=C5)C=C4)cc1)=C2
REMARK SMILES IDX 24 1 23 2 21 3 22 4 20 5 3 6 4 7 13 8 5 9 12 10 14 11 11 12
REMARK SMILES IDX 77 13 15 14 2 15 1 16 6 17 7 18 8 19 9 20 10 21 16 22 17 23
REMARK SMILES IDX 18 24 19 25 25 26 26 27 27 28 28 29 29 30 30 31 76 32 31 33
REMARK SMILES IDX 75 34 32 35 33 36 34 37 69 38 35 39 74 40 68 41 70 42 36 43
REMARK SMILES IDX 73 44 67 45 66 46 37 48 59 49 44 50 58 51 45 52 48 53 57 54
REMARK SMILES IDX 71 55 46 56 47 57 56 59 72 60 49 61 38 62 39 63 43 64 40 65
REMARK SMILES IDX 42 66 41 67 60 68 61 69 65 70 62 71 64 72 63 73 50 74 51 75
REMARK SMILES IDX 55 76 52 77 54 78 53 79
REMARK H PARENT 70 47 48 58
REMARK Flexibility Score: inf
ROOT
ATOM      1  C   UNL     1       7.723  -4.775  -2.624  1.00  0.00     0.275 C 
ENDROOT
BRANCH   1   2
ATOM      2  O   UNL     1       6.358  -4.471  -2.266  1.00  0.00    -0.459 OA
BRANCH   2   3
ATOM      3  C   UNL     1       6.191  -3.801  -1.095  1.00  0.00     0.338 C 
ATOM      4  O   UNL     1       7.086  -3.446  -0.358  1.00  0.00    -0.246 OA
BRANCH   3   5
ATOM      5  C   UNL     1       4.764  -3.490  -0.835  1.00  0.00     0.087 C 
ATOM      6  C   UNL     1       0.823  -2.440   0.068  1.00  0.00     0.165 A 
ATOM      7  C   UNL     1      -0.246  -3.182  -0.433  1.00  0.00     0.097 A 
ATOM      8  C   UNL     1       2.137  -2.857  -0.154  1.00  0.00     0.170 A 
ATOM      9  C   UNL     1      -0.001  -4.324  -1.196  1.00  0.00     0.134 A 
ATOM     10  C   UNL     1       2.401  -3.955  -0.976  1.00  0.00     0.025 A 
ATOM     11  O   UNL     1       3.136  -2.231   0.536  1.00  0.00    -0.471 OA
ATOM     12  C   UNL     1       1.324  -4.684  -1.496  1.00  0.00     0.059 A 
ATOM     13  C   UNL     1       3.793  -4.332  -1.235  1.00  0.00     0.027 C 
ATOM     14  C   UNL     1       4.425  -2.190  -0.125  1.00  0.00     0.316 C 
BRANCH   6  15
ATOM     15  O   UNL     1       0.513  -1.335   0.819  1.00  0.00    -0.493 OA
ATOM     16  C   UNL     1       0.947  -0.134   0.175  1.00  0.00     0.278 C 
ENDBRANCH   6  15
BRANCH   9  17
ATOM     17  O   UNL     1      -0.955  -5.160  -1.706  1.00  0.00    -0.406 OA
BRANCH  17  18
ATOM     18  C   UNL     1      -2.272  -5.040  -1.183  1.00  0.00     0.573 C 
ATOM     19  F   UNL     1      -2.276  -5.102   0.166  1.00  0.00    -0.132 F 
ATOM     20  F   UNL     1      -2.845  -3.886  -1.585  1.00  0.00    -0.132 F 
ATOM     21  F   UNL     1      -3.019  -6.065  -1.651  1.00  0.00    -0.132 F 
ENDBRANCH  17  18
ENDBRANCH   9  17
BRANCH  14  22
ATOM     22  C   UNL     1       5.428  -1.596   0.885  1.00  0.00     0.430 C 
ATOM     23  F   UNL     1       6.530  -1.103   0.276  1.00  0.00    -0.167 F 
ATOM     24  F   UNL     1       4.868  -0.532   1.525  1.00  0.00    -0.167 F 
ATOM     25  F   UNL     1       5.802  -2.475   1.836  1.00  0.00    -0.167 F 
ENDBRANCH  14  22
ENDBRANCH   3   5
ENDBRANCH   2   3
ENDBRANCH   1   2
BRANCH   1  26
ATOM     26  C   UNL     1       8.214  -3.921  -3.797  1.00  0.00     0.275 C 
BRANCH  26  27
ATOM     27  O   UNL     1       8.210  -2.517  -3.476  1.00  0.00    -0.458 OA
BRANCH  27  28
ATOM     28  C   UNL     1       7.098  -1.849  -3.865  1.00  0.00     0.338 C 
ATOM     29  O   UNL     1       6.150  -2.305  -4.486  1.00  0.00    -0.246 OA
BRANCH  28  30
ATOM     30  C   UNL     1       7.073  -0.499  -3.267  1.00  0.00     0.060 A 
ATOM     31  C   UNL     1       5.862  -0.091  -2.701  1.00  0.00     0.016 A 
ATOM     32  C   UNL     1       8.172   0.363  -3.262  1.00  0.00     0.016 A 
ATOM     33  C   UNL     1       5.758   1.140  -2.060  1.00  0.00     0.010 A 
ATOM     34  C   UNL     1       8.052   1.629  -2.669  1.00  0.00     0.010 A 
ATOM     35  C   UNL     1       6.848   2.017  -2.053  1.00  0.00    -0.014 A 
BRANCH  35  36
ATOM     36  C   UNL     1       6.664   3.379  -1.499  1.00  0.00     0.031 A 
ATOM     37  C   UNL     1       6.136   4.466  -2.392  1.00  0.00     0.074 A 
ATOM     38  C   UNL     1       6.889   3.631  -0.196  1.00  0.00     0.049 A 
ATOM     39  N   UNL     1       5.864   5.714  -2.107  1.00  0.00    -0.248 NA
ATOM     40  C   UNL     1       5.858   4.088  -3.787  1.00  0.00     0.031 C 
ATOM     41  C   UNL     1       7.319   2.647   0.796  1.00  0.00     0.029 A 
ATOM     42  N   UNL     1       6.774   4.800   0.515  1.00  0.00    -0.354 N 
ATOM     43  C   UNL     1       5.372   6.268  -3.281  1.00  0.00     0.074 A 
ATOM     44  C   UNL     1       5.402   5.228  -4.287  1.00  0.00     0.031 C 
ATOM     45  C   UNL     1       7.444   3.258   1.988  1.00  0.00     0.029 A 
ATOM     46  C   UNL     1       7.131   4.678   1.837  1.00  0.00     0.049 A 
ATOM     47  H   UNL     1       6.466   5.645   0.116  1.00  0.00     0.167 HD
ATOM     48  C   UNL     1       4.932   7.529  -3.504  1.00  0.00     0.031 A 
ATOM     49  C   UNL     1       7.213   5.612   2.805  1.00  0.00     0.031 A 
ATOM     50  C   UNL     1       4.945   8.581  -2.522  1.00  0.00     0.049 A 
ATOM     51  C   UNL     1       6.843   7.040   2.492  1.00  0.00     0.074 A 
ATOM     52  C   UNL     1       4.553   9.901  -2.669  1.00  0.00     0.029 A 
ATOM     53  N   UNL     1       5.386   8.437  -1.217  1.00  0.00    -0.354 N 
ATOM     54  N   UNL     1       6.368   7.551   1.381  1.00  0.00    -0.248 NA
ATOM     55  C   UNL     1       7.010   8.020   3.576  1.00  0.00     0.031 C 
ATOM     56  C   UNL     1       4.811  10.569  -1.468  1.00  0.00     0.029 A 
ATOM     57  C   UNL     1       5.298   9.650  -0.554  1.00  0.00     0.049 A 
ATOM     58  H   UNL     1       5.714   7.598  -0.820  1.00  0.00     0.167 HD
ATOM     59  C   UNL     1       6.143   8.897   1.647  1.00  0.00     0.074 A 
ATOM     60  C   UNL     1       6.519   9.121   3.026  1.00  0.00     0.031 C 
ATOM     61  C   UNL     1       5.664   9.861   0.823  1.00  0.00     0.031 A 
BRANCH  48  62
ATOM     62  C   UNL     1       4.441   7.852  -4.886  1.00  0.00    -0.014 A 
ATOM     63  C   UNL     1       3.209   7.367  -5.351  1.00  0.00     0.009 A 
ATOM     64  C   UNL     1       5.205   8.683  -5.719  1.00  0.00     0.009 A 
ATOM     65  C   UNL     1       2.765   7.687  -6.636  1.00  0.00     0.001 A 
ATOM     66  C   UNL     1       4.746   9.023  -6.993  1.00  0.00     0.001 A 
ATOM     67  C   UNL     1       3.530   8.519  -7.453  1.00  0.00     0.000 A 
ENDBRANCH  48  62
BRANCH  49  68
ATOM     68  C   UNL     1       7.705   5.254   4.164  1.00  0.00    -0.014 A 
ATOM     69  C   UNL     1       6.864   5.352   5.285  1.00  0.00     0.009 A 
ATOM     70  C   UNL     1       9.046   4.886   4.357  1.00  0.00     0.009 A 
ATOM     71  C   UNL     1       7.368   5.132   6.570  1.00  0.00     0.001 A 
ATOM     72  C   UNL     1       9.538   4.634   5.639  1.00  0.00     0.001 A 
ATOM     73  C   UNL     1       8.703   4.772   6.746  1.00  0.00     0.000 A 
ENDBRANCH  49  68
BRANCH  61  74
ATOM     74  C   UNL     1       5.458  11.234   1.406  1.00  0.00    -0.014 A 
ATOM     75  C   UNL     1       6.540  12.057   1.754  1.00  0.00     0.009 A 
ATOM     76  C   UNL     1       4.153  11.723   1.575  1.00  0.00     0.009 A 
ATOM     77  C   UNL     1       6.317  13.325   2.298  1.00  0.00     0.001 A 
ATOM     78  C   UNL     1       3.933  13.002   2.087  1.00  0.00     0.001 A 
ATOM     79  C   UNL     1       5.015  13.798   2.459  1.00  0.00     0.000 A 
ENDBRANCH  61  74
ENDBRANCH  35  36
ENDBRANCH  28  30
ENDBRANCH  27  28
ENDBRANCH  26  27
ENDBRANCH   1  26
TORSDOF 15
