REMARK SMILES CC[C@@H](Nc1ccc([N+](=O)[O-])c(N)n1)C(=O)OCCOC(=O)c1ccc(-c2c3nc(c(-c4ccccc4)c4ccc([nH]4)c(-c4ccccc4)c4nc(c(-c5ccccc5)c5ccc2[nH]5)C=C4)C=C3)cc1
REMARK SMILES IDX 18 1 17 2 15 3 16 4 3 5 2 6 1 7 4 8 5 10 6 11 14 12 7 13
REMARK SMILES IDX 12 14 8 15 13 16 9 19 10 20 11 21 19 22 20 23 21 24 22 25
REMARK SMILES IDX 23 26 24 27 70 28 25 29 69 30 26 31 27 32 28 33 63 34 29 35
REMARK SMILES IDX 68 36 62 37 64 38 30 39 67 40 61 41 60 42 31 44 53 45 38 46
REMARK SMILES IDX 52 47 39 48 42 49 51 50 65 51 40 52 41 53 50 55 66 56 43 57
REMARK SMILES IDX 32 58 33 59 37 60 34 61 36 62 35 63 54 64 55 65 59 66 56 67
REMARK SMILES IDX 58 68 57 69 44 70 45 71 49 72 46 73 48 74 47 75
REMARK H PARENT 4 9 13 17 13 18 64 43 42 54
REMARK Flexibility Score: inf
ROOT
ATOM      1  C   UNL     1      -1.305  -0.432  -5.071  1.00  0.00     0.274 C 
ENDROOT
BRANCH   1   2
ATOM      2  O   UNL     1      -0.952  -0.571  -3.680  1.00  0.00    -0.461 OA
BRANCH   2   3
ATOM      3  C   UNL     1       0.159  -1.318  -3.436  1.00  0.00     0.328 C 
ATOM      4  O   UNL     1       0.810  -1.867  -4.323  1.00  0.00    -0.250 OA
BRANCH   3   5
ATOM      5  C   UNL     1       0.560  -1.377  -1.943  1.00  0.00     0.191 C 
BRANCH   5   6
ATOM      6  C   UNL     1      -0.149  -0.338  -1.061  1.00  0.00     0.033 C 
ATOM      7  C   UNL     1       0.560  -0.136   0.275  1.00  0.00     0.007 C 
ENDBRANCH   5   6
BRANCH   5   8
ATOM      8  N   UNL     1       0.405  -2.718  -1.381  1.00  0.00    -0.357 N 
ATOM      9  H   UNL     1      -0.236  -2.822  -0.641  1.00  0.00     0.162 HD
BRANCH   8  10
ATOM     10  C   UNL     1       1.070  -3.843  -1.791  1.00  0.00     0.129 A 
ATOM     11  C   UNL     1       2.181  -3.835  -2.626  1.00  0.00     0.054 A 
ATOM     12  N   UNL     1       0.550  -5.001  -1.334  1.00  0.00    -0.208 NA
ATOM     13  C   UNL     1       2.705  -5.038  -3.087  1.00  0.00     0.093 A 
ATOM     14  C   UNL     1       1.076  -6.181  -1.739  1.00  0.00     0.204 A 
ATOM     15  C   UNL     1       2.127  -6.226  -2.647  1.00  0.00     0.311 A 
BRANCH  14  16
ATOM     16  N   UNL     1       0.419  -7.290  -1.245  1.00  0.00    -0.378 N 
ATOM     17  H   UNL     1       0.728  -8.193  -1.484  1.00  0.00     0.158 HD
ATOM     18  H   UNL     1      -0.360  -7.178  -0.653  1.00  0.00     0.158 HD
ENDBRANCH  14  16
BRANCH  15  19
ATOM     19  N   UNL     1       2.641  -7.486  -3.149  1.00  0.00     0.066 N 
ATOM     20  O   UNL     1       2.636  -8.466  -2.387  1.00  0.00    -0.258 OA
ATOM     21  O   UNL     1       3.092  -7.496  -4.304  1.00  0.00    -0.258 OA
ENDBRANCH  15  19
ENDBRANCH   8  10
ENDBRANCH   5   8
ENDBRANCH   3   5
ENDBRANCH   2   3
ENDBRANCH   1   2
BRANCH   1  22
ATOM     22  C   UNL     1      -0.706   0.828  -5.713  1.00  0.00     0.275 C 
BRANCH  22  23
ATOM     23  O   UNL     1       0.732   0.789  -5.817  1.00  0.00    -0.458 OA
BRANCH  23  24
ATOM     24  C   UNL     1       1.395   1.295  -4.752  1.00  0.00     0.338 C 
ATOM     25  O   UNL     1       0.904   1.766  -3.739  1.00  0.00    -0.246 OA
BRANCH  24  26
ATOM     26  C   UNL     1       2.847   1.066  -4.875  1.00  0.00     0.060 A 
ATOM     27  C   UNL     1       3.481   0.418  -3.810  1.00  0.00     0.016 A 
ATOM     28  C   UNL     1       3.598   1.559  -5.943  1.00  0.00     0.016 A 
ATOM     29  C   UNL     1       4.859   0.249  -3.803  1.00  0.00     0.010 A 
ATOM     30  C   UNL     1       4.991   1.407  -5.927  1.00  0.00     0.010 A 
ATOM     31  C   UNL     1       5.627   0.760  -4.853  1.00  0.00    -0.014 A 
BRANCH  31  32
ATOM     32  C   UNL     1       7.101   0.670  -4.763  1.00  0.00     0.031 A 
ATOM     33  C   UNL     1       7.893   1.860  -4.305  1.00  0.00     0.074 A 
ATOM     34  C   UNL     1       7.720  -0.496  -5.017  1.00  0.00     0.049 A 
ATOM     35  N   UNL     1       9.189   1.994  -4.188  1.00  0.00    -0.248 NA
ATOM     36  C   UNL     1       7.124   3.053  -3.917  1.00  0.00     0.031 C 
ATOM     37  C   UNL     1       7.051  -1.744  -5.388  1.00  0.00     0.029 A 
ATOM     38  N   UNL     1       9.052  -0.822  -4.991  1.00  0.00    -0.354 N 
ATOM     39  C   UNL     1       9.394   3.288  -3.727  1.00  0.00     0.074 A 
ATOM     40  C   UNL     1       8.089   3.902  -3.594  1.00  0.00     0.031 C 
ATOM     41  C   UNL     1       7.979  -2.701  -5.558  1.00  0.00     0.029 A 
ATOM     42  C   UNL     1       9.304  -2.122  -5.350  1.00  0.00     0.049 A 
ATOM     43  H   UNL     1       9.758  -0.184  -4.740  1.00  0.00     0.167 HD
ATOM     44  C   UNL     1      10.563   3.908  -3.443  1.00  0.00     0.031 A 
ATOM     45  C   UNL     1      10.474  -2.765  -5.521  1.00  0.00     0.031 A 
ATOM     46  C   UNL     1      11.860   3.303  -3.586  1.00  0.00     0.049 A 
ATOM     47  C   UNL     1      11.762  -2.026  -5.290  1.00  0.00     0.074 A 
ATOM     48  C   UNL     1      13.104   3.858  -3.343  1.00  0.00     0.029 A 
ATOM     49  N   UNL     1      12.078   2.003  -4.014  1.00  0.00    -0.354 N 
ATOM     50  N   UNL     1      11.944  -0.793  -4.881  1.00  0.00    -0.248 NA
ATOM     51  C   UNL     1      13.005  -2.765  -5.550  1.00  0.00     0.031 C 
ATOM     52  C   UNL     1      14.078   2.905  -3.665  1.00  0.00     0.029 A 
ATOM     53  C   UNL     1      13.437   1.744  -4.064  1.00  0.00     0.049 A 
ATOM     54  H   UNL     1      11.371   1.359  -4.249  1.00  0.00     0.167 HD
ATOM     55  C   UNL     1      13.319  -0.615  -4.820  1.00  0.00     0.074 A 
ATOM     56  C   UNL     1      13.924  -1.869  -5.218  1.00  0.00     0.031 C 
ATOM     57  C   UNL     1      14.020   0.491  -4.467  1.00  0.00     0.031 A 
BRANCH  44  58
ATOM     58  C   UNL     1      10.488   5.338  -2.993  1.00  0.00    -0.014 A 
ATOM     59  C   UNL     1      10.070   5.674  -1.696  1.00  0.00     0.009 A 
ATOM     60  C   UNL     1      10.862   6.363  -3.876  1.00  0.00     0.009 A 
ATOM     61  C   UNL     1      10.000   7.013  -1.303  1.00  0.00     0.001 A 
ATOM     62  C   UNL     1      10.811   7.699  -3.473  1.00  0.00     0.001 A 
ATOM     63  C   UNL     1      10.373   8.023  -2.190  1.00  0.00     0.000 A 
ENDBRANCH  44  58
BRANCH  45  64
ATOM     64  C   UNL     1      10.482  -4.178  -5.980  1.00  0.00    -0.014 A 
ATOM     65  C   UNL     1      10.869  -5.212  -5.115  1.00  0.00     0.009 A 
ATOM     66  C   UNL     1      10.106  -4.495  -7.295  1.00  0.00     0.009 A 
ATOM     67  C   UNL     1      10.896  -6.534  -5.565  1.00  0.00     0.001 A 
ATOM     68  C   UNL     1      10.108  -5.819  -7.733  1.00  0.00     0.001 A 
ATOM     69  C   UNL     1      10.511  -6.837  -6.871  1.00  0.00     0.000 A 
ENDBRANCH  45  64
BRANCH  57  70
ATOM     70  C   UNL     1      15.517   0.382  -4.473  1.00  0.00    -0.014 A 
ATOM     71  C   UNL     1      16.239   0.383  -5.677  1.00  0.00     0.009 A 
ATOM     72  C   UNL     1      16.215   0.312  -3.258  1.00  0.00     0.009 A 
ATOM     73  C   UNL     1      17.631   0.288  -5.662  1.00  0.00     0.001 A 
ATOM     74  C   UNL     1      17.608   0.240  -3.246  1.00  0.00     0.001 A 
ATOM     75  C   UNL     1      18.315   0.221  -4.448  1.00  0.00     0.000 A 
ENDBRANCH  57  70
ENDBRANCH  31  32
ENDBRANCH  24  26
ENDBRANCH  23  24
ENDBRANCH  22  23
ENDBRANCH   1  22
TORSDOF 16
