REMARK SMILES Cc1ccc([C@@H]2[C@H](C(=O)OCCOC(=O)c3ccc(-c4c5nc(c(-c6ccccc6)c6ccc([nH]6)c(-c6ccccc6)c6nc(c(-c7ccccc7)c7ccc4[nH]7)C=C6)C=C5)cc3)c3ccccc3C(=O)N2c2ccccc2)cc1
REMARK SMILES IDX 12 1 11 2 10 3 8 4 9 5 7 6 6 7 72 8 64 9 70 10 65 11 69 12
REMARK SMILES IDX 71 13 66 14 68 15 67 16 5 17 1 18 2 19 3 20 80 21 4 22 79 23
REMARK SMILES IDX 73 24 74 25 78 26 75 27 77 28 76 29 13 30 14 31 15 32 16 33
REMARK SMILES IDX 17 34 63 35 18 36 62 37 19 38 20 39 21 40 56 41 22 42 61 43
REMARK SMILES IDX 55 44 57 45 23 46 60 47 54 48 53 49 24 51 46 52 31 53 45 54
REMARK SMILES IDX 32 55 35 56 44 57 58 58 33 59 34 60 43 62 59 63 36 64 25 65
REMARK SMILES IDX 26 66 30 67 27 68 29 69 28 70 47 71 48 72 52 73 49 74 51 75
REMARK SMILES IDX 50 76 37 77 38 78 42 79 39 80 41 81 40 82
REMARK H PARENT 57 50 35 61
REMARK Flexibility Score: inf
ROOT
ATOM      1  C   UNL     1      -5.335  -6.265   3.621  1.00  0.00     0.275 C 
ENDROOT
BRANCH   1   2
ATOM      2  C   UNL     1      -4.617  -5.113   4.981  1.00  0.00     0.274 C 
BRANCH   2   3
ATOM      3  O   UNL     1      -4.580  -3.396   4.785  1.00  0.00    -0.462 OA
BRANCH   3   4
ATOM      4  C   UNL     1      -3.460  -2.494   4.653  1.00  0.00     0.316 C 
ATOM      5  O   UNL     1      -2.482  -2.709   5.363  1.00  0.00    -0.251 OA
BRANCH   4   6
ATOM      6  C   UNL     1      -3.561  -0.925   3.763  1.00  0.00     0.157 C 
ATOM      7  C   UNL     1      -3.306  -0.299   2.147  1.00  0.00     0.140 C 
ATOM      8  N   UNL     1      -4.325  -0.794   1.156  1.00  0.00    -0.300 N 
ATOM      9  C   UNL     1      -4.976  -0.447   4.095  1.00  0.00    -0.019 A 
ATOM     10  C   UNL     1      -5.601  -0.257   1.548  1.00  0.00     0.259 C 
ATOM     11  C   UNL     1      -5.368  -0.539   5.445  1.00  0.00     0.005 A 
ATOM     12  C   UNL     1      -5.924  -0.197   3.066  1.00  0.00     0.044 A 
ATOM     13  O   UNL     1      -6.440   0.113   0.733  1.00  0.00    -0.269 OA
ATOM     14  C   UNL     1      -6.713  -0.593   5.763  1.00  0.00     0.000 A 
ATOM     15  C   UNL     1      -7.272  -0.163   3.434  1.00  0.00     0.014 A 
ATOM     16  C   UNL     1      -7.661  -0.415   4.760  1.00  0.00     0.001 A 
BRANCH   7  17
ATOM     17  C   UNL     1      -2.041   0.297   1.408  1.00  0.00    -0.024 A 
ATOM     18  C   UNL     1       1.886   0.868  -0.259  1.00  0.00     0.044 C 
ATOM     19  C   UNL     1       0.443   0.965   0.158  1.00  0.00    -0.051 A 
ATOM     20  C   UNL     1      -0.566   0.372  -0.584  1.00  0.00     0.004 A 
ATOM     21  C   UNL     1       0.080   1.530   1.381  1.00  0.00     0.004 A 
ATOM     22  C   UNL     1      -1.801   0.077   0.025  1.00  0.00     0.006 A 
ATOM     23  C   UNL     1      -1.147   1.196   2.002  1.00  0.00     0.006 A 
ENDBRANCH   7  17
BRANCH   8  24
ATOM     24  C   UNL     1      -4.300  -2.244   0.901  1.00  0.00     0.045 A 
ATOM     25  C   UNL     1      -4.795  -2.884   2.283  1.00  0.00     0.026 A 
ATOM     26  C   UNL     1      -3.388  -3.255  -0.266  1.00  0.00     0.026 A 
ATOM     27  C   UNL     1      -4.354  -4.479   2.781  1.00  0.00     0.002 A 
ATOM     28  C   UNL     1      -2.948  -4.989   0.043  1.00  0.00     0.002 A 
ATOM     29  C   UNL     1      -3.454  -5.722   1.616  1.00  0.00     0.000 A 
ENDBRANCH   8  24
ENDBRANCH   4   6
ENDBRANCH   3   4
ENDBRANCH   2   3
ENDBRANCH   1   2
BRANCH   1  30
ATOM     30  O   UNL     1      -5.594  -5.714   1.890  1.00  0.00    -0.458 OA
BRANCH  30  31
ATOM     31  C   UNL     1      -4.695  -4.468   0.966  1.00  0.00     0.338 C 
ATOM     32  O   UNL     1      -5.435  -4.256  -0.022  1.00  0.00    -0.246 OA
BRANCH  31  33
ATOM     33  C   UNL     1      -2.811  -3.823   1.806  1.00  0.00     0.060 A 
ATOM     34  C   UNL     1      -1.816  -2.783   1.614  1.00  0.00     0.016 A 
ATOM     35  C   UNL     1      -2.090  -4.601   3.010  1.00  0.00     0.016 A 
ATOM     36  C   UNL     1      -0.606  -2.517   2.351  1.00  0.00     0.010 A 
ATOM     37  C   UNL     1      -0.970  -4.395   3.749  1.00  0.00     0.010 A 
ATOM     38  C   UNL     1      -0.190  -3.356   3.361  1.00  0.00    -0.014 A 
BRANCH  38  39
ATOM     39  C   UNL     1       1.147  -3.570   3.857  1.00  0.00     0.031 A 
ATOM     40  C   UNL     1       1.448  -3.135   5.234  1.00  0.00     0.074 A 
ATOM     41  C   UNL     1       1.708  -4.579   3.137  1.00  0.00     0.049 A 
ATOM     42  N   UNL     1       2.619  -2.855   5.681  1.00  0.00    -0.248 NA
ATOM     43  C   UNL     1       0.425  -2.869   6.253  1.00  0.00     0.031 C 
ATOM     44  C   UNL     1       2.647  -5.629   3.477  1.00  0.00     0.029 A 
ATOM     45  N   UNL     1       1.439  -4.844   1.788  1.00  0.00    -0.354 N 
ATOM     46  C   UNL     1       2.499  -2.945   7.058  1.00  0.00     0.074 A 
ATOM     47  C   UNL     1       1.139  -2.628   7.354  1.00  0.00     0.031 C 
ATOM     48  C   UNL     1       3.108  -6.187   2.335  1.00  0.00     0.029 A 
ATOM     49  C   UNL     1       2.543  -5.466   1.199  1.00  0.00     0.049 A 
ATOM     50  H   UNL     1       0.599  -4.625   1.324  1.00  0.00     0.167 HD
ATOM     51  C   UNL     1       3.430  -3.656   7.755  1.00  0.00     0.031 A 
ATOM     52  C   UNL     1       3.264  -4.703   0.317  1.00  0.00     0.031 A 
ATOM     53  C   UNL     1       4.407  -4.227   6.823  1.00  0.00     0.049 A 
ATOM     54  C   UNL     1       4.411  -3.974   1.008  1.00  0.00     0.074 A 
ATOM     55  C   UNL     1       4.649  -5.502   6.342  1.00  0.00     0.029 A 
ATOM     56  N   UNL     1       5.019  -3.370   5.932  1.00  0.00    -0.354 N 
ATOM     57  N   UNL     1       4.728  -4.112   2.266  1.00  0.00    -0.248 NA
ATOM     58  C   UNL     1       5.258  -2.992   0.338  1.00  0.00     0.031 C 
ATOM     59  C   UNL     1       5.411  -5.377   5.135  1.00  0.00     0.029 A 
ATOM     60  C   UNL     1       5.629  -4.033   4.892  1.00  0.00     0.049 A 
ATOM     61  H   UNL     1       5.020  -2.390   6.030  1.00  0.00     0.167 HD
ATOM     62  C   UNL     1       5.748  -3.267   2.600  1.00  0.00     0.074 A 
ATOM     63  C   UNL     1       6.030  -2.567   1.355  1.00  0.00     0.031 C 
ATOM     64  C   UNL     1       6.266  -3.211   3.869  1.00  0.00     0.031 A 
BRANCH  51  65
ATOM     65  C   UNL     1       3.339  -4.076   9.202  1.00  0.00    -0.014 A 
ATOM     66  C   UNL     1       4.282  -5.005   9.681  1.00  0.00     0.009 A 
ATOM     67  C   UNL     1       2.418  -3.595  10.150  1.00  0.00     0.009 A 
ATOM     68  C   UNL     1       4.298  -5.445  11.009  1.00  0.00     0.001 A 
ATOM     69  C   UNL     1       2.420  -4.040  11.484  1.00  0.00     0.001 A 
ATOM     70  C   UNL     1       3.363  -4.964  11.913  1.00  0.00     0.000 A 
ENDBRANCH  51  65
BRANCH  52  71
ATOM     71  C   UNL     1       2.371  -4.080  -0.718  1.00  0.00    -0.014 A 
ATOM     72  C   UNL     1       1.918  -4.856  -1.807  1.00  0.00     0.009 A 
ATOM     73  C   UNL     1       1.631  -2.948  -0.373  1.00  0.00     0.009 A 
ATOM     74  C   UNL     1       0.702  -4.574  -2.450  1.00  0.00     0.001 A 
ATOM     75  C   UNL     1       0.392  -2.734  -0.973  1.00  0.00     0.001 A 
ATOM     76  C   UNL     1      -0.086  -3.531  -2.001  1.00  0.00     0.000 A 
ENDBRANCH  52  71
BRANCH  64  77
ATOM     77  C   UNL     1       7.414  -2.324   4.308  1.00  0.00    -0.014 A 
ATOM     78  C   UNL     1       8.408  -1.871   3.440  1.00  0.00     0.009 A 
ATOM     79  C   UNL     1       7.598  -2.000   5.675  1.00  0.00     0.009 A 
ATOM     80  C   UNL     1       9.451  -1.052   3.891  1.00  0.00     0.001 A 
ATOM     81  C   UNL     1       8.639  -1.199   6.138  1.00  0.00     0.001 A 
ATOM     82  C   UNL     1       9.560  -0.707   5.235  1.00  0.00     0.000 A 
ENDBRANCH  64  77
ENDBRANCH  38  39
ENDBRANCH  31  33
ENDBRANCH  30  31
ENDBRANCH   1  30
TORSDOF 13
