REMARK SMILES C[C@@H]1CC[C@@]1(SC1CCCCC1)C(=O)OCCOC(=O)c1ccc(-c2c3nc(c(-c4ccccc4)c4ccc([nH]4)c(-c4ccccc4)c4nc(c(-c5ccccc5)c5ccc2[nH]5)C=C4)C=C3)cc1
REMARK SMILES IDX 16 1 15 2 13 3 14 4 5 5 1 6 2 7 3 8 4 9 6 10 7 11 8 12 12 13
REMARK SMILES IDX 9 14 11 15 10 16 17 17 18 18 19 19 20 20 21 21 22 22 68 23
REMARK SMILES IDX 23 24 67 25 24 26 25 27 26 28 61 29 27 30 66 31 60 32 62 33
REMARK SMILES IDX 28 34 65 35 59 36 58 37 29 39 51 40 36 41 50 42 37 43 40 44
REMARK SMILES IDX 49 45 63 46 38 47 39 48 48 50 64 51 41 52 30 53 31 54 35 55
REMARK SMILES IDX 32 56 34 57 33 58 52 59 53 60 57 61 54 62 56 63 55 64 42 65
REMARK SMILES IDX 43 66 47 67 44 68 46 69 45 70
REMARK H PARENT 62 38 40 49
REMARK Flexibility Score: inf
ROOT
ATOM      1  C   UNL     1      -0.155   3.406  -2.555  1.00  0.00     0.274 C 
ENDROOT
BRANCH   1   2
ATOM      2  O   UNL     1       0.316   2.192  -1.935  1.00  0.00    -0.461 OA
BRANCH   2   3
ATOM      3  C   UNL     1       0.510   2.250  -0.578  1.00  0.00     0.322 C 
ATOM      4  O   UNL     1       0.240   3.265   0.067  1.00  0.00    -0.251 OA
BRANCH   3   5
ATOM      5  C   UNL     1       1.092   0.899   0.019  1.00  0.00     0.116 C 
ATOM      6  C   UNL     1      -0.638  -0.552   1.647  1.00  0.00     0.010 C 
ATOM      7  C   UNL     1      -0.028  -0.216   0.290  1.00  0.00     0.013 C 
ATOM      8  C   UNL     1       0.981  -1.270  -0.212  1.00  0.00     0.007 C 
ATOM      9  C   UNL     1       1.744  -0.149  -0.933  1.00  0.00     0.030 C 
BRANCH   5  10
ATOM     10  S   UNL     1       2.115   1.175   1.564  1.00  0.00    -0.140 SA
BRANCH  10  11
ATOM     11  C   UNL     1       3.514   2.247   1.066  1.00  0.00     0.048 C 
ATOM     12  C   UNL     1       4.649   1.445   0.423  1.00  0.00     0.014 C 
ATOM     13  C   UNL     1       3.193   3.508   0.260  1.00  0.00     0.014 C 
ATOM     14  C   UNL     1       5.888   2.316   0.210  1.00  0.00     0.001 C 
ATOM     15  C   UNL     1       4.438   4.366   0.028  1.00  0.00     0.001 C 
ATOM     16  C   UNL     1       5.560   3.558  -0.613  1.00  0.00     0.000 C 
ENDBRANCH  10  11
ENDBRANCH   5  10
ENDBRANCH   3   5
ENDBRANCH   2   3
ENDBRANCH   1   2
BRANCH   1  17
ATOM     17  C   UNL     1      -1.681   3.457  -2.638  1.00  0.00     0.275 C 
BRANCH  17  18
ATOM     18  O   UNL     1      -2.264   3.482  -1.323  1.00  0.00    -0.458 OA
BRANCH  18  19
ATOM     19  C   UNL     1      -3.034   2.420  -0.996  1.00  0.00     0.338 C 
ATOM     20  O   UNL     1      -3.349   1.480  -1.703  1.00  0.00    -0.246 OA
BRANCH  19  21
ATOM     21  C   UNL     1      -3.435   2.519   0.417  1.00  0.00     0.060 A 
ATOM     22  C   UNL     1      -2.489   2.272   1.408  1.00  0.00     0.016 A 
ATOM     23  C   UNL     1      -4.771   2.717   0.761  1.00  0.00     0.016 A 
ATOM     24  C   UNL     1      -2.869   2.167   2.739  1.00  0.00     0.010 A 
ATOM     25  C   UNL     1      -5.146   2.674   2.109  1.00  0.00     0.010 A 
ATOM     26  C   UNL     1      -4.201   2.374   3.106  1.00  0.00    -0.014 A 
BRANCH  26  27
ATOM     27  C   UNL     1      -4.595   2.226   4.527  1.00  0.00     0.031 A 
ATOM     28  C   UNL     1      -5.515   1.115   4.939  1.00  0.00     0.074 A 
ATOM     29  C   UNL     1      -4.089   3.058   5.456  1.00  0.00     0.049 A 
ATOM     30  N   UNL     1      -6.094   0.910   6.095  1.00  0.00    -0.248 NA
ATOM     31  C   UNL     1      -5.829   0.102   3.919  1.00  0.00     0.031 C 
ATOM     32  C   UNL     1      -3.119   4.127   5.203  1.00  0.00     0.029 A 
ATOM     33  N   UNL     1      -4.313   3.126   6.808  1.00  0.00    -0.354 N 
ATOM     34  C   UNL     1      -6.882  -0.221   5.925  1.00  0.00     0.074 A 
ATOM     35  C   UNL     1      -6.698  -0.666   4.561  1.00  0.00     0.031 C 
ATOM     36  C   UNL     1      -2.813   4.725   6.364  1.00  0.00     0.029 A 
ATOM     37  C   UNL     1      -3.621   4.137   7.427  1.00  0.00     0.049 A 
ATOM     38  H   UNL     1      -4.913   2.510   7.287  1.00  0.00     0.167 HD
ATOM     39  C   UNL     1      -7.696  -0.822   6.825  1.00  0.00     0.031 A 
ATOM     40  C   UNL     1      -3.666   4.576   8.698  1.00  0.00     0.031 A 
ATOM     41  C   UNL     1      -7.849  -0.397   8.190  1.00  0.00     0.049 A 
ATOM     42  C   UNL     1      -4.613   3.928   9.663  1.00  0.00     0.074 A 
ATOM     43  C   UNL     1      -8.649  -0.941   9.180  1.00  0.00     0.029 A 
ATOM     44  N   UNL     1      -7.175   0.671   8.761  1.00  0.00    -0.354 N 
ATOM     45  N   UNL     1      -5.413   2.908   9.471  1.00  0.00    -0.248 NA
ATOM     46  C   UNL     1      -4.685   4.510  11.010  1.00  0.00     0.031 C 
ATOM     47  C   UNL     1      -8.486  -0.178  10.341  1.00  0.00     0.029 A 
ATOM     48  C   UNL     1      -7.557   0.818  10.083  1.00  0.00     0.049 A 
ATOM     49  H   UNL     1      -6.522   1.241   8.294  1.00  0.00     0.167 HD
ATOM     50  C   UNL     1      -6.094   2.733  10.667  1.00  0.00     0.074 A 
ATOM     51  C   UNL     1      -5.590   3.733  11.588  1.00  0.00     0.031 C 
ATOM     52  C   UNL     1      -7.059   1.833  10.972  1.00  0.00     0.031 A 
BRANCH  39  53
ATOM     53  C   UNL     1      -8.529  -1.969   6.336  1.00  0.00    -0.014 A 
ATOM     54  C   UNL     1      -7.983  -3.246   6.141  1.00  0.00     0.009 A 
ATOM     55  C   UNL     1      -9.896  -1.765   6.084  1.00  0.00     0.009 A 
ATOM     56  C   UNL     1      -8.786  -4.291   5.677  1.00  0.00     0.001 A 
ATOM     57  C   UNL     1     -10.699  -2.815   5.639  1.00  0.00     0.001 A 
ATOM     58  C   UNL     1     -10.142  -4.075   5.429  1.00  0.00     0.000 A 
ENDBRANCH  39  53
BRANCH  40  59
ATOM     59  C   UNL     1      -2.840   5.741   9.100  1.00  0.00    -0.014 A 
ATOM     60  C   UNL     1      -1.716   5.574   9.921  1.00  0.00     0.009 A 
ATOM     61  C   UNL     1      -3.160   7.028   8.637  1.00  0.00     0.009 A 
ATOM     62  C   UNL     1      -0.932   6.675  10.275  1.00  0.00     0.001 A 
ATOM     63  C   UNL     1      -2.362   8.122   8.971  1.00  0.00     0.001 A 
ATOM     64  C   UNL     1      -1.251   7.945   9.794  1.00  0.00     0.000 A 
ENDBRANCH  40  59
BRANCH  52  65
ATOM     65  C   UNL     1      -7.636   1.903  12.354  1.00  0.00    -0.014 A 
ATOM     66  C   UNL     1      -8.580   2.887  12.685  1.00  0.00     0.009 A 
ATOM     67  C   UNL     1      -7.253   0.965  13.324  1.00  0.00     0.009 A 
ATOM     68  C   UNL     1      -9.114   2.944  13.973  1.00  0.00     0.001 A 
ATOM     69  C   UNL     1      -7.802   1.014  14.605  1.00  0.00     0.001 A 
ATOM     70  C   UNL     1      -8.727   2.007  14.931  1.00  0.00     0.000 A 
ENDBRANCH  52  65
ENDBRANCH  26  27
ENDBRANCH  19  21
ENDBRANCH  18  19
ENDBRANCH  17  18
ENDBRANCH   1  17
TORSDOF 13
