REMARK SMILES COC(=O)c1ccc([C@H]2CC(=O)Nc3c(C(=O)OCCOC(=O)c4ccc(-c5c6nc(c(-c7ccccc7)c7ccc([nH]7)c(-c7ccccc7)c7nc(c(-c8ccccc8)c8ccc5[nH]8)C=C7)C=C6)cc4)cn(-c4ccccc4)c32)cc1
REMARK SMILES IDX 19 1 18 2 16 3 17 4 15 5 9 6 10 7 80 8 11 9 14 10 73 11
REMARK SMILES IDX 12 12 13 13 72 14 8 16 5 17 6 18 82 19 7 20 81 21 3 22 4 23
REMARK SMILES IDX 2 24 1 25 74 26 75 27 79 28 76 29 78 30 77 31 20 32 21 33
REMARK SMILES IDX 22 34 23 35 24 36 25 37 71 38 26 39 70 40 27 41 28 42 29 43
REMARK SMILES IDX 64 44 30 45 69 46 63 47 65 48 31 49 68 50 62 51 61 52 32 54
REMARK SMILES IDX 54 55 39 56 53 57 40 58 43 59 52 60 66 61 41 62 42 63 51 65
REMARK SMILES IDX 67 66 44 67 33 68 34 69 38 70 35 71 37 72 36 73 55 74 56 75
REMARK SMILES IDX 60 76 57 77 59 78 58 79 45 80 46 81 50 82 47 83 49 84 48 85
REMARK H PARENT 13 15 65 53 43 64
REMARK Flexibility Score: inf
ROOT
ATOM      1  C   UNL     1      -6.900  -7.533  -3.244  1.00  0.00     0.275 C 
ENDROOT
BRANCH   1   2
ATOM      2  O   UNL     1      -5.631  -6.931  -3.553  1.00  0.00    -0.458 OA
BRANCH   2   3
ATOM      3  C   UNL     1      -4.521  -7.540  -3.031  1.00  0.00     0.341 C 
ATOM      4  O   UNL     1      -4.551  -8.435  -2.191  1.00  0.00    -0.246 OA
BRANCH   3   5
ATOM      5  C   UNL     1      -3.291  -7.067  -3.649  1.00  0.00     0.102 A 
ATOM      6  C   UNL     1      -1.216  -4.919  -5.868  1.00  0.00     0.078 C 
ATOM      7  C   UNL     1      -2.359  -4.175  -6.580  1.00  0.00     0.115 C 
ATOM      8  C   UNL     1      -1.771  -5.913  -4.881  1.00  0.00     0.055 A 
ATOM      9  C   UNL     1      -3.633  -3.992  -5.773  1.00  0.00     0.225 C 
ATOM     10  C   UNL     1      -3.085  -5.946  -4.484  1.00  0.00     0.078 A 
ATOM     11  N   UNL     1      -1.110  -6.945  -4.232  1.00  0.00    -0.317 N 
ATOM     12  O   UNL     1      -4.404  -3.055  -5.987  1.00  0.00    -0.275 OA
ATOM     13  N   UNL     1      -3.969  -4.978  -4.886  1.00  0.00    -0.324 N 
ATOM     14  C   UNL     1      -2.060  -7.707  -3.580  1.00  0.00     0.109 A 
ATOM     15  H   UNL     1      -4.883  -4.993  -4.522  1.00  0.00     0.170 HD
BRANCH   6  16
ATOM     16  C   UNL     1      -0.279  -5.499  -6.929  1.00  0.00    -0.038 A 
ATOM     17  C   UNL     1       1.635  -6.608  -8.680  1.00  0.00     0.060 A 
ATOM     18  C   UNL     1       1.719  -5.263  -8.301  1.00  0.00     0.016 A 
ATOM     19  C   UNL     1       0.548  -7.374  -8.247  1.00  0.00     0.016 A 
ATOM     20  C   UNL     1       0.770  -4.714  -7.432  1.00  0.00     0.005 A 
ATOM     21  C   UNL     1      -0.417  -6.813  -7.409  1.00  0.00     0.005 A 
BRANCH  17  22
ATOM     22  C   UNL     1       2.732  -7.191  -9.499  1.00  0.00     0.337 C 
ATOM     23  O   UNL     1       3.770  -6.604  -9.759  1.00  0.00    -0.246 OA
BRANCH  22  24
ATOM     24  O   UNL     1       2.410  -8.451  -9.887  1.00  0.00    -0.465 OA
ATOM     25  C   UNL     1       3.420  -9.116 -10.645  1.00  0.00     0.282 C 
ENDBRANCH  22  24
ENDBRANCH  17  22
ENDBRANCH   6  16
BRANCH  11  26
ATOM     26  C   UNL     1       0.278  -7.224  -4.261  1.00  0.00     0.045 A 
ATOM     27  C   UNL     1       1.193  -6.190  -4.041  1.00  0.00     0.026 A 
ATOM     28  C   UNL     1       0.721  -8.505  -4.611  1.00  0.00     0.026 A 
ATOM     29  C   UNL     1       2.556  -6.425  -4.216  1.00  0.00     0.002 A 
ATOM     30  C   UNL     1       2.085  -8.720  -4.823  1.00  0.00     0.002 A 
ATOM     31  C   UNL     1       2.998  -7.681  -4.630  1.00  0.00     0.000 A 
ENDBRANCH  11  26
ENDBRANCH   3   5
ENDBRANCH   2   3
ENDBRANCH   1   2
BRANCH   1  32
ATOM     32  C   UNL     1      -7.255  -8.635  -4.234  1.00  0.00     0.275 C 
BRANCH  32  33
ATOM     33  O   UNL     1      -6.438  -9.785  -4.031  1.00  0.00    -0.458 OA
BRANCH  33  34
ATOM     34  C   UNL     1      -5.335  -9.864  -4.808  1.00  0.00     0.338 C 
ATOM     35  O   UNL     1      -4.864  -8.988  -5.513  1.00  0.00    -0.246 OA
BRANCH  34  36
ATOM     36  C   UNL     1      -4.880 -11.258  -4.841  1.00  0.00     0.060 A 
ATOM     37  C   UNL     1      -3.724 -11.539  -5.576  1.00  0.00     0.016 A 
ATOM     38  C   UNL     1      -5.745 -12.271  -4.403  1.00  0.00     0.016 A 
ATOM     39  C   UNL     1      -3.538 -12.825  -6.038  1.00  0.00     0.010 A 
ATOM     40  C   UNL     1      -5.565 -13.547  -4.875  1.00  0.00     0.010 A 
ATOM     41  C   UNL     1      -4.513 -13.785  -5.755  1.00  0.00    -0.014 A 
BRANCH  41  42
ATOM     42  C   UNL     1      -4.399 -15.087  -6.374  1.00  0.00     0.031 A 
ATOM     43  C   UNL     1      -3.333 -15.935  -5.799  1.00  0.00     0.074 A 
ATOM     44  C   UNL     1      -5.295 -15.518  -7.281  1.00  0.00     0.049 A 
ATOM     45  N   UNL     1      -2.295 -16.417  -6.394  1.00  0.00    -0.248 NA
ATOM     46  C   UNL     1      -3.364 -16.169  -4.346  1.00  0.00     0.031 C 
ATOM     47  C   UNL     1      -6.553 -14.882  -7.686  1.00  0.00     0.029 A 
ATOM     48  N   UNL     1      -5.326 -16.706  -7.938  1.00  0.00    -0.354 N 
ATOM     49  C   UNL     1      -1.622 -17.160  -5.431  1.00  0.00     0.074 A 
ATOM     50  C   UNL     1      -2.230 -16.843  -4.164  1.00  0.00     0.031 C 
ATOM     51  C   UNL     1      -7.328 -15.797  -8.313  1.00  0.00     0.029 A 
ATOM     52  C   UNL     1      -6.567 -17.025  -8.469  1.00  0.00     0.049 A 
ATOM     53  H   UNL     1      -4.538 -17.289  -8.028  1.00  0.00     0.167 HD
ATOM     54  C   UNL     1      -0.770 -18.165  -5.768  1.00  0.00     0.031 A 
ATOM     55  C   UNL     1      -6.955 -18.242  -8.920  1.00  0.00     0.031 A 
ATOM     56  C   UNL     1      -0.363 -18.088  -7.144  1.00  0.00     0.049 A 
ATOM     57  C   UNL     1      -5.731 -19.042  -9.166  1.00  0.00     0.074 A 
ATOM     58  C   UNL     1       0.326 -17.162  -7.901  1.00  0.00     0.029 A 
ATOM     59  N   UNL     1      -1.011 -18.906  -8.038  1.00  0.00    -0.354 N 
ATOM     60  N   UNL     1      -4.870 -18.766 -10.104  1.00  0.00    -0.248 NA
ATOM     61  C   UNL     1      -5.225 -19.873  -8.083  1.00  0.00     0.031 C 
ATOM     62  C   UNL     1      -0.318 -17.176  -9.172  1.00  0.00     0.029 A 
ATOM     63  C   UNL     1      -1.323 -18.146  -9.136  1.00  0.00     0.049 A 
ATOM     64  H   UNL     1      -1.214 -19.861  -7.913  1.00  0.00     0.167 HD
ATOM     65  C   UNL     1      -3.629 -19.009  -9.531  1.00  0.00     0.074 A 
ATOM     66  C   UNL     1      -3.913 -19.787  -8.326  1.00  0.00     0.031 C 
ATOM     67  C   UNL     1      -2.521 -18.316  -9.928  1.00  0.00     0.031 A 
BRANCH  54  68
ATOM     68  C   UNL     1      -0.644 -19.430  -4.963  1.00  0.00    -0.014 A 
ATOM     69  C   UNL     1       0.316 -20.382  -5.344  1.00  0.00     0.009 A 
ATOM     70  C   UNL     1      -1.616 -19.844  -4.030  1.00  0.00     0.009 A 
ATOM     71  C   UNL     1       0.262 -21.697  -4.866  1.00  0.00     0.001 A 
ATOM     72  C   UNL     1      -1.647 -21.142  -3.519  1.00  0.00     0.001 A 
ATOM     73  C   UNL     1      -0.724 -22.077  -3.960  1.00  0.00     0.000 A 
ENDBRANCH  54  68
BRANCH  55  74
ATOM     74  C   UNL     1      -8.301 -18.850  -8.836  1.00  0.00    -0.014 A 
ATOM     75  C   UNL     1      -8.655 -19.942  -9.642  1.00  0.00     0.009 A 
ATOM     76  C   UNL     1      -9.161 -18.515  -7.772  1.00  0.00     0.009 A 
ATOM     77  C   UNL     1      -9.814 -20.686  -9.375  1.00  0.00     0.001 A 
ATOM     78  C   UNL     1     -10.317 -19.255  -7.507  1.00  0.00     0.001 A 
ATOM     79  C   UNL     1     -10.637 -20.350  -8.302  1.00  0.00     0.000 A 
ENDBRANCH  55  74
BRANCH  67  80
ATOM     80  C   UNL     1      -2.640 -17.433 -11.146  1.00  0.00    -0.014 A 
ATOM     81  C   UNL     1      -3.490 -16.314 -11.197  1.00  0.00     0.009 A 
ATOM     82  C   UNL     1      -1.737 -17.630 -12.201  1.00  0.00     0.009 A 
ATOM     83  C   UNL     1      -3.450 -15.431 -12.281  1.00  0.00     0.001 A 
ATOM     84  C   UNL     1      -1.683 -16.738 -13.274  1.00  0.00     0.001 A 
ATOM     85  C   UNL     1      -2.541 -15.640 -13.315  1.00  0.00     0.000 A 
ENDBRANCH  67  80
ENDBRANCH  41  42
ENDBRANCH  34  36
ENDBRANCH  33  34
ENDBRANCH  32  33
ENDBRANCH   1  32
TORSDOF 15
