REMARK SMILES Cc1cc(Br)cc2c1O[C@H](C(F)(F)F)C(C(=O)OCCOC(=O)c1ccc(-c3c4nc(c(-c5ccccc5)c5ccc([nH]5)c(-c5ccccc5)c5nc(c(-c6ccccc6)c6ccc3[nH]6)C=C5)C=C4)cc1)=C2
REMARK SMILES IDX 20 1 19 2 18 3 16 4 17 5 15 6 1 7 2 8 3 9 8 10 4 11 7 12
REMARK SMILES IDX 9 13 5 14 6 15 72 16 10 17 11 18 12 19 13 20 14 21 21 22
REMARK SMILES IDX 22 23 23 24 24 25 25 26 71 27 26 28 70 29 27 30 28 31 29 32
REMARK SMILES IDX 64 33 30 34 69 35 63 36 65 37 31 38 68 39 62 40 61 41 32 43
REMARK SMILES IDX 54 44 39 45 53 46 40 47 43 48 52 49 66 50 41 51 42 52 51 54
REMARK SMILES IDX 67 55 44 56 33 57 34 58 38 59 35 60 37 61 36 62 55 63 56 64
REMARK SMILES IDX 60 65 57 66 59 67 58 68 45 69 46 70 50 71 47 72 49 73 48 74
REMARK H PARENT 65 42 43 53
REMARK Flexibility Score: inf
ROOT
ATOM      1  C   UNL     1       3.741  -7.918   3.507  1.00  0.00     0.275 C 
ENDROOT
BRANCH   1   2
ATOM      2  C   UNL     1       4.604  -6.812   2.895  1.00  0.00     0.275 C 
BRANCH   2   3
ATOM      3  O   UNL     1       3.805  -5.676   2.497  1.00  0.00    -0.459 OA
BRANCH   3   4
ATOM      4  C   UNL     1       3.549  -5.583   1.172  1.00  0.00     0.338 C 
ATOM      5  O   UNL     1       3.938  -6.346   0.300  1.00  0.00    -0.246 OA
BRANCH   4   6
ATOM      6  C   UNL     1       2.694  -4.418   0.883  1.00  0.00     0.087 C 
ATOM      7  C   UNL     1       0.952   0.325  -0.013  1.00  0.00     0.048 C 
ATOM      8  C   UNL     1       0.565  -1.063  -0.432  1.00  0.00    -0.007 A 
ATOM      9  C   UNL     1      -0.504  -1.248  -1.326  1.00  0.00     0.023 A 
ATOM     10  C   UNL     1       1.243  -2.184   0.071  1.00  0.00     0.130 A 
ATOM     11  C   UNL     1      -0.882  -2.531  -1.714  1.00  0.00     0.019 A 
ATOM     12  C   UNL     1       0.865  -3.464  -0.340  1.00  0.00     0.019 A 
ATOM     13  O   UNL     1       2.251  -1.965   0.973  1.00  0.00    -0.475 OA
ATOM     14  Br  UNL     1      -2.313  -2.769  -2.927  1.00  0.00    -0.051 Br
ATOM     15  C   UNL     1      -0.204  -3.641  -1.226  1.00  0.00     0.027 A 
ATOM     16  C   UNL     1       1.617  -4.614   0.117  1.00  0.00     0.027 C 
ATOM     17  C   UNL     1       3.151  -3.057   1.315  1.00  0.00     0.316 C 
BRANCH  17  18
ATOM     18  C   UNL     1       4.551  -2.737   0.766  1.00  0.00     0.430 C 
ATOM     19  F   UNL     1       4.957  -1.500   1.137  1.00  0.00    -0.167 F 
ATOM     20  F   UNL     1       5.479  -3.605   1.237  1.00  0.00    -0.167 F 
ATOM     21  F   UNL     1       4.594  -2.792  -0.585  1.00  0.00    -0.167 F 
ENDBRANCH  17  18
ENDBRANCH   4   6
ENDBRANCH   3   4
ENDBRANCH   2   3
ENDBRANCH   1   2
BRANCH   1  22
ATOM     22  O   UNL     1       2.875  -8.495   2.511  1.00  0.00    -0.458 OA
BRANCH  22  23
ATOM     23  C   UNL     1       1.584  -8.106   2.586  1.00  0.00     0.338 C 
ATOM     24  O   UNL     1       1.079  -7.358   3.407  1.00  0.00    -0.246 OA
BRANCH  23  25
ATOM     25  C   UNL     1       0.817  -8.636   1.449  1.00  0.00     0.060 A 
ATOM     26  C   UNL     1       1.054  -8.101   0.191  1.00  0.00     0.016 A 
ATOM     27  C   UNL     1      -0.286  -9.458   1.659  1.00  0.00     0.016 A 
ATOM     28  C   UNL     1       0.092  -8.216  -0.805  1.00  0.00     0.010 A 
ATOM     29  C   UNL     1      -1.165  -9.714   0.598  1.00  0.00     0.010 A 
ATOM     30  C   UNL     1      -1.025  -9.044  -0.631  1.00  0.00    -0.014 A 
BRANCH  30  31
ATOM     31  C   UNL     1      -2.044  -9.180  -1.715  1.00  0.00     0.031 A 
ATOM     32  C   UNL     1      -3.508  -8.945  -1.424  1.00  0.00     0.074 A 
ATOM     33  C   UNL     1      -1.668  -9.488  -2.975  1.00  0.00     0.049 A 
ATOM     34  N   UNL     1      -4.552  -9.208  -2.171  1.00  0.00    -0.248 NA
ATOM     35  C   UNL     1      -3.846  -8.349  -0.120  1.00  0.00     0.031 C 
ATOM     36  C   UNL     1      -0.288  -9.674  -3.433  1.00  0.00     0.029 A 
ATOM     37  N   UNL     1      -2.415  -9.684  -4.112  1.00  0.00    -0.354 N 
ATOM     38  C   UNL     1      -5.664  -8.870  -1.406  1.00  0.00     0.074 A 
ATOM     39  C   UNL     1      -5.171  -8.391  -0.134  1.00  0.00     0.031 C 
ATOM     40  C   UNL     1      -0.284  -9.886  -4.756  1.00  0.00     0.029 A 
ATOM     41  C   UNL     1      -1.660  -9.984  -5.221  1.00  0.00     0.049 A 
ATOM     42  H   UNL     1      -3.397  -9.616  -4.130  1.00  0.00     0.167 HD
ATOM     43  C   UNL     1      -6.976  -8.952  -1.736  1.00  0.00     0.031 A 
ATOM     44  C   UNL     1      -2.020 -10.356  -6.463  1.00  0.00     0.031 A 
ATOM     45  C   UNL     1      -7.461  -9.386  -3.021  1.00  0.00     0.049 A 
ATOM     46  C   UNL     1      -3.477 -10.518  -6.780  1.00  0.00     0.074 A 
ATOM     47  C   UNL     1      -8.771  -9.505  -3.451  1.00  0.00     0.029 A 
ATOM     48  N   UNL     1      -6.655  -9.748  -4.089  1.00  0.00    -0.354 N 
ATOM     49  N   UNL     1      -4.516 -10.275  -6.020  1.00  0.00    -0.248 NA
ATOM     50  C   UNL     1      -3.809 -11.029  -8.116  1.00  0.00     0.031 C 
ATOM     51  C   UNL     1      -8.759  -9.991  -4.761  1.00  0.00     0.029 A 
ATOM     52  C   UNL     1      -7.441 -10.113  -5.169  1.00  0.00     0.049 A 
ATOM     53  H   UNL     1      -5.671  -9.747  -4.080  1.00  0.00     0.167 HD
ATOM     54  C   UNL     1      -5.627 -10.592  -6.789  1.00  0.00     0.074 A 
ATOM     55  C   UNL     1      -5.135 -11.020  -8.082  1.00  0.00     0.031 C 
ATOM     56  C   UNL     1      -6.938 -10.539  -6.449  1.00  0.00     0.031 A 
BRANCH  43  57
ATOM     57  C   UNL     1      -7.994  -8.599  -0.684  1.00  0.00    -0.014 A 
ATOM     58  C   UNL     1      -8.213  -7.272  -0.287  1.00  0.00     0.009 A 
ATOM     59  C   UNL     1      -8.800  -9.611  -0.136  1.00  0.00     0.009 A 
ATOM     60  C   UNL     1      -9.200  -6.969   0.655  1.00  0.00     0.001 A 
ATOM     61  C   UNL     1      -9.806  -9.303   0.782  1.00  0.00     0.001 A 
ATOM     62  C   UNL     1     -10.001  -7.982   1.182  1.00  0.00     0.000 A 
ENDBRANCH  43  57
BRANCH  44  63
ATOM     63  C   UNL     1      -0.975 -10.658  -7.479  1.00  0.00    -0.014 A 
ATOM     64  C   UNL     1      -0.812  -9.832  -8.601  1.00  0.00     0.009 A 
ATOM     65  C   UNL     1      -0.115 -11.757  -7.318  1.00  0.00     0.009 A 
ATOM     66  C   UNL     1       0.184 -10.105  -9.542  1.00  0.00     0.001 A 
ATOM     67  C   UNL     1       0.903 -12.006  -8.240  1.00  0.00     0.001 A 
ATOM     68  C   UNL     1       1.047 -11.184  -9.355  1.00  0.00     0.000 A 
ENDBRANCH  44  63
BRANCH  56  69
ATOM     69  C   UNL     1      -7.936 -10.931  -7.500  1.00  0.00    -0.014 A 
ATOM     70  C   UNL     1      -8.107 -12.272  -7.875  1.00  0.00     0.009 A 
ATOM     71  C   UNL     1      -8.755  -9.950  -8.080  1.00  0.00     0.009 A 
ATOM     72  C   UNL     1      -9.063 -12.619  -8.831  1.00  0.00     0.001 A 
ATOM     73  C   UNL     1      -9.730 -10.304  -9.013  1.00  0.00     0.001 A 
ATOM     74  C   UNL     1      -9.878 -11.637  -9.393  1.00  0.00     0.000 A 
ENDBRANCH  56  69
ENDBRANCH  30  31
ENDBRANCH  23  25
ENDBRANCH  22  23
ENDBRANCH   1  22
TORSDOF 12
