REMARK SMILES [NH3+][C@@H]1CCCCC[C@H]1C(=O)NCC(=O)OCCOC(=O)c1ccc(-c2c3nc(c(-c4ccccc4)c4ccc([nH]4)c(-c4ccccc4)c4nc(c(-c5ccccc5)c5ccc2[nH]5)C=C4)C=C3)cc1
REMARK SMILES IDX 15 1 13 2 14 3 12 4 11 5 9 6 10 7 8 9 2 10 1 11 3 15 4 16
REMARK SMILES IDX 7 18 6 19 5 20 16 22 17 23 18 24 19 25 20 26 21 27 22 28
REMARK SMILES IDX 68 29 23 30 67 31 24 32 25 33 26 34 61 35 27 36 66 37 60 38
REMARK SMILES IDX 62 39 28 40 65 41 59 42 58 43 29 45 51 46 36 47 50 48 37 49
REMARK SMILES IDX 40 50 49 51 63 52 38 53 39 54 48 56 64 57 41 58 30 59 31 60
REMARK SMILES IDX 35 61 32 62 34 63 33 64 52 65 53 66 57 67 54 68 56 69 55 70
REMARK SMILES IDX 42 71 43 72 47 73 44 74 46 75 45 76
REMARK H PARENT 11 8 1 12 1 13 1 14 62 44 40 55
REMARK Flexibility Score: 90.00
ROOT
ATOM      1  O   UNL     1      -2.465   0.859  -0.425  1.00  0.00    -0.461 OA
ENDROOT
BRANCH   1   2
ATOM      2  C   UNL     1      -2.696   0.013  -1.460  1.00  0.00     0.325 C 
ATOM      3  O   UNL     1      -3.671  -0.724  -1.564  1.00  0.00    -0.250 OA
BRANCH   2   4
ATOM      4  C   UNL     1      -1.588   0.039  -2.505  1.00  0.00     0.238 C 
BRANCH   4   5
ATOM      5  N   UNL     1      -0.581   1.078  -2.381  1.00  0.00    -0.345 N 
ATOM      6  C   UNL     1       0.775   0.974  -2.297  1.00  0.00     0.229 C 
ATOM      7  O   UNL     1       1.444   2.009  -2.358  1.00  0.00    -0.275 OA
ATOM      8  H   UNL     1      -0.931   1.998  -2.353  1.00  0.00     0.164 HD
BRANCH   6   9
ATOM      9  C   UNL     1       1.456  -0.397  -2.190  1.00  0.00     0.136 C 
BRANCH   9  10
ATOM     10  C   UNL     1       1.020  -1.110  -0.882  1.00  0.00     0.193 C 
BRANCH  10  11
ATOM     11  N   UNL     1       1.634  -0.433   0.273  1.00  0.00    -0.354 N 
ATOM     12  H   UNL     1       1.348  -0.901   1.133  1.00  0.00     0.344 HD
ATOM     13  H   UNL     1       1.329   0.540   0.298  1.00  0.00     0.344 HD
ATOM     14  H   UNL     1       2.650  -0.469   0.188  1.00  0.00     0.344 HD
ENDBRANCH  10  11
BRANCH  10  15
ATOM     15  C   UNL     1       1.319  -2.611  -0.778  1.00  0.00     0.066 C 
BRANCH  15  16
ATOM     16  C   UNL     1       0.526  -3.446  -1.779  1.00  0.00     0.006 CG0
ATOM     17  G   UNL     1       1.214  -3.639  -3.124  1.00  0.00     0.000 G0
ENDBRANCH  15  16
ENDBRANCH  10  15
ENDBRANCH   9  10
BRANCH   9  18
ATOM     18  C   UNL     1       1.326  -1.122  -3.547  1.00  0.00     0.020 C 
BRANCH  18  19
ATOM     19  C   UNL     1       2.045  -2.462  -3.627  1.00  0.00     0.001 C 
BRANCH  19  20
ATOM     20  C   UNL     1       1.214  -3.639  -3.124  1.00  0.00     0.000 CG0
ATOM     21  G   UNL     1       0.526  -3.446  -1.779  1.00  0.00     0.000 G0
ENDBRANCH  19  20
ENDBRANCH  18  19
ENDBRANCH   9  18
ENDBRANCH   6   9
ENDBRANCH   4   5
ENDBRANCH   2   4
ENDBRANCH   1   2
BRANCH   1  22
ATOM     22  C   UNL     1      -3.519   0.987   0.544  1.00  0.00     0.274 C 
BRANCH  22  23
ATOM     23  C   UNL     1      -4.300   2.288   0.331  1.00  0.00     0.275 C 
BRANCH  23  24
ATOM     24  O   UNL     1      -5.050   2.278  -0.900  1.00  0.00    -0.458 OA
BRANCH  24  25
ATOM     25  C   UNL     1      -4.367   2.705  -1.988  1.00  0.00     0.338 C 
ATOM     26  O   UNL     1      -3.210   3.090  -2.036  1.00  0.00    -0.246 OA
BRANCH  25  27
ATOM     27  C   UNL     1      -5.159   2.484  -3.205  1.00  0.00     0.060 A 
ATOM     28  C   UNL     1      -4.656   1.576  -4.136  1.00  0.00     0.016 A 
ATOM     29  C   UNL     1      -6.294   3.237  -3.498  1.00  0.00     0.016 A 
ATOM     30  C   UNL     1      -5.245   1.439  -5.382  1.00  0.00     0.010 A 
ATOM     31  C   UNL     1      -6.910   3.079  -4.747  1.00  0.00     0.010 A 
ATOM     32  C   UNL     1      -6.376   2.194  -5.702  1.00  0.00    -0.014 A 
BRANCH  32  33
ATOM     33  C   UNL     1      -6.947   2.079  -7.062  1.00  0.00     0.031 A 
ATOM     34  C   UNL     1      -6.822   3.224  -8.024  1.00  0.00     0.074 A 
ATOM     35  C   UNL     1      -7.520   0.925  -7.451  1.00  0.00     0.049 A 
ATOM     36  N   UNL     1      -7.335   3.354  -9.221  1.00  0.00    -0.248 NA
ATOM     37  C   UNL     1      -6.016   4.374  -7.584  1.00  0.00     0.031 C 
ATOM     38  C   UNL     1      -7.630  -0.285  -6.632  1.00  0.00     0.029 A 
ATOM     39  N   UNL     1      -8.105   0.577  -8.641  1.00  0.00    -0.354 N 
ATOM     40  C   UNL     1      -6.952   4.616  -9.658  1.00  0.00     0.074 A 
ATOM     41  C   UNL     1      -6.162   5.210  -8.601  1.00  0.00     0.031 C 
ATOM     42  C   UNL     1      -8.230  -1.247  -7.351  1.00  0.00     0.029 A 
ATOM     43  C   UNL     1      -8.602  -0.703  -8.652  1.00  0.00     0.049 A 
ATOM     44  H   UNL     1      -8.163   1.185  -9.412  1.00  0.00     0.167 HD
ATOM     45  C   UNL     1      -7.243   5.224 -10.832  1.00  0.00     0.031 A 
ATOM     46  C   UNL     1      -9.313  -1.353  -9.591  1.00  0.00     0.031 A 
ATOM     47  C   UNL     1      -8.007   4.617 -11.889  1.00  0.00     0.049 A 
ATOM     48  C   UNL     1      -9.665  -0.638 -10.864  1.00  0.00     0.074 A 
ATOM     49  C   UNL     1      -8.356   5.150 -13.117  1.00  0.00     0.029 A 
ATOM     50  N   UNL     1      -8.533   3.336 -11.843  1.00  0.00    -0.354 N 
ATOM     51  N   UNL     1      -9.338   0.572 -11.247  1.00  0.00    -0.248 NA
ATOM     52  C   UNL     1     -10.496  -1.374 -11.826  1.00  0.00     0.031 C 
ATOM     53  C   UNL     1      -9.125   4.202 -13.801  1.00  0.00     0.029 A 
ATOM     54  C   UNL     1      -9.219   3.065 -13.014  1.00  0.00     0.049 A 
ATOM     55  H   UNL     1      -8.433   2.710 -11.089  1.00  0.00     0.167 HD
ATOM     56  C   UNL     1      -9.914   0.741 -12.497  1.00  0.00     0.074 A 
ATOM     57  C   UNL     1     -10.594  -0.499 -12.817  1.00  0.00     0.031 C 
ATOM     58  C   UNL     1      -9.889   1.826 -13.307  1.00  0.00     0.031 A 
BRANCH  45  59
ATOM     59  C   UNL     1      -6.776   6.639 -11.009  1.00  0.00    -0.014 A 
ATOM     60  C   UNL     1      -5.432   6.942 -11.272  1.00  0.00     0.009 A 
ATOM     61  C   UNL     1      -7.709   7.686 -10.933  1.00  0.00     0.009 A 
ATOM     62  C   UNL     1      -5.027   8.270 -11.428  1.00  0.00     0.001 A 
ATOM     63  C   UNL     1      -7.305   9.010 -11.110  1.00  0.00     0.001 A 
ATOM     64  C   UNL     1      -5.963   9.302 -11.350  1.00  0.00     0.000 A 
ENDBRANCH  45  59
BRANCH  46  65
ATOM     65  C   UNL     1      -9.784  -2.737  -9.337  1.00  0.00    -0.014 A 
ATOM     66  C   UNL     1      -9.234  -3.822 -10.035  1.00  0.00     0.009 A 
ATOM     67  C   UNL     1     -10.789  -2.980  -8.386  1.00  0.00     0.009 A 
ATOM     68  C   UNL     1      -9.692  -5.120  -9.796  1.00  0.00     0.001 A 
ATOM     69  C   UNL     1     -11.226  -4.280  -8.131  1.00  0.00     0.001 A 
ATOM     70  C   UNL     1     -10.682  -5.349  -8.841  1.00  0.00     0.000 A 
ENDBRANCH  46  65
BRANCH  58  71
ATOM     71  C   UNL     1     -10.599   1.707 -14.623  1.00  0.00    -0.014 A 
ATOM     72  C   UNL     1     -11.999   1.771 -14.697  1.00  0.00     0.009 A 
ATOM     73  C   UNL     1      -9.856   1.559 -15.804  1.00  0.00     0.009 A 
ATOM     74  C   UNL     1     -12.643   1.660 -15.930  1.00  0.00     0.001 A 
ATOM     75  C   UNL     1     -10.503   1.470 -17.037  1.00  0.00     0.001 A 
ATOM     76  C   UNL     1     -11.895   1.513 -17.098  1.00  0.00     0.000 A 
ENDBRANCH  58  71
ENDBRANCH  32  33
ENDBRANCH  25  27
ENDBRANCH  24  25
ENDBRANCH  23  24
ENDBRANCH  22  23
ENDBRANCH   1  22
TORSDOF 14
