REMARK SMILES C[NH2+][C@@]1(C(=O)OCCOC(=O)c2ccc(-c3c4nc(c(-c5ccccc5)c5ccc([nH]5)c(-c5ccccc5)c5nc(c(-c6ccccc6)c6ccc3[nH]6)C=C5)C=C4)cc2)CCC[C@H]1CCSc1nccc(=O)[nH]1
REMARK SMILES IDX 7 1 6 2 4 3 5 4 3 5 60 6 63 7 61 8 62 9 2 10 1 11 64 14
REMARK SMILES IDX 65 15 66 16 67 17 68 18 73 19 69 20 71 21 70 23 72 24 8 25
REMARK SMILES IDX 9 26 10 27 11 28 12 29 13 30 59 31 14 32 58 33 15 34 16 35
REMARK SMILES IDX 17 36 52 37 18 38 57 39 51 40 53 41 19 42 56 43 50 44 49 45
REMARK SMILES IDX 20 47 42 48 27 49 41 50 28 51 31 52 40 53 54 54 29 55 30 56
REMARK SMILES IDX 39 58 55 59 32 60 21 61 22 62 26 63 23 64 25 65 24 66 43 67
REMARK SMILES IDX 44 68 48 69 45 70 47 71 46 72 33 73 34 74 38 75 35 76 37 77
REMARK SMILES IDX 36 78
REMARK H PARENT 2 12 2 13 73 22 53 46 31 57
REMARK Flexibility Score: inf
ROOT
ATOM      1  C   UNL     1      -2.585  -0.426   3.239  1.00  0.00     0.274 C 
ENDROOT
BRANCH   1   2
ATOM      2  O   UNL     1      -2.238  -0.845   1.904  1.00  0.00    -0.457 OA
BRANCH   2   3
ATOM      3  C   UNL     1      -1.565   0.051   1.129  1.00  0.00     0.368 C 
ATOM      4  O   UNL     1      -1.288   1.187   1.504  1.00  0.00    -0.245 OA
BRANCH   3   5
ATOM      5  C   UNL     1      -1.242  -0.493  -0.320  1.00  0.00     0.197 C 
ATOM      6  C   UNL     1      -2.011   0.399  -1.313  1.00  0.00     0.081 C 
ATOM      7  C   UNL     1      -1.862  -1.917  -0.588  1.00  0.00     0.063 C 
ATOM      8  C   UNL     1      -3.432  -0.132  -1.245  1.00  0.00     0.008 C 
ATOM      9  C   UNL     1      -3.256  -1.640  -1.202  1.00  0.00     0.011 C 
BRANCH   5  10
ATOM     10  N   UNL     1       0.229  -0.468  -0.564  1.00  0.00    -0.334 N 
ATOM     11  C   UNL     1       0.859   0.851  -0.496  1.00  0.00     0.331 C 
ATOM     12  H   UNL     1       0.674  -1.063   0.135  1.00  0.00     0.347 HD
ATOM     13  H   UNL     1       0.358  -0.789  -1.523  1.00  0.00     0.347 HD
ENDBRANCH   5  10
BRANCH   7  14
ATOM     14  C   UNL     1      -1.091  -2.889  -1.519  1.00  0.00     0.022 C 
BRANCH  14  15
ATOM     15  C   UNL     1       0.095  -3.582  -0.832  1.00  0.00     0.079 C 
BRANCH  15  16
ATOM     16  S   UNL     1      -0.012  -5.404  -0.893  1.00  0.00    -0.088 SA
BRANCH  16  17
ATOM     17  C   UNL     1      -1.062  -5.680   0.463  1.00  0.00     0.168 A 
ATOM     18  N   UNL     1      -2.150  -5.011   0.648  1.00  0.00    -0.233 NA
ATOM     19  N   UNL     1      -0.615  -6.670   1.277  1.00  0.00    -0.301 N 
ATOM     20  C   UNL     1      -2.836  -5.290   1.803  1.00  0.00     0.120 A 
ATOM     21  C   UNL     1      -1.277  -7.011   2.416  1.00  0.00     0.251 A 
ATOM     22  H   UNL     1       0.209  -7.153   1.038  1.00  0.00     0.172 HD
ATOM     23  C   UNL     1      -2.484  -6.219   2.698  1.00  0.00     0.091 A 
ATOM     24  O   UNL     1      -0.912  -7.912   3.162  1.00  0.00    -0.269 OA
ENDBRANCH  16  17
ENDBRANCH  15  16
ENDBRANCH  14  15
ENDBRANCH   7  14
ENDBRANCH   3   5
ENDBRANCH   2   3
ENDBRANCH   1   2
BRANCH   1  25
ATOM     25  C   UNL     1      -2.016  -1.406   4.260  1.00  0.00     0.275 C 
BRANCH  25  26
ATOM     26  O   UNL     1      -0.586  -1.477   4.114  1.00  0.00    -0.458 OA
BRANCH  26  27
ATOM     27  C   UNL     1      -0.136  -2.618   3.555  1.00  0.00     0.338 C 
ATOM     28  O   UNL     1      -0.780  -3.615   3.255  1.00  0.00    -0.246 OA
BRANCH  27  29
ATOM     29  C   UNL     1       1.305  -2.549   3.326  1.00  0.00     0.060 A 
ATOM     30  C   UNL     1       1.783  -1.846   2.224  1.00  0.00     0.016 A 
ATOM     31  C   UNL     1       2.161  -3.319   4.113  1.00  0.00     0.016 A 
ATOM     32  C   UNL     1       3.126  -1.939   1.877  1.00  0.00     0.010 A 
ATOM     33  C   UNL     1       3.521  -3.360   3.803  1.00  0.00     0.010 A 
ATOM     34  C   UNL     1       4.011  -2.679   2.677  1.00  0.00    -0.014 A 
BRANCH  34  35
ATOM     35  C   UNL     1       5.462  -2.669   2.377  1.00  0.00     0.031 A 
ATOM     36  C   UNL     1       6.172  -3.904   1.905  1.00  0.00     0.074 A 
ATOM     37  C   UNL     1       6.139  -1.517   2.544  1.00  0.00     0.049 A 
ATOM     38  N   UNL     1       7.449  -4.078   1.675  1.00  0.00    -0.248 NA
ATOM     39  C   UNL     1       5.347  -5.096   1.660  1.00  0.00     0.031 C 
ATOM     40  C   UNL     1       5.547  -0.249   2.978  1.00  0.00     0.029 A 
ATOM     41  N   UNL     1       7.464  -1.222   2.360  1.00  0.00    -0.354 N 
ATOM     42  C   UNL     1       7.587  -5.403   1.283  1.00  0.00     0.074 A 
ATOM     43  C   UNL     1       6.263  -5.990   1.309  1.00  0.00     0.031 C 
ATOM     44  C   UNL     1       6.498   0.696   2.989  1.00  0.00     0.029 A 
ATOM     45  C   UNL     1       7.773   0.087   2.633  1.00  0.00     0.049 A 
ATOM     46  H   UNL     1       8.129  -1.884   2.062  1.00  0.00     0.167 HD
ATOM     47  C   UNL     1       8.718  -6.067   0.942  1.00  0.00     0.031 A 
ATOM     48  C   UNL     1       8.957   0.724   2.627  1.00  0.00     0.031 A 
ATOM     49  C   UNL     1      10.032  -5.478   0.922  1.00  0.00     0.049 A 
ATOM     50  C   UNL     1      10.196  -0.045   2.287  1.00  0.00     0.074 A 
ATOM     51  C   UNL     1      11.240  -6.069   0.591  1.00  0.00     0.029 A 
ATOM     52  N   UNL     1      10.310  -4.159   1.245  1.00  0.00    -0.354 N 
ATOM     53  N   UNL     1      10.312  -1.304   1.940  1.00  0.00    -0.248 NA
ATOM     54  C   UNL     1      11.466   0.688   2.352  1.00  0.00     0.031 C 
ATOM     55  C   UNL     1      12.253  -5.117   0.753  1.00  0.00     0.029 A 
ATOM     56  C   UNL     1      11.671  -3.922   1.142  1.00  0.00     0.049 A 
ATOM     57  H   UNL     1       9.639  -3.488   1.510  1.00  0.00     0.167 HD
ATOM     58  C   UNL     1      11.668  -1.516   1.745  1.00  0.00     0.074 A 
ATOM     59  C   UNL     1      12.330  -0.248   1.986  1.00  0.00     0.031 C 
ATOM     60  C   UNL     1      12.310  -2.659   1.404  1.00  0.00     0.031 A 
BRANCH  47  61
ATOM     61  C   UNL     1       8.591  -7.525   0.600  1.00  0.00    -0.014 A 
ATOM     62  C   UNL     1       8.075  -7.943  -0.636  1.00  0.00     0.009 A 
ATOM     63  C   UNL     1       9.043  -8.493   1.510  1.00  0.00     0.009 A 
ATOM     64  C   UNL     1       7.993  -9.304  -0.943  1.00  0.00     0.001 A 
ATOM     65  C   UNL     1       8.979  -9.851   1.193  1.00  0.00     0.001 A 
ATOM     66  C   UNL     1       8.448 -10.256  -0.031  1.00  0.00     0.000 A 
ENDBRANCH  47  61
BRANCH  48  67
ATOM     67  C   UNL     1       9.014   2.162   2.990  1.00  0.00    -0.014 A 
ATOM     68  C   UNL     1       9.253   3.135   2.009  1.00  0.00     0.009 A 
ATOM     69  C   UNL     1       8.784   2.569   4.314  1.00  0.00     0.009 A 
ATOM     70  C   UNL     1       9.268   4.489   2.350  1.00  0.00     0.001 A 
ATOM     71  C   UNL     1       8.772   3.924   4.646  1.00  0.00     0.001 A 
ATOM     72  C   UNL     1       9.019   4.883   3.665  1.00  0.00     0.000 A 
ENDBRANCH  48  67
BRANCH  60  73
ATOM     73  C   UNL     1      13.801  -2.576   1.267  1.00  0.00    -0.014 A 
ATOM     74  C   UNL     1      14.626  -2.524   2.402  1.00  0.00     0.009 A 
ATOM     75  C   UNL     1      14.386  -2.557  -0.007  1.00  0.00     0.009 A 
ATOM     76  C   UNL     1      16.010  -2.421   2.260  1.00  0.00     0.001 A 
ATOM     77  C   UNL     1      15.772  -2.475  -0.145  1.00  0.00     0.001 A 
ATOM     78  C   UNL     1      16.582  -2.398   0.988  1.00  0.00     0.000 A 
ENDBRANCH  60  73
ENDBRANCH  34  35
ENDBRANCH  27  29
ENDBRANCH  26  27
ENDBRANCH  25  26
ENDBRANCH   1  25
TORSDOF 16
