REMARK SMILES O=C(CCC1CCCC1)N[C@H]1CCCCC[C@H]1C(=O)OCCOC(=O)c1ccc(-c2c3nc(c(-c4ccccc4)c4ccc([nH]4)c(-c4ccccc4)c4nc(c(-c5ccccc5)c5ccc2[nH]5)C=C4)C=C3)cc1
REMARK SMILES IDX 20 1 18 2 19 3 17 4 11 5 10 7 1 8 2 9 3 11 4 12 5 13 6 14
REMARK SMILES IDX 9 15 7 16 8 17 16 18 15 19 14 20 13 21 12 22 21 24 22 25
REMARK SMILES IDX 23 26 24 27 25 28 26 29 27 30 73 31 28 32 72 33 29 34 30 35
REMARK SMILES IDX 31 36 66 37 32 38 71 39 65 40 67 41 33 42 70 43 64 44 63 45
REMARK SMILES IDX 34 47 56 48 41 49 55 50 42 51 45 52 54 53 68 54 43 55 44 56
REMARK SMILES IDX 53 58 69 59 46 60 35 61 36 62 40 63 37 64 39 65 38 66 57 67
REMARK SMILES IDX 58 68 62 69 59 70 61 71 60 72 47 73 48 74 52 75 49 76 51 77
REMARK SMILES IDX 50 78
REMARK H PARENT 10 10 67 46 45 57
REMARK Flexibility Score: 100.00
ROOT
ATOM      1  O   UNL     1       0.889  -5.442  -2.485  1.00  0.00    -0.462 OA
ENDROOT
BRANCH   1   2
ATOM      2  C   UNL     1       2.193  -5.197  -2.222  1.00  0.00     0.311 C 
ATOM      3  O   UNL     1       3.124  -5.779  -2.775  1.00  0.00    -0.252 OA
BRANCH   2   4
ATOM      4  C   UNL     1       2.450  -4.157  -1.139  1.00  0.00     0.121 C 
BRANCH   4   5
ATOM      5  C   UNL     1       1.412  -3.038  -0.856  1.00  0.00     0.096 CG0
ATOM      6  G   UNL     1       0.627  -3.142   0.458  1.00  0.00     0.000 G0
BRANCH   5   7
ATOM      7  N   UNL     1       0.667  -2.603  -2.041  1.00  0.00    -0.353 N 
ATOM      8  O   UNL     1      -1.542  -2.635  -1.363  1.00  0.00    -0.275 OA
ATOM      9  C   UNL     1      -0.682  -2.389  -2.201  1.00  0.00     0.220 C 
ATOM     10  H   UNL     1       1.215  -2.441  -2.842  1.00  0.00     0.163 HD
BRANCH   9  11
ATOM     11  C   UNL     1      -1.052  -1.780  -3.549  1.00  0.00     0.100 C 
BRANCH  11  12
ATOM     12  C   UNL     1      -1.651  -0.379  -3.462  1.00  0.00     0.013 C 
BRANCH  12  13
ATOM     13  C   UNL     1      -0.724   0.762  -3.017  1.00  0.00    -0.011 C 
ATOM     14  C   UNL     1      -0.551   0.892  -1.500  1.00  0.00     0.003 C 
ATOM     15  C   UNL     1       0.705   0.763  -3.562  1.00  0.00     0.003 C 
ATOM     16  C   UNL     1       0.838   1.494  -1.281  1.00  0.00     0.000 C 
ATOM     17  C   UNL     1       1.398   1.782  -2.668  1.00  0.00     0.000 C 
ENDBRANCH  12  13
ENDBRANCH  11  12
ENDBRANCH   9  11
ENDBRANCH   5   7
ENDBRANCH   4   5
BRANCH   4  18
ATOM     18  C   UNL     1       3.014  -4.867   0.105  1.00  0.00     0.017 C 
BRANCH  18  19
ATOM     19  C   UNL     1       2.114  -5.948   0.708  1.00  0.00     0.001 C 
BRANCH  19  20
ATOM     20  C   UNL     1       0.914  -5.435   1.492  1.00  0.00     0.000 C 
BRANCH  20  21
ATOM     21  C   UNL     1      -0.013  -4.498   0.723  1.00  0.00     0.002 C 
BRANCH  21  22
ATOM     22  C   UNL     1       0.627  -3.142   0.458  1.00  0.00     0.026 CG0
ATOM     23  G   UNL     1       1.412  -3.038  -0.856  1.00  0.00     0.000 G0
ENDBRANCH  21  22
ENDBRANCH  20  21
ENDBRANCH  19  20
ENDBRANCH  18  19
ENDBRANCH   4  18
ENDBRANCH   2   4
ENDBRANCH   1   2
BRANCH   1  24
ATOM     24  C   UNL     1       0.626  -6.437  -3.497  1.00  0.00     0.274 C 
BRANCH  24  25
ATOM     25  C   UNL     1       0.425  -5.832  -4.893  1.00  0.00     0.275 C 
BRANCH  25  26
ATOM     26  O   UNL     1       1.646  -5.348  -5.493  1.00  0.00    -0.458 OA
BRANCH  26  27
ATOM     27  C   UNL     1       1.949  -4.076  -5.171  1.00  0.00     0.338 C 
ATOM     28  O   UNL     1       1.335  -3.335  -4.426  1.00  0.00    -0.246 OA
BRANCH  27  29
ATOM     29  C   UNL     1       3.187  -3.589  -5.759  1.00  0.00     0.060 A 
ATOM     30  C   UNL     1       4.231  -3.276  -4.883  1.00  0.00     0.016 A 
ATOM     31  C   UNL     1       3.218  -3.208  -7.099  1.00  0.00     0.016 A 
ATOM     32  C   UNL     1       5.340  -2.592  -5.357  1.00  0.00     0.010 A 
ATOM     33  C   UNL     1       4.338  -2.534  -7.577  1.00  0.00     0.010 A 
ATOM     34  C   UNL     1       5.403  -2.234  -6.710  1.00  0.00    -0.014 A 
BRANCH  34  35
ATOM     35  C   UNL     1       6.660  -1.696  -7.256  1.00  0.00     0.031 A 
ATOM     36  C   UNL     1       6.837  -0.240  -7.532  1.00  0.00     0.074 A 
ATOM     37  C   UNL     1       7.632  -2.585  -7.525  1.00  0.00     0.049 A 
ATOM     38  N   UNL     1       7.842   0.361  -8.114  1.00  0.00    -0.248 NA
ATOM     39  C   UNL     1       5.755   0.658  -7.104  1.00  0.00     0.031 C 
ATOM     40  C   UNL     1       7.550  -4.024  -7.259  1.00  0.00     0.029 A 
ATOM     41  N   UNL     1       8.864  -2.414  -8.091  1.00  0.00    -0.354 N 
ATOM     42  C   UNL     1       7.514   1.708  -8.134  1.00  0.00     0.074 A 
ATOM     43  C   UNL     1       6.215   1.838  -7.506  1.00  0.00     0.031 C 
ATOM     44  C   UNL     1       8.682  -4.609  -7.674  1.00  0.00     0.029 A 
ATOM     45  C   UNL     1       9.541  -3.593  -8.269  1.00  0.00     0.049 A 
ATOM     46  H   UNL     1       9.228  -1.536  -8.344  1.00  0.00     0.167 HD
ATOM     47  C   UNL     1       8.236   2.735  -8.642  1.00  0.00     0.031 A 
ATOM     48  C   UNL     1      10.712  -3.836  -8.880  1.00  0.00     0.031 A 
ATOM     49  C   UNL     1       9.519   2.583  -9.278  1.00  0.00     0.049 A 
ATOM     50  C   UNL     1      11.463  -2.690  -9.479  1.00  0.00     0.074 A 
ATOM     51  C   UNL     1      10.335   3.559  -9.823  1.00  0.00     0.029 A 
ATOM     52  N   UNL     1      10.169   1.372  -9.458  1.00  0.00    -0.354 N 
ATOM     53  N   UNL     1      11.137  -1.421  -9.502  1.00  0.00    -0.248 NA
ATOM     54  C   UNL     1      12.733  -3.009 -10.139  1.00  0.00     0.031 C 
ATOM     55  C   UNL     1      11.467   2.933 -10.361  1.00  0.00     0.029 A 
ATOM     56  C   UNL     1      11.367   1.571 -10.123  1.00  0.00     0.049 A 
ATOM     57  H   UNL     1       9.829   0.498  -9.158  1.00  0.00     0.167 HD
ATOM     58  C   UNL     1      12.164  -0.783 -10.179  1.00  0.00     0.074 A 
ATOM     59  C   UNL     1      13.129  -1.806 -10.536  1.00  0.00     0.031 C 
ATOM     60  C   UNL     1      12.296   0.531 -10.481  1.00  0.00     0.031 A 
BRANCH  47  61
ATOM     61  C   UNL     1       7.637   4.107  -8.561  1.00  0.00    -0.014 A 
ATOM     62  C   UNL     1       7.678   4.846  -7.370  1.00  0.00     0.009 A 
ATOM     63  C   UNL     1       7.063   4.685  -9.704  1.00  0.00     0.009 A 
ATOM     64  C   UNL     1       7.139   6.134  -7.320  1.00  0.00     0.001 A 
ATOM     65  C   UNL     1       6.537   5.978  -9.654  1.00  0.00     0.001 A 
ATOM     66  C   UNL     1       6.572   6.699  -8.462  1.00  0.00     0.000 A 
ENDBRANCH  47  61
BRANCH  48  67
ATOM     67  C   UNL     1      11.198  -5.231  -8.973  1.00  0.00    -0.014 A 
ATOM     68  C   UNL     1      12.195  -5.694  -8.105  1.00  0.00     0.009 A 
ATOM     69  C   UNL     1      10.600  -6.127  -9.874  1.00  0.00     0.009 A 
ATOM     70  C   UNL     1      12.587  -7.033  -8.138  1.00  0.00     0.001 A 
ATOM     71  C   UNL     1      10.982  -7.469  -9.891  1.00  0.00     0.001 A 
ATOM     72  C   UNL     1      11.976  -7.920  -9.025  1.00  0.00     0.000 A 
ENDBRANCH  48  67
BRANCH  60  73
ATOM     73  C   UNL     1      13.531   0.916 -11.233  1.00  0.00    -0.014 A 
ATOM     74  C   UNL     1      13.613   0.721 -12.620  1.00  0.00     0.009 A 
ATOM     75  C   UNL     1      14.619   1.478 -10.550  1.00  0.00     0.009 A 
ATOM     76  C   UNL     1      14.779   1.059 -13.307  1.00  0.00     0.001 A 
ATOM     77  C   UNL     1      15.777   1.829 -11.244  1.00  0.00     0.001 A 
ATOM     78  C   UNL     1      15.859   1.613 -12.619  1.00  0.00     0.000 A 
ENDBRANCH  60  73
ENDBRANCH  34  35
ENDBRANCH  27  29
ENDBRANCH  26  27
ENDBRANCH  25  26
ENDBRANCH  24  25
ENDBRANCH   1  24
TORSDOF 15
