REMARK SMILES O=C(OCCOC(=O)c1ccc(N2C(=O)[C@@H]3N=NC(c4ccccc4)=C3[C@H]2c2cccc(Br)c2)cc1)c1ccc(-c2c3nc(c(-c4ccccc4)c4ccc([nH]4)c(-c4ccccc4)c4nc(c(-c5ccccc5)c5ccc2[nH]5)C=C4)C=C3)cc1
REMARK SMILES IDX 4 1 3 2 2 3 1 4 37 5 38 6 84 7 39 8 83 9 40 10 41 11 42 12
REMARK SMILES IDX 77 13 43 14 82 15 76 16 78 17 44 18 81 19 75 20 74 21 45 23
REMARK SMILES IDX 67 24 52 25 66 26 53 27 56 28 65 29 79 30 54 31 55 32 64 34
REMARK SMILES IDX 80 35 57 36 46 37 47 38 51 39 48 40 50 41 49 42 68 43 69 44
REMARK SMILES IDX 73 45 70 46 72 47 71 48 58 49 59 50 63 51 60 52 62 53 61 54
REMARK SMILES IDX 5 55 6 56 7 57 8 58 9 59 10 60 36 61 11 62 35 63 12 64 13 65
REMARK SMILES IDX 14 66 27 67 16 68 15 69 26 70 17 71 19 72 18 73 28 74 29 75
REMARK SMILES IDX 34 76 30 77 32 78 31 79 33 80 20 81 21 82 25 83 22 84 24 85
REMARK SMILES IDX 23 86
REMARK H PARENT 78 22 56 33
REMARK Flexibility Score: inf
ROOT
ATOM      1  C   UNL     1       4.577  -0.276   0.819  1.00  0.00     0.275 C 
ENDROOT
BRANCH   1   2
ATOM      2  O   UNL     1       3.429   0.422   1.346  1.00  0.00    -0.458 OA
BRANCH   2   3
ATOM      3  C   UNL     1       2.339   0.564   0.561  1.00  0.00     0.338 C 
ATOM      4  O   UNL     1       1.441  -0.255   0.456  1.00  0.00    -0.246 OA
BRANCH   3   5
ATOM      5  C   UNL     1       2.256   1.932   0.007  1.00  0.00     0.060 A 
ATOM      6  C   UNL     1       3.402   2.665  -0.312  1.00  0.00     0.016 A 
ATOM      7  C   UNL     1       0.987   2.480  -0.216  1.00  0.00     0.016 A 
ATOM      8  C   UNL     1       3.283   3.961  -0.790  1.00  0.00     0.010 A 
ATOM      9  C   UNL     1       0.868   3.776  -0.708  1.00  0.00     0.010 A 
ATOM     10  C   UNL     1       2.017   4.529  -0.963  1.00  0.00    -0.014 A 
BRANCH  10  11
ATOM     11  C   UNL     1       1.962   5.884  -1.509  1.00  0.00     0.031 A 
ATOM     12  C   UNL     1       2.591   6.080  -2.848  1.00  0.00     0.074 A 
ATOM     13  C   UNL     1       1.274   6.906  -0.966  1.00  0.00     0.049 A 
ATOM     14  N   UNL     1       3.588   6.838  -3.181  1.00  0.00    -0.248 NA
ATOM     15  C   UNL     1       2.050   5.279  -3.949  1.00  0.00     0.031 C 
ATOM     16  C   UNL     1       0.337   6.889   0.156  1.00  0.00     0.029 A 
ATOM     17  N   UNL     1       1.213   8.194  -1.406  1.00  0.00    -0.354 N 
ATOM     18  C   UNL     1       3.719   6.714  -4.565  1.00  0.00     0.074 A 
ATOM     19  C   UNL     1       2.818   5.673  -4.963  1.00  0.00     0.031 C 
ATOM     20  C   UNL     1      -0.359   8.050   0.167  1.00  0.00     0.029 A 
ATOM     21  C   UNL     1       0.185   8.935  -0.850  1.00  0.00     0.049 A 
ATOM     22  H   UNL     1       1.846   8.565  -2.063  1.00  0.00     0.167 HD
ATOM     23  C   UNL     1       4.434   7.577  -5.340  1.00  0.00     0.031 A 
ATOM     24  C   UNL     1      -0.214  10.171  -1.233  1.00  0.00     0.031 A 
ATOM     25  C   UNL     1       5.340   8.374  -4.568  1.00  0.00     0.049 A 
ATOM     26  C   UNL     1       0.881  10.786  -2.016  1.00  0.00     0.074 A 
ATOM     27  C   UNL     1       6.396   8.099  -3.723  1.00  0.00     0.029 A 
ATOM     28  N   UNL     1       4.983   9.674  -4.308  1.00  0.00    -0.354 N 
ATOM     29  N   UNL     1       2.009  11.175  -1.497  1.00  0.00    -0.248 NA
ATOM     30  C   UNL     1       0.883  10.622  -3.461  1.00  0.00     0.031 C 
ATOM     31  C   UNL     1       6.250   9.034  -2.657  1.00  0.00     0.029 A 
ATOM     32  C   UNL     1       5.157   9.850  -2.961  1.00  0.00     0.049 A 
ATOM     33  H   UNL     1       4.665  10.342  -4.957  1.00  0.00     0.167 HD
ATOM     34  C   UNL     1       2.961  10.893  -2.465  1.00  0.00     0.074 A 
ATOM     35  C   UNL     1       2.198  10.665  -3.690  1.00  0.00     0.031 C 
ATOM     36  C   UNL     1       4.252  10.603  -2.125  1.00  0.00     0.031 A 
BRANCH  23  37
ATOM     37  C   UNL     1       4.058   7.944  -6.756  1.00  0.00    -0.014 A 
ATOM     38  C   UNL     1       4.904   8.803  -7.484  1.00  0.00     0.009 A 
ATOM     39  C   UNL     1       2.777   7.716  -7.295  1.00  0.00     0.009 A 
ATOM     40  C   UNL     1       4.460   9.460  -8.639  1.00  0.00     0.001 A 
ATOM     41  C   UNL     1       2.346   8.336  -8.472  1.00  0.00     0.001 A 
ATOM     42  C   UNL     1       3.178   9.234  -9.127  1.00  0.00     0.000 A 
ENDBRANCH  23  37
BRANCH  24  43
ATOM     43  C   UNL     1      -1.546  10.797  -1.134  1.00  0.00    -0.014 A 
ATOM     44  C   UNL     1      -1.689  12.190  -1.215  1.00  0.00     0.009 A 
ATOM     45  C   UNL     1      -2.707  10.009  -1.222  1.00  0.00     0.009 A 
ATOM     46  C   UNL     1      -2.946  12.772  -1.417  1.00  0.00     0.001 A 
ATOM     47  C   UNL     1      -3.963  10.590  -1.418  1.00  0.00     0.001 A 
ATOM     48  C   UNL     1      -4.080  11.972  -1.532  1.00  0.00     0.000 A 
ENDBRANCH  24  43
BRANCH  36  49
ATOM     49  C   UNL     1       4.681  10.802  -0.692  1.00  0.00    -0.014 A 
ATOM     50  C   UNL     1       4.039  10.178   0.392  1.00  0.00     0.009 A 
ATOM     51  C   UNL     1       5.874  11.499  -0.444  1.00  0.00     0.009 A 
ATOM     52  C   UNL     1       4.553  10.282   1.687  1.00  0.00     0.001 A 
ATOM     53  C   UNL     1       6.403  11.579   0.845  1.00  0.00     0.001 A 
ATOM     54  C   UNL     1       5.739  10.977   1.911  1.00  0.00     0.000 A 
ENDBRANCH  36  49
ENDBRANCH  10  11
ENDBRANCH   3   5
ENDBRANCH   2   3
ENDBRANCH   1   2
BRANCH   1  55
ATOM     55  C   UNL     1       4.321  -1.341  -0.247  1.00  0.00     0.275 C 
BRANCH  55  56
ATOM     56  O   UNL     1       3.816  -0.744  -1.458  1.00  0.00    -0.458 OA
BRANCH  56  57
ATOM     57  C   UNL     1       2.844  -1.461  -2.079  1.00  0.00     0.338 C 
ATOM     58  O   UNL     1       2.394  -2.546  -1.755  1.00  0.00    -0.246 OA
BRANCH  57  59
ATOM     59  C   UNL     1       2.416  -0.755  -3.296  1.00  0.00     0.060 A 
ATOM     60  C   UNL     1       1.300   0.082  -3.273  1.00  0.00     0.018 A 
ATOM     61  C   UNL     1       3.091  -1.000  -4.493  1.00  0.00     0.018 A 
ATOM     62  C   UNL     1       0.868   0.686  -4.460  1.00  0.00     0.027 A 
ATOM     63  C   UNL     1       2.643  -0.406  -5.680  1.00  0.00     0.027 A 
ATOM     64  C   UNL     1       1.519   0.424  -5.678  1.00  0.00     0.045 A 
BRANCH  64  65
ATOM     65  N   UNL     1       1.113   1.088  -6.864  1.00  0.00    -0.299 N 
ATOM     66  C   UNL     1       1.031   2.506  -6.860  1.00  0.00     0.259 C 
ATOM     67  C   UNL     1       0.146   0.505  -7.814  1.00  0.00     0.152 C 
ATOM     68  C   UNL     1       0.064   2.919  -7.939  1.00  0.00     0.248 C 
ATOM     69  O   UNL     1       1.604   3.248  -6.102  1.00  0.00    -0.271 OA
ATOM     70  C   UNL     1      -0.760   1.688  -7.879  1.00  0.00     0.021 C 
ATOM     71  N   UNL     1      -0.879   3.972  -7.551  1.00  0.00    -0.170 NA
ATOM     72  C   UNL     1      -1.994   2.098  -7.578  1.00  0.00     0.097 C 
ATOM     73  N   UNL     1      -2.040   3.478  -7.484  1.00  0.00    -0.154 NA
BRANCH  67  74
ATOM     74  C   UNL     1       0.795   0.223  -9.189  1.00  0.00    -0.020 A 
ATOM     75  C   UNL     1       0.280   0.771 -10.386  1.00  0.00     0.006 A 
ATOM     76  C   UNL     1       1.961  -0.553  -9.300  1.00  0.00     0.022 A 
ATOM     77  C   UNL     1       0.956   0.650 -11.605  1.00  0.00     0.002 A 
ATOM     78  C   UNL     1       2.630  -0.681 -10.525  1.00  0.00     0.018 A 
ATOM     79  C   UNL     1       2.144  -0.066 -11.673  1.00  0.00     0.016 A 
ATOM     80  Br  UNL     1       4.231  -1.686 -10.620  1.00  0.00    -0.051 Br
ENDBRANCH  67  74
BRANCH  72  81
ATOM     81  C   UNL     1      -3.143   1.376  -7.030  1.00  0.00     0.002 A 
ATOM     82  C   UNL     1      -4.253   1.088  -7.832  1.00  0.00     0.010 A 
ATOM     83  C   UNL     1      -3.260   1.269  -5.635  1.00  0.00     0.010 A 
ATOM     84  C   UNL     1      -5.477   0.758  -7.241  1.00  0.00     0.001 A 
ATOM     85  C   UNL     1      -4.484   0.945  -5.048  1.00  0.00     0.001 A 
ATOM     86  C   UNL     1      -5.597   0.710  -5.851  1.00  0.00     0.000 A 
ENDBRANCH  72  81
ENDBRANCH  64  65
ENDBRANCH  57  59
ENDBRANCH  56  57
ENDBRANCH  55  56
ENDBRANCH   1  55
TORSDOF 14
