REMARK SMILES CC(C)=CCC[C@H](C)CC(=O)OCCOC(=O)c1ccc(-c2c3nc(c(-c4ccccc4)c4ccc([nH]4)c(-c4ccccc4)c4nc(c(-c5ccccc5)c5ccc2[nH]5)C=C4)C=C3)cc1
REMARK SMILES IDX 13 1 12 2 10 3 11 4 9 5 7 6 8 7 6 8 5 9 4 10 1 11 2 12 3 13
REMARK SMILES IDX 14 14 15 15 16 16 17 17 18 18 19 19 65 20 20 21 64 22 21 23
REMARK SMILES IDX 22 24 23 25 58 26 24 27 63 28 57 29 59 30 25 31 62 32 56 33
REMARK SMILES IDX 55 34 26 36 48 37 33 38 47 39 34 40 37 41 46 42 60 43 35 44
REMARK SMILES IDX 36 45 45 47 61 48 38 49 27 50 28 51 32 52 29 53 31 54 30 55
REMARK SMILES IDX 49 56 50 57 54 58 51 59 53 60 52 61 39 62 40 63 44 64 41 65
REMARK SMILES IDX 43 66 42 67
REMARK H PARENT 59 35 37 46
REMARK Flexibility Score: inf
ROOT
ATOM      1  C   UNL     1       5.819  -2.995  -2.058  1.00  0.00     0.274 C 
ENDROOT
BRANCH   1   2
ATOM      2  O   UNL     1       5.047  -2.145  -2.927  1.00  0.00    -0.462 OA
BRANCH   2   3
ATOM      3  C   UNL     1       5.165  -2.371  -4.260  1.00  0.00     0.306 C 
ATOM      4  O   UNL     1       5.886  -3.224  -4.764  1.00  0.00    -0.252 OA
BRANCH   3   5
ATOM      5  C   UNL     1       4.353  -1.397  -5.090  1.00  0.00     0.126 C 
BRANCH   5   6
ATOM      6  C   UNL     1       2.904  -1.186  -4.615  1.00  0.00    -0.003 C 
ATOM      7  C   UNL     1       2.856  -0.214  -3.421  1.00  0.00     0.008 C 
BRANCH   6   8
ATOM      8  C   UNL     1       1.983  -0.658  -5.742  1.00  0.00     0.008 C 
BRANCH   8   9
ATOM      9  C   UNL     1       1.708  -1.623  -6.907  1.00  0.00     0.027 C 
BRANCH   9  10
ATOM     10  C   UNL     1       0.866  -2.812  -6.526  1.00  0.00    -0.028 C 
ATOM     11  C   UNL     1      -0.936  -2.456  -8.238  1.00  0.00     0.039 C 
ATOM     12  C   UNL     1      -0.285  -3.205  -7.109  1.00  0.00    -0.080 C 
ATOM     13  C   UNL     1      -0.972  -4.459  -6.641  1.00  0.00     0.039 C 
ENDBRANCH   9  10
ENDBRANCH   8   9
ENDBRANCH   6   8
ENDBRANCH   5   6
ENDBRANCH   3   5
ENDBRANCH   2   3
ENDBRANCH   1   2
BRANCH   1  14
ATOM     14  C   UNL     1       4.976  -4.140  -1.495  1.00  0.00     0.275 C 
BRANCH  14  15
ATOM     15  O   UNL     1       4.664  -5.106  -2.514  1.00  0.00    -0.458 OA
BRANCH  15  16
ATOM     16  C   UNL     1       3.453  -4.960  -3.097  1.00  0.00     0.338 C 
ATOM     17  O   UNL     1       2.587  -4.148  -2.831  1.00  0.00    -0.246 OA
BRANCH  16  18
ATOM     18  C   UNL     1       3.334  -5.928  -4.194  1.00  0.00     0.060 A 
ATOM     19  C   UNL     1       3.375  -5.468  -5.514  1.00  0.00     0.016 A 
ATOM     20  C   UNL     1       3.101  -7.273  -3.910  1.00  0.00     0.016 A 
ATOM     21  C   UNL     1       3.164  -6.360  -6.565  1.00  0.00     0.010 A 
ATOM     22  C   UNL     1       2.907  -8.165  -4.963  1.00  0.00     0.010 A 
ATOM     23  C   UNL     1       2.926  -7.713  -6.295  1.00  0.00    -0.014 A 
BRANCH  23  24
ATOM     24  C   UNL     1       2.667  -8.679  -7.387  1.00  0.00     0.031 A 
ATOM     25  C   UNL     1       1.282  -9.219  -7.590  1.00  0.00     0.074 A 
ATOM     26  C   UNL     1       3.684  -9.119  -8.148  1.00  0.00     0.049 A 
ATOM     27  N   UNL     1       0.882 -10.203  -8.352  1.00  0.00    -0.248 NA
ATOM     28  C   UNL     1       0.205  -8.567  -6.827  1.00  0.00     0.031 C 
ATOM     29  C   UNL     1       5.065  -8.641  -8.077  1.00  0.00     0.029 A 
ATOM     30  N   UNL     1       3.713 -10.092  -9.115  1.00  0.00    -0.354 N 
ATOM     31  C   UNL     1      -0.487 -10.306  -8.145  1.00  0.00     0.074 A 
ATOM     32  C   UNL     1      -0.849  -9.288  -7.181  1.00  0.00     0.031 C 
ATOM     33  C   UNL     1       5.812  -9.336  -8.950  1.00  0.00     0.029 A 
ATOM     34  C   UNL     1       4.974 -10.339  -9.600  1.00  0.00     0.049 A 
ATOM     35  H   UNL     1       2.910 -10.566  -9.430  1.00  0.00     0.167 HD
ATOM     36  C   UNL     1      -1.360 -11.177  -8.703  1.00  0.00     0.031 A 
ATOM     37  C   UNL     1       5.412 -11.296 -10.439  1.00  0.00     0.031 A 
ATOM     38  C   UNL     1      -0.996 -12.194  -9.652  1.00  0.00     0.049 A 
ATOM     39  C   UNL     1       4.437 -12.300 -10.988  1.00  0.00     0.074 A 
ATOM     40  C   UNL     1      -1.810 -13.123 -10.278  1.00  0.00     0.029 A 
ATOM     41  N   UNL     1       0.292 -12.417 -10.111  1.00  0.00    -0.354 N 
ATOM     42  N   UNL     1       3.146 -12.395 -10.780  1.00  0.00    -0.248 NA
ATOM     43  C   UNL     1       4.981 -13.333 -11.881  1.00  0.00     0.031 C 
ATOM     44  C   UNL     1      -1.006 -13.934 -11.086  1.00  0.00     0.029 A 
ATOM     45  C   UNL     1       0.300 -13.480 -10.997  1.00  0.00     0.049 A 
ATOM     46  H   UNL     1       1.085 -11.897  -9.845  1.00  0.00     0.167 HD
ATOM     47  C   UNL     1       2.719 -13.477 -11.537  1.00  0.00     0.074 A 
ATOM     48  C   UNL     1       3.887 -14.007 -12.211  1.00  0.00     0.031 C 
ATOM     49  C   UNL     1       1.470 -13.985 -11.665  1.00  0.00     0.031 A 
BRANCH  36  50
ATOM     50  C   UNL     1      -2.794 -11.091  -8.267  1.00  0.00    -0.014 A 
ATOM     51  C   UNL     1      -3.630 -10.058  -8.714  1.00  0.00     0.009 A 
ATOM     52  C   UNL     1      -3.322 -12.079  -7.421  1.00  0.00     0.009 A 
ATOM     53  C   UNL     1      -4.963 -10.001  -8.301  1.00  0.00     0.001 A 
ATOM     54  C   UNL     1      -4.660 -12.031  -7.027  1.00  0.00     0.001 A 
ATOM     55  C   UNL     1      -5.477 -10.989  -7.461  1.00  0.00     0.000 A 
ENDBRANCH  36  50
BRANCH  37  56
ATOM     56  C   UNL     1       6.854 -11.374 -10.783  1.00  0.00    -0.014 A 
ATOM     57  C   UNL     1       7.301 -11.007 -12.060  1.00  0.00     0.009 A 
ATOM     58  C   UNL     1       7.790 -11.810  -9.832  1.00  0.00     0.009 A 
ATOM     59  C   UNL     1       8.657 -11.093 -12.384  1.00  0.00     0.001 A 
ATOM     60  C   UNL     1       9.147 -11.872 -10.151  1.00  0.00     0.001 A 
ATOM     61  C   UNL     1       9.579 -11.520 -11.429  1.00  0.00     0.000 A 
ENDBRANCH  37  56
BRANCH  49  62
ATOM     62  C   UNL     1       1.290 -15.141 -12.605  1.00  0.00    -0.014 A 
ATOM     63  C   UNL     1       1.668 -16.441 -12.241  1.00  0.00     0.009 A 
ATOM     64  C   UNL     1       0.679 -14.929 -13.851  1.00  0.00     0.009 A 
ATOM     65  C   UNL     1       1.455 -17.507 -13.117  1.00  0.00     0.001 A 
ATOM     66  C   UNL     1       0.449 -15.999 -14.716  1.00  0.00     0.001 A 
ATOM     67  C   UNL     1       0.841 -17.286 -14.351  1.00  0.00     0.000 A 
ENDBRANCH  49  62
ENDBRANCH  23  24
ENDBRANCH  16  18
ENDBRANCH  15  16
ENDBRANCH  14  15
ENDBRANCH   1  14
TORSDOF 15
