REMARK SMILES CC[C@@H]1CCCC[C@@H]1OCC[C@@H]1CCC[C@]1([NH2+]C)C(=O)OCCOC(=O)c1ccc(-c2c3nc(c(-c4ccccc4)c4ccc([nH]4)c(-c4ccccc4)c4nc(c(-c5ccccc5)c5ccc2[nH]5)C=C4)C=C3)cc1
REMARK SMILES IDX 21 1 19 2 20 3 16 4 12 5 13 6 14 7 15 8 11 9 10 10 9 11 8 12
REMARK SMILES IDX 3 13 4 14 5 15 7 16 6 17 2 18 1 19 17 20 18 21 22 24 23 25
REMARK SMILES IDX 24 26 25 27 26 28 27 29 28 30 74 31 29 32 73 33 30 34 31 35
REMARK SMILES IDX 32 36 67 37 33 38 72 39 66 40 68 41 34 42 71 43 65 44 64 45
REMARK SMILES IDX 35 47 57 48 42 49 56 50 43 51 46 52 55 53 69 54 44 55 45 56
REMARK SMILES IDX 54 58 70 59 47 60 36 61 37 62 41 63 38 64 40 65 39 66 58 67
REMARK SMILES IDX 59 68 63 69 60 70 62 71 61 72 48 73 49 74 53 75 50 76 52 77
REMARK SMILES IDX 51 78
REMARK H PARENT 17 22 17 23 68 46 46 57
REMARK Flexibility Score: inf
ROOT
ATOM      1  O   UNL     1      -0.282   2.043   1.930  1.00  0.00    -0.457 OA
ENDROOT
BRANCH   1   2
ATOM      2  C   UNL     1       0.813   1.246   1.762  1.00  0.00     0.368 C 
ATOM      3  O   UNL     1       1.367   1.114   0.676  1.00  0.00    -0.245 OA
BRANCH   2   4
ATOM      4  C   UNL     1       1.274   0.547   3.084  1.00  0.00     0.197 C 
ATOM      5  C   UNL     1       0.124   0.432   4.151  1.00  0.00     0.065 C 
ATOM      6  C   UNL     1       0.252   1.757   4.963  1.00  0.00     0.011 C 
ATOM      7  C   UNL     1       1.651   2.311   4.752  1.00  0.00     0.008 C 
ATOM      8  C   UNL     1       2.357   1.317   3.862  1.00  0.00     0.081 C 
BRANCH   5   9
ATOM      9  C   UNL     1      -1.405   0.187   3.866  1.00  0.00     0.039 C 
BRANCH   9  10
ATOM     10  C   UNL     1      -2.013  -0.520   2.635  1.00  0.00     0.161 C 
BRANCH  10  11
ATOM     11  O   UNL     1      -1.928  -1.949   2.555  1.00  0.00    -0.378 OA
BRANCH  11  12
ATOM     12  C   UNL     1      -0.584  -2.394   2.427  1.00  0.00     0.121 C 
ATOM     13  C   UNL     1      -0.278  -3.272   1.193  1.00  0.00     0.018 C 
ATOM     14  C   UNL     1      -0.601  -4.752   1.421  1.00  0.00     0.006 C 
ATOM     15  C   UNL     1       0.018  -5.260   2.717  1.00  0.00     0.000 C 
ATOM     16  C   UNL     1      -0.171  -3.011   3.771  1.00  0.00     0.032 C 
ATOM     17  C   UNL     1      -0.537  -4.482   3.897  1.00  0.00     0.003 C 
BRANCH  13  18
ATOM     18  C   UNL     1      -0.923  -2.782  -0.120  1.00  0.00     0.003 C 
ATOM     19  C   UNL     1      -0.313  -1.496  -0.663  1.00  0.00     0.004 C 
ENDBRANCH  13  18
ENDBRANCH  11  12
ENDBRANCH  10  11
ENDBRANCH   9  10
ENDBRANCH   5   9
BRANCH   4  20
ATOM     20  N   UNL     1       1.909  -0.784   2.810  1.00  0.00    -0.334 N 
ATOM     21  C   UNL     1       3.010  -0.841   1.855  1.00  0.00     0.331 C 
ATOM     22  H   UNL     1       1.176  -1.403   2.463  1.00  0.00     0.347 HD
ATOM     23  H   UNL     1       2.333  -1.048   3.700  1.00  0.00     0.347 HD
ENDBRANCH   4  20
ENDBRANCH   2   4
ENDBRANCH   1   2
BRANCH   1  24
ATOM     24  C   UNL     1      -0.912   2.520   0.717  1.00  0.00     0.274 C 
BRANCH  24  25
ATOM     25  C   UNL     1      -0.749   4.027   0.564  1.00  0.00     0.275 C 
BRANCH  25  26
ATOM     26  O   UNL     1       0.650   4.340   0.549  1.00  0.00    -0.458 OA
BRANCH  26  27
ATOM     27  C   UNL     1       1.093   5.114   1.566  1.00  0.00     0.338 C 
ATOM     28  O   UNL     1       0.424   5.733   2.374  1.00  0.00    -0.246 OA
BRANCH  27  29
ATOM     29  C   UNL     1       2.565   5.026   1.641  1.00  0.00     0.060 A 
ATOM     30  C   UNL     1       3.183   3.792   1.472  1.00  0.00     0.016 A 
ATOM     31  C   UNL     1       3.319   6.122   2.050  1.00  0.00     0.016 A 
ATOM     32  C   UNL     1       4.505   3.607   1.852  1.00  0.00     0.010 A 
ATOM     33  C   UNL     1       4.687   5.963   2.298  1.00  0.00     0.010 A 
ATOM     34  C   UNL     1       5.287   4.690   2.254  1.00  0.00    -0.014 A 
BRANCH  34  35
ATOM     35  C   UNL     1       6.692   4.482   2.699  1.00  0.00     0.031 A 
ATOM     36  C   UNL     1       7.133   5.024   4.032  1.00  0.00     0.074 A 
ATOM     37  C   UNL     1       7.573   3.781   1.955  1.00  0.00     0.049 A 
ATOM     38  N   UNL     1       8.342   5.262   4.467  1.00  0.00    -0.248 NA
ATOM     39  C   UNL     1       6.069   5.362   4.993  1.00  0.00     0.031 C 
ATOM     40  C   UNL     1       7.278   3.083   0.701  1.00  0.00     0.029 A 
ATOM     41  N   UNL     1       8.907   3.528   2.162  1.00  0.00    -0.354 N 
ATOM     42  C   UNL     1       8.181   5.877   5.704  1.00  0.00     0.074 A 
ATOM     43  C   UNL     1       6.760   5.938   5.967  1.00  0.00     0.031 C 
ATOM     44  C   UNL     1       8.374   2.429   0.289  1.00  0.00     0.029 A 
ATOM     45  C   UNL     1       9.484   2.783   1.161  1.00  0.00     0.049 A 
ATOM     46  H   UNL     1       9.401   3.849   2.950  1.00  0.00     0.167 HD
ATOM     47  C   UNL     1       9.139   6.370   6.523  1.00  0.00     0.031 A 
ATOM     48  C   UNL     1      10.774   2.485   0.920  1.00  0.00     0.031 A 
ATOM     49  C   UNL     1      10.549   6.238   6.272  1.00  0.00     0.049 A 
ATOM     50  C   UNL     1      11.826   3.077   1.810  1.00  0.00     0.074 A 
ATOM     51  C   UNL     1      11.612   6.731   7.007  1.00  0.00     0.029 A 
ATOM     52  N   UNL     1      11.089   5.526   5.212  1.00  0.00    -0.354 N 
ATOM     53  N   UNL     1      11.677   3.812   2.885  1.00  0.00    -0.248 NA
ATOM     54  C   UNL     1      13.223   2.840   1.424  1.00  0.00     0.031 C 
ATOM     55  C   UNL     1      12.798   6.336   6.375  1.00  0.00     0.029 A 
ATOM     56  C   UNL     1      12.470   5.565   5.271  1.00  0.00     0.049 A 
ATOM     57  H   UNL     1      10.566   5.061   4.520  1.00  0.00     0.167 HD
ATOM     58  C   UNL     1      12.960   4.137   3.299  1.00  0.00     0.074 A 
ATOM     59  C   UNL     1      13.874   3.490   2.378  1.00  0.00     0.031 C 
ATOM     60  C   UNL     1      13.351   4.915   4.337  1.00  0.00     0.031 A 
BRANCH  47  61
ATOM     61  C   UNL     1       8.687   7.165   7.714  1.00  0.00    -0.014 A 
ATOM     62  C   UNL     1       8.140   6.557   8.853  1.00  0.00     0.009 A 
ATOM     63  C   UNL     1       8.819   8.564   7.687  1.00  0.00     0.009 A 
ATOM     64  C   UNL     1       7.706   7.338   9.929  1.00  0.00     0.001 A 
ATOM     65  C   UNL     1       8.407   9.339   8.772  1.00  0.00     0.001 A 
ATOM     66  C   UNL     1       7.842   8.726   9.888  1.00  0.00     0.000 A 
ENDBRANCH  47  61
BRANCH  48  67
ATOM     67  C   UNL     1      11.139   1.685  -0.279  1.00  0.00    -0.014 A 
ATOM     68  C   UNL     1      11.655   0.388  -0.142  1.00  0.00     0.009 A 
ATOM     69  C   UNL     1      10.951   2.206  -1.570  1.00  0.00     0.009 A 
ATOM     70  C   UNL     1      11.977  -0.367  -1.273  1.00  0.00     0.001 A 
ATOM     71  C   UNL     1      11.242   1.438  -2.698  1.00  0.00     0.001 A 
ATOM     72  C   UNL     1      11.760   0.154  -2.549  1.00  0.00     0.000 A 
ENDBRANCH  48  67
BRANCH  60  73
ATOM     73  C   UNL     1      14.826   5.083   4.533  1.00  0.00    -0.014 A 
ATOM     74  C   UNL     1      15.567   5.952   3.716  1.00  0.00     0.009 A 
ATOM     75  C   UNL     1      15.476   4.383   5.559  1.00  0.00     0.009 A 
ATOM     76  C   UNL     1      16.941   6.094   3.909  1.00  0.00     0.001 A 
ATOM     77  C   UNL     1      16.847   4.543   5.762  1.00  0.00     0.001 A 
ATOM     78  C   UNL     1      17.579   5.392   4.932  1.00  0.00     0.000 A 
ENDBRANCH  60  73
ENDBRANCH  34  35
ENDBRANCH  27  29
ENDBRANCH  26  27
ENDBRANCH  25  26
ENDBRANCH  24  25
ENDBRANCH   1  24
TORSDOF 17
