REMARK SMILES CN(C)S(=O)(=O)c1ccc(-n2c(CCC(=O)OCCOC(=O)c3ccc(-c4c5nc(c(-c6ccccc6)c6ccc([nH]6)c(-c6ccccc6)c6nc(c(-c7ccccc7)c7ccc4[nH]7)C=C6)C=C5)cc3)ccc2-c2ccc(F)cc2)cc1
REMARK SMILES IDX 17 1 15 2 16 3 14 4 13 5 12 6 11 7 73 8 71 9 72 10 10 11
REMARK SMILES IDX 7 12 8 13 82 14 9 15 81 16 4 17 5 18 6 19 2 20 1 21 3 22
REMARK SMILES IDX 74 23 75 24 80 25 76 26 79 27 77 28 78 29 18 30 19 31 20 32
REMARK SMILES IDX 21 33 22 34 23 35 24 36 70 37 25 38 69 39 26 40 27 41 28 42
REMARK SMILES IDX 63 43 29 44 68 45 62 46 64 47 30 48 67 49 61 50 60 51 31 53
REMARK SMILES IDX 53 54 38 55 52 56 39 57 42 58 51 59 65 60 40 61 41 62 50 64
REMARK SMILES IDX 66 65 43 66 32 67 33 68 37 69 34 70 36 71 35 72 54 73 55 74
REMARK SMILES IDX 59 75 56 76 58 77 57 78 44 79 45 80 49 81 46 82 48 83 47 84
REMARK H PARENT 64 52 42 63
REMARK Flexibility Score: inf
ROOT
ATOM      1  O   UNL     1       2.016  -7.197  -3.413  1.00  0.00    -0.462 OA
ENDROOT
BRANCH   1   2
ATOM      2  C   UNL     1       2.697  -7.874  -2.444  1.00  0.00     0.306 C 
ATOM      3  O   UNL     1       3.771  -7.502  -1.981  1.00  0.00    -0.252 OA
BRANCH   2   4
ATOM      4  C   UNL     1       1.971  -9.105  -1.907  1.00  0.00     0.129 C 
BRANCH   4   5
ATOM      5  C   UNL     1       0.513  -8.971  -1.439  1.00  0.00     0.066 C 
BRANCH   5   6
ATOM      6  C   UNL     1      -0.442  -8.816  -2.568  1.00  0.00     0.024 A 
ATOM      7  N   UNL     1      -0.735  -7.634  -3.246  1.00  0.00    -0.314 N 
ATOM      8  C   UNL     1      -1.359  -8.013  -4.449  1.00  0.00     0.053 A 
ATOM      9  C   UNL     1      -1.179  -9.835  -3.147  1.00  0.00     0.024 A 
ATOM     10  C   UNL     1      -1.753  -9.333  -4.322  1.00  0.00     0.029 A 
BRANCH   7  11
ATOM     11  C   UNL     1      -0.384  -6.295  -2.878  1.00  0.00     0.046 A 
ATOM     12  C   UNL     1       0.420  -2.831  -2.144  1.00  0.00     0.082 A 
ATOM     13  C   UNL     1      -0.776  -3.223  -3.414  1.00  0.00     0.024 A 
ATOM     14  C   UNL     1       1.257  -4.138  -1.242  1.00  0.00     0.024 A 
ATOM     15  C   UNL     1      -1.198  -4.937  -3.784  1.00  0.00     0.028 A 
ATOM     16  C   UNL     1       0.817  -5.872  -1.548  1.00  0.00     0.028 A 
BRANCH  12  17
ATOM     17  S   UNL     1       1.004  -1.165  -1.995  1.00  0.00     0.242 S 
ATOM     18  O   UNL     1       0.504  -0.425  -3.135  1.00  0.00    -0.207 OA
ATOM     19  O   UNL     1       2.423  -1.275  -1.736  1.00  0.00    -0.207 OA
BRANCH  17  20
ATOM     20  N   UNL     1       0.232  -0.556  -0.595  1.00  0.00    -0.204 NA
ATOM     21  C   UNL     1       1.012   0.492   0.111  1.00  0.00     0.124 C 
ATOM     22  C   UNL     1      -1.169  -0.107  -0.789  1.00  0.00     0.124 C 
ENDBRANCH  17  20
ENDBRANCH  12  17
ENDBRANCH   7  11
BRANCH   8  23
ATOM     23  C   UNL     1      -1.418  -7.233  -5.690  1.00  0.00    -0.001 A 
ATOM     24  C   UNL     1      -2.649  -6.905  -6.278  1.00  0.00     0.013 A 
ATOM     25  C   UNL     1      -0.229  -6.831  -6.319  1.00  0.00     0.013 A 
ATOM     26  C   UNL     1      -2.686  -6.139  -7.446  1.00  0.00     0.040 A 
ATOM     27  C   UNL     1      -0.268  -6.064  -7.484  1.00  0.00     0.040 A 
ATOM     28  C   UNL     1      -1.496  -5.723  -8.034  1.00  0.00     0.123 A 
ATOM     29  F   UNL     1      -1.534  -4.983  -9.150  1.00  0.00    -0.207 F 
ENDBRANCH   8  23
ENDBRANCH   5   6
ENDBRANCH   4   5
ENDBRANCH   2   4
ENDBRANCH   1   2
BRANCH   1  30
ATOM     30  C   UNL     1       2.289  -5.770  -3.526  1.00  0.00     0.274 C 
BRANCH  30  31
ATOM     31  C   UNL     1       0.993  -4.689  -3.452  1.00  0.00     0.275 C 
BRANCH  31  32
ATOM     32  O   UNL     1      -0.444  -4.567  -2.025  1.00  0.00    -0.458 OA
BRANCH  32  33
ATOM     33  C   UNL     1      -1.656  -4.804  -1.369  1.00  0.00     0.338 C 
ATOM     34  O   UNL     1      -2.703  -5.301  -1.788  1.00  0.00    -0.246 OA
BRANCH  33  35
ATOM     35  C   UNL     1      -1.571  -4.585   0.066  1.00  0.00     0.060 A 
ATOM     36  C   UNL     1      -1.703  -5.713   0.889  1.00  0.00     0.016 A 
ATOM     37  C   UNL     1      -1.974  -3.320   0.448  1.00  0.00     0.016 A 
ATOM     38  C   UNL     1      -2.426  -5.588   2.057  1.00  0.00     0.010 A 
ATOM     39  C   UNL     1      -2.755  -3.206   1.565  1.00  0.00     0.010 A 
ATOM     40  C   UNL     1      -3.021  -4.353   2.328  1.00  0.00    -0.014 A 
BRANCH  40  41
ATOM     41  C   UNL     1      -3.928  -4.192   3.465  1.00  0.00     0.031 A 
ATOM     42  C   UNL     1      -3.261  -3.456   4.615  1.00  0.00     0.074 A 
ATOM     43  C   UNL     1      -5.212  -4.605   3.261  1.00  0.00     0.049 A 
ATOM     44  N   UNL     1      -3.772  -3.046   5.729  1.00  0.00    -0.248 NA
ATOM     45  C   UNL     1      -1.829  -3.058   4.487  1.00  0.00     0.031 C 
ATOM     46  C   UNL     1      -5.706  -5.279   2.036  1.00  0.00     0.029 A 
ATOM     47  N   UNL     1      -6.357  -4.538   4.022  1.00  0.00    -0.354 N 
ATOM     48  C   UNL     1      -2.820  -2.205   6.330  1.00  0.00     0.074 A 
ATOM     49  C   UNL     1      -1.635  -2.256   5.531  1.00  0.00     0.031 C 
ATOM     50  C   UNL     1      -7.002  -5.628   2.172  1.00  0.00     0.029 A 
ATOM     51  C   UNL     1      -7.487  -5.176   3.460  1.00  0.00     0.049 A 
ATOM     52  H   UNL     1      -6.387  -4.081   4.893  1.00  0.00     0.167 HD
ATOM     53  C   UNL     1      -3.088  -1.442   7.420  1.00  0.00     0.031 A 
ATOM     54  C   UNL     1      -8.729  -5.344   4.001  1.00  0.00     0.031 A 
ATOM     55  C   UNL     1      -4.311  -1.829   8.031  1.00  0.00     0.049 A 
ATOM     56  C   UNL     1      -8.767  -4.513   5.213  1.00  0.00     0.074 A 
ATOM     57  C   UNL     1      -4.666  -2.947   8.743  1.00  0.00     0.029 A 
ATOM     58  N   UNL     1      -5.450  -1.169   7.651  1.00  0.00    -0.354 N 
ATOM     59  N   UNL     1      -8.861  -3.219   5.215  1.00  0.00    -0.248 NA
ATOM     60  C   UNL     1      -8.647  -5.154   6.525  1.00  0.00     0.031 C 
ATOM     61  C   UNL     1      -6.025  -3.155   8.419  1.00  0.00     0.029 A 
ATOM     62  C   UNL     1      -6.458  -2.107   7.604  1.00  0.00     0.049 A 
ATOM     63  H   UNL     1      -5.533  -0.209   7.450  1.00  0.00     0.167 HD
ATOM     64  C   UNL     1      -8.425  -2.889   6.474  1.00  0.00     0.074 A 
ATOM     65  C   UNL     1      -8.611  -4.066   7.292  1.00  0.00     0.031 C 
ATOM     66  C   UNL     1      -7.506  -1.903   6.633  1.00  0.00     0.031 A 
BRANCH  53  67
ATOM     67  C   UNL     1      -2.362  -0.239   7.922  1.00  0.00    -0.014 A 
ATOM     68  C   UNL     1      -2.575   0.147   9.261  1.00  0.00     0.009 A 
ATOM     69  C   UNL     1      -1.736   0.681   7.069  1.00  0.00     0.009 A 
ATOM     70  C   UNL     1      -2.253   1.427   9.711  1.00  0.00     0.001 A 
ATOM     71  C   UNL     1      -1.384   1.956   7.530  1.00  0.00     0.001 A 
ATOM     72  C   UNL     1      -1.669   2.337   8.840  1.00  0.00     0.000 A 
ENDBRANCH  53  67
BRANCH  54  73
ATOM     73  C   UNL     1      -9.973  -6.130   3.698  1.00  0.00    -0.014 A 
ATOM     74  C   UNL     1     -10.168  -6.961   2.591  1.00  0.00     0.009 A 
ATOM     75  C   UNL     1     -11.026  -6.122   4.653  1.00  0.00     0.009 A 
ATOM     76  C   UNL     1     -11.309  -7.783   2.488  1.00  0.00     0.001 A 
ATOM     77  C   UNL     1     -12.139  -6.963   4.577  1.00  0.00     0.001 A 
ATOM     78  C   UNL     1     -12.275  -7.807   3.492  1.00  0.00     0.000 A 
ENDBRANCH  54  73
BRANCH  66  79
ATOM     79  C   UNL     1      -7.410  -0.935   5.468  1.00  0.00    -0.014 A 
ATOM     80  C   UNL     1      -8.469  -0.060   5.189  1.00  0.00     0.009 A 
ATOM     81  C   UNL     1      -6.325  -0.950   4.573  1.00  0.00     0.009 A 
ATOM     82  C   UNL     1      -8.444   0.764   4.056  1.00  0.00     0.001 A 
ATOM     83  C   UNL     1      -6.294  -0.124   3.443  1.00  0.00     0.001 A 
ATOM     84  C   UNL     1      -7.358   0.733   3.184  1.00  0.00     0.000 A 
ENDBRANCH  66  79
ENDBRANCH  40  41
ENDBRANCH  33  35
ENDBRANCH  32  33
ENDBRANCH  31  32
ENDBRANCH  30  31
ENDBRANCH   1  30
TORSDOF 17
