REMARK SMILES O=C(OCCOC(=O)c1ccc(-c2c3nc(c(-c4ccccc4)c4ccc([nH]4)c(-c4ccccc4)c4nc(c(-c5ccccc5)c5ccc2[nH]5)C=C4)C=C3)cc1)C1=Cc2ccc(Cl)c(Cl)c2O[C@@H]1C(F)(F)F
REMARK SMILES IDX 5 1 4 2 3 3 2 4 1 5 57 6 58 7 68 8 59 9 67 10 60 11 66 12
REMARK SMILES IDX 61 13 64 14 62 15 65 16 63 17 69 18 70 19 71 20 72 21 6 22
REMARK SMILES IDX 7 23 8 24 9 25 10 26 56 27 11 28 55 29 12 30 13 31 14 32
REMARK SMILES IDX 49 33 15 34 54 35 48 36 50 37 16 38 53 39 47 40 46 41 17 43
REMARK SMILES IDX 39 44 24 45 38 46 25 47 28 48 37 49 51 50 26 51 27 52 36 54
REMARK SMILES IDX 52 55 29 56 18 57 19 58 23 59 20 60 22 61 21 62 40 63 41 64
REMARK SMILES IDX 45 65 42 66 44 67 43 68 30 69 31 70 35 71 32 72 34 73 33 74
REMARK H PARENT 50 42 28 53
REMARK Flexibility Score: inf
ROOT
ATOM      1  C   UNL     1       4.706   0.605  -0.783  1.00  0.00     0.275 C 
ENDROOT
BRANCH   1   2
ATOM      2  C   UNL     1       3.901  -0.190   1.062  1.00  0.00     0.275 C 
BRANCH   2   3
ATOM      3  O   UNL     1       3.025   0.572   2.093  1.00  0.00    -0.459 OA
BRANCH   3   4
ATOM      4  C   UNL     1       3.249   1.892   2.096  1.00  0.00     0.338 C 
ATOM      5  O   UNL     1       2.630   2.776   2.632  1.00  0.00    -0.246 OA
BRANCH   4   6
ATOM      6  C   UNL     1       4.111   1.879   0.936  1.00  0.00     0.087 C 
ATOM      7  C   UNL     1       5.467   1.446   1.219  1.00  0.00     0.027 C 
ATOM      8  C   UNL     1       2.850   0.980  -0.205  1.00  0.00     0.316 C 
ATOM      9  C   UNL     1       6.110  -0.141   0.709  1.00  0.00     0.019 A 
ATOM     10  O   UNL     1       3.490  -0.784  -0.694  1.00  0.00    -0.474 OA
ATOM     11  C   UNL     1       7.333  -0.496   1.204  1.00  0.00     0.013 A 
ATOM     12  C   UNL     1       5.151  -1.323  -0.128  1.00  0.00     0.148 A 
ATOM     13  C   UNL     1       7.677  -1.837   0.995  1.00  0.00     0.023 A 
ATOM     14  C   UNL     1       5.570  -2.621  -0.280  1.00  0.00     0.102 A 
ATOM     15  C   UNL     1       6.851  -2.841   0.313  1.00  0.00     0.063 A 
ATOM     16  Cl  UNL     1       4.633  -3.837  -1.013  1.00  0.00    -0.079 Cl
ATOM     17  Cl  UNL     1       7.566  -4.433   0.317  1.00  0.00    -0.083 Cl
BRANCH   8  18
ATOM     18  C   UNL     1       2.519   2.337  -0.996  1.00  0.00     0.430 C 
ATOM     19  F   UNL     1       1.249   2.369  -1.408  1.00  0.00    -0.167 F 
ATOM     20  F   UNL     1       2.574   3.393  -0.121  1.00  0.00    -0.167 F 
ATOM     21  F   UNL     1       3.360   2.740  -1.966  1.00  0.00    -0.167 F 
ENDBRANCH   8  18
ENDBRANCH   4   6
ENDBRANCH   3   4
ENDBRANCH   2   3
ENDBRANCH   1   2
BRANCH   1  22
ATOM     22  O   UNL     1       3.838   0.620  -2.314  1.00  0.00    -0.458 OA
BRANCH  22  23
ATOM     23  C   UNL     1       2.857  -0.035  -3.037  1.00  0.00     0.338 C 
ATOM     24  O   UNL     1       2.372  -1.138  -2.860  1.00  0.00    -0.246 OA
BRANCH  23  25
ATOM     25  C   UNL     1       2.146   1.011  -3.852  1.00  0.00     0.060 A 
ATOM     26  C   UNL     1       0.802   1.314  -3.551  1.00  0.00     0.016 A 
ATOM     27  C   UNL     1       2.893   1.914  -4.602  1.00  0.00     0.016 A 
ATOM     28  C   UNL     1       0.319   2.628  -3.748  1.00  0.00     0.010 A 
ATOM     29  C   UNL     1       2.403   3.209  -4.809  1.00  0.00     0.010 A 
ATOM     30  C   UNL     1       1.159   3.613  -4.289  1.00  0.00    -0.014 A 
BRANCH  30  31
ATOM     31  C   UNL     1       0.723   5.027  -4.498  1.00  0.00     0.031 A 
ATOM     32  C   UNL     1       0.078   5.326  -5.816  1.00  0.00     0.074 A 
ATOM     33  C   UNL     1       0.983   6.043  -3.641  1.00  0.00     0.049 A 
ATOM     34  N   UNL     1      -0.250   6.475  -6.343  1.00  0.00    -0.248 NA
ATOM     35  C   UNL     1      -0.199   4.158  -6.668  1.00  0.00     0.031 C 
ATOM     36  C   UNL     1       1.594   5.924  -2.318  1.00  0.00     0.029 A 
ATOM     37  N   UNL     1       0.780   7.404  -3.775  1.00  0.00    -0.354 N 
ATOM     38  C   UNL     1      -0.756   6.166  -7.596  1.00  0.00     0.074 A 
ATOM     39  C   UNL     1      -0.652   4.735  -7.766  1.00  0.00     0.031 C 
ATOM     40  C   UNL     1       1.730   7.150  -1.772  1.00  0.00     0.029 A 
ATOM     41  C   UNL     1       1.243   8.157  -2.713  1.00  0.00     0.049 A 
ATOM     42  H   UNL     1       0.343   7.803  -4.561  1.00  0.00     0.167 HD
ATOM     43  C   UNL     1      -1.273   6.994  -8.529  1.00  0.00     0.031 A 
ATOM     44  C   UNL     1       1.282   9.498  -2.532  1.00  0.00     0.031 A 
ATOM     45  C   UNL     1      -1.360   8.416  -8.391  1.00  0.00     0.049 A 
ATOM     46  C   UNL     1       0.760  10.408  -3.627  1.00  0.00     0.074 A 
ATOM     47  C   UNL     1      -1.891   9.332  -9.279  1.00  0.00     0.029 A 
ATOM     48  N   UNL     1      -0.889   9.130  -7.302  1.00  0.00    -0.354 N 
ATOM     49  N   UNL     1       0.201  10.093  -4.772  1.00  0.00    -0.248 NA
ATOM     50  C   UNL     1       0.872  11.861  -3.404  1.00  0.00     0.031 C 
ATOM     51  C   UNL     1      -1.689  10.610  -8.753  1.00  0.00     0.029 A 
ATOM     52  C   UNL     1      -1.089  10.482  -7.510  1.00  0.00     0.049 A 
ATOM     53  H   UNL     1      -0.475   8.734  -6.501  1.00  0.00     0.167 HD
ATOM     54  C   UNL     1      -0.133  11.300  -5.380  1.00  0.00     0.074 A 
ATOM     55  C   UNL     1       0.263  12.354  -4.473  1.00  0.00     0.031 C 
ATOM     56  C   UNL     1      -0.710  11.518  -6.587  1.00  0.00     0.031 A 
BRANCH  43  57
ATOM     57  C   UNL     1      -1.755   6.353  -9.794  1.00  0.00    -0.014 A 
ATOM     58  C   UNL     1      -2.908   5.552  -9.803  1.00  0.00     0.009 A 
ATOM     59  C   UNL     1      -1.031   6.529 -10.982  1.00  0.00     0.009 A 
ATOM     60  C   UNL     1      -3.304   4.903 -10.971  1.00  0.00     0.001 A 
ATOM     61  C   UNL     1      -1.449   5.904 -12.156  1.00  0.00     0.001 A 
ATOM     62  C   UNL     1      -2.576   5.083 -12.147  1.00  0.00     0.000 A 
ENDBRANCH  43  57
BRANCH  44  63
ATOM     63  C   UNL     1       1.853  10.122  -1.295  1.00  0.00    -0.014 A 
ATOM     64  C   UNL     1       1.042  10.890  -0.439  1.00  0.00     0.009 A 
ATOM     65  C   UNL     1       3.232  10.074  -1.033  1.00  0.00     0.009 A 
ATOM     66  C   UNL     1       1.600  11.634   0.608  1.00  0.00     0.001 A 
ATOM     67  C   UNL     1       3.784  10.792   0.036  1.00  0.00     0.001 A 
ATOM     68  C   UNL     1       2.971  11.585   0.845  1.00  0.00     0.000 A 
ENDBRANCH  44  63
BRANCH  56  69
ATOM     69  C   UNL     1      -0.992  12.938  -6.990  1.00  0.00    -0.014 A 
ATOM     70  C   UNL     1       0.042  13.813  -7.356  1.00  0.00     0.009 A 
ATOM     71  C   UNL     1      -2.322  13.376  -7.099  1.00  0.00     0.009 A 
ATOM     72  C   UNL     1      -0.251  15.103  -7.804  1.00  0.00     0.001 A 
ATOM     73  C   UNL     1      -2.613  14.653  -7.579  1.00  0.00     0.001 A 
ATOM     74  C   UNL     1      -1.577  15.518  -7.925  1.00  0.00     0.000 A 
ENDBRANCH  56  69
ENDBRANCH  30  31
ENDBRANCH  23  25
ENDBRANCH  22  23
ENDBRANCH   1  22
TORSDOF 12
