REMARK SMILES CC1=C(C(=O)OCCOC(=O)c2ccc(-c3c4nc(c(-c5ccccc5)c5ccc([nH]5)c(-c5ccccc5)c5nc(c(-c6ccccc6)c6ccc3[nH]6)C=C5)C=C4)cc2)N2C(=O)[C@@H](NC(=O)c3ccn(C)n3)[C@H]2SC1
REMARK SMILES IDX 7 1 6 2 4 3 5 4 3 5 1 6 2 7 75 8 60 9 74 10 61 11 73 12
REMARK SMILES IDX 62 13 63 14 64 15 65 16 66 18 67 19 68 20 72 21 69 22 70 23
REMARK SMILES IDX 71 24 8 25 9 26 10 27 11 28 12 29 13 30 59 31 14 32 58 33
REMARK SMILES IDX 15 34 16 35 17 36 52 37 18 38 57 39 51 40 53 41 19 42 56 43
REMARK SMILES IDX 50 44 49 45 20 47 42 48 27 49 41 50 28 51 31 52 40 53 54 54
REMARK SMILES IDX 29 55 30 56 39 58 55 59 32 60 21 61 22 62 26 63 23 64 25 65
REMARK SMILES IDX 24 66 43 67 44 68 48 69 45 70 47 71 46 72 33 73 34 74 38 75
REMARK SMILES IDX 35 76 37 77 36 78
REMARK H PARENT 64 17 53 46 31 57
REMARK Flexibility Score: inf
ROOT
ATOM      1  C   UNL     1       1.396  -4.663   0.324  1.00  0.00     0.275 C 
ENDROOT
BRANCH   1   2
ATOM      2  O   UNL     1       1.437  -3.233   0.525  1.00  0.00    -0.457 OA
BRANCH   2   3
ATOM      3  C   UNL     1       0.824  -2.499  -0.435  1.00  0.00     0.355 C 
ATOM      4  O   UNL     1       0.203  -2.943  -1.395  1.00  0.00    -0.244 OA
BRANCH   3   5
ATOM      5  C   UNL     1       1.002  -1.023  -0.249  1.00  0.00     0.131 C 
ATOM      6  C   UNL     1       3.513  -1.173  -0.056  1.00  0.00     0.043 C 
ATOM      7  C   UNL     1       2.205  -0.422  -0.115  1.00  0.00    -0.032 C 
ATOM      8  C   UNL     1       2.397   1.081  -0.035  1.00  0.00     0.105 C 
ATOM      9  N   UNL     1      -0.118  -0.289  -0.491  1.00  0.00    -0.289 N 
ATOM     10  S   UNL     1       0.891   2.080   0.130  1.00  0.00    -0.129 SA
ATOM     11  C   UNL     1      -1.267  -0.149   0.219  1.00  0.00     0.253 C 
ATOM     12  C   UNL     1      -0.116   1.069  -1.001  1.00  0.00     0.181 C 
ATOM     13  O   UNL     1      -1.686  -0.683   1.215  1.00  0.00    -0.272 OA
ATOM     14  C   UNL     1      -1.661   1.036  -0.722  1.00  0.00     0.206 C 
BRANCH  14  15
ATOM     15  N   UNL     1      -2.279   2.227  -0.109  1.00  0.00    -0.336 N 
ATOM     16  C   UNL     1      -3.245   3.052  -0.652  1.00  0.00     0.272 C 
ATOM     17  H   UNL     1      -1.966   2.462   0.795  1.00  0.00     0.164 HD
ATOM     18  O   UNL     1      -3.538   4.089  -0.059  1.00  0.00    -0.267 OA
BRANCH  16  19
ATOM     19  C   UNL     1      -3.880   2.649  -1.916  1.00  0.00     0.150 A 
ATOM     20  C   UNL     1      -4.637   1.472  -2.171  1.00  0.00     0.056 A 
ATOM     21  N   UNL     1      -3.811   3.412  -3.025  1.00  0.00    -0.168 NA
ATOM     22  C   UNL     1      -5.035   1.562  -3.483  1.00  0.00     0.109 A 
ATOM     23  N   UNL     1      -4.574   2.765  -3.924  1.00  0.00    -0.275 N 
ATOM     24  C   UNL     1      -4.841   3.364  -5.210  1.00  0.00     0.173 C 
ENDBRANCH  16  19
ENDBRANCH  14  15
ENDBRANCH   3   5
ENDBRANCH   2   3
ENDBRANCH   1   2
BRANCH   1  25
ATOM     25  C   UNL     1       0.349  -5.314   1.221  1.00  0.00     0.275 C 
BRANCH  25  26
ATOM     26  O   UNL     1      -0.949  -4.831   0.846  1.00  0.00    -0.458 OA
BRANCH  26  27
ATOM     27  C   UNL     1      -1.709  -4.330   1.848  1.00  0.00     0.338 C 
ATOM     28  O   UNL     1      -1.455  -4.350   3.041  1.00  0.00    -0.246 OA
BRANCH  27  29
ATOM     29  C   UNL     1      -2.951  -3.757   1.287  1.00  0.00     0.060 A 
ATOM     30  C   UNL     1      -2.929  -3.042   0.091  1.00  0.00     0.016 A 
ATOM     31  C   UNL     1      -4.132  -3.835   2.024  1.00  0.00     0.016 A 
ATOM     32  C   UNL     1      -4.041  -2.295  -0.294  1.00  0.00     0.010 A 
ATOM     33  C   UNL     1      -5.283  -3.181   1.569  1.00  0.00     0.010 A 
ATOM     34  C   UNL     1      -5.241  -2.357   0.431  1.00  0.00    -0.014 A 
BRANCH  34  35
ATOM     35  C   UNL     1      -6.418  -1.525   0.040  1.00  0.00     0.031 A 
ATOM     36  C   UNL     1      -7.076  -0.607   1.043  1.00  0.00     0.074 A 
ATOM     37  C   UNL     1      -6.889  -1.543  -1.224  1.00  0.00     0.049 A 
ATOM     38  N   UNL     1      -8.217   0.031   0.953  1.00  0.00    -0.248 NA
ATOM     39  C   UNL     1      -6.372  -0.391   2.317  1.00  0.00     0.031 C 
ATOM     40  C   UNL     1      -6.327  -2.314  -2.334  1.00  0.00     0.029 A 
ATOM     41  N   UNL     1      -7.931  -0.855  -1.798  1.00  0.00    -0.354 N 
ATOM     42  C   UNL     1      -8.414   0.636   2.190  1.00  0.00     0.074 A 
ATOM     43  C   UNL     1      -7.262   0.313   3.003  1.00  0.00     0.031 C 
ATOM     44  C   UNL     1      -6.962  -1.982  -3.467  1.00  0.00     0.029 A 
ATOM     45  C   UNL     1      -8.057  -1.073  -3.149  1.00  0.00     0.049 A 
ATOM     46  H   UNL     1      -8.530  -0.262  -1.290  1.00  0.00     0.167 HD
ATOM     47  C   UNL     1      -9.468   1.375   2.615  1.00  0.00     0.031 A 
ATOM     48  C   UNL     1      -8.969  -0.628  -4.033  1.00  0.00     0.031 A 
ATOM     49  C   UNL     1     -10.576   1.767   1.783  1.00  0.00     0.049 A 
ATOM     50  C   UNL     1     -10.128   0.189  -3.546  1.00  0.00     0.074 A 
ATOM     51  C   UNL     1     -11.691   2.516   2.125  1.00  0.00     0.029 A 
ATOM     52  N   UNL     1     -10.692   1.474   0.435  1.00  0.00    -0.354 N 
ATOM     53  N   UNL     1     -10.364   0.649  -2.342  1.00  0.00    -0.248 NA
ATOM     54  C   UNL     1     -11.169   0.510  -4.533  1.00  0.00     0.031 C 
ATOM     55  C   UNL     1     -12.499   2.643   0.989  1.00  0.00     0.029 A 
ATOM     56  C   UNL     1     -11.864   2.013  -0.068  1.00  0.00     0.049 A 
ATOM     57  H   UNL     1     -10.037   0.958  -0.089  1.00  0.00     0.167 HD
ATOM     58  C   UNL     1     -11.586   1.304  -2.423  1.00  0.00     0.074 A 
ATOM     59  C   UNL     1     -12.022   1.215  -3.802  1.00  0.00     0.031 C 
ATOM     60  C   UNL     1     -12.292   1.908  -1.437  1.00  0.00     0.031 A 
BRANCH  47  61
ATOM     61  C   UNL     1      -9.511   1.754   4.070  1.00  0.00    -0.014 A 
ATOM     62  C   UNL     1      -8.688   2.754   4.606  1.00  0.00     0.009 A 
ATOM     63  C   UNL     1     -10.434   1.109   4.912  1.00  0.00     0.009 A 
ATOM     64  C   UNL     1      -8.766   3.077   5.964  1.00  0.00     0.001 A 
ATOM     65  C   UNL     1     -10.528   1.453   6.261  1.00  0.00     0.001 A 
ATOM     66  C   UNL     1      -9.687   2.431   6.788  1.00  0.00     0.000 A 
ENDBRANCH  47  61
BRANCH  48  67
ATOM     67  C   UNL     1      -8.849  -0.994  -5.468  1.00  0.00    -0.014 A 
ATOM     68  C   UNL     1      -8.535  -0.015  -6.423  1.00  0.00     0.009 A 
ATOM     69  C   UNL     1      -9.029  -2.321  -5.890  1.00  0.00     0.009 A 
ATOM     70  C   UNL     1      -8.405  -0.359  -7.770  1.00  0.00     0.001 A 
ATOM     71  C   UNL     1      -8.866  -2.667  -7.232  1.00  0.00     0.001 A 
ATOM     72  C   UNL     1      -8.560  -1.685  -8.171  1.00  0.00     0.000 A 
ENDBRANCH  48  67
BRANCH  60  73
ATOM     73  C   UNL     1     -13.605   2.524  -1.821  1.00  0.00    -0.014 A 
ATOM     74  C   UNL     1     -14.732   1.724  -2.067  1.00  0.00     0.009 A 
ATOM     75  C   UNL     1     -13.725   3.919  -1.912  1.00  0.00     0.009 A 
ATOM     76  C   UNL     1     -15.947   2.309  -2.430  1.00  0.00     0.001 A 
ATOM     77  C   UNL     1     -14.946   4.502  -2.253  1.00  0.00     0.001 A 
ATOM     78  C   UNL     1     -16.053   3.696  -2.519  1.00  0.00     0.000 A 
ENDBRANCH  60  73
ENDBRANCH  34  35
ENDBRANCH  27  29
ENDBRANCH  26  27
ENDBRANCH  25  26
ENDBRANCH   1  25
TORSDOF 13
