REMARK SMILES CC1(C)[C@@H](C(=O)OCCOC(=O)c2ccc(-c3c4nc(c(-c5ccccc5)c5ccc([nH]5)c(-c5ccccc5)c5nc(c(-c6ccccc6)c6ccc3[nH]6)C=C5)C=C4)cc2)[C@@H]1C(=O)N1CC[NH+](CCO)CC1
REMARK SMILES IDX 8 1 7 2 5 3 6 4 4 5 1 6 2 7 3 8 61 9 62 10 63 11 64 12 65 13
REMARK SMILES IDX 72 14 66 15 71 16 67 17 68 19 69 20 70 21 9 23 10 24 11 25
REMARK SMILES IDX 12 26 13 27 14 28 60 29 15 30 59 31 16 32 17 33 18 34 53 35
REMARK SMILES IDX 19 36 58 37 52 38 54 39 20 40 57 41 51 42 50 43 21 45 43 46
REMARK SMILES IDX 28 47 42 48 29 49 32 50 41 51 55 52 30 53 31 54 40 56 56 57
REMARK SMILES IDX 33 58 22 59 23 60 27 61 24 62 26 63 25 64 44 65 45 66 49 67
REMARK SMILES IDX 46 68 48 69 47 70 34 71 35 72 39 73 36 74 38 75 37 76
REMARK H PARENT 67 18 70 22 54 44 32 55
REMARK Flexibility Score: inf
ROOT
ATOM      1  C   UNL     1      -3.104  -2.954  -2.051  1.00  0.00     0.274 C 
ENDROOT
BRANCH   1   2
ATOM      2  O   UNL     1      -2.696  -1.922  -1.135  1.00  0.00    -0.462 OA
BRANCH   2   3
ATOM      3  C   UNL     1      -1.356  -1.712  -1.078  1.00  0.00     0.310 C 
ATOM      4  O   UNL     1      -0.503  -2.391  -1.639  1.00  0.00    -0.252 OA
BRANCH   3   5
ATOM      5  C   UNL     1      -1.022  -0.443  -0.396  1.00  0.00     0.118 C 
ATOM      6  C   UNL     1       1.287  -1.393   0.411  1.00  0.00     0.013 C 
ATOM      7  C   UNL     1       0.317  -0.243   0.305  1.00  0.00    -0.009 C 
ATOM      8  C   UNL     1       1.016   1.085   0.096  1.00  0.00     0.013 C 
ATOM      9  C   UNL     1      -0.996  -0.311   1.107  1.00  0.00     0.100 C 
BRANCH   9  10
ATOM     10  C   UNL     1      -1.431   0.944   1.783  1.00  0.00     0.227 C 
ATOM     11  O   UNL     1      -0.806   1.337   2.760  1.00  0.00    -0.275 OA
ATOM     12  N   UNL     1      -2.387   1.693   1.123  1.00  0.00    -0.331 N 
ATOM     13  C   UNL     1      -2.276   3.141   1.186  1.00  0.00     0.181 C 
ATOM     14  C   UNL     1      -3.712   1.164   0.811  1.00  0.00     0.181 C 
ATOM     15  C   UNL     1      -2.916   3.808  -0.044  1.00  0.00     0.284 C 
ATOM     16  C   UNL     1      -4.415   1.916  -0.339  1.00  0.00     0.284 C 
ATOM     17  N   UNL     1      -4.287   3.383  -0.351  1.00  0.00    -0.330 N 
ATOM     18  H   UNL     1      -4.453   3.672  -1.315  1.00  0.00     0.348 HD
BRANCH  17  19
ATOM     19  C   UNL     1      -5.360   4.124   0.317  1.00  0.00     0.290 C 
BRANCH  19  20
ATOM     20  C   UNL     1      -5.426   4.155   1.853  1.00  0.00     0.217 C 
BRANCH  20  21
ATOM     21  O   UNL     1      -4.452   5.015   2.438  1.00  0.00    -0.391 OA
ATOM     22  H   UNL     1      -3.564   4.699   2.211  1.00  0.00     0.210 HD
ENDBRANCH  20  21
ENDBRANCH  19  20
ENDBRANCH  17  19
ENDBRANCH   9  10
ENDBRANCH   3   5
ENDBRANCH   2   3
ENDBRANCH   1   2
BRANCH   1  23
ATOM     23  C   UNL     1      -3.442  -2.384  -3.436  1.00  0.00     0.275 C 
BRANCH  23  24
ATOM     24  O   UNL     1      -2.290  -1.838  -4.111  1.00  0.00    -0.458 OA
BRANCH  24  25
ATOM     25  C   UNL     1      -2.068  -0.520  -3.893  1.00  0.00     0.338 C 
ATOM     26  O   UNL     1      -2.737   0.234  -3.207  1.00  0.00    -0.246 OA
BRANCH  25  27
ATOM     27  C   UNL     1      -0.798  -0.104  -4.511  1.00  0.00     0.060 A 
ATOM     28  C   UNL     1       0.208   0.400  -3.682  1.00  0.00     0.016 A 
ATOM     29  C   UNL     1      -0.632  -0.106  -5.894  1.00  0.00     0.016 A 
ATOM     30  C   UNL     1       1.380   0.921  -4.222  1.00  0.00     0.010 A 
ATOM     31  C   UNL     1       0.550   0.409  -6.439  1.00  0.00     0.010 A 
ATOM     32  C   UNL     1       1.555   0.938  -5.607  1.00  0.00    -0.014 A 
BRANCH  32  33
ATOM     33  C   UNL     1       2.763   1.560  -6.200  1.00  0.00     0.031 A 
ATOM     34  C   UNL     1       2.639   2.861  -6.938  1.00  0.00     0.074 A 
ATOM     35  C   UNL     1       3.959   0.954  -6.091  1.00  0.00     0.049 A 
ATOM     36  N   UNL     1       3.530   3.492  -7.659  1.00  0.00    -0.248 NA
ATOM     37  C   UNL     1       1.335   3.539  -6.858  1.00  0.00     0.031 C 
ATOM     38  C   UNL     1       4.223  -0.274  -5.341  1.00  0.00     0.029 A 
ATOM     39  N   UNL     1       5.176   1.286  -6.631  1.00  0.00    -0.354 N 
ATOM     40  C   UNL     1       2.888   4.624  -8.143  1.00  0.00     0.074 A 
ATOM     41  C   UNL     1       1.528   4.585  -7.648  1.00  0.00     0.031 C 
ATOM     42  C   UNL     1       5.518  -0.601  -5.481  1.00  0.00     0.029 A 
ATOM     43  C   UNL     1       6.157   0.359  -6.377  1.00  0.00     0.049 A 
ATOM     44  H   UNL     1       5.330   2.108  -7.151  1.00  0.00     0.167 HD
ATOM     45  C   UNL     1       3.388   5.604  -8.934  1.00  0.00     0.031 A 
ATOM     46  C   UNL     1       7.415   0.270  -6.848  1.00  0.00     0.031 A 
ATOM     47  C   UNL     1       4.740   5.630  -9.428  1.00  0.00     0.049 A 
ATOM     48  C   UNL     1       7.918   1.319  -7.803  1.00  0.00     0.074 A 
ATOM     49  C   UNL     1       5.345   6.582 -10.230  1.00  0.00     0.029 A 
ATOM     50  N   UNL     1       5.693   4.656  -9.173  1.00  0.00    -0.354 N 
ATOM     51  N   UNL     1       7.304   2.383  -8.261  1.00  0.00    -0.248 NA
ATOM     52  C   UNL     1       9.290   1.155  -8.304  1.00  0.00     0.031 C 
ATOM     53  C   UNL     1       6.645   6.151 -10.512  1.00  0.00     0.029 A 
ATOM     54  C   UNL     1       6.874   4.971  -9.823  1.00  0.00     0.049 A 
ATOM     55  H   UNL     1       5.551   3.859  -8.612  1.00  0.00     0.167 HD
ATOM     56  C   UNL     1       8.227   3.036  -9.069  1.00  0.00     0.074 A 
ATOM     57  C   UNL     1       9.443   2.250  -9.035  1.00  0.00     0.031 C 
ATOM     58  C   UNL     1       8.082   4.187  -9.769  1.00  0.00     0.031 A 
BRANCH  45  59
ATOM     59  C   UNL     1       2.453   6.704  -9.354  1.00  0.00    -0.014 A 
ATOM     60  C   UNL     1       1.983   7.660  -8.441  1.00  0.00     0.009 A 
ATOM     61  C   UNL     1       2.064   6.804 -10.700  1.00  0.00     0.009 A 
ATOM     62  C   UNL     1       1.115   8.672  -8.860  1.00  0.00     0.001 A 
ATOM     63  C   UNL     1       1.223   7.834 -11.122  1.00  0.00     0.001 A 
ATOM     64  C   UNL     1       0.741   8.761 -10.200  1.00  0.00     0.000 A 
ENDBRANCH  45  59
BRANCH  46  65
ATOM     65  C   UNL     1       8.279  -0.874  -6.454  1.00  0.00    -0.014 A 
ATOM     66  C   UNL     1       9.414  -0.671  -5.654  1.00  0.00     0.009 A 
ATOM     67  C   UNL     1       7.982  -2.176  -6.890  1.00  0.00     0.009 A 
ATOM     68  C   UNL     1      10.247  -1.742  -5.323  1.00  0.00     0.001 A 
ATOM     69  C   UNL     1       8.798  -3.250  -6.529  1.00  0.00     0.001 A 
ATOM     70  C   UNL     1       9.936  -3.031  -5.756  1.00  0.00     0.000 A 
ENDBRANCH  46  65
BRANCH  58  71
ATOM     71  C   UNL     1       9.285   4.712 -10.503  1.00  0.00    -0.014 A 
ATOM     72  C   UNL     1       9.769   4.095 -11.666  1.00  0.00     0.009 A 
ATOM     73  C   UNL     1       9.905   5.889 -10.050  1.00  0.00     0.009 A 
ATOM     74  C   UNL     1      10.866   4.631 -12.344  1.00  0.00     0.001 A 
ATOM     75  C   UNL     1      10.980   6.440 -10.748  1.00  0.00     0.001 A 
ATOM     76  C   UNL     1      11.465   5.806 -11.890  1.00  0.00     0.000 A 
ENDBRANCH  58  71
ENDBRANCH  32  33
ENDBRANCH  25  27
ENDBRANCH  24  25
ENDBRANCH  23  24
ENDBRANCH   1  23
TORSDOF 15
