REMARK SMILES COC(=O)[C@H]1Sc2nnc(CCC(=O)OCCOC(=O)c3ccc(-c4c5nc(c(-c6ccccc6)c6ccc([nH]6)c(-c6ccccc6)c6nc(c(-c7ccccc7)c7ccc4[nH]7)C=C6)C=C5)cc3)c(=O)n2N=C1C
REMARK SMILES IDX 16 1 15 2 13 3 14 4 12 5 11 6 10 7 5 8 6 9 73 10 7 11 72 12
REMARK SMILES IDX 74 13 8 14 71 15 9 16 69 17 70 18 3 19 4 20 2 21 1 22 17 23
REMARK SMILES IDX 18 24 19 25 20 26 21 27 22 28 68 29 23 30 67 31 24 32 25 33
REMARK SMILES IDX 26 34 61 35 27 36 66 37 60 38 62 39 28 40 65 41 59 42 58 43
REMARK SMILES IDX 29 45 51 46 36 47 50 48 37 49 40 50 49 51 63 52 38 53 39 54
REMARK SMILES IDX 48 56 64 57 41 58 30 59 31 60 35 61 32 62 34 63 33 64 52 65
REMARK SMILES IDX 53 66 57 67 54 68 56 69 55 70 42 71 43 72 47 73 44 74 46 75
REMARK SMILES IDX 45 76
REMARK H PARENT 62 44 40 55
REMARK Flexibility Score: inf
ROOT
ATOM      1  C   UNL     1       1.521   7.735   4.903  1.00  0.00     0.274 C 
ENDROOT
BRANCH   1   2
ATOM      2  O   UNL     1       0.899   7.922   3.616  1.00  0.00    -0.462 OA
BRANCH   2   3
ATOM      3  C   UNL     1       0.392   9.151   3.348  1.00  0.00     0.306 C 
ATOM      4  O   UNL     1       0.347  10.084   4.138  1.00  0.00    -0.252 OA
BRANCH   3   5
ATOM      5  C   UNL     1      -0.194   9.217   1.956  1.00  0.00     0.129 C 
BRANCH   5   6
ATOM      6  C   UNL     1       0.697   8.606   0.876  1.00  0.00     0.076 C 
BRANCH   6   7
ATOM      7  C   UNL     1       0.461   7.118   0.773  1.00  0.00     0.131 A 
ATOM      8  C   UNL     1      -0.007   2.416   2.712  1.00  0.00     0.210 C 
ATOM      9  S   UNL     1      -0.440   2.815   1.016  1.00  0.00    -0.063 SA
ATOM     10  C   UNL     1       1.236   3.138   3.151  1.00  0.00     0.061 C 
ATOM     11  C   UNL     1      -0.117   4.524   1.022  1.00  0.00     0.214 A 
ATOM     12  N   UNL     1       1.658   4.277   2.702  1.00  0.00    -0.171 NA
ATOM     13  C   UNL     1       2.023   2.547   4.301  1.00  0.00     0.065 C 
ATOM     14  N   UNL     1      -0.843   5.274   0.254  1.00  0.00    -0.123 NA
ATOM     15  N   UNL     1       0.949   4.977   1.754  1.00  0.00    -0.169 N 
ATOM     16  N   UNL     1      -0.633   6.662   0.246  1.00  0.00    -0.147 NA
ATOM     17  C   UNL     1       1.474   6.198   1.397  1.00  0.00     0.296 A 
ATOM     18  O   UNL     1       2.632   6.566   1.524  1.00  0.00    -0.265 OA
BRANCH   8  19
ATOM     19  C   UNL     1      -1.126   2.533   3.723  1.00  0.00     0.325 C 
ATOM     20  O   UNL     1      -0.998   2.140   4.880  1.00  0.00    -0.250 OA
BRANCH  19  21
ATOM     21  O   UNL     1      -2.264   3.088   3.239  1.00  0.00    -0.468 OA
ATOM     22  C   UNL     1      -3.361   3.082   4.156  1.00  0.00     0.282 C 
ENDBRANCH  19  21
ENDBRANCH   8  19
ENDBRANCH   6   7
ENDBRANCH   5   6
ENDBRANCH   3   5
ENDBRANCH   2   3
ENDBRANCH   1   2
BRANCH   1  23
ATOM     23  C   UNL     1       3.035   7.941   4.834  1.00  0.00     0.275 C 
BRANCH  23  24
ATOM     24  O   UNL     1       3.352   9.338   4.697  1.00  0.00    -0.458 OA
BRANCH  24  25
ATOM     25  C   UNL     1       3.728   9.731   3.461  1.00  0.00     0.338 C 
ATOM     26  O   UNL     1       3.883   9.053   2.464  1.00  0.00    -0.246 OA
BRANCH  25  27
ATOM     27  C   UNL     1       3.845  11.188   3.426  1.00  0.00     0.060 A 
ATOM     28  C   UNL     1       2.840  11.915   2.781  1.00  0.00     0.016 A 
ATOM     29  C   UNL     1       4.992  11.814   3.912  1.00  0.00     0.016 A 
ATOM     30  C   UNL     1       2.984  13.286   2.613  1.00  0.00     0.010 A 
ATOM     31  C   UNL     1       5.133  13.192   3.747  1.00  0.00     0.010 A 
ATOM     32  C   UNL     1       4.136  13.929   3.085  1.00  0.00    -0.014 A 
BRANCH  32  33
ATOM     33  C   UNL     1       4.318  15.374   2.841  1.00  0.00     0.031 A 
ATOM     34  C   UNL     1       5.239  15.837   1.752  1.00  0.00     0.074 A 
ATOM     35  C   UNL     1       3.632  16.261   3.582  1.00  0.00     0.049 A 
ATOM     36  N   UNL     1       5.571  17.057   1.418  1.00  0.00    -0.248 NA
ATOM     37  C   UNL     1       5.864  14.790   0.928  1.00  0.00     0.031 C 
ATOM     38  C   UNL     1       2.665  15.919   4.627  1.00  0.00     0.029 A 
ATOM     39  N   UNL     1       3.639  17.631   3.563  1.00  0.00    -0.354 N 
ATOM     40  C   UNL     1       6.449  16.927   0.350  1.00  0.00     0.074 A 
ATOM     41  C   UNL     1       6.615  15.510   0.105  1.00  0.00     0.031 C 
ATOM     42  C   UNL     1       2.162  17.053   5.141  1.00  0.00     0.029 A 
ATOM     43  C   UNL     1       2.804  18.194   4.495  1.00  0.00     0.049 A 
ATOM     44  H   UNL     1       4.191  18.159   2.942  1.00  0.00     0.167 HD
ATOM     45  C   UNL     1       7.059  17.904  -0.361  1.00  0.00     0.031 A 
ATOM     46  C   UNL     1       2.597  19.486   4.805  1.00  0.00     0.031 A 
ATOM     47  C   UNL     1       6.902  19.309  -0.101  1.00  0.00     0.049 A 
ATOM     48  C   UNL     1       3.358  20.548   4.064  1.00  0.00     0.074 A 
ATOM     49  C   UNL     1       7.485  20.379  -0.758  1.00  0.00     0.029 A 
ATOM     50  N   UNL     1       6.103  19.840   0.900  1.00  0.00    -0.354 N 
ATOM     51  N   UNL     1       4.204  20.413   3.071  1.00  0.00    -0.248 NA
ATOM     52  C   UNL     1       3.144  21.936   4.493  1.00  0.00     0.031 C 
ATOM     53  C   UNL     1       7.073  21.556  -0.124  1.00  0.00     0.029 A 
ATOM     54  C   UNL     1       6.197  21.221   0.896  1.00  0.00     0.049 A 
ATOM     55  H   UNL     1       5.551  19.312   1.522  1.00  0.00     0.167 HD
ATOM     56  C   UNL     1       4.619  21.698   2.751  1.00  0.00     0.074 A 
ATOM     57  C   UNL     1       3.917  22.600   3.643  1.00  0.00     0.031 C 
ATOM     58  C   UNL     1       5.504  22.096   1.805  1.00  0.00     0.031 A 
BRANCH  45  59
ATOM     59  C   UNL     1       7.979  17.478  -1.468  1.00  0.00    -0.014 A 
ATOM     60  C   UNL     1       7.475  16.985  -2.681  1.00  0.00     0.009 A 
ATOM     61  C   UNL     1       9.368  17.602  -1.306  1.00  0.00     0.009 A 
ATOM     62  C   UNL     1       8.346  16.599  -3.702  1.00  0.00     0.001 A 
ATOM     63  C   UNL     1      10.235  17.236  -2.337  1.00  0.00     0.001 A 
ATOM     64  C   UNL     1       9.724  16.729  -3.531  1.00  0.00     0.000 A 
ENDBRANCH  45  59
BRANCH  46  65
ATOM     65  C   UNL     1       1.640  19.839   5.883  1.00  0.00    -0.014 A 
ATOM     66  C   UNL     1       0.400  20.414   5.573  1.00  0.00     0.009 A 
ATOM     67  C   UNL     1       1.952  19.575   7.227  1.00  0.00     0.009 A 
ATOM     68  C   UNL     1      -0.507  20.725   6.588  1.00  0.00     0.001 A 
ATOM     69  C   UNL     1       1.034  19.866   8.237  1.00  0.00     0.001 A 
ATOM     70  C   UNL     1      -0.193  20.445   7.917  1.00  0.00     0.000 A 
ENDBRANCH  46  65
BRANCH  58  71
ATOM     71  C   UNL     1       5.761  23.570   1.687  1.00  0.00    -0.014 A 
ATOM     72  C   UNL     1       6.568  24.237   2.621  1.00  0.00     0.009 A 
ATOM     73  C   UNL     1       5.236  24.286   0.600  1.00  0.00     0.009 A 
ATOM     74  C   UNL     1       6.827  25.601   2.480  1.00  0.00     0.001 A 
ATOM     75  C   UNL     1       5.516  25.645   0.450  1.00  0.00     0.001 A 
ATOM     76  C   UNL     1       6.306  26.302   1.393  1.00  0.00     0.000 A 
ENDBRANCH  58  71
ENDBRANCH  32  33
ENDBRANCH  25  27
ENDBRANCH  24  25
ENDBRANCH  23  24
ENDBRANCH   1  23
TORSDOF 15
