REMARK SMILES CC(C)[NH2+][C@]1(C(=O)OCCOC(=O)c2ccc(-c3c4nc(c(-c5ccccc5)c5ccc([nH]5)c(-c5ccccc5)c5nc(c(-c6ccccc6)c6ccc3[nH]6)C=C5)C=C4)cc2)CCC[C@@H]([N@@H+](C)C2CC2)C1
REMARK SMILES IDX 9 1 8 2 6 3 7 4 5 5 62 6 71 7 63 8 65 9 64 10 4 11 2 14 1 15
REMARK SMILES IDX 3 16 66 17 67 18 68 20 69 21 70 22 10 23 11 24 12 25 13 26
REMARK SMILES IDX 14 27 15 28 61 29 16 30 60 31 17 32 18 33 19 34 54 35 20 36
REMARK SMILES IDX 59 37 53 38 55 39 21 40 58 41 52 42 51 43 22 45 44 46 29 47
REMARK SMILES IDX 43 48 30 49 33 50 42 51 56 52 31 53 32 54 41 56 57 57 34 58
REMARK SMILES IDX 23 59 24 60 28 61 25 62 27 63 26 64 45 65 46 66 50 67 47 68
REMARK SMILES IDX 49 69 48 70 35 71 36 72 40 73 37 74 39 75 38 76
REMARK H PARENT 4 12 4 13 66 19 55 44 33 55
REMARK Flexibility Score: inf
ROOT
ATOM      1  C   UNL     1       1.316  -0.215  -0.660  1.00  0.00     0.274 C 
ENDROOT
BRANCH   1   2
ATOM      2  O   UNL     1       0.290  -1.127  -1.104  1.00  0.00    -0.457 OA
BRANCH   2   3
ATOM      3  C   UNL     1      -0.316  -1.878  -0.147  1.00  0.00     0.368 C 
ATOM      4  O   UNL     1      -0.059  -1.758   1.050  1.00  0.00    -0.245 OA
BRANCH   3   5
ATOM      5  C   UNL     1      -1.234  -3.015  -0.696  1.00  0.00     0.200 C 
ATOM      6  C   UNL     1      -0.277  -4.237  -0.797  1.00  0.00     0.081 C 
ATOM      7  C   UNL     1      -2.336  -3.327   0.357  1.00  0.00     0.146 C 
ATOM      8  C   UNL     1      -0.984  -5.567  -1.040  1.00  0.00     0.013 C 
ATOM      9  C   UNL     1      -2.965  -4.738   0.297  1.00  0.00     0.190 C 
ATOM     10  C   UNL     1      -1.960  -5.877   0.086  1.00  0.00     0.065 C 
BRANCH   5  11
ATOM     11  N   UNL     1      -1.792  -2.833  -2.066  1.00  0.00    -0.330 N 
ATOM     12  H   UNL     1      -1.069  -3.147  -2.713  1.00  0.00     0.347 HD
ATOM     13  H   UNL     1      -2.668  -3.354  -2.014  1.00  0.00     0.347 HD
BRANCH  11  14
ATOM     14  C   UNL     1      -2.237  -1.525  -2.551  1.00  0.00     0.176 C 
ATOM     15  C   UNL     1      -2.630  -1.712  -4.025  1.00  0.00     0.075 C 
ATOM     16  C   UNL     1      -3.418  -0.925  -1.798  1.00  0.00     0.075 C 
ENDBRANCH  11  14
ENDBRANCH   5  11
BRANCH   9  17
ATOM     17  N   UNL     1      -3.890  -4.953   1.436  1.00  0.00    -0.332 N 
ATOM     18  C   UNL     1      -4.974  -5.877   1.079  1.00  0.00     0.333 C 
ATOM     19  H   UNL     1      -4.231  -4.004   1.587  1.00  0.00     0.348 HD
BRANCH  17  20
ATOM     20  C   UNL     1      -3.336  -5.301   2.773  1.00  0.00     0.184 C 
ATOM     21  C   UNL     1      -1.969  -4.982   3.317  1.00  0.00     0.071 C 
ATOM     22  C   UNL     1      -3.138  -4.149   3.727  1.00  0.00     0.071 C 
ENDBRANCH  17  20
ENDBRANCH   9  17
ENDBRANCH   3   5
ENDBRANCH   2   3
ENDBRANCH   1   2
BRANCH   1  23
ATOM     23  C   UNL     1       0.777   1.161  -0.254  1.00  0.00     0.275 C 
BRANCH  23  24
ATOM     24  O   UNL     1       0.197   1.129   1.064  1.00  0.00    -0.458 OA
BRANCH  24  25
ATOM     25  C   UNL     1      -1.156   1.146   1.104  1.00  0.00     0.338 C 
ATOM     26  O   UNL     1      -1.911   1.301   0.159  1.00  0.00    -0.246 OA
BRANCH  25  27
ATOM     27  C   UNL     1      -1.636   0.808   2.462  1.00  0.00     0.060 A 
ATOM     28  C   UNL     1      -2.689  -0.106   2.557  1.00  0.00     0.016 A 
ATOM     29  C   UNL     1      -1.107   1.388   3.620  1.00  0.00     0.016 A 
ATOM     30  C   UNL     1      -3.206  -0.453   3.802  1.00  0.00     0.010 A 
ATOM     31  C   UNL     1      -1.630   1.039   4.874  1.00  0.00     0.010 A 
ATOM     32  C   UNL     1      -2.678   0.109   4.970  1.00  0.00    -0.014 A 
BRANCH  32  33
ATOM     33  C   UNL     1      -3.304  -0.240   6.266  1.00  0.00     0.031 A 
ATOM     34  C   UNL     1      -4.507   0.529   6.729  1.00  0.00     0.074 A 
ATOM     35  C   UNL     1      -2.872  -1.299   6.974  1.00  0.00     0.049 A 
ATOM     36  N   UNL     1      -5.230   0.365   7.807  1.00  0.00    -0.248 NA
ATOM     37  C   UNL     1      -4.967   1.612   5.846  1.00  0.00     0.031 C 
ATOM     38  C   UNL     1      -1.785  -2.195   6.580  1.00  0.00     0.029 A 
ATOM     39  N   UNL     1      -3.317  -1.815   8.167  1.00  0.00    -0.354 N 
ATOM     40  C   UNL     1      -6.234   1.320   7.731  1.00  0.00     0.074 A 
ATOM     41  C   UNL     1      -6.022   2.064   6.507  1.00  0.00     0.031 C 
ATOM     42  C   UNL     1      -1.654  -3.156   7.512  1.00  0.00     0.029 A 
ATOM     43  C   UNL     1      -2.619  -2.921   8.585  1.00  0.00     0.049 A 
ATOM     44  H   UNL     1      -4.066  -1.427   8.675  1.00  0.00     0.167 HD
ATOM     45  C   UNL     1      -7.239   1.564   8.606  1.00  0.00     0.031 A 
ATOM     46  C   UNL     1      -2.735  -3.649   9.713  1.00  0.00     0.031 A 
ATOM     47  C   UNL     1      -7.426   0.864   9.847  1.00  0.00     0.049 A 
ATOM     48  C   UNL     1      -3.778  -3.270  10.733  1.00  0.00     0.074 A 
ATOM     49  C   UNL     1      -8.376   1.085  10.829  1.00  0.00     0.029 A 
ATOM     50  N   UNL     1      -6.637  -0.189  10.283  1.00  0.00    -0.354 N 
ATOM     51  N   UNL     1      -4.706  -2.346  10.666  1.00  0.00    -0.248 NA
ATOM     52  C   UNL     1      -3.783  -4.035  11.990  1.00  0.00     0.031 C 
ATOM     53  C   UNL     1      -8.128   0.200  11.883  1.00  0.00     0.029 A 
ATOM     54  C   UNL     1      -7.062  -0.612  11.531  1.00  0.00     0.049 A 
ATOM     55  H   UNL     1      -5.886  -0.579   9.779  1.00  0.00     0.167 HD
ATOM     56  C   UNL     1      -5.418  -2.436  11.857  1.00  0.00     0.074 A 
ATOM     57  C   UNL     1      -4.827  -3.514  12.620  1.00  0.00     0.031 C 
ATOM     58  C   UNL     1      -6.468  -1.689  12.279  1.00  0.00     0.031 A 
BRANCH  45  59
ATOM     59  C   UNL     1      -8.166   2.695   8.271  1.00  0.00    -0.014 A 
ATOM     60  C   UNL     1      -9.137   2.570   7.265  1.00  0.00     0.009 A 
ATOM     61  C   UNL     1      -8.058   3.908   8.969  1.00  0.00     0.009 A 
ATOM     62  C   UNL     1      -9.960   3.651   6.942  1.00  0.00     0.001 A 
ATOM     63  C   UNL     1      -8.897   4.979   8.659  1.00  0.00     0.001 A 
ATOM     64  C   UNL     1      -9.840   4.853   7.640  1.00  0.00     0.000 A 
ENDBRANCH  45  59
BRANCH  46  65
ATOM     65  C   UNL     1      -1.815  -4.788   9.976  1.00  0.00    -0.014 A 
ATOM     66  C   UNL     1      -2.297  -6.105  10.034  1.00  0.00     0.009 A 
ATOM     67  C   UNL     1      -0.454  -4.555  10.230  1.00  0.00     0.009 A 
ATOM     68  C   UNL     1      -1.442  -7.159  10.371  1.00  0.00     0.001 A 
ATOM     69  C   UNL     1       0.404  -5.613  10.537  1.00  0.00     0.001 A 
ATOM     70  C   UNL     1      -0.093  -6.912  10.619  1.00  0.00     0.000 A 
ENDBRANCH  46  65
BRANCH  58  71
ATOM     71  C   UNL     1      -7.072  -2.036  13.612  1.00  0.00    -0.014 A 
ATOM     72  C   UNL     1      -6.412  -1.740  14.814  1.00  0.00     0.009 A 
ATOM     73  C   UNL     1      -8.346  -2.625  13.663  1.00  0.00     0.009 A 
ATOM     74  C   UNL     1      -7.002  -2.055  16.040  1.00  0.00     0.001 A 
ATOM     75  C   UNL     1      -8.945  -2.913  14.890  1.00  0.00     0.001 A 
ATOM     76  C   UNL     1      -8.269  -2.636  16.077  1.00  0.00     0.000 A 
ENDBRANCH  58  71
ENDBRANCH  32  33
ENDBRANCH  25  27
ENDBRANCH  24  25
ENDBRANCH  23  24
ENDBRANCH   1  23
TORSDOF 15
