REMARK SMILES O=C(OCCOC(=O)[C@@H]1C[C@@H]2CC[C@H]1N2c1ncnc2c1CCCCC2)c1ccc(-c2c3nc(c(-c4ccccc4)c4ccc([nH]4)c(-c4ccccc4)c4nc(c(-c5ccccc5)c5ccc2[nH]5)C=C4)C=C3)cc1
REMARK SMILES IDX 5 1 4 2 3 3 2 4 1 5 27 6 28 7 74 8 29 9 73 10 30 11 31 12
REMARK SMILES IDX 32 13 67 14 33 15 72 16 66 17 68 18 34 19 71 20 65 21 64 22
REMARK SMILES IDX 35 24 57 25 42 26 56 27 43 28 46 29 55 30 69 31 44 32 45 33
REMARK SMILES IDX 54 35 70 36 47 37 36 38 37 39 41 40 38 41 40 42 39 43 58 44
REMARK SMILES IDX 59 45 63 46 60 47 62 48 61 49 48 50 49 51 53 52 50 53 52 54
REMARK SMILES IDX 51 55 6 56 7 57 8 58 9 59 10 60 14 61 11 62 13 63 15 64
REMARK SMILES IDX 12 65 16 66 17 67 21 68 18 69 20 70 19 71 22 72 23 73 26 75
REMARK SMILES IDX 25 76 24 77
REMARK H PARENT 68 23 46 34
REMARK Flexibility Score: 80.00
ROOT
ATOM      1  C   UNL     1       3.938   2.162   0.488  1.00  0.00     0.274 C 
ENDROOT
BRANCH   1   2
ATOM      2  C   UNL     1       4.366   1.354  -0.744  1.00  0.00     0.275 C 
BRANCH   2   3
ATOM      3  O   UNL     1       3.483   0.258  -1.029  1.00  0.00    -0.458 OA
BRANCH   3   4
ATOM      4  C   UNL     1       3.820  -1.053  -0.916  1.00  0.00     0.338 C 
ATOM      5  O   UNL     1       3.371  -1.876  -1.709  1.00  0.00    -0.246 OA
BRANCH   4   6
ATOM      6  C   UNL     1       4.424  -1.545   0.361  1.00  0.00     0.060 A 
ATOM      7  C   UNL     1       5.457  -0.930   1.075  1.00  0.00     0.016 A 
ATOM      8  C   UNL     1       3.818  -2.682   0.920  1.00  0.00     0.016 A 
ATOM      9  C   UNL     1       5.787  -1.349   2.369  1.00  0.00     0.010 A 
ATOM     10  C   UNL     1       4.096  -3.057   2.238  1.00  0.00     0.010 A 
ATOM     11  C   UNL     1       5.086  -2.391   2.979  1.00  0.00    -0.014 A 
BRANCH  11  12
ATOM     12  C   UNL     1       5.487  -2.884   4.320  1.00  0.00     0.031 A 
ATOM     13  C   UNL     1       6.077  -4.262   4.397  1.00  0.00     0.074 A 
ATOM     14  C   UNL     1       5.357  -2.140   5.440  1.00  0.00     0.049 A 
ATOM     15  N   UNL     1       6.634  -4.863   5.414  1.00  0.00    -0.248 NA
ATOM     16  C   UNL     1       6.042  -5.074   3.167  1.00  0.00     0.031 C 
ATOM     17  C   UNL     1       4.796  -0.791   5.519  1.00  0.00     0.029 A 
ATOM     18  N   UNL     1       5.686  -2.426   6.745  1.00  0.00    -0.354 N 
ATOM     19  C   UNL     1       7.048  -6.090   4.923  1.00  0.00     0.074 A 
ATOM     20  C   UNL     1       6.543  -6.221   3.582  1.00  0.00     0.031 C 
ATOM     21  C   UNL     1       4.765  -0.390   6.803  1.00  0.00     0.029 A 
ATOM     22  C   UNL     1       5.374  -1.421   7.634  1.00  0.00     0.049 A 
ATOM     23  H   UNL     1       6.106  -3.273   7.019  1.00  0.00     0.167 HD
ATOM     24  C   UNL     1       7.871  -6.995   5.495  1.00  0.00     0.031 A 
ATOM     25  C   UNL     1       5.602  -1.320   8.959  1.00  0.00     0.031 A 
ATOM     26  C   UNL     1       8.367  -6.871   6.829  1.00  0.00     0.049 A 
ATOM     27  C   UNL     1       6.427  -2.387   9.629  1.00  0.00     0.074 A 
ATOM     28  C   UNL     1       9.229  -7.705   7.509  1.00  0.00     0.029 A 
ATOM     29  N   UNL     1       8.016  -5.844   7.692  1.00  0.00    -0.354 N 
ATOM     30  N   UNL     1       6.956  -3.467   9.102  1.00  0.00    -0.248 NA
ATOM     31  C   UNL     1       6.741  -2.197  11.053  1.00  0.00     0.031 C 
ATOM     32  C   UNL     1       9.349  -7.216   8.812  1.00  0.00     0.029 A 
ATOM     33  C   UNL     1       8.610  -6.046   8.921  1.00  0.00     0.049 A 
ATOM     34  H   UNL     1       7.432  -5.085   7.462  1.00  0.00     0.167 HD
ATOM     35  C   UNL     1       7.700  -4.060  10.114  1.00  0.00     0.074 A 
ATOM     36  C   UNL     1       7.552  -3.223  11.287  1.00  0.00     0.031 C 
ATOM     37  C   UNL     1       8.449  -5.189  10.069  1.00  0.00     0.031 A 
BRANCH  24  38
ATOM     38  C   UNL     1       8.270  -8.156   4.635  1.00  0.00    -0.014 A 
ATOM     39  C   UNL     1       9.087  -7.960   3.505  1.00  0.00     0.009 A 
ATOM     40  C   UNL     1       7.748  -9.430   4.886  1.00  0.00     0.009 A 
ATOM     41  C   UNL     1       9.311  -9.002   2.605  1.00  0.00     0.001 A 
ATOM     42  C   UNL     1       8.003 -10.479   4.002  1.00  0.00     0.001 A 
ATOM     43  C   UNL     1       8.767 -10.260   2.854  1.00  0.00     0.000 A 
ENDBRANCH  24  38
BRANCH  25  44
ATOM     44  C   UNL     1       5.144  -0.116   9.710  1.00  0.00    -0.014 A 
ATOM     45  C   UNL     1       6.058   0.876  10.099  1.00  0.00     0.009 A 
ATOM     46  C   UNL     1       3.787   0.060  10.026  1.00  0.00     0.009 A 
ATOM     47  C   UNL     1       5.628   2.008  10.800  1.00  0.00     0.001 A 
ATOM     48  C   UNL     1       3.357   1.200  10.713  1.00  0.00     0.001 A 
ATOM     49  C   UNL     1       4.277   2.171  11.104  1.00  0.00     0.000 A 
ENDBRANCH  25  44
BRANCH  37  50
ATOM     50  C   UNL     1       9.182  -5.603  11.310  1.00  0.00    -0.014 A 
ATOM     51  C   UNL     1       8.499  -6.192  12.382  1.00  0.00     0.009 A 
ATOM     52  C   UNL     1      10.586  -5.561  11.329  1.00  0.00     0.009 A 
ATOM     53  C   UNL     1       9.211  -6.744  13.448  1.00  0.00     0.001 A 
ATOM     54  C   UNL     1      11.295  -6.139  12.380  1.00  0.00     0.001 A 
ATOM     55  C   UNL     1      10.607  -6.731  13.438  1.00  0.00     0.000 A 
ENDBRANCH  37  50
ENDBRANCH  11  12
ENDBRANCH   4   6
ENDBRANCH   3   4
ENDBRANCH   2   3
ENDBRANCH   1   2
BRANCH   1  56
ATOM     56  O   UNL     1       3.317   1.358   1.511  1.00  0.00    -0.462 OA
BRANCH  56  57
ATOM     57  C   UNL     1       2.000   1.608   1.784  1.00  0.00     0.311 C 
ATOM     58  O   UNL     1       1.340   2.490   1.256  1.00  0.00    -0.252 OA
BRANCH  57  59
ATOM     59  C   UNL     1       1.446   0.709   2.881  1.00  0.00     0.124 C 
ATOM     60  C   UNL     1       2.137  -0.651   3.034  1.00  0.00     0.042 C 
ATOM     61  C   UNL     1      -0.015   0.261   2.637  1.00  0.00     0.098 C 
ATOM     62  C   UNL     1       1.024  -1.692   2.892  1.00  0.00     0.085 C 
ATOM     63  C   UNL     1      -0.128  -0.388   1.230  1.00  0.00     0.028 C 
ATOM     64  N   UNL     1      -0.069  -0.948   3.458  1.00  0.00    -0.349 N 
ATOM     65  C   UNL     1       0.500  -1.778   1.448  1.00  0.00     0.027 C 
BRANCH  64  66
ATOM     66  C   UNL     1      -0.713  -1.327   4.580  1.00  0.00     0.135 A 
ATOM     67  N   UNL     1       0.052  -1.830   5.569  1.00  0.00    -0.219 NA
ATOM     68  C   UNL     1      -2.099  -1.355   4.656  1.00  0.00     0.016 A 
ATOM     69  C   UNL     1      -0.575  -2.323   6.643  1.00  0.00     0.224 A 
ATOM     70  C   UNL     1      -2.648  -1.887   5.819  1.00  0.00     0.049 A 
ATOM     71  N   UNL     1      -1.896  -2.369   6.830  1.00  0.00    -0.241 NA
BRANCH  68  72
ATOM     72  C   UNL     1      -2.979  -1.037   3.480  1.00  0.00     0.041 C 
BRANCH  72  73
ATOM     73  C   UNL     1      -3.583  -2.312   2.890  1.00  0.00     0.005 CG0
ATOM     74  G   UNL     1      -4.877  -2.716   3.591  1.00  0.00     0.000 G0
ENDBRANCH  72  73
ENDBRANCH  68  72
BRANCH  70  75
ATOM     75  C   UNL     1      -4.141  -2.042   5.971  1.00  0.00     0.057 C 
BRANCH  75  76
ATOM     76  C   UNL     1      -4.721  -3.126   5.058  1.00  0.00     0.006 C 
BRANCH  76  77
ATOM     77  C   UNL     1      -4.877  -2.716   3.591  1.00  0.00     0.001 CG0
ATOM     78  G   UNL     1      -3.583  -2.312   2.890  1.00  0.00     0.000 G0
ENDBRANCH  76  77
ENDBRANCH  75  76
ENDBRANCH  70  75
ENDBRANCH  64  66
ENDBRANCH  57  59
ENDBRANCH  56  57
ENDBRANCH   1  56
TORSDOF 12
