REMARK SMILES CSc1ccc(/C=C2\C(C)=C(CC(=O)OCCOC(=O)c3ccc(-c4c5nc(c(-c6ccccc6)c6ccc([nH]6)c(-c6ccccc6)c6nc(c(-c7ccccc7)c7ccc4[nH]7)C=C6)C=C5)cc3)c3cc(F)ccc32)cc1
REMARK SMILES IDX 16 1 15 2 13 3 14 4 12 5 11 6 7 7 8 8 9 9 75 10 10 11 69 12
REMARK SMILES IDX 74 13 70 14 73 15 71 16 72 17 6 18 3 19 4 20 77 21 5 22
REMARK SMILES IDX 76 23 2 24 1 25 17 26 18 27 19 28 20 29 21 30 22 31 68 32
REMARK SMILES IDX 23 33 67 34 24 35 25 36 26 37 61 38 27 39 66 40 60 41 62 42
REMARK SMILES IDX 28 43 65 44 59 45 58 46 29 48 51 49 36 50 50 51 37 52 40 53
REMARK SMILES IDX 49 54 63 55 38 56 39 57 48 59 64 60 41 61 30 62 31 63 35 64
REMARK SMILES IDX 32 65 34 66 33 67 52 68 53 69 57 70 54 71 56 72 55 73 42 74
REMARK SMILES IDX 43 75 47 76 44 77 46 78 45 79
REMARK H PARENT 62 47 40 58
REMARK Flexibility Score: inf
ROOT
ATOM      1  C   UNL     1       6.422   8.347   4.431  1.00  0.00     0.274 C 
ENDROOT
BRANCH   1   2
ATOM      2  O   UNL     1       5.614   7.484   3.602  1.00  0.00    -0.462 OA
BRANCH   2   3
ATOM      3  C   UNL     1       5.086   8.084   2.503  1.00  0.00     0.310 C 
ATOM      4  O   UNL     1       4.862   9.288   2.410  1.00  0.00    -0.252 OA
BRANCH   3   5
ATOM      5  C   UNL     1       4.889   7.125   1.337  1.00  0.00     0.159 C 
BRANCH   5   6
ATOM      6  C   UNL     1       5.192   5.625   1.531  1.00  0.00    -0.025 C 
ATOM      7  C   UNL     1       3.731   4.764  -1.480  1.00  0.00     0.017 C 
ATOM      8  C   UNL     1       4.587   4.747  -0.445  1.00  0.00    -0.014 C 
ATOM      9  C   UNL     1       4.271   4.770   1.008  1.00  0.00    -0.039 C 
ATOM     10  C   UNL     1       6.058   4.750  -0.496  1.00  0.00    -0.010 A 
ATOM     11  C   UNL     1       4.112   3.367   1.576  1.00  0.00     0.045 C 
ATOM     12  C   UNL     1       6.419   5.157   0.805  1.00  0.00    -0.011 A 
ATOM     13  C   UNL     1       6.926   4.046  -1.317  1.00  0.00     0.012 A 
ATOM     14  C   UNL     1       7.628   4.757   1.349  1.00  0.00     0.048 A 
ATOM     15  C   UNL     1       8.171   3.694  -0.784  1.00  0.00     0.040 A 
ATOM     16  C   UNL     1       8.498   4.030   0.538  1.00  0.00     0.123 A 
ATOM     17  F   UNL     1       9.644   3.569   1.060  1.00  0.00    -0.207 F 
BRANCH   7  18
ATOM     18  C   UNL     1       2.279   4.476  -1.424  1.00  0.00    -0.025 A 
ATOM     19  C   UNL     1       0.034   2.831  -1.316  1.00  0.00     0.007 A 
ATOM     20  C   UNL     1       0.476   3.469  -0.162  1.00  0.00     0.015 A 
ATOM     21  C   UNL     1       0.543   3.222  -2.553  1.00  0.00     0.015 A 
ATOM     22  C   UNL     1       1.563   4.335  -0.230  1.00  0.00     0.009 A 
ATOM     23  C   UNL     1       1.669   4.047  -2.608  1.00  0.00     0.009 A 
BRANCH  19  24
ATOM     24  S   UNL     1      -0.989   1.378  -1.194  1.00  0.00    -0.130 SA
ATOM     25  C   UNL     1       0.219   0.303  -0.349  1.00  0.00     0.091 C 
ENDBRANCH  19  24
ENDBRANCH   7  18
ENDBRANCH   5   6
ENDBRANCH   3   5
ENDBRANCH   2   3
ENDBRANCH   1   2
BRANCH   1  26
ATOM     26  C   UNL     1       7.693   7.571   4.823  1.00  0.00     0.275 C 
BRANCH  26  27
ATOM     27  O   UNL     1       8.853   7.634   3.942  1.00  0.00    -0.458 OA
BRANCH  27  28
ATOM     28  C   UNL     1       8.659   7.700   2.610  1.00  0.00     0.338 C 
ATOM     29  O   UNL     1       7.599   7.886   2.045  1.00  0.00    -0.246 OA
BRANCH  28  30
ATOM     30  C   UNL     1       9.853   7.487   1.777  1.00  0.00     0.060 A 
ATOM     31  C   UNL     1       9.639   7.595   0.390  1.00  0.00     0.016 A 
ATOM     32  C   UNL     1      11.120   7.176   2.269  1.00  0.00     0.016 A 
ATOM     33  C   UNL     1      10.681   7.428  -0.502  1.00  0.00     0.010 A 
ATOM     34  C   UNL     1      12.183   7.045   1.369  1.00  0.00     0.010 A 
ATOM     35  C   UNL     1      11.968   7.199  -0.013  1.00  0.00    -0.014 A 
BRANCH  35  36
ATOM     36  C   UNL     1      13.091   7.270  -0.966  1.00  0.00     0.031 A 
ATOM     37  C   UNL     1      13.784   6.034  -1.435  1.00  0.00     0.074 A 
ATOM     38  C   UNL     1      13.438   8.484  -1.432  1.00  0.00     0.049 A 
ATOM     39  N   UNL     1      14.808   5.931  -2.240  1.00  0.00    -0.248 NA
ATOM     40  C   UNL     1      13.261   4.750  -0.945  1.00  0.00     0.031 C 
ATOM     41  C   UNL     1      12.780   9.745  -1.074  1.00  0.00     0.029 A 
ATOM     42  N   UNL     1      14.418   8.857  -2.311  1.00  0.00    -0.354 N 
ATOM     43  C   UNL     1      15.072   4.574  -2.339  1.00  0.00     0.074 A 
ATOM     44  C   UNL     1      14.099   3.891  -1.510  1.00  0.00     0.031 C 
ATOM     45  C   UNL     1      13.370  10.750  -1.735  1.00  0.00     0.029 A 
ATOM     46  C   UNL     1      14.478  10.213  -2.515  1.00  0.00     0.049 A 
ATOM     47  H   UNL     1      15.021   8.217  -2.754  1.00  0.00     0.167 HD
ATOM     48  C   UNL     1      16.046   3.964  -3.053  1.00  0.00     0.031 A 
ATOM     49  C   UNL     1      15.351  10.948  -3.225  1.00  0.00     0.031 A 
ATOM     50  C   UNL     1      17.011   4.660  -3.865  1.00  0.00     0.049 A 
ATOM     51  C   UNL     1      16.456  10.248  -3.955  1.00  0.00     0.074 A 
ATOM     52  C   UNL     1      18.036   4.131  -4.630  1.00  0.00     0.029 A 
ATOM     53  N   UNL     1      17.072   6.038  -4.013  1.00  0.00    -0.354 N 
ATOM     54  N   UNL     1      16.703   8.963  -4.034  1.00  0.00    -0.248 NA
ATOM     55  C   UNL     1      17.402  11.095  -4.690  1.00  0.00     0.031 C 
ATOM     56  C   UNL     1      18.746   5.192  -5.203  1.00  0.00     0.029 A 
ATOM     57  C   UNL     1      18.132   6.379  -4.836  1.00  0.00     0.049 A 
ATOM     58  H   UNL     1      16.452   6.679  -3.595  1.00  0.00     0.167 HD
ATOM     59  C   UNL     1      17.827   8.844  -4.836  1.00  0.00     0.074 A 
ATOM     60  C   UNL     1      18.201  10.187  -5.234  1.00  0.00     0.031 C 
ATOM     61  C   UNL     1      18.492   7.723  -5.207  1.00  0.00     0.031 A 
BRANCH  48  62
ATOM     62  C   UNL     1      16.149   2.470  -2.948  1.00  0.00    -0.014 A 
ATOM     63  C   UNL     1      15.237   1.626  -3.598  1.00  0.00     0.009 A 
ATOM     64  C   UNL     1      17.206   1.900  -2.220  1.00  0.00     0.009 A 
ATOM     65  C   UNL     1      15.370   0.238  -3.503  1.00  0.00     0.001 A 
ATOM     66  C   UNL     1      17.349   0.514  -2.145  1.00  0.00     0.001 A 
ATOM     67  C   UNL     1      16.427  -0.316  -2.781  1.00  0.00     0.000 A 
ENDBRANCH  48  62
BRANCH  49  68
ATOM     68  C   UNL     1      15.230  12.427  -3.233  1.00  0.00    -0.014 A 
ATOM     69  C   UNL     1      14.799  13.104  -4.382  1.00  0.00     0.009 A 
ATOM     70  C   UNL     1      15.515  13.165  -2.072  1.00  0.00     0.009 A 
ATOM     71  C   UNL     1      14.669  14.495  -4.372  1.00  0.00     0.001 A 
ATOM     72  C   UNL     1      15.358  14.551  -2.057  1.00  0.00     0.001 A 
ATOM     73  C   UNL     1      14.942  15.216  -3.209  1.00  0.00     0.000 A 
ENDBRANCH  49  68
BRANCH  61  74
ATOM     74  C   UNL     1      19.680   7.912  -6.105  1.00  0.00    -0.014 A 
ATOM     75  C   UNL     1      20.892   8.414  -5.606  1.00  0.00     0.009 A 
ATOM     76  C   UNL     1      19.590   7.561  -7.460  1.00  0.00     0.009 A 
ATOM     77  C   UNL     1      21.983   8.591  -6.458  1.00  0.00     0.001 A 
ATOM     78  C   UNL     1      20.690   7.716  -8.303  1.00  0.00     0.001 A 
ATOM     79  C   UNL     1      21.882   8.238  -7.804  1.00  0.00     0.000 A 
ENDBRANCH  61  74
ENDBRANCH  35  36
ENDBRANCH  28  30
ENDBRANCH  27  28
ENDBRANCH  26  27
ENDBRANCH   1  26
TORSDOF 14
