REMARK SMILES C/C(=N\NC(N)=O)c1nnn(-c2ccc(C(=O)OCCOC(=O)c3ccc(-c4c5nc(c(-c6ccccc6)c6ccc([nH]6)c(-c6ccccc6)c6nc(c(-c7ccccc7)c7ccc4[nH]7)C=C6)C=C5)cc3)cc2)c1C
REMARK SMILES IDX 19 1 18 2 16 3 17 4 15 5 12 6 13 7 73 8 14 9 72 10 11 11
REMARK SMILES IDX 8 12 9 13 74 14 10 15 75 16 2 17 1 18 3 19 4 20 5 21 6 23
REMARK SMILES IDX 7 24 20 27 21 28 22 29 23 30 24 31 25 32 71 33 26 34 70 35
REMARK SMILES IDX 27 36 28 37 29 38 64 39 30 40 69 41 63 42 65 43 31 44 68 45
REMARK SMILES IDX 62 46 61 47 32 49 54 50 39 51 53 52 40 53 43 54 52 55 66 56
REMARK SMILES IDX 41 57 42 58 51 60 67 61 44 62 33 63 34 64 38 65 35 66 37 67
REMARK SMILES IDX 36 68 55 69 56 70 60 71 57 72 59 73 58 74 45 75 46 76 50 77
REMARK SMILES IDX 47 78 49 79 48 80
REMARK H PARENT 4 22 6 25 6 26 65 48 43 59
REMARK Flexibility Score: inf
ROOT
ATOM      1  C   UNL     1       9.200   6.926  -2.354  1.00  0.00     0.275 C 
ENDROOT
BRANCH   1   2
ATOM      2  O   UNL     1       7.960   6.201  -2.373  1.00  0.00    -0.458 OA
BRANCH   2   3
ATOM      3  C   UNL     1       7.001   6.609  -1.503  1.00  0.00     0.338 C 
ATOM      4  O   UNL     1       7.137   7.428  -0.605  1.00  0.00    -0.246 OA
BRANCH   3   5
ATOM      5  C   UNL     1       5.703   5.968  -1.835  1.00  0.00     0.060 A 
ATOM      6  C   UNL     1       3.307   4.604  -2.153  1.00  0.00     0.067 A 
ATOM      7  C   UNL     1       3.307   5.811  -1.448  1.00  0.00     0.029 A 
ATOM      8  C   UNL     1       4.452   4.160  -2.822  1.00  0.00     0.029 A 
ATOM      9  C   UNL     1       4.521   6.480  -1.271  1.00  0.00     0.018 A 
ATOM     10  C   UNL     1       5.649   4.847  -2.670  1.00  0.00     0.018 A 
BRANCH   6  11
ATOM     11  N   UNL     1       2.220   3.720  -2.018  1.00  0.00    -0.217 N 
ATOM     12  C   UNL     1       0.962   2.020  -1.506  1.00  0.00     0.132 A 
ATOM     13  N   UNL     1       0.162   3.058  -1.908  1.00  0.00    -0.128 NA
ATOM     14  C   UNL     1       2.283   2.424  -1.533  1.00  0.00     0.071 A 
ATOM     15  N   UNL     1       0.934   4.117  -2.125  1.00  0.00    -0.061 NA
ATOM     16  C   UNL     1       3.515   1.772  -1.024  1.00  0.00     0.069 C 
BRANCH  12  17
ATOM     17  C   UNL     1       0.439   0.776  -0.967  1.00  0.00     0.087 C 
ATOM     18  C   UNL     1       0.595   0.574   0.519  1.00  0.00     0.071 C 
ATOM     19  N   UNL     1      -0.129  -0.011  -1.833  1.00  0.00    -0.174 NA
BRANCH  19  20
ATOM     20  N   UNL     1      -0.613  -1.243  -1.495  1.00  0.00    -0.229 N 
ATOM     21  C   UNL     1       0.020  -2.194  -0.724  1.00  0.00     0.332 C 
ATOM     22  H   UNL     1      -1.506  -1.476  -1.838  1.00  0.00     0.195 HD
ATOM     23  N   UNL     1      -0.720  -3.331  -0.592  1.00  0.00    -0.350 N 
ATOM     24  O   UNL     1       1.111  -2.104  -0.176  1.00  0.00    -0.247 OA
ATOM     25  H   UNL     1      -1.597  -3.401  -1.033  1.00  0.00     0.161 HD
ATOM     26  H   UNL     1      -0.377  -4.082  -0.055  1.00  0.00     0.161 HD
ENDBRANCH  19  20
ENDBRANCH  12  17
ENDBRANCH   6  11
ENDBRANCH   3   5
ENDBRANCH   2   3
ENDBRANCH   1   2
BRANCH   1  27
ATOM     27  C   UNL     1       9.150   8.121  -3.297  1.00  0.00     0.275 C 
BRANCH  27  28
ATOM     28  O   UNL     1       8.297   9.138  -2.778  1.00  0.00    -0.458 OA
BRANCH  28  29
ATOM     29  C   UNL     1       7.010   9.069  -3.184  1.00  0.00     0.338 C 
ATOM     30  O   UNL     1       6.482   8.177  -3.828  1.00  0.00    -0.246 OA
BRANCH  29  31
ATOM     31  C   UNL     1       6.349  10.346  -2.907  1.00  0.00     0.060 A 
ATOM     32  C   UNL     1       4.986  10.430  -3.205  1.00  0.00     0.016 A 
ATOM     33  C   UNL     1       7.140  11.483  -2.696  1.00  0.00     0.016 A 
ATOM     34  C   UNL     1       4.464  11.665  -3.518  1.00  0.00     0.010 A 
ATOM     35  C   UNL     1       6.623  12.711  -3.022  1.00  0.00     0.010 A 
ATOM     36  C   UNL     1       5.323  12.768  -3.519  1.00  0.00    -0.014 A 
BRANCH  36  37
ATOM     37  C   UNL     1       4.822  14.017  -4.045  1.00  0.00     0.031 A 
ATOM     38  C   UNL     1       3.876  14.714  -3.149  1.00  0.00     0.074 A 
ATOM     39  C   UNL     1       5.305  14.541  -5.186  1.00  0.00     0.049 A 
ATOM     40  N   UNL     1       2.654  15.051  -3.385  1.00  0.00    -0.248 NA
ATOM     41  C   UNL     1       4.321  14.957  -1.767  1.00  0.00     0.031 C 
ATOM     42  C   UNL     1       6.458  14.090  -5.974  1.00  0.00     0.029 A 
ATOM     43  N   UNL     1       4.942  15.694  -5.803  1.00  0.00    -0.354 N 
ATOM     44  C   UNL     1       2.216  15.696  -2.233  1.00  0.00     0.074 A 
ATOM     45  C   UNL     1       3.220  15.473  -1.225  1.00  0.00     0.031 C 
ATOM     46  C   UNL     1       6.846  15.091  -6.797  1.00  0.00     0.029 A 
ATOM     47  C   UNL     1       5.894  16.183  -6.684  1.00  0.00     0.049 A 
ATOM     48  H   UNL     1       4.081  16.142  -5.640  1.00  0.00     0.167 HD
ATOM     49  C   UNL     1       1.174  16.568  -2.251  1.00  0.00     0.031 A 
ATOM     50  C   UNL     1       5.938  17.437  -7.194  1.00  0.00     0.031 A 
ATOM     51  C   UNL     1       0.355  16.410  -3.421  1.00  0.00     0.049 A 
ATOM     52  C   UNL     1       4.598  18.046  -7.010  1.00  0.00     0.074 A 
ATOM     53  C   UNL     1      -0.405  15.381  -3.939  1.00  0.00     0.029 A 
ATOM     54  N   UNL     1       0.544  17.299  -4.451  1.00  0.00    -0.354 N 
ATOM     55  N   UNL     1       3.529  17.642  -7.635  1.00  0.00    -0.248 NA
ATOM     56  C   UNL     1       4.355  18.815  -5.797  1.00  0.00     0.031 C 
ATOM     57  C   UNL     1      -0.229  15.469  -5.351  1.00  0.00     0.029 A 
ATOM     58  C   UNL     1       0.587  16.572  -5.613  1.00  0.00     0.049 A 
ATOM     59  H   UNL     1       0.633  18.276  -4.371  1.00  0.00     0.167 HD
ATOM     60  C   UNL     1       2.511  17.729  -6.695  1.00  0.00     0.074 A 
ATOM     61  C   UNL     1       3.056  18.554  -5.620  1.00  0.00     0.031 C 
ATOM     62  C   UNL     1       1.432  16.892  -6.742  1.00  0.00     0.031 A 
BRANCH  49  63
ATOM     63  C   UNL     1       1.148  17.815  -1.407  1.00  0.00    -0.014 A 
ATOM     64  C   UNL     1       0.007  18.633  -1.443  1.00  0.00     0.009 A 
ATOM     65  C   UNL     1       2.300  18.358  -0.804  1.00  0.00     0.009 A 
ATOM     66  C   UNL     1       0.042  19.947  -0.962  1.00  0.00     0.001 A 
ATOM     67  C   UNL     1       2.325  19.652  -0.282  1.00  0.00     0.001 A 
ATOM     68  C   UNL     1       1.203  20.457  -0.388  1.00  0.00     0.000 A 
ENDBRANCH  49  63
BRANCH  50  69
ATOM     69  C   UNL     1       7.139  18.236  -7.520  1.00  0.00    -0.014 A 
ATOM     70  C   UNL     1       7.053  19.364  -8.348  1.00  0.00     0.009 A 
ATOM     71  C   UNL     1       8.339  18.034  -6.811  1.00  0.00     0.009 A 
ATOM     72  C   UNL     1       8.119  20.269  -8.442  1.00  0.00     0.001 A 
ATOM     73  C   UNL     1       9.405  18.933  -6.908  1.00  0.00     0.001 A 
ATOM     74  C   UNL     1       9.289  20.060  -7.714  1.00  0.00     0.000 A 
ENDBRANCH  50  69
BRANCH  62  75
ATOM     75  C   UNL     1       1.270  16.013  -7.958  1.00  0.00    -0.014 A 
ATOM     76  C   UNL     1       2.199  15.014  -8.299  1.00  0.00     0.009 A 
ATOM     77  C   UNL     1       0.060  16.067  -8.665  1.00  0.00     0.009 A 
ATOM     78  C   UNL     1       1.931  14.108  -9.330  1.00  0.00     0.001 A 
ATOM     79  C   UNL     1      -0.216  15.150  -9.681  1.00  0.00     0.001 A 
ATOM     80  C   UNL     1       0.720  14.172 -10.015  1.00  0.00     0.000 A 
ENDBRANCH  62  75
ENDBRANCH  36  37
ENDBRANCH  29  31
ENDBRANCH  28  29
ENDBRANCH  27  28
ENDBRANCH   1  27
TORSDOF 14
