REMARK SMILES Cc1ccc(S(=O)(=O)Nc2cc3c(cc2C(=O)OCCOC(=O)c2ccc(-c4c5nc(c(-c6ccccc6)c6ccc([nH]6)c(-c6ccccc6)c6nc(c(-c7ccccc7)c7ccc4[nH]7)C=C6)C=C5)cc2)OCCO3)s1
REMARK SMILES IDX 19 1 18 2 16 3 17 4 15 5 10 6 11 7 12 8 14 9 13 10 75 11
REMARK SMILES IDX 72 12 74 13 73 14 9 15 6 17 7 18 8 19 5 20 1 21 2 22 3 23
REMARK SMILES IDX 76 24 4 25 20 26 21 27 22 28 23 29 24 30 25 31 71 32 26 33
REMARK SMILES IDX 70 34 27 35 28 36 29 37 64 38 30 39 69 40 63 41 65 42 31 43
REMARK SMILES IDX 68 44 62 45 61 46 32 48 54 49 39 50 53 51 40 52 43 53 52 54
REMARK SMILES IDX 66 55 41 56 42 57 51 59 67 60 44 61 33 62 34 63 38 64 35 65
REMARK SMILES IDX 37 66 36 67 55 68 56 69 60 70 57 71 59 72 58 73 45 74 46 75
REMARK SMILES IDX 50 76 47 77 49 78 48 79
REMARK H PARENT 9 16 65 47 43 58
REMARK Flexibility Score: inf
ROOT
ATOM      1  C   UNL     1      -1.000  -0.972   3.525  1.00  0.00     0.275 C 
ENDROOT
BRANCH   1   2
ATOM      2  O   UNL     1      -1.323  -1.655   2.291  1.00  0.00    -0.458 OA
BRANCH   2   3
ATOM      3  C   UNL     1      -2.647  -1.752   2.018  1.00  0.00     0.340 C 
ATOM      4  O   UNL     1      -3.563  -1.279   2.673  1.00  0.00    -0.246 OA
BRANCH   3   5
ATOM      5  C   UNL     1      -2.914  -2.664   0.892  1.00  0.00     0.088 A 
ATOM      6  C   UNL     1      -3.580  -2.234  -0.269  1.00  0.00     0.067 A 
ATOM      7  C   UNL     1      -4.198  -3.171  -1.099  1.00  0.00     0.078 A 
ATOM      8  C   UNL     1      -4.022  -4.526  -0.861  1.00  0.00     0.163 A 
ATOM      9  C   UNL     1      -2.719  -4.032   1.119  1.00  0.00     0.068 A 
ATOM     10  C   UNL     1      -3.221  -4.953   0.203  1.00  0.00     0.162 A 
ATOM     11  O   UNL     1      -4.623  -5.376  -1.750  1.00  0.00    -0.486 OA
ATOM     12  O   UNL     1      -2.900  -6.272   0.398  1.00  0.00    -0.486 OA
ATOM     13  C   UNL     1      -4.514  -6.743  -1.339  1.00  0.00     0.271 C 
ATOM     14  C   UNL     1      -3.118  -7.022  -0.807  1.00  0.00     0.271 C 
BRANCH   6  15
ATOM     15  N   UNL     1      -3.527  -0.873  -0.721  1.00  0.00    -0.278 N 
ATOM     16  H   UNL     1      -4.034  -0.155  -0.277  1.00  0.00     0.180 HD
BRANCH  15  17
ATOM     17  S   UNL     1      -2.518  -0.572  -2.090  1.00  0.00     0.271 S 
ATOM     18  O   UNL     1      -2.555   0.863  -2.307  1.00  0.00    -0.200 OA
ATOM     19  O   UNL     1      -2.912  -1.476  -3.142  1.00  0.00    -0.200 OA
BRANCH  17  20
ATOM     20  C   UNL     1      -0.855  -1.037  -1.681  1.00  0.00     0.140 A 
ATOM     21  C   UNL     1       2.723  -0.168  -0.426  1.00  0.00     0.056 C 
ATOM     22  C   UNL     1       1.475  -0.789  -0.945  1.00  0.00     0.003 A 
ATOM     23  C   UNL     1       1.025  -2.083  -0.789  1.00  0.00     0.016 A 
ATOM     24  S   UNL     1       0.365   0.148  -1.852  1.00  0.00    -0.127 S 
ATOM     25  C   UNL     1      -0.307  -2.238  -1.266  1.00  0.00     0.034 A 
ENDBRANCH  17  20
ENDBRANCH  15  17
ENDBRANCH   6  15
ENDBRANCH   3   5
ENDBRANCH   2   3
ENDBRANCH   1   2
BRANCH   1  26
ATOM     26  C   UNL     1      -0.581   0.480   3.305  1.00  0.00     0.275 C 
BRANCH  26  27
ATOM     27  O   UNL     1      -1.690   1.258   2.814  1.00  0.00    -0.458 OA
BRANCH  27  28
ATOM     28  C   UNL     1      -1.606   1.540   1.497  1.00  0.00     0.338 C 
ATOM     29  O   UNL     1      -0.671   1.263   0.763  1.00  0.00    -0.246 OA
BRANCH  28  30
ATOM     30  C   UNL     1      -2.804   2.203   0.967  1.00  0.00     0.060 A 
ATOM     31  C   UNL     1      -4.021   1.535   0.997  1.00  0.00     0.016 A 
ATOM     32  C   UNL     1      -2.651   3.349   0.183  1.00  0.00     0.016 A 
ATOM     33  C   UNL     1      -5.034   1.927   0.128  1.00  0.00     0.010 A 
ATOM     34  C   UNL     1      -3.721   3.817  -0.590  1.00  0.00     0.010 A 
ATOM     35  C   UNL     1      -4.915   3.087  -0.659  1.00  0.00    -0.014 A 
BRANCH  35  36
ATOM     36  C   UNL     1      -6.067   3.536  -1.492  1.00  0.00     0.031 A 
ATOM     37  C   UNL     1      -5.949   3.763  -2.979  1.00  0.00     0.074 A 
ATOM     38  C   UNL     1      -7.263   3.710  -0.893  1.00  0.00     0.049 A 
ATOM     39  N   UNL     1      -6.834   4.276  -3.801  1.00  0.00    -0.248 NA
ATOM     40  C   UNL     1      -4.693   3.365  -3.632  1.00  0.00     0.031 C 
ATOM     41  C   UNL     1      -7.536   3.483   0.530  1.00  0.00     0.029 A 
ATOM     42  N   UNL     1      -8.477   4.097  -1.401  1.00  0.00    -0.354 N 
ATOM     43  C   UNL     1      -6.232   4.293  -5.055  1.00  0.00     0.074 A 
ATOM     44  C   UNL     1      -4.907   3.732  -4.890  1.00  0.00     0.031 C 
ATOM     45  C   UNL     1      -8.840   3.660   0.764  1.00  0.00     0.029 A 
ATOM     46  C   UNL     1      -9.466   4.160  -0.451  1.00  0.00     0.049 A 
ATOM     47  H   UNL     1      -8.624   4.308  -2.351  1.00  0.00     0.167 HD
ATOM     48  C   UNL     1      -6.736   4.747  -6.229  1.00  0.00     0.031 A 
ATOM     49  C   UNL     1     -10.720   4.642  -0.506  1.00  0.00     0.031 A 
ATOM     50  C   UNL     1      -8.059   5.301  -6.389  1.00  0.00     0.049 A 
ATOM     51  C   UNL     1     -11.209   5.247  -1.780  1.00  0.00     0.074 A 
ATOM     52  C   UNL     1      -8.659   5.782  -7.542  1.00  0.00     0.029 A 
ATOM     53  N   UNL     1      -8.984   5.451  -5.369  1.00  0.00    -0.354 N 
ATOM     54  N   UNL     1     -10.602   5.321  -2.938  1.00  0.00    -0.248 NA
ATOM     55  C   UNL     1     -12.539   5.865  -1.746  1.00  0.00     0.031 C 
ATOM     56  C   UNL     1      -9.924   6.278  -7.207  1.00  0.00     0.029 A 
ATOM     57  C   UNL     1     -10.135   6.051  -5.857  1.00  0.00     0.049 A 
ATOM     58  H   UNL     1      -8.845   5.172  -4.435  1.00  0.00     0.167 HD
ATOM     59  C   UNL     1     -11.472   6.005  -3.773  1.00  0.00     0.074 A 
ATOM     60  C   UNL     1     -12.660   6.294  -2.995  1.00  0.00     0.031 C 
ATOM     61  C   UNL     1     -11.296   6.365  -5.066  1.00  0.00     0.031 A 
BRANCH  48  62
ATOM     62  C   UNL     1      -5.846   4.724  -7.444  1.00  0.00    -0.014 A 
ATOM     63  C   UNL     1      -5.579   3.536  -8.140  1.00  0.00     0.009 A 
ATOM     64  C   UNL     1      -5.354   5.936  -7.959  1.00  0.00     0.009 A 
ATOM     65  C   UNL     1      -4.828   3.562  -9.320  1.00  0.00     0.001 A 
ATOM     66  C   UNL     1      -4.623   5.961  -9.148  1.00  0.00     0.001 A 
ATOM     67  C   UNL     1      -4.358   4.774  -9.827  1.00  0.00     0.000 A 
ENDBRANCH  48  62
BRANCH  49  68
ATOM     68  C   UNL     1     -11.534   4.670   0.736  1.00  0.00    -0.014 A 
ATOM     69  C   UNL     1     -12.638   3.824   0.892  1.00  0.00     0.009 A 
ATOM     70  C   UNL     1     -11.152   5.501   1.805  1.00  0.00     0.009 A 
ATOM     71  C   UNL     1     -13.338   3.801   2.101  1.00  0.00     0.001 A 
ATOM     72  C   UNL     1     -11.829   5.448   3.022  1.00  0.00     0.001 A 
ATOM     73  C   UNL     1     -12.924   4.600   3.168  1.00  0.00     0.000 A 
ENDBRANCH  49  68
BRANCH  61  74
ATOM     74  C   UNL     1     -12.427   7.108  -5.712  1.00  0.00    -0.014 A 
ATOM     75  C   UNL     1     -12.679   8.453  -5.399  1.00  0.00     0.009 A 
ATOM     76  C   UNL     1     -13.259   6.452  -6.631  1.00  0.00     0.009 A 
ATOM     77  C   UNL     1     -13.769   9.116  -5.965  1.00  0.00     0.001 A 
ATOM     78  C   UNL     1     -14.332   7.125  -7.216  1.00  0.00     0.001 A 
ATOM     79  C   UNL     1     -14.593   8.451  -6.874  1.00  0.00     0.000 A 
ENDBRANCH  61  74
ENDBRANCH  35  36
ENDBRANCH  28  30
ENDBRANCH  27  28
ENDBRANCH  26  27
ENDBRANCH   1  26
TORSDOF 14
