REMARK SMILES C[C@@H]1CC[C@@H](C(=O)OCCOC(=O)c2ccc(-c3c4nc(c(-c5ccccc5)c5ccc([nH]5)c(-c5ccccc5)c5nc(c(-c6ccccc6)c6ccc3[nH]6)C=C5)C=C4)cc2)[C@H](SCC[NH+](C)C)C1
REMARK SMILES IDX 9 1 8 2 6 3 7 4 5 5 1 6 2 7 3 8 69 9 4 10 62 11 63 12 64 13
REMARK SMILES IDX 65 14 66 15 67 16 68 17 10 19 11 20 12 21 13 22 14 23 15 24
REMARK SMILES IDX 61 25 16 26 60 27 17 28 18 29 19 30 54 31 20 32 59 33 53 34
REMARK SMILES IDX 55 35 21 36 58 37 52 38 51 39 22 41 44 42 29 43 43 44 30 45
REMARK SMILES IDX 33 46 42 47 56 48 31 49 32 50 41 52 57 53 34 54 23 55 24 56
REMARK SMILES IDX 28 57 25 58 27 59 26 60 45 61 46 62 50 63 47 64 49 65 48 66
REMARK SMILES IDX 35 67 36 68 40 69 37 70 39 71 38 72
REMARK H PARENT 66 18 55 40 33 51
REMARK Flexibility Score: inf
ROOT
ATOM      1  C   UNL     1      -3.381   0.685  -3.764  1.00  0.00     0.274 C 
ENDROOT
BRANCH   1   2
ATOM      2  O   UNL     1      -3.359   0.880  -2.328  1.00  0.00    -0.462 OA
BRANCH   2   3
ATOM      3  C   UNL     1      -2.777  -0.126  -1.607  1.00  0.00     0.310 C 
ATOM      4  O   UNL     1      -2.395  -1.170  -2.118  1.00  0.00    -0.252 OA
BRANCH   3   5
ATOM      5  C   UNL     1      -2.455   0.334  -0.164  1.00  0.00     0.112 C 
ATOM      6  C   UNL     1       0.247  -2.459   1.615  1.00  0.00     0.007 C 
ATOM      7  C   UNL     1      -0.445  -1.831   0.399  1.00  0.00    -0.013 C 
ATOM      8  C   UNL     1      -0.018  -0.387  -0.008  1.00  0.00     0.004 C 
ATOM      9  C   UNL     1      -1.936  -2.011   0.584  1.00  0.00     0.018 C 
ATOM     10  C   UNL     1      -1.018   0.768  -0.250  1.00  0.00     0.017 C 
ATOM     11  C   UNL     1      -2.587  -0.694   0.973  1.00  0.00     0.061 C 
BRANCH  11  12
ATOM     12  S   UNL     1      -2.029  -0.251   2.805  1.00  0.00    -0.152 SA
BRANCH  12  13
ATOM     13  C   UNL     1      -0.487   0.883   2.929  1.00  0.00     0.131 C 
BRANCH  13  14
ATOM     14  C   UNL     1       0.982   0.436   3.356  1.00  0.00     0.272 C 
BRANCH  14  15
ATOM     15  N   UNL     1       2.085   0.587   2.352  1.00  0.00    -0.339 N 
ATOM     16  C   UNL     1       2.938   1.749   2.610  1.00  0.00     0.332 C 
ATOM     17  C   UNL     1       2.972  -0.587   2.231  1.00  0.00     0.332 C 
ATOM     18  H   UNL     1       1.573   0.705   1.478  1.00  0.00     0.347 HD
ENDBRANCH  14  15
ENDBRANCH  13  14
ENDBRANCH  12  13
ENDBRANCH  11  12
ENDBRANCH   3   5
ENDBRANCH   2   3
ENDBRANCH   1   2
BRANCH   1  19
ATOM     19  C   UNL     1      -2.319   1.558  -4.444  1.00  0.00     0.275 C 
BRANCH  19  20
ATOM     20  O   UNL     1      -0.988   1.164  -4.047  1.00  0.00    -0.458 OA
BRANCH  20  21
ATOM     21  C   UNL     1      -0.054   2.146  -4.066  1.00  0.00     0.338 C 
ATOM     22  O   UNL     1      -0.258   3.321  -4.387  1.00  0.00    -0.246 OA
BRANCH  21  23
ATOM     23  C   UNL     1       1.277   1.676  -3.593  1.00  0.00     0.060 A 
ATOM     24  C   UNL     1       1.430   0.451  -2.959  1.00  0.00     0.016 A 
ATOM     25  C   UNL     1       2.393   2.513  -3.678  1.00  0.00     0.016 A 
ATOM     26  C   UNL     1       2.605   0.166  -2.240  1.00  0.00     0.010 A 
ATOM     27  C   UNL     1       3.618   2.147  -3.085  1.00  0.00     0.010 A 
ATOM     28  C   UNL     1       3.732   0.998  -2.283  1.00  0.00    -0.014 A 
BRANCH  28  29
ATOM     29  C   UNL     1       4.971   0.715  -1.464  1.00  0.00     0.031 A 
ATOM     30  C   UNL     1       5.652   1.820  -0.670  1.00  0.00     0.074 A 
ATOM     31  C   UNL     1       5.504  -0.525  -1.349  1.00  0.00     0.049 A 
ATOM     32  N   UNL     1       6.840   1.831  -0.107  1.00  0.00    -0.248 NA
ATOM     33  C   UNL     1       4.905   3.075  -0.485  1.00  0.00     0.031 C 
ATOM     34  C   UNL     1       4.974  -1.753  -1.943  1.00  0.00     0.029 A 
ATOM     35  N   UNL     1       6.616  -0.963  -0.657  1.00  0.00    -0.354 N 
ATOM     36  C   UNL     1       7.008   3.108   0.420  1.00  0.00     0.074 A 
ATOM     37  C   UNL     1       5.797   3.843   0.126  1.00  0.00     0.031 C 
ATOM     38  C   UNL     1       5.689  -2.803  -1.514  1.00  0.00     0.029 A 
ATOM     39  C   UNL     1       6.823  -2.322  -0.736  1.00  0.00     0.049 A 
ATOM     40  H   UNL     1       7.207  -0.359  -0.152  1.00  0.00     0.167 HD
ATOM     41  C   UNL     1       8.068   3.633   1.085  1.00  0.00     0.031 A 
ATOM     42  C   UNL     1       7.831  -3.105  -0.300  1.00  0.00     0.031 A 
ATOM     43  C   UNL     1       9.259   2.913   1.453  1.00  0.00     0.049 A 
ATOM     44  C   UNL     1       9.038  -2.491   0.348  1.00  0.00     0.074 A 
ATOM     45  C   UNL     1      10.391   3.389   2.098  1.00  0.00     0.029 A 
ATOM     46  N   UNL     1       9.464   1.561   1.243  1.00  0.00    -0.354 N 
ATOM     47  N   UNL     1       9.246  -1.248   0.699  1.00  0.00    -0.248 NA
ATOM     48  C   UNL     1      10.173  -3.390   0.617  1.00  0.00     0.031 C 
ATOM     49  C   UNL     1      11.294   2.332   2.247  1.00  0.00     0.029 A 
ATOM     50  C   UNL     1      10.705   1.189   1.736  1.00  0.00     0.049 A 
ATOM     51  H   UNL     1       8.823   0.954   0.808  1.00  0.00     0.167 HD
ATOM     52  C   UNL     1      10.532  -1.215   1.224  1.00  0.00     0.074 A 
ATOM     53  C   UNL     1      11.046  -2.566   1.178  1.00  0.00     0.031 C 
ATOM     54  C   UNL     1      11.227  -0.149   1.687  1.00  0.00     0.031 A 
BRANCH  41  55
ATOM     55  C   UNL     1       8.019   5.096   1.427  1.00  0.00    -0.014 A 
ATOM     56  C   UNL     1       7.258   5.577   2.503  1.00  0.00     0.009 A 
ATOM     57  C   UNL     1       8.809   5.998   0.694  1.00  0.00     0.009 A 
ATOM     58  C   UNL     1       7.271   6.937   2.822  1.00  0.00     0.001 A 
ATOM     59  C   UNL     1       8.839   7.352   1.031  1.00  0.00     0.001 A 
ATOM     60  C   UNL     1       8.065   7.821   2.090  1.00  0.00     0.000 A 
ENDBRANCH  41  55
BRANCH  42  61
ATOM     61  C   UNL     1       7.793  -4.574  -0.543  1.00  0.00    -0.014 A 
ATOM     62  C   UNL     1       7.682  -5.470   0.531  1.00  0.00     0.009 A 
ATOM     63  C   UNL     1       7.893  -5.087  -1.847  1.00  0.00     0.009 A 
ATOM     64  C   UNL     1       7.679  -6.849   0.304  1.00  0.00     0.001 A 
ATOM     65  C   UNL     1       7.853  -6.463  -2.073  1.00  0.00     0.001 A 
ATOM     66  C   UNL     1       7.754  -7.343  -0.998  1.00  0.00     0.000 A 
ENDBRANCH  42  61
BRANCH  54  67
ATOM     67  C   UNL     1      12.616  -0.400   2.201  1.00  0.00    -0.014 A 
ATOM     68  C   UNL     1      13.678  -0.651   1.319  1.00  0.00     0.009 A 
ATOM     69  C   UNL     1      12.871  -0.362   3.581  1.00  0.00     0.009 A 
ATOM     70  C   UNL     1      14.964  -0.890   1.812  1.00  0.00     0.001 A 
ATOM     71  C   UNL     1      14.161  -0.578   4.069  1.00  0.00     0.001 A 
ATOM     72  C   UNL     1      15.204  -0.850   3.185  1.00  0.00     0.000 A 
ENDBRANCH  54  67
ENDBRANCH  28  29
ENDBRANCH  21  23
ENDBRANCH  20  21
ENDBRANCH  19  20
ENDBRANCH   1  19
TORSDOF 15
