REMARK SMILES COCCCN1C(=O)CC[C@@H](C(=O)OCCOC(=O)c2ccc(-c3c4nc(c(-c5ccccc5)c5ccc([nH]5)c(-c5ccccc5)c5nc(c(-c6ccccc6)c6ccc3[nH]6)C=C5)C=C4)cc2)[C@@H]1c1ccc(F)cc1
REMARK SMILES IDX 15 1 14 2 12 3 13 4 11 5 6 6 7 7 68 8 8 9 9 10 10 11 5 12
REMARK SMILES IDX 4 13 3 14 2 15 1 16 69 17 70 18 75 19 71 20 74 21 72 22
REMARK SMILES IDX 73 23 16 24 17 25 18 26 19 27 20 28 21 29 67 30 22 31 66 32
REMARK SMILES IDX 23 33 24 34 25 35 60 36 26 37 65 38 59 39 61 40 27 41 64 42
REMARK SMILES IDX 58 43 57 44 28 46 50 47 35 48 49 49 36 50 39 51 48 52 62 53
REMARK SMILES IDX 37 54 38 55 47 57 63 58 40 59 29 60 30 61 34 62 31 63 33 64
REMARK SMILES IDX 32 65 51 66 52 67 56 68 53 69 55 70 54 71 41 72 42 73 46 74
REMARK SMILES IDX 43 75 45 76 44 77
REMARK H PARENT 61 45 39 56
REMARK Flexibility Score: inf
ROOT
ATOM      1  C   UNL     1       4.406   3.539  -5.382  1.00  0.00     0.274 C 
ENDROOT
BRANCH   1   2
ATOM      2  O   UNL     1       4.434   3.910  -3.983  1.00  0.00    -0.462 OA
BRANCH   2   3
ATOM      3  C   UNL     1       4.127   2.921  -3.097  1.00  0.00     0.311 C 
ATOM      4  O   UNL     1       3.927   1.756  -3.410  1.00  0.00    -0.252 OA
BRANCH   3   5
ATOM      5  C   UNL     1       4.077   3.451  -1.666  1.00  0.00     0.127 C 
ATOM      6  N   UNL     1       2.097   2.079  -1.157  1.00  0.00    -0.335 N 
ATOM      7  C   UNL     1       2.870   1.023  -0.694  1.00  0.00     0.223 C 
ATOM      8  C   UNL     1       2.635   3.448  -1.121  1.00  0.00     0.129 C 
ATOM      9  O   UNL     1       2.430  -0.111  -0.518  1.00  0.00    -0.275 OA
ATOM     10  C   UNL     1       4.318   1.301  -0.314  1.00  0.00     0.101 C 
ATOM     11  C   UNL     1       4.949   2.629  -0.723  1.00  0.00     0.028 C 
BRANCH   6  12
ATOM     12  C   UNL     1       0.661   1.911  -1.434  1.00  0.00     0.122 C 
BRANCH  12  13
ATOM     13  C   UNL     1       0.282   0.897  -2.518  1.00  0.00     0.050 C 
BRANCH  13  14
ATOM     14  C   UNL     1      -0.032  -0.529  -2.060  1.00  0.00     0.161 C 
BRANCH  14  15
ATOM     15  O   UNL     1      -0.962  -0.565  -0.976  1.00  0.00    -0.385 OA
ATOM     16  C   UNL     1      -0.360  -0.933   0.263  1.00  0.00     0.194 C 
ENDBRANCH  14  15
ENDBRANCH  13  14
ENDBRANCH  12  13
ENDBRANCH   6  12
BRANCH   8  17
ATOM     17  C   UNL     1       2.562   4.053   0.299  1.00  0.00    -0.024 A 
ATOM     18  C   UNL     1       2.066   3.326   1.403  1.00  0.00     0.009 A 
ATOM     19  C   UNL     1       3.092   5.333   0.546  1.00  0.00     0.009 A 
ATOM     20  C   UNL     1       2.166   3.820   2.704  1.00  0.00     0.039 A 
ATOM     21  C   UNL     1       3.195   5.826   1.851  1.00  0.00     0.039 A 
ATOM     22  C   UNL     1       2.743   5.060   2.918  1.00  0.00     0.123 A 
ATOM     23  F   UNL     1       2.874   5.521   4.168  1.00  0.00    -0.207 F 
ENDBRANCH   8  17
ENDBRANCH   3   5
ENDBRANCH   2   3
ENDBRANCH   1   2
BRANCH   1  24
ATOM     24  C   UNL     1       5.793   3.167  -5.913  1.00  0.00     0.275 C 
BRANCH  24  25
ATOM     25  O   UNL     1       6.180   1.875  -5.413  1.00  0.00    -0.458 OA
BRANCH  25  26
ATOM     26  C   UNL     1       7.380   1.806  -4.795  1.00  0.00     0.338 C 
ATOM     27  O   UNL     1       8.206   2.690  -4.663  1.00  0.00    -0.246 OA
BRANCH  26  28
ATOM     28  C   UNL     1       7.500   0.491  -4.146  1.00  0.00     0.060 A 
ATOM     29  C   UNL     1       6.845   0.325  -2.931  1.00  0.00     0.016 A 
ATOM     30  C   UNL     1       8.320  -0.519  -4.641  1.00  0.00     0.016 A 
ATOM     31  C   UNL     1       7.025  -0.823  -2.174  1.00  0.00     0.010 A 
ATOM     32  C   UNL     1       8.471  -1.701  -3.899  1.00  0.00     0.010 A 
ATOM     33  C   UNL     1       7.838  -1.850  -2.652  1.00  0.00    -0.014 A 
BRANCH  33  34
ATOM     34  C   UNL     1       8.075  -3.023  -1.778  1.00  0.00     0.031 A 
ATOM     35  C   UNL     1       9.385  -3.155  -1.060  1.00  0.00     0.074 A 
ATOM     36  C   UNL     1       7.085  -3.900  -1.525  1.00  0.00     0.049 A 
ATOM     37  N   UNL     1       9.831  -4.141  -0.327  1.00  0.00    -0.248 NA
ATOM     38  C   UNL     1      10.306  -2.010  -1.161  1.00  0.00     0.031 C 
ATOM     39  C   UNL     1       5.711  -3.799  -2.021  1.00  0.00     0.029 A 
ATOM     40  N   UNL     1       7.082  -5.040  -0.761  1.00  0.00    -0.354 N 
ATOM     41  C   UNL     1      11.093  -3.751   0.099  1.00  0.00     0.074 A 
ATOM     42  C   UNL     1      11.341  -2.436  -0.452  1.00  0.00     0.031 C 
ATOM     43  C   UNL     1       4.998  -4.832  -1.544  1.00  0.00     0.029 A 
ATOM     44  C   UNL     1       5.878  -5.702  -0.771  1.00  0.00     0.049 A 
ATOM     45  H   UNL     1       7.866  -5.354  -0.256  1.00  0.00     0.167 HD
ATOM     46  C   UNL     1      11.972  -4.435   0.869  1.00  0.00     0.031 A 
ATOM     47  C   UNL     1       5.539  -6.899  -0.254  1.00  0.00     0.031 A 
ATOM     48  C   UNL     1      11.728  -5.743   1.411  1.00  0.00     0.049 A 
ATOM     49  C   UNL     1       6.583  -7.708   0.465  1.00  0.00     0.074 A 
ATOM     50  C   UNL     1      12.582  -6.548   2.145  1.00  0.00     0.029 A 
ATOM     51  N   UNL     1      10.536  -6.437   1.280  1.00  0.00    -0.354 N 
ATOM     52  N   UNL     1       7.813  -7.381   0.778  1.00  0.00    -0.248 NA
ATOM     53  C   UNL     1       6.196  -9.065   0.881  1.00  0.00     0.031 C 
ATOM     54  C   UNL     1      11.919  -7.750   2.419  1.00  0.00     0.029 A 
ATOM     55  C   UNL     1      10.638  -7.671   1.897  1.00  0.00     0.049 A 
ATOM     56  H   UNL     1       9.735  -6.102   0.816  1.00  0.00     0.167 HD
ATOM     57  C   UNL     1       8.342  -8.482   1.439  1.00  0.00     0.074 A 
ATOM     58  C   UNL     1       7.294  -9.480   1.498  1.00  0.00     0.031 C 
ATOM     59  C   UNL     1       9.586  -8.652   1.947  1.00  0.00     0.031 A 
BRANCH  46  60
ATOM     60  C   UNL     1      13.311  -3.801   1.099  1.00  0.00    -0.014 A 
ATOM     61  C   UNL     1      13.480  -2.751   2.013  1.00  0.00     0.009 A 
ATOM     62  C   UNL     1      14.423  -4.270   0.382  1.00  0.00     0.009 A 
ATOM     63  C   UNL     1      14.736  -2.164   2.184  1.00  0.00     0.001 A 
ATOM     64  C   UNL     1      15.680  -3.695   0.570  1.00  0.00     0.001 A 
ATOM     65  C   UNL     1      15.834  -2.637   1.465  1.00  0.00     0.000 A 
ENDBRANCH  46  60
BRANCH  47  66
ATOM     66  C   UNL     1       4.176  -7.451  -0.472  1.00  0.00    -0.014 A 
ATOM     67  C   UNL     1       3.292  -7.634   0.601  1.00  0.00     0.009 A 
ATOM     68  C   UNL     1       3.769  -7.837  -1.760  1.00  0.00     0.009 A 
ATOM     69  C   UNL     1       2.037  -8.213   0.391  1.00  0.00     0.001 A 
ATOM     70  C   UNL     1       2.505  -8.389  -1.971  1.00  0.00     0.001 A 
ATOM     71  C   UNL     1       1.644  -8.586  -0.894  1.00  0.00     0.000 A 
ENDBRANCH  47  66
BRANCH  59  72
ATOM     72  C   UNL     1       9.872  -9.954   2.637  1.00  0.00    -0.014 A 
ATOM     73  C   UNL     1      10.077 -11.133   1.904  1.00  0.00     0.009 A 
ATOM     74  C   UNL     1       9.980  -9.992   4.036  1.00  0.00     0.009 A 
ATOM     75  C   UNL     1      10.360 -12.331   2.563  1.00  0.00     0.001 A 
ATOM     76  C   UNL     1      10.286 -11.186   4.689  1.00  0.00     0.001 A 
ATOM     77  C   UNL     1      10.469 -12.355   3.953  1.00  0.00     0.000 A 
ENDBRANCH  59  72
ENDBRANCH  33  34
ENDBRANCH  26  28
ENDBRANCH  25  26
ENDBRANCH  24  25
ENDBRANCH   1  24
TORSDOF 16
