REMARK SMILES O=C(OCCOC(=O)c1ccccc1/N=C/c1coc2ccccc2c1=O)c1ccc(-c2c3nc(c(-c4ccccc4)c4ccc([nH]4)c(-c4ccccc4)c4nc(c(-c5ccccc5)c5ccc2[nH]5)C=C4)C=C3)cc1
REMARK SMILES IDX 4 1 3 2 2 3 1 4 28 5 29 6 75 7 30 8 74 9 31 10 32 11 33 12
REMARK SMILES IDX 68 13 34 14 73 15 67 16 69 17 35 18 72 19 66 20 65 21 36 23
REMARK SMILES IDX 58 24 43 25 57 26 44 27 47 28 56 29 70 30 45 31 46 32 55 34
REMARK SMILES IDX 71 35 48 36 37 37 38 38 42 39 39 40 41 41 40 42 59 43 60 44
REMARK SMILES IDX 64 45 61 46 63 47 62 48 49 49 50 50 54 51 51 52 53 53 52 54
REMARK SMILES IDX 5 55 6 56 7 57 8 58 9 59 10 60 14 61 11 62 13 63 12 64 15 65
REMARK SMILES IDX 16 66 17 67 18 68 26 69 19 70 25 71 27 72 20 73 24 74 21 75
REMARK SMILES IDX 23 76 22 77
REMARK H PARENT 69 22 47 33
REMARK Flexibility Score: inf
ROOT
ATOM      1  C   UNL     1       4.144  -1.175  -0.918  1.00  0.00     0.275 C 
ENDROOT
BRANCH   1   2
ATOM      2  O   UNL     1       3.113  -1.511   0.024  1.00  0.00    -0.458 OA
BRANCH   2   3
ATOM      3  C   UNL     1       2.759  -0.901   1.178  1.00  0.00     0.338 C 
ATOM      4  O   UNL     1       1.681  -1.210   1.686  1.00  0.00    -0.246 OA
BRANCH   3   5
ATOM      5  C   UNL     1       3.583   0.133   1.891  1.00  0.00     0.060 A 
ATOM      6  C   UNL     1       4.945   0.375   1.704  1.00  0.00     0.016 A 
ATOM      7  C   UNL     1       2.925   0.873   2.893  1.00  0.00     0.016 A 
ATOM      8  C   UNL     1       5.638   1.306   2.491  1.00  0.00     0.010 A 
ATOM      9  C   UNL     1       3.609   1.810   3.676  1.00  0.00     0.010 A 
ATOM     10  C   UNL     1       4.987   2.013   3.499  1.00  0.00    -0.014 A 
BRANCH  10  11
ATOM     11  C   UNL     1       5.755   2.807   4.489  1.00  0.00     0.031 A 
ATOM     12  C   UNL     1       6.017   2.190   5.819  1.00  0.00     0.074 A 
ATOM     13  C   UNL     1       6.298   4.009   4.223  1.00  0.00     0.049 A 
ATOM     14  N   UNL     1       6.777   2.647   6.775  1.00  0.00    -0.248 NA
ATOM     15  C   UNL     1       5.462   0.849   6.062  1.00  0.00     0.031 C 
ATOM     16  C   UNL     1       6.423   4.588   2.903  1.00  0.00     0.029 A 
ATOM     17  N   UNL     1       6.820   4.981   5.038  1.00  0.00    -0.354 N 
ATOM     18  C   UNL     1       6.886   1.608   7.677  1.00  0.00     0.074 A 
ATOM     19  C   UNL     1       6.018   0.543   7.223  1.00  0.00     0.031 C 
ATOM     20  C   UNL     1       6.749   5.885   2.996  1.00  0.00     0.029 A 
ATOM     21  C   UNL     1       7.002   6.185   4.391  1.00  0.00     0.049 A 
ATOM     22  H   UNL     1       7.042   4.835   5.986  1.00  0.00     0.167 HD
ATOM     23  C   UNL     1       7.705   1.534   8.747  1.00  0.00     0.031 A 
ATOM     24  C   UNL     1       7.395   7.386   4.848  1.00  0.00     0.031 A 
ATOM     25  C   UNL     1       8.508   2.634   9.207  1.00  0.00     0.049 A 
ATOM     26  C   UNL     1       8.065   7.386   6.184  1.00  0.00     0.074 A 
ATOM     27  C   UNL     1       9.334   2.695  10.312  1.00  0.00     0.029 A 
ATOM     28  N   UNL     1       8.555   3.884   8.598  1.00  0.00    -0.354 N 
ATOM     29  N   UNL     1       8.207   6.382   7.016  1.00  0.00    -0.248 NA
ATOM     30  C   UNL     1       8.761   8.613   6.578  1.00  0.00     0.031 C 
ATOM     31  C   UNL     1       9.817   4.005  10.418  1.00  0.00     0.029 A 
ATOM     32  C   UNL     1       9.349   4.743   9.341  1.00  0.00     0.049 A 
ATOM     33  H   UNL     1       8.093   4.123   7.763  1.00  0.00     0.167 HD
ATOM     34  C   UNL     1       9.095   6.817   7.981  1.00  0.00     0.074 A 
ATOM     35  C   UNL     1       9.427   8.192   7.645  1.00  0.00     0.031 C 
ATOM     36  C   UNL     1       9.624   6.123   9.017  1.00  0.00     0.031 A 
BRANCH  23  37
ATOM     37  C   UNL     1       7.695   0.231   9.483  1.00  0.00    -0.014 A 
ATOM     38  C   UNL     1       8.253  -0.930   8.917  1.00  0.00     0.009 A 
ATOM     39  C   UNL     1       7.035   0.141  10.714  1.00  0.00     0.009 A 
ATOM     40  C   UNL     1       8.102  -2.166   9.550  1.00  0.00     0.001 A 
ATOM     41  C   UNL     1       6.908  -1.091  11.356  1.00  0.00     0.001 A 
ATOM     42  C   UNL     1       7.428  -2.244  10.768  1.00  0.00     0.000 A 
ENDBRANCH  23  37
BRANCH  24  43
ATOM     43  C   UNL     1       7.343   8.592   3.978  1.00  0.00    -0.014 A 
ATOM     44  C   UNL     1       8.494   9.096   3.357  1.00  0.00     0.009 A 
ATOM     45  C   UNL     1       6.117   9.239   3.747  1.00  0.00     0.009 A 
ATOM     46  C   UNL     1       8.426  10.235   2.548  1.00  0.00     0.001 A 
ATOM     47  C   UNL     1       6.048  10.371   2.926  1.00  0.00     0.001 A 
ATOM     48  C   UNL     1       7.205  10.872   2.333  1.00  0.00     0.000 A 
ENDBRANCH  24  43
BRANCH  36  49
ATOM     49  C   UNL     1      10.617   6.861   9.864  1.00  0.00    -0.014 A 
ATOM     50  C   UNL     1      10.219   7.927  10.684  1.00  0.00     0.009 A 
ATOM     51  C   UNL     1      11.968   6.483   9.837  1.00  0.00     0.009 A 
ATOM     52  C   UNL     1      11.165   8.635  11.425  1.00  0.00     0.001 A 
ATOM     53  C   UNL     1      12.905   7.169  10.607  1.00  0.00     0.001 A 
ATOM     54  C   UNL     1      12.505   8.252  11.389  1.00  0.00     0.000 A 
ENDBRANCH  36  49
ENDBRANCH  10  11
ENDBRANCH   3   5
ENDBRANCH   2   3
ENDBRANCH   1   2
BRANCH   1  55
ATOM     55  C   UNL     1       3.937   0.137  -1.669  1.00  0.00     0.275 C 
BRANCH  55  56
ATOM     56  O   UNL     1       3.169   1.096  -0.930  1.00  0.00    -0.458 OA
BRANCH  56  57
ATOM     57  C   UNL     1       1.990   1.455  -1.485  1.00  0.00     0.340 C 
ATOM     58  O   UNL     1       1.490   1.029  -2.520  1.00  0.00    -0.246 OA
BRANCH  57  59
ATOM     59  C   UNL     1       1.400   2.532  -0.697  1.00  0.00     0.085 A 
ATOM     60  C   UNL     1       0.585   2.134   0.381  1.00  0.00     0.018 A 
ATOM     61  C   UNL     1       1.633   3.889  -0.983  1.00  0.00     0.077 A 
ATOM     62  C   UNL     1       0.001   3.087   1.212  1.00  0.00     0.001 A 
ATOM     63  C   UNL     1       0.958   4.821  -0.169  1.00  0.00     0.029 A 
ATOM     64  C   UNL     1       0.173   4.435   0.925  1.00  0.00     0.002 A 
BRANCH  61  65
ATOM     65  N   UNL     1       2.694   4.474  -1.715  1.00  0.00    -0.255 NA
ATOM     66  C   UNL     1       3.598   3.829  -2.377  1.00  0.00     0.127 C 
BRANCH  66  67
ATOM     67  C   UNL     1       5.061   4.152  -2.118  1.00  0.00     0.076 A 
ATOM     68  C   UNL     1       5.483   5.400  -2.418  1.00  0.00     0.209 A 
ATOM     69  C   UNL     1       5.311   3.910  -0.660  1.00  0.00     0.201 A 
ATOM     70  O   UNL     1       5.534   6.473  -1.500  1.00  0.00    -0.463 OA
ATOM     71  C   UNL     1       4.735   4.974   0.184  1.00  0.00     0.065 A 
ATOM     72  O   UNL     1       5.863   2.904  -0.244  1.00  0.00    -0.288 OA
ATOM     73  C   UNL     1       4.890   6.267  -0.301  1.00  0.00     0.137 A 
ATOM     74  C   UNL     1       3.943   4.712   1.297  1.00  0.00     0.016 A 
ATOM     75  C   UNL     1       4.354   7.338   0.403  1.00  0.00     0.048 A 
ATOM     76  C   UNL     1       3.386   5.779   1.998  1.00  0.00     0.001 A 
ATOM     77  C   UNL     1       3.603   7.089   1.558  1.00  0.00     0.004 A 
ENDBRANCH  66  67
ENDBRANCH  61  65
ENDBRANCH  57  59
ENDBRANCH  56  57
ENDBRANCH  55  56
ENDBRANCH   1  55
TORSDOF 13
