REMARK SMILES COc1c(C)cc(Br)cc1C(=O)Nc1ccc(O)c(C(=O)OCCOC(=O)c2ccc(-c3c4nc(c(-c5ccccc5)c5ccc([nH]5)c(-c5ccccc5)c5nc(c(-c6ccccc6)c6ccc3[nH]6)C=C5)C=C4)cc2)c1
REMARK SMILES IDX 23 1 22 2 20 3 21 4 19 5 14 6 15 7 76 8 16 9 17 10 13 11
REMARK SMILES IDX 11 12 12 13 10 15 3 16 4 17 5 18 6 19 9 20 7 21 8 22 2 23
REMARK SMILES IDX 1 24 18 25 24 27 25 28 26 29 27 30 28 31 29 32 75 33 30 34
REMARK SMILES IDX 74 35 31 36 32 37 33 38 68 39 34 40 73 41 67 42 69 43 35 44
REMARK SMILES IDX 72 45 66 46 65 47 36 49 58 50 43 51 57 52 44 53 47 54 56 55
REMARK SMILES IDX 70 56 45 57 46 58 55 60 71 61 48 62 37 63 38 64 42 65 39 66
REMARK SMILES IDX 41 67 40 68 59 69 60 70 64 71 61 72 63 73 62 74 49 75 50 76
REMARK SMILES IDX 54 77 51 78 53 79 52 80
REMARK H PARENT 13 14 18 26 69 48 47 59
REMARK Flexibility Score: inf
ROOT
ATOM      1  C   UNL     1       1.403  -2.252   5.516  1.00  0.00     0.275 C 
ENDROOT
BRANCH   1   2
ATOM      2  O   UNL     1       1.109  -1.363   4.424  1.00  0.00    -0.458 OA
BRANCH   2   3
ATOM      3  C   UNL     1       0.946  -1.925   3.207  1.00  0.00     0.342 C 
ATOM      4  O   UNL     1       1.120  -3.107   2.941  1.00  0.00    -0.246 OA
BRANCH   3   5
ATOM      5  C   UNL     1       0.382  -0.966   2.217  1.00  0.00     0.103 A 
ATOM      6  C   UNL     1      -0.729  -0.706   0.067  1.00  0.00     0.042 A 
ATOM      7  C   UNL     1      -0.737   0.675   0.224  1.00  0.00     0.030 A 
ATOM      8  C   UNL     1      -0.218  -1.525   1.074  1.00  0.00     0.045 A 
ATOM      9  C   UNL     1      -0.124   1.246   1.341  1.00  0.00     0.049 A 
ATOM     10  C   UNL     1       0.461   0.430   2.318  1.00  0.00     0.130 A 
BRANCH   6  11
ATOM     11  N   UNL     1      -1.381  -1.269  -1.027  1.00  0.00    -0.322 N 
ATOM     12  C   UNL     1      -0.867  -2.102  -1.995  1.00  0.00     0.259 C 
ATOM     13  O   UNL     1      -1.621  -2.979  -2.428  1.00  0.00    -0.269 OA
ATOM     14  H   UNL     1      -2.335  -1.041  -1.120  1.00  0.00     0.170 HD
BRANCH  12  15
ATOM     15  C   UNL     1       0.417  -1.860  -2.729  1.00  0.00     0.083 A 
ATOM     16  C   UNL     1       1.714  -1.659  -2.210  1.00  0.00     0.134 A 
ATOM     17  C   UNL     1       2.832  -1.666  -3.087  1.00  0.00    -0.007 A 
ATOM     18  C   UNL     1       4.261  -1.621  -2.613  1.00  0.00     0.048 C 
ATOM     19  C   UNL     1       2.631  -1.755  -4.473  1.00  0.00     0.023 A 
ATOM     20  C   UNL     1       0.262  -1.970  -4.130  1.00  0.00     0.033 A 
ATOM     21  C   UNL     1       1.353  -1.905  -4.987  1.00  0.00     0.019 A 
ATOM     22  Br  UNL     1       1.111  -2.089  -6.852  1.00  0.00    -0.051 Br
BRANCH  16  23
ATOM     23  O   UNL     1       1.912  -1.598  -0.856  1.00  0.00    -0.496 OA
ATOM     24  C   UNL     1       2.604  -0.417  -0.437  1.00  0.00     0.278 C 
ENDBRANCH  16  23
ENDBRANCH  12  15
ENDBRANCH   6  11
BRANCH  10  25
ATOM     25  O   UNL     1       1.185   1.023   3.312  1.00  0.00    -0.507 OA
ATOM     26  H   UNL     1       1.229   1.958   3.366  1.00  0.00     0.293 HD
ENDBRANCH  10  25
ENDBRANCH   3   5
ENDBRANCH   2   3
ENDBRANCH   1   2
BRANCH   1  27
ATOM     27  C   UNL     1       0.168  -2.383   6.402  1.00  0.00     0.275 C 
BRANCH  27  28
ATOM     28  O   UNL     1      -0.883  -3.047   5.674  1.00  0.00    -0.458 OA
BRANCH  28  29
ATOM     29  C   UNL     1      -1.887  -2.249   5.245  1.00  0.00     0.338 C 
ATOM     30  O   UNL     1      -2.050  -1.061   5.460  1.00  0.00    -0.246 OA
BRANCH  29  31
ATOM     31  C   UNL     1      -2.819  -3.038   4.428  1.00  0.00     0.060 A 
ATOM     32  C   UNL     1      -2.444  -3.443   3.148  1.00  0.00     0.016 A 
ATOM     33  C   UNL     1      -4.115  -3.259   4.886  1.00  0.00     0.016 A 
ATOM     34  C   UNL     1      -3.389  -3.991   2.284  1.00  0.00     0.010 A 
ATOM     35  C   UNL     1      -5.035  -3.899   4.052  1.00  0.00     0.010 A 
ATOM     36  C   UNL     1      -4.695  -4.239   2.728  1.00  0.00    -0.014 A 
BRANCH  36  37
ATOM     37  C   UNL     1      -5.724  -4.821   1.822  1.00  0.00     0.031 A 
ATOM     38  C   UNL     1      -7.008  -4.074   1.565  1.00  0.00     0.074 A 
ATOM     39  C   UNL     1      -5.534  -6.025   1.247  1.00  0.00     0.049 A 
ATOM     40  N   UNL     1      -8.117  -4.496   1.013  1.00  0.00    -0.248 NA
ATOM     41  C   UNL     1      -7.053  -2.670   2.006  1.00  0.00     0.031 C 
ATOM     42  C   UNL     1      -4.322  -6.839   1.351  1.00  0.00     0.029 A 
ATOM     43  N   UNL     1      -6.371  -6.778   0.460  1.00  0.00    -0.354 N 
ATOM     44  C   UNL     1      -9.010  -3.433   1.097  1.00  0.00     0.074 A 
ATOM     45  C   UNL     1      -8.314  -2.348   1.755  1.00  0.00     0.031 C 
ATOM     46  C   UNL     1      -4.482  -7.961   0.633  1.00  0.00     0.029 A 
ATOM     47  C   UNL     1      -5.837  -7.991   0.096  1.00  0.00     0.049 A 
ATOM     48  H   UNL     1      -7.266  -6.478   0.183  1.00  0.00     0.167 HD
ATOM     49  C   UNL     1     -10.294  -3.371   0.670  1.00  0.00     0.031 A 
ATOM     50  C   UNL     1      -6.387  -9.034  -0.552  1.00  0.00     0.031 A 
ATOM     51  C   UNL     1     -10.971  -4.437  -0.020  1.00  0.00     0.049 A 
ATOM     52  C   UNL     1      -7.827  -8.962  -0.972  1.00  0.00     0.074 A 
ATOM     53  C   UNL     1     -12.269  -4.467  -0.503  1.00  0.00     0.029 A 
ATOM     54  N   UNL     1     -10.397  -5.657  -0.342  1.00  0.00    -0.354 N 
ATOM     55  N   UNL     1      -8.680  -7.977  -0.833  1.00  0.00    -0.248 NA
ATOM     56  C   UNL     1      -8.385 -10.155  -1.625  1.00  0.00     0.031 C 
ATOM     57  C   UNL     1     -12.492  -5.721  -1.080  1.00  0.00     0.029 A 
ATOM     58  C   UNL     1     -11.318  -6.452  -1.003  1.00  0.00     0.049 A 
ATOM     59  H   UNL     1      -9.472  -5.919  -0.131  1.00  0.00     0.167 HD
ATOM     60  C   UNL     1      -9.867  -8.422  -1.398  1.00  0.00     0.074 A 
ATOM     61  C   UNL     1      -9.621  -9.760  -1.894  1.00  0.00     0.031 C 
ATOM     62  C   UNL     1     -11.056  -7.779  -1.495  1.00  0.00     0.031 A 
BRANCH  49  63
ATOM     63  C   UNL     1     -11.069  -2.119   0.979  1.00  0.00    -0.014 A 
ATOM     64  C   UNL     1     -10.816  -0.911   0.312  1.00  0.00     0.009 A 
ATOM     65  C   UNL     1     -12.097  -2.164   1.935  1.00  0.00     0.009 A 
ATOM     66  C   UNL     1     -11.553   0.235   0.623  1.00  0.00     0.001 A 
ATOM     67  C   UNL     1     -12.851  -1.025   2.223  1.00  0.00     0.001 A 
ATOM     68  C   UNL     1     -12.571   0.176   1.574  1.00  0.00     0.000 A 
ENDBRANCH  49  63
BRANCH  50  69
ATOM     69  C   UNL     1      -5.585 -10.262  -0.796  1.00  0.00    -0.014 A 
ATOM     70  C   UNL     1      -5.191 -10.609  -2.097  1.00  0.00     0.009 A 
ATOM     71  C   UNL     1      -5.205 -11.091   0.272  1.00  0.00     0.009 A 
ATOM     72  C   UNL     1      -4.447 -11.769  -2.324  1.00  0.00     0.001 A 
ATOM     73  C   UNL     1      -4.434 -12.232   0.045  1.00  0.00     0.001 A 
ATOM     74  C   UNL     1      -4.063 -12.575  -1.253  1.00  0.00     0.000 A 
ENDBRANCH  50  69
BRANCH  62  75
ATOM     75  C   UNL     1     -12.167  -8.498  -2.203  1.00  0.00    -0.014 A 
ATOM     76  C   UNL     1     -12.850  -9.563  -1.596  1.00  0.00     0.009 A 
ATOM     77  C   UNL     1     -12.559  -8.077  -3.483  1.00  0.00     0.009 A 
ATOM     78  C   UNL     1     -13.887 -10.211  -2.272  1.00  0.00     0.001 A 
ATOM     79  C   UNL     1     -13.611  -8.709  -4.145  1.00  0.00     0.001 A 
ATOM     80  C   UNL     1     -14.269  -9.780  -3.542  1.00  0.00     0.000 A 
ENDBRANCH  62  75
ENDBRANCH  36  37
ENDBRANCH  29  31
ENDBRANCH  28  29
ENDBRANCH  27  28
ENDBRANCH   1  27
TORSDOF 15
