REMARK SMILES C[C@]([NH3+])(C(=O)N[C@H]1CCCCC[C@@H]1C(=O)OCCOC(=O)c1ccc(-c2c3nc(c(-c4ccccc4)c4ccc([nH]4)c(-c4ccccc4)c4nc(c(-c5ccccc5)c5ccc2[nH]5)C=C4)C=C3)cc1)C(F)(F)F
REMARK SMILES IDX 16 1 14 2 15 3 13 4 7 5 6 6 4 7 5 8 2 10 1 11 70 12 71 13
REMARK SMILES IDX 72 14 73 15 3 16 8 20 9 21 10 22 11 23 12 25 17 27 18 28
REMARK SMILES IDX 19 29 20 30 21 31 22 32 23 33 69 34 24 35 68 36 25 37 26 38
REMARK SMILES IDX 27 39 62 40 28 41 67 42 61 43 63 44 29 45 66 46 60 47 59 48
REMARK SMILES IDX 30 50 52 51 37 52 51 53 38 54 41 55 50 56 64 57 39 58 40 59
REMARK SMILES IDX 49 61 65 62 42 63 31 64 32 65 36 66 33 67 35 68 34 69 53 70
REMARK SMILES IDX 54 71 58 72 55 73 57 74 56 75 43 76 44 77 48 78 45 79 47 80
REMARK SMILES IDX 46 81
REMARK H PARENT 6 9 3 17 3 18 3 19 63 49 41 60
REMARK Flexibility Score: 90.00
ROOT
ATOM      1  O   UNL     1      -0.165   1.637  -1.288  1.00  0.00    -0.462 OA
ENDROOT
BRANCH   1   2
ATOM      2  C   UNL     1      -1.157   1.417  -0.382  1.00  0.00     0.311 C 
ATOM      3  O   UNL     1      -2.063   0.605  -0.515  1.00  0.00    -0.252 OA
BRANCH   2   4
ATOM      4  C   UNL     1      -1.027   2.372   0.810  1.00  0.00     0.121 C 
BRANCH   4   5
ATOM      5  C   UNL     1      -1.323   1.623   2.133  1.00  0.00     0.096 C 
BRANCH   5   6
ATOM      6  N   UNL     1      -0.167   1.125   2.928  1.00  0.00    -0.347 N 
ATOM      7  C   UNL     1       0.976   1.429   3.585  1.00  0.00     0.290 C 
ATOM      8  O   UNL     1       1.458   0.425   4.135  1.00  0.00    -0.267 OA
ATOM      9  H   UNL     1      -0.286   0.151   3.012  1.00  0.00     0.164 HD
BRANCH   7  10
ATOM     10  C   UNL     1       1.650   2.806   3.762  1.00  0.00     0.266 C 
ATOM     11  C   UNL     1       0.930   3.639   4.830  1.00  0.00     0.100 C 
BRANCH  10  12
ATOM     12  C   UNL     1       3.095   2.517   4.288  1.00  0.00     0.453 C 
ATOM     13  F   UNL     1       3.807   1.745   3.434  1.00  0.00    -0.164 F 
ATOM     14  F   UNL     1       3.792   3.679   4.424  1.00  0.00    -0.164 F 
ATOM     15  F   UNL     1       3.107   1.932   5.508  1.00  0.00    -0.164 F 
ENDBRANCH  10  12
BRANCH  10  16
ATOM     16  N   UNL     1       1.667   3.569   2.481  1.00  0.00    -0.337 N 
ATOM     17  H   UNL     1       2.144   3.021   1.765  1.00  0.00     0.345 HD
ATOM     18  H   UNL     1       2.158   4.452   2.617  1.00  0.00     0.345 HD
ATOM     19  H   UNL     1       0.709   3.755   2.183  1.00  0.00     0.345 HD
ENDBRANCH  10  16
ENDBRANCH   7  10
ENDBRANCH   5   6
BRANCH   5  20
ATOM     20  C   UNL     1      -2.512   2.052   3.004  1.00  0.00     0.026 C 
BRANCH  20  21
ATOM     21  C   UNL     1      -2.486   3.444   3.597  1.00  0.00     0.002 C 
BRANCH  21  22
ATOM     22  C   UNL     1      -2.869   4.551   2.631  1.00  0.00     0.000 C 
BRANCH  22  23
ATOM     23  C   UNL     1      -1.930   4.718   1.446  1.00  0.00     0.001 CG0
ATOM     24  G   UNL     1      -1.953   3.550   0.469  1.00  0.00     0.000 G0
ENDBRANCH  22  23
ENDBRANCH  21  22
ENDBRANCH  20  21
ENDBRANCH   5  20
ENDBRANCH   4   5
BRANCH   4  25
ATOM     25  C   UNL     1      -1.953   3.550   0.469  1.00  0.00     0.017 CG0
ATOM     26  G   UNL     1      -1.930   4.718   1.446  1.00  0.00     0.000 G0
ENDBRANCH   4  25
ENDBRANCH   2   4
ENDBRANCH   1   2
BRANCH   1  27
ATOM     27  C   UNL     1      -0.193   0.854  -2.501  1.00  0.00     0.274 C 
BRANCH  27  28
ATOM     28  C   UNL     1       1.073   0.007  -2.616  1.00  0.00     0.275 C 
BRANCH  28  29
ATOM     29  O   UNL     1       1.042  -1.045  -1.635  1.00  0.00    -0.458 OA
BRANCH  29  30
ATOM     30  C   UNL     1       1.776  -0.834  -0.524  1.00  0.00     0.338 C 
ATOM     31  O   UNL     1       2.523   0.110  -0.283  1.00  0.00    -0.246 OA
BRANCH  30  32
ATOM     32  C   UNL     1       1.423  -1.853   0.466  1.00  0.00     0.060 A 
ATOM     33  C   UNL     1       0.244  -1.667   1.181  1.00  0.00     0.016 A 
ATOM     34  C   UNL     1       2.267  -2.918   0.763  1.00  0.00     0.016 A 
ATOM     35  C   UNL     1      -0.057  -2.487   2.261  1.00  0.00     0.010 A 
ATOM     36  C   UNL     1       1.910  -3.805   1.788  1.00  0.00     0.010 A 
ATOM     37  C   UNL     1       0.757  -3.585   2.567  1.00  0.00    -0.014 A 
BRANCH  37  38
ATOM     38  C   UNL     1       0.407  -4.480   3.705  1.00  0.00     0.031 A 
ATOM     39  C   UNL     1       1.385  -4.704   4.827  1.00  0.00     0.074 A 
ATOM     40  C   UNL     1      -0.795  -5.089   3.754  1.00  0.00     0.049 A 
ATOM     41  N   UNL     1       1.360  -5.610   5.773  1.00  0.00    -0.248 NA
ATOM     42  C   UNL     1       2.549  -3.807   4.883  1.00  0.00     0.031 C 
ATOM     43  C   UNL     1      -1.875  -4.926   2.777  1.00  0.00     0.029 A 
ATOM     44  N   UNL     1      -1.317  -5.964   4.677  1.00  0.00    -0.354 N 
ATOM     45  C   UNL     1       2.540  -5.441   6.487  1.00  0.00     0.074 A 
ATOM     46  C   UNL     1       3.250  -4.338   5.875  1.00  0.00     0.031 C 
ATOM     47  C   UNL     1      -2.942  -5.633   3.177  1.00  0.00     0.029 A 
ATOM     48  C   UNL     1      -2.590  -6.383   4.377  1.00  0.00     0.049 A 
ATOM     49  H   UNL     1      -0.825  -6.261   5.476  1.00  0.00     0.167 HD
ATOM     50  C   UNL     1       2.993  -6.150   7.549  1.00  0.00     0.031 A 
ATOM     51  C   UNL     1      -3.374  -7.309   4.959  1.00  0.00     0.031 A 
ATOM     52  C   UNL     1       2.258  -7.202   8.200  1.00  0.00     0.049 A 
ATOM     53  C   UNL     1      -2.845  -8.101   6.117  1.00  0.00     0.074 A 
ATOM     54  C   UNL     1       2.628  -7.964   9.296  1.00  0.00     0.029 A 
ATOM     55  N   UNL     1       0.991  -7.623   7.830  1.00  0.00    -0.354 N 
ATOM     56  N   UNL     1      -1.689  -7.996   6.724  1.00  0.00    -0.248 NA
ATOM     57  C   UNL     1      -3.713  -9.163   6.644  1.00  0.00     0.031 C 
ATOM     58  C   UNL     1       1.597  -8.871   9.568  1.00  0.00     0.029 A 
ATOM     59  C   UNL     1       0.571  -8.646   8.664  1.00  0.00     0.049 A 
ATOM     60  H   UNL     1       0.467  -7.251   7.085  1.00  0.00     0.167 HD
ATOM     61  C   UNL     1      -1.682  -8.988   7.694  1.00  0.00     0.074 A 
ATOM     62  C   UNL     1      -2.962  -9.662   7.617  1.00  0.00     0.031 C 
ATOM     63  C   UNL     1      -0.696  -9.319   8.561  1.00  0.00     0.031 A 
BRANCH  50  64
ATOM     64  C   UNL     1       4.380  -5.847   8.041  1.00  0.00    -0.014 A 
ATOM     65  C   UNL     1       4.664  -4.697   8.791  1.00  0.00     0.009 A 
ATOM     66  C   UNL     1       5.415  -6.756   7.767  1.00  0.00     0.009 A 
ATOM     67  C   UNL     1       5.967  -4.449   9.231  1.00  0.00     0.001 A 
ATOM     68  C   UNL     1       6.711  -6.516   8.227  1.00  0.00     0.001 A 
ATOM     69  C   UNL     1       6.987  -5.358   8.952  1.00  0.00     0.000 A 
ENDBRANCH  50  64
BRANCH  51  70
ATOM     70  C   UNL     1      -4.716  -7.594   4.389  1.00  0.00    -0.014 A 
ATOM     71  C   UNL     1      -5.878  -7.189   5.059  1.00  0.00     0.009 A 
ATOM     72  C   UNL     1      -4.835  -8.246   3.150  1.00  0.00     0.009 A 
ATOM     73  C   UNL     1      -7.135  -7.433   4.499  1.00  0.00     0.001 A 
ATOM     74  C   UNL     1      -6.090  -8.463   2.581  1.00  0.00     0.001 A 
ATOM     75  C   UNL     1      -7.239  -8.060   3.257  1.00  0.00     0.000 A 
ENDBRANCH  51  70
BRANCH  63  76
ATOM     76  C   UNL     1      -0.965 -10.466   9.488  1.00  0.00    -0.014 A 
ATOM     77  C   UNL     1      -0.875 -11.791   9.033  1.00  0.00     0.009 A 
ATOM     78  C   UNL     1      -1.277 -10.224  10.834  1.00  0.00     0.009 A 
ATOM     79  C   UNL     1      -1.117 -12.853   9.905  1.00  0.00     0.001 A 
ATOM     80  C   UNL     1      -1.500 -11.290  11.708  1.00  0.00     0.001 A 
ATOM     81  C   UNL     1      -1.425 -12.602  11.242  1.00  0.00     0.000 A 
ENDBRANCH  63  76
ENDBRANCH  37  38
ENDBRANCH  30  32
ENDBRANCH  29  30
ENDBRANCH  28  29
ENDBRANCH  27  28
ENDBRANCH   1  27
TORSDOF 15
