REMARK SMILES O=C(CSc1ccc2ccccc2n1)NCc1ccc(C(=O)OCCOC(=O)c2ccc(-c3c4nc(c(-c5ccccc5)c5ccc([nH]5)c(-c5ccccc5)c5nc(c(-c6ccccc6)c6ccc3[nH]6)C=C5)C=C4)cc2)cc1
REMARK SMILES IDX 23 1 21 2 22 3 20 4 17 5 18 6 78 7 19 8 77 9 16 10 15 11
REMARK SMILES IDX 1 12 2 13 3 15 4 16 5 17 6 18 14 19 7 20 13 21 8 22 12 23
REMARK SMILES IDX 9 24 11 25 10 26 24 27 25 28 26 29 27 30 28 31 29 32 30 33
REMARK SMILES IDX 76 34 31 35 75 36 32 37 33 38 34 39 69 40 35 41 74 42 68 43
REMARK SMILES IDX 70 44 36 45 73 46 67 47 66 48 37 50 59 51 44 52 58 53 45 54
REMARK SMILES IDX 48 55 57 56 71 57 46 58 47 59 56 61 72 62 49 63 38 64 39 65
REMARK SMILES IDX 43 66 40 67 42 68 41 69 60 70 61 71 65 72 62 73 64 74 63 75
REMARK SMILES IDX 50 76 51 77 55 78 52 79 54 80 53 81
REMARK H PARENT 15 14 70 49 48 60
REMARK Flexibility Score: inf
ROOT
ATOM      1  O   UNL     1       2.796   7.926  -2.065  1.00  0.00    -0.458 OA
ENDROOT
BRANCH   1   2
ATOM      2  C   UNL     1       3.788   7.017  -1.903  1.00  0.00     0.338 C 
ATOM      3  O   UNL     1       4.960   7.248  -1.652  1.00  0.00    -0.246 OA
BRANCH   2   4
ATOM      4  C   UNL     1       3.246   5.641  -1.947  1.00  0.00     0.060 A 
ATOM      5  C   UNL     1       2.347   2.976  -1.958  1.00  0.00    -0.029 A 
ATOM      6  C   UNL     1       3.318   3.394  -1.043  1.00  0.00     0.006 A 
ATOM      7  C   UNL     1       1.822   3.919  -2.862  1.00  0.00     0.006 A 
ATOM      8  C   UNL     1       3.788   4.703  -1.064  1.00  0.00     0.016 A 
ATOM      9  C   UNL     1       2.256   5.251  -2.849  1.00  0.00     0.016 A 
BRANCH   5  10
ATOM     10  C   UNL     1       1.857   1.550  -2.009  1.00  0.00     0.151 C 
BRANCH  10  11
ATOM     11  N   UNL     1       2.582   0.661  -1.127  1.00  0.00    -0.351 N 
ATOM     12  O   UNL     1       0.806   0.121   0.211  1.00  0.00    -0.274 OA
ATOM     13  C   UNL     1       1.988  -0.023  -0.089  1.00  0.00     0.230 C 
ATOM     14  H   UNL     1       3.548   0.538  -1.276  1.00  0.00     0.163 HD
BRANCH  13  15
ATOM     15  C   UNL     1       2.910  -0.941   0.699  1.00  0.00     0.176 C 
BRANCH  15  16
ATOM     16  S   UNL     1       4.125  -1.798  -0.360  1.00  0.00    -0.096 SA
BRANCH  16  17
ATOM     17  C   UNL     1       3.074  -2.978  -1.187  1.00  0.00     0.097 A 
ATOM     18  C   UNL     1       2.082  -2.579  -2.070  1.00  0.00     0.036 A 
ATOM     19  N   UNL     1       3.373  -4.277  -0.970  1.00  0.00    -0.241 NA
ATOM     20  C   UNL     1       1.353  -3.548  -2.748  1.00  0.00     0.013 A 
ATOM     21  C   UNL     1       2.686  -5.217  -1.646  1.00  0.00     0.072 A 
ATOM     22  C   UNL     1       1.656  -4.894  -2.554  1.00  0.00     0.000 A 
ATOM     23  C   UNL     1       2.998  -6.559  -1.473  1.00  0.00     0.029 A 
ATOM     24  C   UNL     1       0.974  -5.901  -3.255  1.00  0.00     0.010 A 
ATOM     25  C   UNL     1       2.329  -7.567  -2.175  1.00  0.00     0.002 A 
ATOM     26  C   UNL     1       1.316  -7.237  -3.068  1.00  0.00     0.001 A 
ENDBRANCH  16  17
ENDBRANCH  15  16
ENDBRANCH  13  15
ENDBRANCH  10  11
ENDBRANCH   5  10
ENDBRANCH   2   4
ENDBRANCH   1   2
BRANCH   1  27
ATOM     27  C   UNL     1       3.184   9.300  -1.852  1.00  0.00     0.275 C 
BRANCH  27  28
ATOM     28  C   UNL     1       2.853   9.744  -0.425  1.00  0.00     0.275 C 
BRANCH  28  29
ATOM     29  O   UNL     1       3.601   8.949   0.511  1.00  0.00    -0.458 OA
BRANCH  29  30
ATOM     30  C   UNL     1       3.060   8.829   1.748  1.00  0.00     0.338 C 
ATOM     31  O   UNL     1       2.070   9.403   2.167  1.00  0.00    -0.246 OA
BRANCH  30  32
ATOM     32  C   UNL     1       3.836   7.848   2.549  1.00  0.00     0.060 A 
ATOM     33  C   UNL     1       4.458   6.764   1.933  1.00  0.00     0.016 A 
ATOM     34  C   UNL     1       3.868   7.948   3.940  1.00  0.00     0.016 A 
ATOM     35  C   UNL     1       5.013   5.734   2.696  1.00  0.00     0.010 A 
ATOM     36  C   UNL     1       4.521   6.965   4.701  1.00  0.00     0.010 A 
ATOM     37  C   UNL     1       5.061   5.815   4.096  1.00  0.00    -0.014 A 
BRANCH  37  38
ATOM     38  C   UNL     1       5.607   4.680   4.908  1.00  0.00     0.031 A 
ATOM     39  C   UNL     1       4.772   4.038   5.995  1.00  0.00     0.074 A 
ATOM     40  C   UNL     1       6.835   4.173   4.665  1.00  0.00     0.049 A 
ATOM     41  N   UNL     1       5.118   3.134   6.881  1.00  0.00    -0.248 NA
ATOM     42  C   UNL     1       3.374   4.481   6.117  1.00  0.00     0.031 C 
ATOM     43  C   UNL     1       7.770   4.649   3.644  1.00  0.00     0.029 A 
ATOM     44  N   UNL     1       7.498   3.116   5.246  1.00  0.00    -0.354 N 
ATOM     45  C   UNL     1       4.013   2.966   7.709  1.00  0.00     0.074 A 
ATOM     46  C   UNL     1       2.983   3.856   7.218  1.00  0.00     0.031 C 
ATOM     47  C   UNL     1       8.840   3.841   3.613  1.00  0.00     0.029 A 
ATOM     48  C   UNL     1       8.715   2.842   4.669  1.00  0.00     0.049 A 
ATOM     49  H   UNL     1       7.134   2.604   6.004  1.00  0.00     0.167 HD
ATOM     50  C   UNL     1       3.861   2.151   8.782  1.00  0.00     0.031 A 
ATOM     51  C   UNL     1       9.643   1.909   4.959  1.00  0.00     0.031 A 
ATOM     52  C   UNL     1       4.841   1.201   9.239  1.00  0.00     0.049 A 
ATOM     53  C   UNL     1       9.436   0.985   6.124  1.00  0.00     0.074 A 
ATOM     54  C   UNL     1       4.760   0.327  10.311  1.00  0.00     0.029 A 
ATOM     55  N   UNL     1       6.064   0.974   8.632  1.00  0.00    -0.354 N 
ATOM     56  N   UNL     1       8.416   0.902   6.941  1.00  0.00    -0.248 NA
ATOM     57  C   UNL     1      10.524   0.039   6.418  1.00  0.00     0.031 C 
ATOM     58  C   UNL     1       5.945  -0.416  10.364  1.00  0.00     0.029 A 
ATOM     59  C   UNL     1       6.746  -0.028   9.304  1.00  0.00     0.049 A 
ATOM     60  H   UNL     1       6.400   1.454   7.841  1.00  0.00     0.167 HD
ATOM     61  C   UNL     1       8.742  -0.096   7.849  1.00  0.00     0.074 A 
ATOM     62  C   UNL     1      10.036  -0.616   7.461  1.00  0.00     0.031 C 
ATOM     63  C   UNL     1       8.037  -0.531   8.921  1.00  0.00     0.031 A 
BRANCH  50  64
ATOM     64  C   UNL     1       2.587   2.276   9.570  1.00  0.00    -0.014 A 
ATOM     65  C   UNL     1       1.374   1.752   9.097  1.00  0.00     0.009 A 
ATOM     66  C   UNL     1       2.616   2.896  10.830  1.00  0.00     0.009 A 
ATOM     67  C   UNL     1       0.209   1.876   9.858  1.00  0.00     0.001 A 
ATOM     68  C   UNL     1       1.456   2.995  11.599  1.00  0.00     0.001 A 
ATOM     69  C   UNL     1       0.252   2.493  11.109  1.00  0.00     0.000 A 
ENDBRANCH  50  64
BRANCH  51  70
ATOM     70  C   UNL     1      10.882   1.817   4.144  1.00  0.00    -0.014 A 
ATOM     71  C   UNL     1      11.078   0.735   3.271  1.00  0.00     0.009 A 
ATOM     72  C   UNL     1      11.873   2.806   4.236  1.00  0.00     0.009 A 
ATOM     73  C   UNL     1      12.249   0.641   2.516  1.00  0.00     0.001 A 
ATOM     74  C   UNL     1      13.029   2.723   3.458  1.00  0.00     0.001 A 
ATOM     75  C   UNL     1      13.219   1.638   2.604  1.00  0.00     0.000 A 
ENDBRANCH  51  70
BRANCH  63  76
ATOM     76  C   UNL     1       8.652  -1.628   9.739  1.00  0.00    -0.014 A 
ATOM     77  C   UNL     1       9.720  -1.364  10.611  1.00  0.00     0.009 A 
ATOM     78  C   UNL     1       8.160  -2.938   9.639  1.00  0.00     0.009 A 
ATOM     79  C   UNL     1      10.308  -2.400  11.340  1.00  0.00     0.001 A 
ATOM     80  C   UNL     1       8.737  -3.967  10.384  1.00  0.00     0.001 A 
ATOM     81  C   UNL     1       9.817  -3.700  11.225  1.00  0.00     0.000 A 
ENDBRANCH  63  76
ENDBRANCH  37  38
ENDBRANCH  30  32
ENDBRANCH  29  30
ENDBRANCH  28  29
ENDBRANCH  27  28
ENDBRANCH   1  27
TORSDOF 16
