REMARK SMILES COC(=O)c1ccc([C@H]2Nc3c(C(=O)OCCOC(=O)c4ccc(-c5c6nc(c(-c7ccccc7)c7ccc([nH]7)c(-c7ccccc7)c7nc(c(-c8ccccc8)c8ccc5[nH]8)C=C7)C=C6)cc4)cccc3[C@@H]3[C@@H]4CC[C@@H](C4)[C@@H]32)cc1
REMARK SMILES IDX 16 1 15 2 13 3 14 4 12 5 9 6 10 7 79 8 11 9 73 11 77 12
REMARK SMILES IDX 72 13 74 14 76 15 78 16 69 17 71 18 75 19 70 20 8 21 5 22
REMARK SMILES IDX 6 23 81 24 7 25 80 26 3 27 4 28 2 29 1 30 17 31 18 32 19 33
REMARK SMILES IDX 20 34 21 35 22 36 68 37 23 38 67 39 24 40 25 41 26 42 61 43
REMARK SMILES IDX 27 44 66 45 60 46 62 47 28 48 65 49 59 50 58 51 29 53 51 54
REMARK SMILES IDX 36 55 50 56 37 57 40 58 49 59 63 60 38 61 39 62 48 64 64 65
REMARK SMILES IDX 41 66 30 67 31 68 35 69 32 70 34 71 33 72 52 73 53 74 57 75
REMARK SMILES IDX 54 76 56 77 55 78 42 79 43 80 47 81 44 82 46 83 45 84
REMARK H PARENT 10 10 62 52 40 63
REMARK Flexibility Score: inf
ROOT
ATOM      1  C   UNL     1      -7.039  -1.193  -6.693  1.00  0.00     0.275 C 
ENDROOT
BRANCH   1   2
ATOM      2  O   UNL     1      -5.668  -1.640  -6.526  1.00  0.00    -0.458 OA
BRANCH   2   3
ATOM      3  C   UNL     1      -4.856  -0.800  -5.815  1.00  0.00     0.340 C 
ATOM      4  O   UNL     1      -5.195   0.274  -5.338  1.00  0.00    -0.246 OA
BRANCH   3   5
ATOM      5  C   UNL     1      -3.545  -1.429  -5.480  1.00  0.00     0.083 A 
ATOM      6  C   UNL     1      -1.756  -0.127  -8.040  1.00  0.00     0.113 C 
ATOM      7  N   UNL     1      -2.727  -1.206  -7.749  1.00  0.00    -0.377 N 
ATOM      8  C   UNL     1      -0.441  -0.900  -8.298  1.00  0.00     0.027 C 
ATOM      9  C   UNL     1      -2.558  -1.637  -6.441  1.00  0.00     0.053 A 
ATOM     10  H   UNL     1      -3.388  -1.562  -8.385  1.00  0.00     0.161 HD
ATOM     11  C   UNL     1      -0.210  -2.040  -7.193  1.00  0.00     0.030 C 
ATOM     12  C   UNL     1       0.906  -0.140  -8.252  1.00  0.00    -0.005 C 
ATOM     13  C   UNL     1      -1.266  -2.084  -6.096  1.00  0.00    -0.020 A 
ATOM     14  C   UNL     1       1.252  -1.771  -6.751  1.00  0.00    -0.003 C 
ATOM     15  C   UNL     1       1.114   0.625  -6.934  1.00  0.00     0.004 C 
ATOM     16  C   UNL     1       1.891  -1.306  -8.063  1.00  0.00     0.008 C 
ATOM     17  C   UNL     1      -3.195  -1.601  -4.140  1.00  0.00     0.018 A 
ATOM     18  C   UNL     1      -1.005  -2.424  -4.769  1.00  0.00     0.006 A 
ATOM     19  C   UNL     1       1.371  -0.486  -5.911  1.00  0.00     0.004 C 
ATOM     20  C   UNL     1      -1.956  -2.142  -3.788  1.00  0.00     0.001 A 
BRANCH   6  21
ATOM     21  C   UNL     1      -2.555   0.716  -9.045  1.00  0.00    -0.025 A 
ATOM     22  C   UNL     1      -4.832   0.117 -10.437  1.00  0.00     0.060 A 
ATOM     23  C   UNL     1      -4.958   0.720  -9.188  1.00  0.00     0.016 A 
ATOM     24  C   UNL     1      -3.609   0.187 -11.117  1.00  0.00     0.016 A 
ATOM     25  C   UNL     1      -3.807   1.125  -8.522  1.00  0.00     0.007 A 
ATOM     26  C   UNL     1      -2.446   0.508 -10.416  1.00  0.00     0.007 A 
BRANCH  22  27
ATOM     27  C   UNL     1      -5.810  -0.914 -10.859  1.00  0.00     0.337 C 
ATOM     28  O   UNL     1      -5.458  -1.993 -11.316  1.00  0.00    -0.246 OA
BRANCH  27  29
ATOM     29  O   UNL     1      -7.082  -0.537 -10.588  1.00  0.00    -0.465 OA
ATOM     30  C   UNL     1      -8.057  -1.562 -10.818  1.00  0.00     0.282 C 
ENDBRANCH  27  29
ENDBRANCH  22  27
ENDBRANCH   6  21
ENDBRANCH   3   5
ENDBRANCH   2   3
ENDBRANCH   1   2
BRANCH   1  31
ATOM     31  C   UNL     1      -8.003  -2.365  -6.930  1.00  0.00     0.275 C 
BRANCH  31  32
ATOM     32  O   UNL     1      -8.401  -2.902  -5.658  1.00  0.00    -0.458 OA
BRANCH  32  33
ATOM     33  C   UNL     1      -7.560  -3.817  -5.150  1.00  0.00     0.338 C 
ATOM     34  O   UNL     1      -6.772  -4.548  -5.757  1.00  0.00    -0.246 OA
BRANCH  33  35
ATOM     35  C   UNL     1      -7.461  -3.522  -3.726  1.00  0.00     0.060 A 
ATOM     36  C   UNL     1      -6.454  -2.631  -3.364  1.00  0.00     0.016 A 
ATOM     37  C   UNL     1      -8.307  -4.060  -2.768  1.00  0.00     0.016 A 
ATOM     38  C   UNL     1      -6.237  -2.288  -2.047  1.00  0.00     0.010 A 
ATOM     39  C   UNL     1      -8.107  -3.702  -1.432  1.00  0.00     0.010 A 
ATOM     40  C   UNL     1      -7.056  -2.833  -1.068  1.00  0.00    -0.014 A 
BRANCH  40  41
ATOM     41  C   UNL     1      -6.704  -2.610   0.346  1.00  0.00     0.031 A 
ATOM     42  C   UNL     1      -6.225  -3.786   1.138  1.00  0.00     0.074 A 
ATOM     43  C   UNL     1      -6.749  -1.379   0.884  1.00  0.00     0.049 A 
ATOM     44  N   UNL     1      -6.102  -3.916   2.430  1.00  0.00    -0.248 NA
ATOM     45  C   UNL     1      -5.853  -4.986   0.367  1.00  0.00     0.031 C 
ATOM     46  C   UNL     1      -7.053  -0.140   0.161  1.00  0.00     0.029 A 
ATOM     47  N   UNL     1      -6.540  -0.969   2.174  1.00  0.00    -0.354 N 
ATOM     48  C   UNL     1      -5.718  -5.235   2.631  1.00  0.00     0.074 A 
ATOM     49  C   UNL     1      -5.615  -5.860   1.332  1.00  0.00     0.031 C 
ATOM     50  C   UNL     1      -7.017   0.889   1.023  1.00  0.00     0.029 A 
ATOM     51  C   UNL     1      -6.781   0.369   2.363  1.00  0.00     0.049 A 
ATOM     52  H   UNL     1      -6.247  -1.574   2.893  1.00  0.00     0.167 HD
ATOM     53  C   UNL     1      -5.495  -5.863   3.807  1.00  0.00     0.031 A 
ATOM     54  C   UNL     1      -6.868   1.076   3.505  1.00  0.00     0.031 A 
ATOM     55  C   UNL     1      -5.581  -5.198   5.079  1.00  0.00     0.049 A 
ATOM     56  C   UNL     1      -6.691   0.344   4.806  1.00  0.00     0.074 A 
ATOM     57  C   UNL     1      -5.397  -5.721   6.344  1.00  0.00     0.029 A 
ATOM     58  N   UNL     1      -5.865  -3.847   5.236  1.00  0.00    -0.354 N 
ATOM     59  N   UNL     1      -6.419  -0.924   5.009  1.00  0.00    -0.248 NA
ATOM     60  C   UNL     1      -6.848   1.133   6.033  1.00  0.00     0.031 C 
ATOM     61  C   UNL     1      -5.617  -4.695   7.270  1.00  0.00     0.029 A 
ATOM     62  C   UNL     1      -5.876  -3.521   6.578  1.00  0.00     0.049 A 
ATOM     63  H   UNL     1      -6.033  -3.216   4.499  1.00  0.00     0.167 HD
ATOM     64  C   UNL     1      -6.352  -1.082   6.386  1.00  0.00     0.074 A 
ATOM     65  C   UNL     1      -6.592   0.226   6.965  1.00  0.00     0.031 C 
ATOM     66  C   UNL     1      -6.117  -2.204   7.111  1.00  0.00     0.031 A 
BRANCH  53  67
ATOM     67  C   UNL     1      -5.224  -7.339   3.762  1.00  0.00    -0.014 A 
ATOM     68  C   UNL     1      -4.024  -7.860   3.254  1.00  0.00     0.009 A 
ATOM     69  C   UNL     1      -6.204  -8.229   4.231  1.00  0.00     0.009 A 
ATOM     70  C   UNL     1      -3.829  -9.242   3.181  1.00  0.00     0.001 A 
ATOM     71  C   UNL     1      -5.994  -9.607   4.186  1.00  0.00     0.001 A 
ATOM     72  C   UNL     1      -4.811 -10.114   3.651  1.00  0.00     0.000 A 
ENDBRANCH  53  67
BRANCH  54  73
ATOM     73  C   UNL     1      -7.211   2.523   3.467  1.00  0.00    -0.014 A 
ATOM     74  C   UNL     1      -6.279   3.492   3.865  1.00  0.00     0.009 A 
ATOM     75  C   UNL     1      -8.477   2.945   3.026  1.00  0.00     0.009 A 
ATOM     76  C   UNL     1      -6.613   4.849   3.841  1.00  0.00     0.001 A 
ATOM     77  C   UNL     1      -8.797   4.303   2.972  1.00  0.00     0.001 A 
ATOM     78  C   UNL     1      -7.868   5.254   3.389  1.00  0.00     0.000 A 
ENDBRANCH  54  73
BRANCH  66  79
ATOM     79  C   UNL     1      -6.062  -2.044   8.603  1.00  0.00    -0.014 A 
ATOM     80  C   UNL     1      -7.224  -1.826   9.357  1.00  0.00     0.009 A 
ATOM     81  C   UNL     1      -4.828  -2.159   9.262  1.00  0.00     0.009 A 
ATOM     82  C   UNL     1      -7.145  -1.691  10.743  1.00  0.00     0.001 A 
ATOM     83  C   UNL     1      -4.757  -2.056  10.650  1.00  0.00     0.001 A 
ATOM     84  C   UNL     1      -5.914  -1.812  11.388  1.00  0.00     0.000 A 
ENDBRANCH  66  79
ENDBRANCH  40  41
ENDBRANCH  33  35
ENDBRANCH  32  33
ENDBRANCH  31  32
ENDBRANCH   1  31
TORSDOF 14
