REMARK SMILES O=C(OCCOC(=O)[C@H]1[NH2+]CC[C@H]1c1cccc(Oc2ccccc2)c1)c1ccc(-c2c3nc(c(-c4ccccc4)c4ccc([nH]4)c(-c4ccccc4)c4nc(c(-c5ccccc5)c5ccc2[nH]5)C=C4)C=C3)cc1
REMARK SMILES IDX 5 1 4 2 3 3 2 4 1 5 27 6 28 7 74 8 29 9 73 10 30 11 31 12
REMARK SMILES IDX 32 13 67 14 33 15 72 16 66 17 68 18 34 19 71 20 65 21 64 22
REMARK SMILES IDX 35 24 57 25 42 26 56 27 43 28 46 29 55 30 69 31 44 32 45 33
REMARK SMILES IDX 54 35 70 36 47 37 36 38 37 39 41 40 38 41 40 42 39 43 58 44
REMARK SMILES IDX 59 45 63 46 60 47 62 48 61 49 48 50 49 51 53 52 50 53 52 54
REMARK SMILES IDX 51 55 6 56 7 57 8 58 9 59 10 60 13 61 11 62 12 65 14 66
REMARK SMILES IDX 15 67 26 68 16 69 18 70 17 71 19 72 20 73 21 74 25 75 22 76
REMARK SMILES IDX 24 77 23 78
REMARK H PARENT 68 23 46 34 10 63 10 64
REMARK Flexibility Score: inf
ROOT
ATOM      1  C   UNL     1       3.731   0.391  -1.677  1.00  0.00     0.274 C 
ENDROOT
BRANCH   1   2
ATOM      2  C   UNL     1       3.991  -1.017  -1.155  1.00  0.00     0.275 C 
BRANCH   2   3
ATOM      3  O   UNL     1       3.006  -1.524  -0.244  1.00  0.00    -0.458 OA
BRANCH   3   4
ATOM      4  C   UNL     1       2.748  -1.161   1.033  1.00  0.00     0.338 C 
ATOM      5  O   UNL     1       1.765  -1.641   1.595  1.00  0.00    -0.246 OA
BRANCH   4   6
ATOM      6  C   UNL     1       3.571  -0.169   1.792  1.00  0.00     0.060 A 
ATOM      7  C   UNL     1       4.921   0.121   1.566  1.00  0.00     0.016 A 
ATOM      8  C   UNL     1       2.916   0.512   2.832  1.00  0.00     0.016 A 
ATOM      9  C   UNL     1       5.574   1.135   2.273  1.00  0.00     0.010 A 
ATOM     10  C   UNL     1       3.570   1.508   3.564  1.00  0.00     0.010 A 
ATOM     11  C   UNL     1       4.902   1.832   3.276  1.00  0.00    -0.014 A 
BRANCH  11  12
ATOM     12  C   UNL     1       5.659   2.730   4.173  1.00  0.00     0.031 A 
ATOM     13  C   UNL     1       6.075   2.168   5.495  1.00  0.00     0.074 A 
ATOM     14  C   UNL     1       6.005   3.980   3.815  1.00  0.00     0.049 A 
ATOM     15  N   UNL     1       6.828   2.703   6.416  1.00  0.00    -0.248 NA
ATOM     16  C   UNL     1       5.602   0.807   5.808  1.00  0.00     0.031 C 
ATOM     17  C   UNL     1       5.715   4.605   2.529  1.00  0.00     0.029 A 
ATOM     18  N   UNL     1       6.672   4.957   4.511  1.00  0.00    -0.354 N 
ATOM     19  C   UNL     1       6.955   1.727   7.392  1.00  0.00     0.074 A 
ATOM     20  C   UNL     1       6.128   0.609   7.003  1.00  0.00     0.031 C 
ATOM     21  C   UNL     1       6.151   5.877   2.546  1.00  0.00     0.029 A 
ATOM     22  C   UNL     1       6.774   6.148   3.832  1.00  0.00     0.049 A 
ATOM     23  H   UNL     1       7.043   4.817   5.412  1.00  0.00     0.167 HD
ATOM     24  C   UNL     1       7.733   1.740   8.496  1.00  0.00     0.031 A 
ATOM     25  C   UNL     1       7.325   7.320   4.200  1.00  0.00     0.031 A 
ATOM     26  C   UNL     1       8.504   2.877   8.903  1.00  0.00     0.049 A 
ATOM     27  C   UNL     1       8.058   7.370   5.511  1.00  0.00     0.074 A 
ATOM     28  C   UNL     1       9.314   3.023  10.012  1.00  0.00     0.029 A 
ATOM     29  N   UNL     1       8.535   4.082   8.214  1.00  0.00    -0.354 N 
ATOM     30  N   UNL     1       8.239   6.411   6.388  1.00  0.00    -0.248 NA
ATOM     31  C   UNL     1       8.711   8.638   5.856  1.00  0.00     0.031 C 
ATOM     32  C   UNL     1       9.792   4.338  10.022  1.00  0.00     0.029 A 
ATOM     33  C   UNL     1       9.328   4.990   8.888  1.00  0.00     0.049 A 
ATOM     34  H   UNL     1       8.061   4.262   7.370  1.00  0.00     0.167 HD
ATOM     35  C   UNL     1       9.081   6.938   7.356  1.00  0.00     0.074 A 
ATOM     36  C   UNL     1       9.364   8.305   6.960  1.00  0.00     0.031 C 
ATOM     37  C   UNL     1       9.594   6.340   8.459  1.00  0.00     0.031 A 
BRANCH  24  38
ATOM     38  C   UNL     1       7.727   0.484   9.315  1.00  0.00    -0.014 A 
ATOM     39  C   UNL     1       8.311  -0.698   8.824  1.00  0.00     0.009 A 
ATOM     40  C   UNL     1       7.039   0.449  10.535  1.00  0.00     0.009 A 
ATOM     41  C   UNL     1       8.151  -1.903   9.509  1.00  0.00     0.001 A 
ATOM     42  C   UNL     1       6.905  -0.753  11.232  1.00  0.00     0.001 A 
ATOM     43  C   UNL     1       7.445  -1.930  10.711  1.00  0.00     0.000 A 
ENDBRANCH  24  38
BRANCH  25  44
ATOM     44  C   UNL     1       7.260   8.512   3.310  1.00  0.00    -0.014 A 
ATOM     45  C   UNL     1       8.410   8.994   2.664  1.00  0.00     0.009 A 
ATOM     46  C   UNL     1       6.049   9.200   3.127  1.00  0.00     0.009 A 
ATOM     47  C   UNL     1       8.358  10.157   1.889  1.00  0.00     0.001 A 
ATOM     48  C   UNL     1       5.995  10.350   2.333  1.00  0.00     0.001 A 
ATOM     49  C   UNL     1       7.151  10.834   1.724  1.00  0.00     0.000 A 
ENDBRANCH  25  44
BRANCH  37  50
ATOM     50  C   UNL     1      10.562   7.143   9.276  1.00  0.00    -0.014 A 
ATOM     51  C   UNL     1      10.139   8.222  10.066  1.00  0.00     0.009 A 
ATOM     52  C   UNL     1      11.917   6.776   9.285  1.00  0.00     0.009 A 
ATOM     53  C   UNL     1      11.064   8.939  10.825  1.00  0.00     0.001 A 
ATOM     54  C   UNL     1      12.832   7.473  10.071  1.00  0.00     0.001 A 
ATOM     55  C   UNL     1      12.407   8.560  10.832  1.00  0.00     0.000 A 
ENDBRANCH  37  50
ENDBRANCH  11  12
ENDBRANCH   4   6
ENDBRANCH   3   4
ENDBRANCH   2   3
ENDBRANCH   1   2
BRANCH   1  56
ATOM     56  O   UNL     1       3.280   1.339  -0.698  1.00  0.00    -0.458 OA
BRANCH  56  57
ATOM     57  C   UNL     1       2.092   1.960  -0.986  1.00  0.00     0.365 C 
ATOM     58  O   UNL     1       1.356   1.661  -1.911  1.00  0.00    -0.245 OA
BRANCH  57  59
ATOM     59  C   UNL     1       1.825   3.183  -0.105  1.00  0.00     0.301 C 
ATOM     60  N   UNL     1       2.382   3.062   1.253  1.00  0.00    -0.334 N 
ATOM     61  C   UNL     1       2.331   4.567  -0.574  1.00  0.00     0.095 C 
ATOM     62  C   UNL     1       2.165   4.364   1.872  1.00  0.00     0.262 C 
ATOM     63  H   UNL     1       3.378   2.846   1.213  1.00  0.00     0.347 HD
ATOM     64  H   UNL     1       1.940   2.310   1.782  1.00  0.00     0.347 HD
ATOM     65  C   UNL     1       2.131   5.375   0.731  1.00  0.00     0.076 C 
BRANCH  61  66
ATOM     66  C   UNL     1       3.723   4.624  -1.214  1.00  0.00    -0.034 A 
ATOM     67  C   UNL     1       4.766   5.451  -0.791  1.00  0.00     0.004 A 
ATOM     68  C   UNL     1       3.960   3.872  -2.379  1.00  0.00     0.051 A 
ATOM     69  C   UNL     1       6.013   5.442  -1.432  1.00  0.00     0.004 A 
ATOM     70  C   UNL     1       5.189   3.858  -3.052  1.00  0.00     0.127 A 
ATOM     71  C   UNL     1       6.227   4.636  -2.550  1.00  0.00     0.047 A 
BRANCH  70  72
ATOM     72  O   UNL     1       5.482   3.138  -4.197  1.00  0.00    -0.457 OA
BRANCH  72  73
ATOM     73  C   UNL     1       4.560   2.249  -4.699  1.00  0.00     0.127 A 
ATOM     74  C   UNL     1       4.952   0.915  -4.833  1.00  0.00     0.047 A 
ATOM     75  C   UNL     1       3.280   2.639  -5.098  1.00  0.00     0.047 A 
ATOM     76  C   UNL     1       4.023  -0.046  -5.239  1.00  0.00     0.004 A 
ATOM     77  C   UNL     1       2.341   1.674  -5.458  1.00  0.00     0.004 A 
ATOM     78  C   UNL     1       2.708   0.331  -5.517  1.00  0.00     0.000 A 
ENDBRANCH  72  73
ENDBRANCH  70  72
ENDBRANCH  61  66
ENDBRANCH  57  59
ENDBRANCH  56  57
ENDBRANCH   1  56
TORSDOF 14
