REMARK SMILES C[C@]([NH3+])(C(=O)N1[C@@H](C(=O)OCCOC(=O)c2ccc(-c3c4nc(c(-c5ccccc5)c5ccc([nH]5)c(-c5ccccc5)c5nc(c(-c6ccccc6)c6ccc3[nH]6)C=C5)C=C4)cc2)C[C@H]2CCCC[C@@H]21)C(F)(F)F
REMARK SMILES IDX 11 1 10 2 8 3 9 4 7 5 6 6 70 7 64 8 65 9 69 10 66 11 68 12
REMARK SMILES IDX 67 13 4 14 5 15 2 16 1 17 71 18 72 19 73 20 74 21 3 22 12 26
REMARK SMILES IDX 13 27 14 28 15 29 16 30 17 31 63 32 18 33 62 34 19 35 20 36
REMARK SMILES IDX 21 37 56 38 22 39 61 40 55 41 57 42 23 43 60 44 54 45 53 46
REMARK SMILES IDX 24 48 46 49 31 50 45 51 32 52 35 53 44 54 58 55 33 56 34 57
REMARK SMILES IDX 43 59 59 60 36 61 25 62 26 63 30 64 27 65 29 66 28 67 47 68
REMARK SMILES IDX 48 69 52 70 49 71 51 72 50 73 37 74 38 75 42 76 39 77 41 78
REMARK SMILES IDX 40 79
REMARK H PARENT 3 23 3 24 3 25 57 47 35 58
REMARK Flexibility Score: inf
ROOT
ATOM      1  C   UNL     1      -3.546   1.901  -2.440  1.00  0.00     0.274 C 
ENDROOT
BRANCH   1   2
ATOM      2  O   UNL     1      -3.047   2.032  -1.095  1.00  0.00    -0.461 OA
BRANCH   2   3
ATOM      3  C   UNL     1      -2.167   1.098  -0.641  1.00  0.00     0.329 C 
ATOM      4  O   UNL     1      -1.801   0.133  -1.302  1.00  0.00    -0.250 OA
BRANCH   3   5
ATOM      5  C   UNL     1      -1.662   1.404   0.798  1.00  0.00     0.196 C 
ATOM      6  N   UNL     1      -1.874   0.224   1.664  1.00  0.00    -0.320 N 
ATOM      7  C   UNL     1      -3.024   0.469   2.510  1.00  0.00     0.089 C 
ATOM      8  C   UNL     1      -2.435   2.550   1.496  1.00  0.00     0.043 C 
ATOM      9  C   UNL     1      -2.814   1.950   2.840  1.00  0.00     0.014 C 
ATOM     10  C   UNL     1      -3.163  -0.300   3.820  1.00  0.00     0.025 C 
ATOM     11  C   UNL     1      -4.025   2.541   3.535  1.00  0.00     0.006 C 
ATOM     12  C   UNL     1      -4.351   0.254   4.618  1.00  0.00     0.002 C 
ATOM     13  C   UNL     1      -4.278   1.770   4.834  1.00  0.00     0.000 C 
BRANCH   6  14
ATOM     14  C   UNL     1      -1.294  -1.027   1.514  1.00  0.00     0.294 C 
ATOM     15  O   UNL     1      -1.981  -2.034   1.703  1.00  0.00    -0.267 OA
BRANCH  14  16
ATOM     16  C   UNL     1       0.250  -1.134   1.404  1.00  0.00     0.267 C 
ATOM     17  C   UNL     1       0.832  -0.770   2.784  1.00  0.00     0.100 C 
BRANCH  16  18
ATOM     18  C   UNL     1       0.593  -2.619   1.101  1.00  0.00     0.453 C 
ATOM     19  F   UNL     1       0.061  -3.054  -0.061  1.00  0.00    -0.164 F 
ATOM     20  F   UNL     1       1.947  -2.735   0.958  1.00  0.00    -0.164 F 
ATOM     21  F   UNL     1       0.247  -3.472   2.088  1.00  0.00    -0.164 F 
ENDBRANCH  16  18
BRANCH  16  22
ATOM     22  N   UNL     1       0.842  -0.166   0.411  1.00  0.00    -0.337 N 
ATOM     23  H   UNL     1       0.482  -0.372  -0.520  1.00  0.00     0.345 HD
ATOM     24  H   UNL     1       1.858  -0.258   0.411  1.00  0.00     0.345 HD
ATOM     25  H   UNL     1       0.587   0.787   0.672  1.00  0.00     0.345 HD
ENDBRANCH  16  22
ENDBRANCH  14  16
ENDBRANCH   6  14
ENDBRANCH   3   5
ENDBRANCH   2   3
ENDBRANCH   1   2
BRANCH   1  26
ATOM     26  C   UNL     1      -3.110   3.104  -3.280  1.00  0.00     0.275 C 
BRANCH  26  27
ATOM     27  O   UNL     1      -1.688   3.083  -3.510  1.00  0.00    -0.458 OA
BRANCH  27  28
ATOM     28  C   UNL     1      -0.951   3.707  -2.562  1.00  0.00     0.338 C 
ATOM     29  O   UNL     1      -1.352   4.339  -1.600  1.00  0.00    -0.246 OA
BRANCH  28  30
ATOM     30  C   UNL     1       0.463   3.344  -2.727  1.00  0.00     0.060 A 
ATOM     31  C   UNL     1       1.027   2.560  -1.724  1.00  0.00     0.016 A 
ATOM     32  C   UNL     1       1.249   3.822  -3.774  1.00  0.00     0.016 A 
ATOM     33  C   UNL     1       2.380   2.260  -1.736  1.00  0.00     0.010 A 
ATOM     34  C   UNL     1       2.615   3.505  -3.799  1.00  0.00     0.010 A 
ATOM     35  C   UNL     1       3.188   2.730  -2.774  1.00  0.00    -0.014 A 
BRANCH  35  36
ATOM     36  C   UNL     1       4.640   2.448  -2.718  1.00  0.00     0.031 A 
ATOM     37  C   UNL     1       5.599   3.547  -2.366  1.00  0.00     0.074 A 
ATOM     38  C   UNL     1       5.088   1.188  -2.874  1.00  0.00     0.049 A 
ATOM     39  N   UNL     1       6.906   3.522  -2.332  1.00  0.00    -0.248 NA
ATOM     40  C   UNL     1       5.008   4.840  -1.985  1.00  0.00     0.031 C 
ATOM     41  C   UNL     1       4.248   0.011  -3.102  1.00  0.00     0.029 A 
ATOM     42  N   UNL     1       6.364   0.687  -2.839  1.00  0.00    -0.354 N 
ATOM     43  C   UNL     1       7.297   4.799  -1.956  1.00  0.00     0.074 A 
ATOM     44  C   UNL     1       6.090   5.577  -1.772  1.00  0.00     0.031 C 
ATOM     45  C   UNL     1       5.030  -1.079  -3.163  1.00  0.00     0.029 A 
ATOM     46  C   UNL     1       6.426  -0.669  -3.049  1.00  0.00     0.049 A 
ATOM     47  H   UNL     1       7.160   1.245  -2.679  1.00  0.00     0.167 HD
ATOM     48  C   UNL     1       8.550   5.282  -1.786  1.00  0.00     0.031 A 
ATOM     49  C   UNL     1       7.491  -1.483  -3.174  1.00  0.00     0.031 A 
ATOM     50  C   UNL     1       9.749   4.510  -1.972  1.00  0.00     0.049 A 
ATOM     51  C   UNL     1       8.873  -0.901  -3.091  1.00  0.00     0.074 A 
ATOM     52  C   UNL     1      11.066   4.924  -1.880  1.00  0.00     0.029 A 
ATOM     53  N   UNL     1       9.773   3.159  -2.277  1.00  0.00    -0.354 N 
ATOM     54  N   UNL     1       9.235   0.332  -2.828  1.00  0.00    -0.248 NA
ATOM     55  C   UNL     1       9.993  -1.819  -3.341  1.00  0.00     0.031 C 
ATOM     56  C   UNL     1      11.889   3.828  -2.166  1.00  0.00     0.029 A 
ATOM     57  C   UNL     1      11.082   2.724  -2.390  1.00  0.00     0.049 A 
ATOM     58  H   UNL     1       8.977   2.592  -2.397  1.00  0.00     0.167 HD
ATOM     59  C   UNL     1      10.622   0.336  -2.872  1.00  0.00     0.074 A 
ATOM     60  C   UNL     1      11.038  -1.020  -3.167  1.00  0.00     0.031 C 
ATOM     61  C   UNL     1      11.476   1.372  -2.689  1.00  0.00     0.031 A 
BRANCH  48  62
ATOM     62  C   UNL     1       8.681   6.735  -1.435  1.00  0.00    -0.014 A 
ATOM     63  C   UNL     1       8.415   7.200  -0.138  1.00  0.00     0.009 A 
ATOM     64  C   UNL     1       9.090   7.650  -2.418  1.00  0.00     0.009 A 
ATOM     65  C   UNL     1       8.531   8.559   0.160  1.00  0.00     0.001 A 
ATOM     66  C   UNL     1       9.226   9.004  -2.111  1.00  0.00     0.001 A 
ATOM     67  C   UNL     1       8.939   9.459  -0.825  1.00  0.00     0.000 A 
ENDBRANCH  48  62
BRANCH  49  68
ATOM     68  C   UNL     1       7.292  -2.928  -3.455  1.00  0.00    -0.014 A 
ATOM     69  C   UNL     1       7.601  -3.895  -2.487  1.00  0.00     0.009 A 
ATOM     70  C   UNL     1       6.796  -3.346  -4.700  1.00  0.00     0.009 A 
ATOM     71  C   UNL     1       7.429  -5.253  -2.768  1.00  0.00     0.001 A 
ATOM     72  C   UNL     1       6.602  -4.702  -4.968  1.00  0.00     0.001 A 
ATOM     73  C   UNL     1       6.925  -5.655  -4.004  1.00  0.00     0.000 A 
ENDBRANCH  49  68
BRANCH  61  74
ATOM     74  C   UNL     1      12.943   1.072  -2.779  1.00  0.00    -0.014 A 
ATOM     75  C   UNL     1      13.566   0.866  -4.019  1.00  0.00     0.009 A 
ATOM     76  C   UNL     1      13.719   1.034  -1.610  1.00  0.00     0.009 A 
ATOM     77  C   UNL     1      14.935   0.602  -4.084  1.00  0.00     0.001 A 
ATOM     78  C   UNL     1      15.091   0.792  -1.680  1.00  0.00     0.001 A 
ATOM     79  C   UNL     1      15.696   0.569  -2.916  1.00  0.00     0.000 A 
ENDBRANCH  61  74
ENDBRANCH  35  36
ENDBRANCH  28  30
ENDBRANCH  27  28
ENDBRANCH  26  27
ENDBRANCH   1  26
TORSDOF 15
