REMARK SMILES CO[C@@H]1C[NH2+][C@@H](O[C@@H]2C[C@@H](C(=O)OCCOC(=O)c3ccc(-c4c5nc(c(-c6ccccc6)c6ccc([nH]6)c(-c6ccccc6)c6nc(c(-c7ccccc7)c7ccc4[nH]7)C=C6)C=C5)cc3)N(C(=O)OC(C)(C)C)C2)c2cc(Cl)ccc21
REMARK SMILES IDX 14 1 13 2 11 3 12 4 10 5 8 6 9 7 75 8 67 9 7 10 6 11 3 12
REMARK SMILES IDX 4 13 82 14 5 15 76 16 81 17 77 20 80 21 78 22 79 23 2 24
REMARK SMILES IDX 1 25 68 26 69 27 70 28 71 29 72 30 73 31 74 32 15 33 16 34
REMARK SMILES IDX 17 35 18 36 19 37 20 38 66 39 21 40 65 41 22 42 23 43 24 44
REMARK SMILES IDX 59 45 25 46 64 47 58 48 60 49 26 50 63 51 57 52 56 53 27 55
REMARK SMILES IDX 49 56 34 57 48 58 35 59 38 60 47 61 61 62 36 63 37 64 46 66
REMARK SMILES IDX 62 67 39 68 28 69 29 70 33 71 30 72 32 73 31 74 50 75 51 76
REMARK SMILES IDX 55 77 52 78 54 79 53 80 40 81 41 82 45 83 42 84 44 85 43 86
REMARK H PARENT 5 18 5 19 60 54 38 65
REMARK Flexibility Score: inf
ROOT
ATOM      1  C   UNL     1       0.649   3.048   6.515  1.00  0.00     0.274 C 
ENDROOT
BRANCH   1   2
ATOM      2  O   UNL     1       1.592   2.067   5.995  1.00  0.00    -0.461 OA
BRANCH   2   3
ATOM      3  C   UNL     1       1.075   1.284   5.020  1.00  0.00     0.329 C 
ATOM      4  O   UNL     1      -0.119   1.321   4.710  1.00  0.00    -0.250 OA
BRANCH   3   5
ATOM      5  C   UNL     1       1.981   0.218   4.374  1.00  0.00     0.201 C 
ATOM      6  C   UNL     1       2.500  -2.156   4.616  1.00  0.00     0.147 C 
ATOM      7  C   UNL     1       1.678  -1.037   5.226  1.00  0.00     0.071 C 
ATOM      8  C   UNL     1       3.691  -1.425   3.991  1.00  0.00     0.156 C 
ATOM      9  N   UNL     1       3.414   0.016   4.088  1.00  0.00    -0.292 N 
BRANCH   6  10
ATOM     10  O   UNL     1       1.856  -3.171   3.861  1.00  0.00    -0.320 OA
BRANCH  10  11
ATOM     11  C   UNL     1       0.878  -3.051   2.835  1.00  0.00     0.354 C 
ATOM     12  C   UNL     1       0.299  -0.761   1.039  1.00  0.00     0.203 C 
ATOM     13  C   UNL     1       1.611  -1.589   1.042  1.00  0.00     0.300 C 
ATOM     14  C   UNL     1      -0.596  -1.063   2.229  1.00  0.00    -0.002 A 
ATOM     15  N   UNL     1       1.474  -2.956   1.514  1.00  0.00    -0.315 N 
ATOM     16  C   UNL     1      -0.329  -2.166   3.064  1.00  0.00     0.046 A 
ATOM     17  C   UNL     1      -1.708  -0.244   2.502  1.00  0.00     0.009 A 
ATOM     18  H   UNL     1       2.401  -3.382   1.546  1.00  0.00     0.349 HD
ATOM     19  H   UNL     1       0.852  -3.438   0.866  1.00  0.00     0.349 HD
ATOM     20  C   UNL     1      -1.223  -2.462   4.112  1.00  0.00     0.033 A 
ATOM     21  C   UNL     1      -2.549  -0.515   3.583  1.00  0.00     0.021 A 
ATOM     22  C   UNL     1      -2.310  -1.630   4.377  1.00  0.00     0.041 A 
ATOM     23  Cl  UNL     1      -3.344  -1.973   5.710  1.00  0.00    -0.084 Cl
BRANCH  12  24
ATOM     24  O   UNL     1      -0.503  -0.877  -0.138  1.00  0.00    -0.371 OA
ATOM     25  C   UNL     1       0.194  -0.688  -1.359  1.00  0.00     0.196 C 
ENDBRANCH  12  24
ENDBRANCH  10  11
ENDBRANCH   6  10
BRANCH   9  26
ATOM     26  C   UNL     1       4.237   0.839   3.323  1.00  0.00     0.411 C 
ATOM     27  O   UNL     1       5.061   0.376   2.537  1.00  0.00    -0.224 OA
BRANCH  26  28
ATOM     28  O   UNL     1       4.101   2.165   3.558  1.00  0.00    -0.444 OA
BRANCH  28  29
ATOM     29  C   UNL     1       4.913   3.148   2.831  1.00  0.00     0.106 C 
ATOM     30  C   UNL     1       6.400   2.994   3.166  1.00  0.00     0.056 C 
ATOM     31  C   UNL     1       4.651   3.062   1.322  1.00  0.00     0.056 C 
ATOM     32  C   UNL     1       4.526   4.565   3.308  1.00  0.00     0.056 C 
ENDBRANCH  28  29
ENDBRANCH  26  28
ENDBRANCH   9  26
ENDBRANCH   3   5
ENDBRANCH   2   3
ENDBRANCH   1   2
BRANCH   1  33
ATOM     33  C   UNL     1       0.773   4.460   5.890  1.00  0.00     0.275 C 
BRANCH  33  34
ATOM     34  O   UNL     1       0.244   4.615   4.543  1.00  0.00    -0.458 OA
BRANCH  34  35
ATOM     35  C   UNL     1       1.076   4.084   3.633  1.00  0.00     0.338 C 
ATOM     36  O   UNL     1       2.066   3.436   3.917  1.00  0.00    -0.246 OA
BRANCH  35  37
ATOM     37  C   UNL     1       0.813   4.228   2.205  1.00  0.00     0.060 A 
ATOM     38  C   UNL     1       1.283   5.342   1.501  1.00  0.00     0.016 A 
ATOM     39  C   UNL     1       0.576   3.027   1.536  1.00  0.00     0.016 A 
ATOM     40  C   UNL     1       1.480   5.257   0.115  1.00  0.00     0.010 A 
ATOM     41  C   UNL     1       0.825   2.929   0.170  1.00  0.00     0.010 A 
ATOM     42  C   UNL     1       1.239   4.051  -0.560  1.00  0.00    -0.014 A 
BRANCH  42  43
ATOM     43  C   UNL     1       1.110   4.006  -2.037  1.00  0.00     0.031 A 
ATOM     44  C   UNL     1      -0.294   4.015  -2.577  1.00  0.00     0.074 A 
ATOM     45  C   UNL     1       2.159   3.934  -2.879  1.00  0.00     0.049 A 
ATOM     46  N   UNL     1      -0.712   4.064  -3.813  1.00  0.00    -0.248 NA
ATOM     47  C   UNL     1      -1.379   3.926  -1.580  1.00  0.00     0.031 C 
ATOM     48  C   UNL     1       3.564   3.843  -2.489  1.00  0.00     0.029 A 
ATOM     49  N   UNL     1       2.195   3.933  -4.255  1.00  0.00    -0.354 N 
ATOM     50  C   UNL     1      -2.097   4.046  -3.726  1.00  0.00     0.074 A 
ATOM     51  C   UNL     1      -2.448   3.836  -2.345  1.00  0.00     0.031 C 
ATOM     52  C   UNL     1       4.327   3.836  -3.598  1.00  0.00     0.029 A 
ATOM     53  C   UNL     1       3.467   3.924  -4.779  1.00  0.00     0.049 A 
ATOM     54  H   UNL     1       1.384   3.939  -4.813  1.00  0.00     0.167 HD
ATOM     55  C   UNL     1      -3.011   4.269  -4.694  1.00  0.00     0.031 A 
ATOM     56  C   UNL     1       3.883   4.013  -6.060  1.00  0.00     0.031 A 
ATOM     57  C   UNL     1      -2.667   4.454  -6.069  1.00  0.00     0.049 A 
ATOM     58  C   UNL     1       2.854   4.186  -7.154  1.00  0.00     0.074 A 
ATOM     59  C   UNL     1      -3.502   4.680  -7.142  1.00  0.00     0.029 A 
ATOM     60  N   UNL     1      -1.368   4.418  -6.555  1.00  0.00    -0.354 N 
ATOM     61  N   UNL     1       1.549   4.281  -7.049  1.00  0.00    -0.248 NA
ATOM     62  C   UNL     1       3.350   4.285  -8.536  1.00  0.00     0.031 C 
ATOM     63  C   UNL     1      -2.712   4.724  -8.292  1.00  0.00     0.029 A 
ATOM     64  C   UNL     1      -1.379   4.593  -7.923  1.00  0.00     0.049 A 
ATOM     65  H   UNL     1      -0.561   4.288  -6.007  1.00  0.00     0.167 HD
ATOM     66  C   UNL     1       1.071   4.471  -8.342  1.00  0.00     0.074 A 
ATOM     67  C   UNL     1       2.227   4.492  -9.214  1.00  0.00     0.031 C 
ATOM     68  C   UNL     1      -0.209   4.615  -8.767  1.00  0.00     0.031 A 
BRANCH  55  69
ATOM     69  C   UNL     1      -4.446   4.345  -4.257  1.00  0.00    -0.014 A 
ATOM     70  C   UNL     1      -5.357   3.350  -4.631  1.00  0.00     0.009 A 
ATOM     71  C   UNL     1      -4.881   5.389  -3.419  1.00  0.00     0.009 A 
ATOM     72  C   UNL     1      -6.670   3.385  -4.157  1.00  0.00     0.001 A 
ATOM     73  C   UNL     1      -6.182   5.399  -2.915  1.00  0.00     0.001 A 
ATOM     74  C   UNL     1      -7.076   4.398  -3.288  1.00  0.00     0.000 A 
ENDBRANCH  55  69
BRANCH  56  75
ATOM     75  C   UNL     1       5.343   4.029  -6.366  1.00  0.00    -0.014 A 
ATOM     76  C   UNL     1       6.132   2.878  -6.201  1.00  0.00     0.009 A 
ATOM     77  C   UNL     1       5.971   5.216  -6.777  1.00  0.00     0.009 A 
ATOM     78  C   UNL     1       7.514   2.923  -6.412  1.00  0.00     0.001 A 
ATOM     79  C   UNL     1       7.349   5.253  -7.010  1.00  0.00     0.001 A 
ATOM     80  C   UNL     1       8.122   4.110  -6.817  1.00  0.00     0.000 A 
ENDBRANCH  56  75
BRANCH  68  81
ATOM     81  C   UNL     1      -0.466   4.802 -10.236  1.00  0.00    -0.014 A 
ATOM     82  C   UNL     1      -0.988   6.022 -10.698  1.00  0.00     0.009 A 
ATOM     83  C   UNL     1      -0.388   3.715 -11.118  1.00  0.00     0.009 A 
ATOM     84  C   UNL     1      -1.471   6.136 -12.002  1.00  0.00     0.001 A 
ATOM     85  C   UNL     1      -0.844   3.842 -12.431  1.00  0.00     0.001 A 
ATOM     86  C   UNL     1      -1.401   5.045 -12.866  1.00  0.00     0.000 A 
ENDBRANCH  68  81
ENDBRANCH  42  43
ENDBRANCH  35  37
ENDBRANCH  34  35
ENDBRANCH  33  34
ENDBRANCH   1  33
TORSDOF 17
