REMARK SMILES Cc1ccccc1[C@@H]1[NH2+][C@H](C(=O)OCCOC(=O)c2ccc(-c3c4nc(c(-c5ccccc5)c5ccc([nH]5)c(-c5ccccc5)c5nc(c(-c6ccccc6)c6ccc3[nH]6)C=C5)C=C4)cc2)CC2=c3ccccc3=N[C@@H]21
REMARK SMILES IDX 15 1 14 2 13 3 11 4 12 5 10 6 8 7 9 8 76 9 68 12 75 13 67 14
REMARK SMILES IDX 69 15 74 16 70 17 73 18 71 19 72 20 7 21 1 22 2 23 3 24 4 25
REMARK SMILES IDX 6 26 5 27 16 28 17 29 18 30 19 31 20 32 66 33 21 34 65 35
REMARK SMILES IDX 22 36 23 37 24 38 59 39 25 40 64 41 58 42 60 43 26 44 63 45
REMARK SMILES IDX 57 46 56 47 27 49 49 50 34 51 48 52 35 53 38 54 47 55 61 56
REMARK SMILES IDX 36 57 37 58 46 60 62 61 39 62 28 63 29 64 33 65 30 66 32 67
REMARK SMILES IDX 31 68 50 69 51 70 55 71 52 72 54 73 53 74 40 75 41 76 45 77
REMARK SMILES IDX 42 78 44 79 43 80
REMARK H PARENT 9 10 9 11 60 48 38 59
REMARK Flexibility Score: inf
ROOT
ATOM      1  C   UNL     1      -0.741   3.935  -1.508  1.00  0.00     0.275 C 
ENDROOT
BRANCH   1   2
ATOM      2  C   UNL     1       0.681   4.510  -1.686  1.00  0.00     0.274 C 
BRANCH   2   3
ATOM      3  O   UNL     1       1.264   5.359  -0.659  1.00  0.00    -0.458 OA
BRANCH   3   4
ATOM      4  C   UNL     1       1.743   5.105   0.593  1.00  0.00     0.365 C 
ATOM      5  O   UNL     1       2.391   5.971   1.180  1.00  0.00    -0.245 OA
BRANCH   4   6
ATOM      6  C   UNL     1       1.389   3.758   1.236  1.00  0.00     0.298 C 
ATOM      7  C   UNL     1       1.678   1.409   0.485  1.00  0.00     0.243 C 
ATOM      8  N   UNL     1       1.448   2.801   0.146  1.00  0.00    -0.326 N 
ATOM      9  C   UNL     1       3.173   1.366   1.017  1.00  0.00     0.196 C 
ATOM     10  H   UNL     1       0.559   2.851  -0.352  1.00  0.00     0.347 HD
ATOM     11  H   UNL     1       2.268   3.075  -0.396  1.00  0.00     0.347 HD
ATOM     12  C   UNL     1       3.440   2.604   1.891  1.00  0.00    -0.024 C 
ATOM     13  N   UNL     1       4.224   1.502  -0.039  1.00  0.00    -0.270 NA
ATOM     14  C   UNL     1       2.268   3.362   2.441  1.00  0.00     0.111 C 
ATOM     15  C   UNL     1       4.585   3.210   1.585  1.00  0.00     0.002 A 
ATOM     16  C   UNL     1       4.963   2.498   0.354  1.00  0.00     0.066 A 
ATOM     17  C   UNL     1       5.133   4.489   1.919  1.00  0.00     0.010 A 
ATOM     18  C   UNL     1       6.094   3.090  -0.401  1.00  0.00     0.028 A 
ATOM     19  C   UNL     1       6.102   5.000   1.146  1.00  0.00     0.001 A 
ATOM     20  C   UNL     1       6.603   4.271  -0.006  1.00  0.00     0.002 A 
BRANCH   7  21
ATOM     21  C   UNL     1       1.108   0.731  -0.777  1.00  0.00     0.015 A 
ATOM     22  C   UNL     1      -1.281   0.496   0.251  1.00  0.00     0.045 C 
ATOM     23  C   UNL     1      -0.294   0.473  -0.894  1.00  0.00    -0.042 A 
ATOM     24  C   UNL     1      -0.877   0.314  -2.174  1.00  0.00     0.004 A 
ATOM     25  C   UNL     1      -0.123   0.453  -3.334  1.00  0.00     0.000 A 
ATOM     26  C   UNL     1       1.853   0.784  -1.978  1.00  0.00     0.010 A 
ATOM     27  C   UNL     1       1.242   0.678  -3.234  1.00  0.00     0.001 A 
ENDBRANCH   7  21
ENDBRANCH   4   6
ENDBRANCH   3   4
ENDBRANCH   2   3
ENDBRANCH   1   2
BRANCH   1  28
ATOM     28  O   UNL     1      -1.296   3.679  -0.174  1.00  0.00    -0.458 OA
BRANCH  28  29
ATOM     29  C   UNL     1      -1.818   4.522   0.768  1.00  0.00     0.338 C 
ATOM     30  O   UNL     1      -2.254   4.130   1.845  1.00  0.00    -0.246 OA
BRANCH  29  31
ATOM     31  C   UNL     1      -1.712   5.952   0.470  1.00  0.00     0.060 A 
ATOM     32  C   UNL     1      -0.786   6.766   1.149  1.00  0.00     0.016 A 
ATOM     33  C   UNL     1      -2.169   6.269  -0.777  1.00  0.00     0.016 A 
ATOM     34  C   UNL     1      -0.095   7.756   0.431  1.00  0.00     0.010 A 
ATOM     35  C   UNL     1      -1.270   6.980  -1.516  1.00  0.00     0.010 A 
ATOM     36  C   UNL     1      -0.259   7.786  -0.952  1.00  0.00    -0.014 A 
BRANCH  36  37
ATOM     37  C   UNL     1       0.482   8.594  -1.938  1.00  0.00     0.031 A 
ATOM     38  C   UNL     1       1.948   8.831  -1.943  1.00  0.00     0.074 A 
ATOM     39  C   UNL     1      -0.317   9.172  -2.872  1.00  0.00     0.049 A 
ATOM     40  N   UNL     1       2.477  10.000  -2.118  1.00  0.00    -0.248 NA
ATOM     41  C   UNL     1       2.964   7.781  -1.824  1.00  0.00     0.031 C 
ATOM     42  C   UNL     1      -0.028  10.019  -4.009  1.00  0.00     0.029 A 
ATOM     43  N   UNL     1      -1.717   9.210  -2.805  1.00  0.00    -0.354 N 
ATOM     44  C   UNL     1       3.807   9.805  -2.444  1.00  0.00     0.074 A 
ATOM     45  C   UNL     1       4.101   8.440  -2.094  1.00  0.00     0.031 C 
ATOM     46  C   UNL     1      -1.141  10.740  -4.282  1.00  0.00     0.029 A 
ATOM     47  C   UNL     1      -2.140  10.436  -3.256  1.00  0.00     0.049 A 
ATOM     48  H   UNL     1      -2.298   8.481  -2.489  1.00  0.00     0.167 HD
ATOM     49  C   UNL     1       4.472  10.713  -3.215  1.00  0.00     0.031 A 
ATOM     50  C   UNL     1      -2.723  11.259  -2.339  1.00  0.00     0.031 A 
ATOM     51  C   UNL     1       3.549  11.723  -3.712  1.00  0.00     0.049 A 
ATOM     52  C   UNL     1      -1.909  12.506  -2.223  1.00  0.00     0.074 A 
ATOM     53  C   UNL     1       2.908  11.835  -4.935  1.00  0.00     0.029 A 
ATOM     54  N   UNL     1       2.898  12.574  -2.834  1.00  0.00    -0.354 N 
ATOM     55  N   UNL     1      -0.614  12.536  -2.362  1.00  0.00    -0.248 NA
ATOM     56  C   UNL     1      -2.504  13.818  -2.033  1.00  0.00     0.031 C 
ATOM     57  C   UNL     1       1.831  12.736  -4.779  1.00  0.00     0.029 A 
ATOM     58  C   UNL     1       1.834  13.180  -3.468  1.00  0.00     0.049 A 
ATOM     59  H   UNL     1       3.156  12.724  -1.895  1.00  0.00     0.167 HD
ATOM     60  C   UNL     1      -0.219  13.842  -2.439  1.00  0.00     0.074 A 
ATOM     61  C   UNL     1      -1.426  14.607  -2.173  1.00  0.00     0.031 C 
ATOM     62  C   UNL     1       1.050  14.194  -2.786  1.00  0.00     0.031 A 
BRANCH  49  63
ATOM     63  C   UNL     1       5.841  10.511  -3.831  1.00  0.00    -0.014 A 
ATOM     64  C   UNL     1       6.143  11.122  -5.068  1.00  0.00     0.009 A 
ATOM     65  C   UNL     1       6.879   9.768  -3.244  1.00  0.00     0.009 A 
ATOM     66  C   UNL     1       7.365  10.937  -5.725  1.00  0.00     0.001 A 
ATOM     67  C   UNL     1       8.107   9.570  -3.905  1.00  0.00     0.001 A 
ATOM     68  C   UNL     1       8.345  10.144  -5.150  1.00  0.00     0.000 A 
ENDBRANCH  49  63
BRANCH  50  69
ATOM     69  C   UNL     1      -3.401  10.560  -1.184  1.00  0.00    -0.014 A 
ATOM     70  C   UNL     1      -4.488   9.692  -1.444  1.00  0.00     0.009 A 
ATOM     71  C   UNL     1      -2.817  10.495   0.091  1.00  0.00     0.009 A 
ATOM     72  C   UNL     1      -4.926   8.756  -0.494  1.00  0.00     0.001 A 
ATOM     73  C   UNL     1      -3.267   9.566   1.047  1.00  0.00     0.001 A 
ATOM     74  C   UNL     1      -4.306   8.685   0.749  1.00  0.00     0.000 A 
ENDBRANCH  50  69
BRANCH  62  75
ATOM     75  C   UNL     1       1.669  15.554  -2.640  1.00  0.00    -0.014 A 
ATOM     76  C   UNL     1       1.141  16.572  -1.842  1.00  0.00     0.009 A 
ATOM     77  C   UNL     1       2.942  15.786  -3.212  1.00  0.00     0.009 A 
ATOM     78  C   UNL     1       1.830  17.775  -1.657  1.00  0.00     0.001 A 
ATOM     79  C   UNL     1       3.657  16.959  -2.985  1.00  0.00     0.001 A 
ATOM     80  C   UNL     1       3.092  17.961  -2.214  1.00  0.00     0.000 A 
ENDBRANCH  62  75
ENDBRANCH  36  37
ENDBRANCH  29  31
ENDBRANCH  28  29
ENDBRANCH   1  28
TORSDOF 12
