REMARK SMILES CC(C)C[C@H](CNC(=O)N[C@@H](C)c1nccs1)C(=O)OCCOC(=O)c1ccc(-c2c3nc(c(-c4ccccc4)c4ccc([nH]4)c(-c4ccccc4)c4nc(c(-c5ccccc5)c5ccc2[nH]5)C=C4)C=C3)cc1
REMARK SMILES IDX 21 1 20 2 18 3 19 4 5 5 4 6 2 7 1 8 3 9 6 10 7 11 8 12 9 14
REMARK SMILES IDX 10 15 11 17 12 18 13 19 14 20 17 21 15 22 16 23 22 24 23 25
REMARK SMILES IDX 24 26 25 27 26 28 27 29 73 30 28 31 72 32 29 33 30 34 31 35
REMARK SMILES IDX 66 36 32 37 71 38 65 39 67 40 33 41 70 42 64 43 63 44 34 46
REMARK SMILES IDX 56 47 41 48 55 49 42 50 45 51 54 52 68 53 43 54 44 55 53 57
REMARK SMILES IDX 69 58 46 59 35 60 36 61 40 62 37 63 39 64 38 65 57 66 58 67
REMARK SMILES IDX 62 68 59 69 61 70 60 71 47 72 48 73 52 74 49 75 51 76 50 77
REMARK H PARENT 7 13 10 16 67 45 45 56
REMARK Flexibility Score: inf
ROOT
ATOM      1  C   UNL     1      -5.348  -1.597   1.392  1.00  0.00     0.274 C 
ENDROOT
BRANCH   1   2
ATOM      2  O   UNL     1      -3.931  -1.734   1.626  1.00  0.00    -0.462 OA
BRANCH   2   3
ATOM      3  C   UNL     1      -3.171  -1.968   0.524  1.00  0.00     0.310 C 
ATOM      4  O   UNL     1      -3.622  -2.163  -0.599  1.00  0.00    -0.252 OA
BRANCH   3   5
ATOM      5  C   UNL     1      -1.682  -1.894   0.801  1.00  0.00     0.119 C 
BRANCH   5   6
ATOM      6  C   UNL     1      -0.923  -3.215   1.032  1.00  0.00     0.020 C 
BRANCH   6   7
ATOM      7  C   UNL     1      -1.716  -4.522   1.236  1.00  0.00    -0.017 C 
ATOM      8  C   UNL     1      -2.388  -5.034  -0.043  1.00  0.00     0.007 C 
ATOM      9  C   UNL     1      -0.749  -5.607   1.733  1.00  0.00     0.007 C 
ENDBRANCH   6   7
ENDBRANCH   5   6
BRANCH   5  10
ATOM     10  C   UNL     1      -1.353  -0.726   1.758  1.00  0.00     0.133 C 
BRANCH  10  11
ATOM     11  N   UNL     1      -0.970  -1.108   3.103  1.00  0.00    -0.337 N 
ATOM     12  C   UNL     1       0.145  -1.074   3.833  1.00  0.00     0.315 C 
ATOM     13  H   UNL     1      -1.726  -1.489   3.606  1.00  0.00     0.165 HD
ATOM     14  O   UNL     1       0.083  -1.542   4.974  1.00  0.00    -0.249 OA
ATOM     15  N   UNL     1       1.319  -0.581   3.448  1.00  0.00    -0.329 N 
ATOM     16  H   UNL     1       2.001  -0.679   4.152  1.00  0.00     0.166 HD
BRANCH  15  17
ATOM     17  C   UNL     1       1.865   0.065   2.261  1.00  0.00     0.140 C 
ATOM     18  C   UNL     1       2.555   1.377   2.638  1.00  0.00     0.039 C 
BRANCH  17  19
ATOM     19  C   UNL     1       2.761  -0.910   1.529  1.00  0.00     0.115 A 
ATOM     20  N   UNL     1       2.395  -1.562   0.440  1.00  0.00    -0.247 NA
ATOM     21  S   UNL     1       4.357  -1.266   2.085  1.00  0.00    -0.125 S 
ATOM     22  C   UNL     1       3.424  -2.377   0.011  1.00  0.00     0.123 A 
ATOM     23  C   UNL     1       4.575  -2.332   0.765  1.00  0.00     0.087 A 
ENDBRANCH  17  19
ENDBRANCH  15  17
ENDBRANCH  10  11
ENDBRANCH   5  10
ENDBRANCH   3   5
ENDBRANCH   2   3
ENDBRANCH   1   2
BRANCH   1  24
ATOM     24  C   UNL     1      -5.745  -0.149   1.072  1.00  0.00     0.275 C 
BRANCH  24  25
ATOM     25  O   UNL     1      -5.332   0.242  -0.254  1.00  0.00    -0.458 OA
BRANCH  25  26
ATOM     26  C   UNL     1      -4.234   1.027  -0.324  1.00  0.00     0.338 C 
ATOM     27  O   UNL     1      -3.584   1.481   0.606  1.00  0.00    -0.246 OA
BRANCH  26  28
ATOM     28  C   UNL     1      -3.805   1.172  -1.722  1.00  0.00     0.060 A 
ATOM     29  C   UNL     1      -2.594   0.588  -2.103  1.00  0.00     0.016 A 
ATOM     30  C   UNL     1      -4.530   1.948  -2.626  1.00  0.00     0.016 A 
ATOM     31  C   UNL     1      -2.102   0.757  -3.392  1.00  0.00     0.010 A 
ATOM     32  C   UNL     1      -4.032   2.129  -3.920  1.00  0.00     0.010 A 
ATOM     33  C   UNL     1      -2.814   1.539  -4.306  1.00  0.00    -0.014 A 
BRANCH  33  34
ATOM     34  C   UNL     1      -2.255   1.790  -5.652  1.00  0.00     0.031 A 
ATOM     35  C   UNL     1      -1.633   3.118  -5.959  1.00  0.00     0.074 A 
ATOM     36  C   UNL     1      -2.311   0.832  -6.594  1.00  0.00     0.049 A 
ATOM     37  N   UNL     1      -1.226   3.595  -7.107  1.00  0.00    -0.248 NA
ATOM     38  C   UNL     1      -1.445   4.032  -4.821  1.00  0.00     0.031 C 
ATOM     39  C   UNL     1      -2.829  -0.521  -6.395  1.00  0.00     0.029 A 
ATOM     40  N   UNL     1      -1.940   0.862  -7.914  1.00  0.00    -0.354 N 
ATOM     41  C   UNL     1      -0.767   4.877  -6.837  1.00  0.00     0.074 A 
ATOM     42  C   UNL     1      -0.941   5.103  -5.418  1.00  0.00     0.031 C 
ATOM     43  C   UNL     1      -2.764  -1.187  -7.560  1.00  0.00     0.029 A 
ATOM     44  C   UNL     1      -2.250  -0.291  -8.592  1.00  0.00     0.049 A 
ATOM     45  H   UNL     1      -1.496   1.634  -8.334  1.00  0.00     0.167 HD
ATOM     46  C   UNL     1      -0.256   5.787  -7.700  1.00  0.00     0.031 A 
ATOM     47  C   UNL     1      -2.173  -0.575  -9.905  1.00  0.00     0.031 A 
ATOM     48  C   UNL     1      -0.084   5.556  -9.110  1.00  0.00     0.049 A 
ATOM     49  C   UNL     1      -1.670   0.474 -10.857  1.00  0.00     0.074 A 
ATOM     50  C   UNL     1       0.434   6.410 -10.067  1.00  0.00     0.029 A 
ATOM     51  N   UNL     1      -0.432   4.384  -9.762  1.00  0.00    -0.354 N 
ATOM     52  N   UNL     1      -1.252   1.689 -10.597  1.00  0.00    -0.248 NA
ATOM     53  C   UNL     1      -1.637   0.115 -12.281  1.00  0.00     0.031 C 
ATOM     54  C   UNL     1       0.359   5.768 -11.309  1.00  0.00     0.029 A 
ATOM     55  C   UNL     1      -0.165   4.500 -11.115  1.00  0.00     0.049 A 
ATOM     56  H   UNL     1      -0.814   3.587  -9.328  1.00  0.00     0.167 HD
ATOM     57  C   UNL     1      -0.894   2.236 -11.822  1.00  0.00     0.074 A 
ATOM     58  C   UNL     1      -1.131   1.215 -12.823  1.00  0.00     0.031 C 
ATOM     59  C   UNL     1      -0.412   3.473 -12.094  1.00  0.00     0.031 A 
BRANCH  46  60
ATOM     60  C   UNL     1       0.097   7.136  -7.145  1.00  0.00    -0.014 A 
ATOM     61  C   UNL     1       1.239   7.327  -6.353  1.00  0.00     0.009 A 
ATOM     62  C   UNL     1      -0.727   8.235  -7.431  1.00  0.00     0.009 A 
ATOM     63  C   UNL     1       1.530   8.589  -5.830  1.00  0.00     0.001 A 
ATOM     64  C   UNL     1      -0.422   9.500  -6.926  1.00  0.00     0.001 A 
ATOM     65  C   UNL     1       0.701   9.674  -6.119  1.00  0.00     0.000 A 
ENDBRANCH  46  60
BRANCH  47  66
ATOM     66  C   UNL     1      -2.643  -1.893 -10.400  1.00  0.00    -0.014 A 
ATOM     67  C   UNL     1      -1.731  -2.861 -10.842  1.00  0.00     0.009 A 
ATOM     68  C   UNL     1      -4.016  -2.194 -10.414  1.00  0.00     0.009 A 
ATOM     69  C   UNL     1      -2.185  -4.101 -11.299  1.00  0.00     0.001 A 
ATOM     70  C   UNL     1      -4.464  -3.442 -10.848  1.00  0.00     0.001 A 
ATOM     71  C   UNL     1      -3.549  -4.393 -11.296  1.00  0.00     0.000 A 
ENDBRANCH  47  66
BRANCH  59  72
ATOM     72  C   UNL     1      -0.086   3.782 -13.525  1.00  0.00    -0.014 A 
ATOM     73  C   UNL     1      -1.099   4.074 -14.451  1.00  0.00     0.009 A 
ATOM     74  C   UNL     1       1.255   3.835 -13.938  1.00  0.00     0.009 A 
ATOM     75  C   UNL     1      -0.774   4.392 -15.771  1.00  0.00     0.001 A 
ATOM     76  C   UNL     1       1.576   4.174 -15.252  1.00  0.00     0.001 A 
ATOM     77  C   UNL     1       0.562   4.447 -16.169  1.00  0.00     0.000 A 
ENDBRANCH  59  72
ENDBRANCH  33  34
ENDBRANCH  26  28
ENDBRANCH  25  26
ENDBRANCH  24  25
ENDBRANCH   1  24
TORSDOF 17
