REMARK SMILES CC(C)c1nc(C(=O)OCCOC(=O)c2ccc(-c3c4nc(c(-c5ccccc5)c5ccc([nH]5)c(-c5ccccc5)c5nc(c(-c6ccccc6)c6ccc3[nH]6)C=C5)C=C4)cc2)nn1-c1ccccc1F
REMARK SMILES IDX 11 1 10 2 9 3 7 4 8 5 6 6 4 7 5 8 64 9 63 10 2 11 1 12 3 13
REMARK SMILES IDX 65 14 66 15 70 16 67 17 69 18 71 19 68 20 12 21 13 22 14 23
REMARK SMILES IDX 15 24 16 25 62 26 17 27 61 28 18 29 19 30 20 31 55 32 21 33
REMARK SMILES IDX 60 34 54 35 56 36 22 37 59 38 53 39 52 40 23 42 45 43 30 44
REMARK SMILES IDX 44 45 31 46 34 47 43 48 57 49 32 50 33 51 42 53 58 54 35 55
REMARK SMILES IDX 24 56 25 57 29 58 26 59 28 60 27 61 46 62 47 63 51 64 48 65
REMARK SMILES IDX 50 66 49 67 36 68 37 69 41 70 38 71 40 72 39 73
REMARK H PARENT 56 41 34 52
REMARK Flexibility Score: inf
ROOT
ATOM      1  C   UNL     1      -7.475  -0.344   0.420  1.00  0.00     0.275 C 
ENDROOT
BRANCH   1   2
ATOM      2  C   UNL     1      -7.096   0.159   1.804  1.00  0.00     0.275 C 
BRANCH   2   3
ATOM      3  O   UNL     1      -5.780   0.729   1.810  1.00  0.00    -0.456 OA
BRANCH   3   4
ATOM      4  C   UNL     1      -4.724  -0.121   2.025  1.00  0.00     0.378 C 
ATOM      5  O   UNL     1      -4.849  -1.302   2.348  1.00  0.00    -0.242 OA
BRANCH   4   6
ATOM      6  C   UNL     1      -3.430   0.539   1.776  1.00  0.00     0.260 A 
ATOM      7  C   UNL     1      -1.355   0.843   1.333  1.00  0.00     0.136 A 
ATOM      8  N   UNL     1      -2.242  -0.120   1.539  1.00  0.00    -0.205 NA
ATOM      9  N   UNL     1      -2.019   2.062   1.392  1.00  0.00    -0.214 N 
ATOM     10  N   UNL     1      -3.293   1.872   1.799  1.00  0.00    -0.138 NA
BRANCH   7  11
ATOM     11  C   UNL     1       0.131   0.572   1.290  1.00  0.00     0.051 C 
ATOM     12  C   UNL     1       0.567   0.007  -0.061  1.00  0.00     0.016 C 
ATOM     13  C   UNL     1       1.053   1.697   1.746  1.00  0.00     0.016 C 
ENDBRANCH   7  11
BRANCH   9  14
ATOM     14  C   UNL     1      -1.578   3.387   1.247  1.00  0.00     0.102 A 
ATOM     15  C   UNL     1      -1.972   4.327   2.212  1.00  0.00     0.031 A 
ATOM     16  C   UNL     1      -0.810   3.788   0.162  1.00  0.00     0.148 A 
ATOM     17  C   UNL     1      -1.522   5.642   2.126  1.00  0.00     0.002 A 
ATOM     18  C   UNL     1      -0.381   5.109   0.060  1.00  0.00     0.041 A 
ATOM     19  F   UNL     1      -0.499   2.932  -0.820  1.00  0.00    -0.205 F 
ATOM     20  C   UNL     1      -0.722   6.032   1.052  1.00  0.00     0.003 A 
ENDBRANCH   9  14
ENDBRANCH   4   6
ENDBRANCH   3   4
ENDBRANCH   2   3
ENDBRANCH   1   2
BRANCH   1  21
ATOM     21  O   UNL     1      -6.839  -1.590   0.138  1.00  0.00    -0.458 OA
BRANCH  21  22
ATOM     22  C   UNL     1      -5.683  -1.513  -0.558  1.00  0.00     0.338 C 
ATOM     23  O   UNL     1      -5.009  -0.518  -0.760  1.00  0.00    -0.246 OA
BRANCH  22  24
ATOM     24  C   UNL     1      -5.467  -2.794  -1.242  1.00  0.00     0.060 A 
ATOM     25  C   UNL     1      -4.298  -2.938  -1.993  1.00  0.00     0.016 A 
ATOM     26  C   UNL     1      -6.524  -3.713  -1.342  1.00  0.00     0.016 A 
ATOM     27  C   UNL     1      -4.258  -3.917  -2.966  1.00  0.00     0.010 A 
ATOM     28  C   UNL     1      -6.488  -4.680  -2.318  1.00  0.00     0.010 A 
ATOM     29  C   UNL     1      -5.386  -4.724  -3.165  1.00  0.00    -0.014 A 
BRANCH  29  30
ATOM     30  C   UNL     1      -5.350  -5.694  -4.237  1.00  0.00     0.031 A 
ATOM     31  C   UNL     1      -4.415  -6.814  -3.993  1.00  0.00     0.074 A 
ATOM     32  C   UNL     1      -6.170  -5.646  -5.303  1.00  0.00     0.049 A 
ATOM     33  N   UNL     1      -3.333  -7.088  -4.638  1.00  0.00    -0.248 NA
ATOM     34  C   UNL     1      -4.641  -7.646  -2.800  1.00  0.00     0.031 C 
ATOM     35  C   UNL     1      -7.332  -4.784  -5.529  1.00  0.00     0.029 A 
ATOM     36  N   UNL     1      -6.181  -6.466  -6.385  1.00  0.00    -0.354 N 
ATOM     37  C   UNL     1      -2.815  -8.231  -4.040  1.00  0.00     0.074 A 
ATOM     38  C   UNL     1      -3.573  -8.443  -2.833  1.00  0.00     0.031 C 
ATOM     39  C   UNL     1      -8.063  -5.285  -6.553  1.00  0.00     0.029 A 
ATOM     40  C   UNL     1      -7.342  -6.404  -7.138  1.00  0.00     0.049 A 
ATOM     41  H   UNL     1      -5.426  -7.055  -6.616  1.00  0.00     0.167 HD
ATOM     42  C   UNL     1      -1.949  -9.046  -4.699  1.00  0.00     0.031 A 
ATOM     43  C   UNL     1      -7.700  -7.263  -8.124  1.00  0.00     0.031 A 
ATOM     44  C   UNL     1      -1.368  -8.398  -5.845  1.00  0.00     0.049 A 
ATOM     45  C   UNL     1      -6.471  -7.959  -8.578  1.00  0.00     0.074 A 
ATOM     46  C   UNL     1      -0.573  -7.285  -6.032  1.00  0.00     0.029 A 
ATOM     47  N   UNL     1      -1.917  -8.685  -7.072  1.00  0.00    -0.354 N 
ATOM     48  N   UNL     1      -5.500  -7.362  -9.208  1.00  0.00    -0.248 NA
ATOM     49  C   UNL     1      -6.119  -9.217  -7.936  1.00  0.00     0.031 C 
ATOM     50  C   UNL     1      -1.062  -6.685  -7.229  1.00  0.00     0.029 A 
ATOM     51  C   UNL     1      -2.081  -7.496  -7.733  1.00  0.00     0.049 A 
ATOM     52  H   UNL     1      -2.148  -9.579  -7.413  1.00  0.00     0.167 HD
ATOM     53  C   UNL     1      -4.343  -7.922  -8.686  1.00  0.00     0.074 A 
ATOM     54  C   UNL     1      -4.786  -9.124  -7.982  1.00  0.00     0.031 C 
ATOM     55  C   UNL     1      -3.177  -7.213  -8.632  1.00  0.00     0.031 A 
BRANCH  42  56
ATOM     56  C   UNL     1      -1.956 -10.543  -4.547  1.00  0.00    -0.014 A 
ATOM     57  C   UNL     1      -0.998 -11.296  -5.247  1.00  0.00     0.009 A 
ATOM     58  C   UNL     1      -3.038 -11.252  -3.989  1.00  0.00     0.009 A 
ATOM     59  C   UNL     1      -1.160 -12.671  -5.446  1.00  0.00     0.001 A 
ATOM     60  C   UNL     1      -3.181 -12.631  -4.150  1.00  0.00     0.001 A 
ATOM     61  C   UNL     1      -2.257 -13.336  -4.906  1.00  0.00     0.000 A 
ENDBRANCH  42  56
BRANCH  43  62
ATOM     62  C   UNL     1      -9.051  -7.749  -8.473  1.00  0.00    -0.014 A 
ATOM     63  C   UNL     1      -9.296  -8.372  -9.707  1.00  0.00     0.009 A 
ATOM     64  C   UNL     1     -10.040  -7.856  -7.478  1.00  0.00     0.009 A 
ATOM     65  C   UNL     1     -10.471  -9.107  -9.922  1.00  0.00     0.001 A 
ATOM     66  C   UNL     1     -11.213  -8.588  -7.693  1.00  0.00     0.001 A 
ATOM     67  C   UNL     1     -11.421  -9.226  -8.911  1.00  0.00     0.000 A 
ENDBRANCH  43  62
BRANCH  55  68
ATOM     68  C   UNL     1      -3.115  -5.890  -9.353  1.00  0.00    -0.014 A 
ATOM     69  C   UNL     1      -3.921  -4.790  -9.005  1.00  0.00     0.009 A 
ATOM     70  C   UNL     1      -2.085  -5.693 -10.284  1.00  0.00     0.009 A 
ATOM     71  C   UNL     1      -3.706  -3.535  -9.586  1.00  0.00     0.001 A 
ATOM     72  C   UNL     1      -1.859  -4.437 -10.848  1.00  0.00     0.001 A 
ATOM     73  C   UNL     1      -2.670  -3.359 -10.501  1.00  0.00     0.000 A 
ENDBRANCH  55  68
ENDBRANCH  29  30
ENDBRANCH  22  24
ENDBRANCH  21  22
ENDBRANCH   1  21
TORSDOF 13
