REMARK SMILES O=C(OCCOC(=O)c1cc(-c2ccn(C(F)F)c(=O)c2)ccc1O)c1ccc(-c2c3nc(c(-c4ccccc4)c4ccc([nH]4)c(-c4ccccc4)c4nc(c(-c5ccccc5)c5ccc2[nH]5)C=C4)C=C3)cc1
REMARK SMILES IDX 4 1 3 2 2 3 1 4 26 5 27 6 73 7 28 8 72 9 29 10 30 11 31 12
REMARK SMILES IDX 66 13 32 14 71 15 65 16 67 17 33 18 70 19 64 20 63 21 34 23
REMARK SMILES IDX 56 24 41 25 55 26 42 27 45 28 54 29 68 30 43 31 44 32 53 34
REMARK SMILES IDX 69 35 46 36 35 37 36 38 40 39 37 40 39 41 38 42 57 43 58 44
REMARK SMILES IDX 62 45 59 46 61 47 60 48 47 49 48 50 52 51 49 52 51 53 50 54
REMARK SMILES IDX 5 55 6 56 7 57 8 58 9 59 10 60 24 61 11 62 23 63 22 64 25 65
REMARK SMILES IDX 12 67 13 68 21 69 14 70 19 71 15 72 20 73 16 74 17 75 18 76
REMARK H PARENT 67 22 45 33 25 66
REMARK Flexibility Score: inf
ROOT
ATOM      1  C   UNL     1       4.322   0.376  -1.522  1.00  0.00     0.275 C 
ENDROOT
BRANCH   1   2
ATOM      2  O   UNL     1       3.369  -0.614  -1.110  1.00  0.00    -0.458 OA
BRANCH   2   3
ATOM      3  C   UNL     1       3.191  -1.189   0.100  1.00  0.00     0.338 C 
ATOM      4  O   UNL     1       2.366  -2.098   0.196  1.00  0.00    -0.246 OA
BRANCH   3   5
ATOM      5  C   UNL     1       3.832  -0.701   1.367  1.00  0.00     0.060 A 
ATOM      6  C   UNL     1       3.104  -0.961   2.535  1.00  0.00     0.016 A 
ATOM      7  C   UNL     1       5.038  -0.013   1.508  1.00  0.00     0.016 A 
ATOM      8  C   UNL     1       3.482  -0.424   3.768  1.00  0.00     0.010 A 
ATOM      9  C   UNL     1       5.447   0.495   2.753  1.00  0.00     0.010 A 
ATOM     10  C   UNL     1       4.658   0.324   3.890  1.00  0.00    -0.014 A 
BRANCH  10  11
ATOM     11  C   UNL     1       5.120   0.754   5.232  1.00  0.00     0.031 A 
ATOM     12  C   UNL     1       5.199   2.197   5.642  1.00  0.00     0.074 A 
ATOM     13  C   UNL     1       5.460  -0.211   6.107  1.00  0.00     0.049 A 
ATOM     14  N   UNL     1       5.330   2.697   6.846  1.00  0.00    -0.248 NA
ATOM     15  C   UNL     1       5.098   3.216   4.588  1.00  0.00     0.031 C 
ATOM     16  C   UNL     1       5.444  -1.646   5.813  1.00  0.00     0.029 A 
ATOM     17  N   UNL     1       5.875  -0.140   7.409  1.00  0.00    -0.354 N 
ATOM     18  C   UNL     1       5.235   4.076   6.703  1.00  0.00     0.074 A 
ATOM     19  C   UNL     1       5.096   4.345   5.290  1.00  0.00     0.031 C 
ATOM     20  C   UNL     1       5.803  -2.321   6.911  1.00  0.00     0.029 A 
ATOM     21  C   UNL     1       6.130  -1.369   7.964  1.00  0.00     0.049 A 
ATOM     22  H   UNL     1       5.980   0.708   7.899  1.00  0.00     0.167 HD
ATOM     23  C   UNL     1       5.268   5.024   7.668  1.00  0.00     0.031 A 
ATOM     24  C   UNL     1       6.592  -1.701   9.183  1.00  0.00     0.031 A 
ATOM     25  C   UNL     1       5.619   4.755   9.039  1.00  0.00     0.049 A 
ATOM     26  C   UNL     1       6.823  -0.610  10.183  1.00  0.00     0.074 A 
ATOM     27  C   UNL     1       5.750   5.652  10.084  1.00  0.00     0.029 A 
ATOM     28  N   UNL     1       5.972   3.508   9.534  1.00  0.00    -0.354 N 
ATOM     29  N   UNL     1       6.584   0.675  10.066  1.00  0.00    -0.248 NA
ATOM     30  C   UNL     1       7.370  -1.008  11.484  1.00  0.00     0.031 C 
ATOM     31  C   UNL     1       6.300   4.969  11.172  1.00  0.00     0.029 A 
ATOM     32  C   UNL     1       6.403   3.626  10.844  1.00  0.00     0.049 A 
ATOM     33  H   UNL     1       5.924   2.664   9.028  1.00  0.00     0.167 HD
ATOM     34  C   UNL     1       6.930   1.238  11.285  1.00  0.00     0.074 A 
ATOM     35  C   UNL     1       7.380   0.151  12.132  1.00  0.00     0.031 C 
ATOM     36  C   UNL     1       6.873   2.538  11.667  1.00  0.00     0.031 A 
BRANCH  23  37
ATOM     37  C   UNL     1       4.964   6.450   7.290  1.00  0.00    -0.014 A 
ATOM     38  C   UNL     1       5.972   7.426   7.326  1.00  0.00     0.009 A 
ATOM     39  C   UNL     1       3.641   6.855   7.043  1.00  0.00     0.009 A 
ATOM     40  C   UNL     1       5.662   8.777   7.150  1.00  0.00     0.001 A 
ATOM     41  C   UNL     1       3.336   8.206   6.848  1.00  0.00     0.001 A 
ATOM     42  C   UNL     1       4.345   9.166   6.913  1.00  0.00     0.000 A 
ENDBRANCH  23  37
BRANCH  24  43
ATOM     43  C   UNL     1       6.834  -3.136   9.486  1.00  0.00    -0.014 A 
ATOM     44  C   UNL     1       7.812  -3.855   8.775  1.00  0.00     0.009 A 
ATOM     45  C   UNL     1       6.013  -3.825  10.389  1.00  0.00     0.009 A 
ATOM     46  C   UNL     1       7.927  -5.238   8.920  1.00  0.00     0.001 A 
ATOM     47  C   UNL     1       6.156  -5.205  10.560  1.00  0.00     0.001 A 
ATOM     48  C   UNL     1       7.098  -5.912   9.813  1.00  0.00     0.000 A 
ENDBRANCH  24  43
BRANCH  36  49
ATOM     49  C   UNL     1       7.313   2.873  13.065  1.00  0.00    -0.014 A 
ATOM     50  C   UNL     1       6.378   3.370  13.988  1.00  0.00     0.009 A 
ATOM     51  C   UNL     1       8.662   2.791  13.443  1.00  0.00     0.009 A 
ATOM     52  C   UNL     1       6.785   3.796  15.252  1.00  0.00     0.001 A 
ATOM     53  C   UNL     1       9.061   3.180  14.723  1.00  0.00     0.001 A 
ATOM     54  C   UNL     1       8.125   3.693  15.621  1.00  0.00     0.000 A 
ENDBRANCH  36  49
ENDBRANCH  10  11
ENDBRANCH   3   5
ENDBRANCH   2   3
ENDBRANCH   1   2
BRANCH   1  55
ATOM     55  C   UNL     1       3.910   1.820  -1.226  1.00  0.00     0.275 C 
BRANCH  55  56
ATOM     56  O   UNL     1       3.395   2.010   0.100  1.00  0.00    -0.458 OA
BRANCH  56  57
ATOM     57  C   UNL     1       2.041   2.059   0.219  1.00  0.00     0.342 C 
ATOM     58  O   UNL     1       1.227   1.924  -0.681  1.00  0.00    -0.246 OA
BRANCH  57  59
ATOM     59  C   UNL     1       1.659   2.167   1.645  1.00  0.00     0.102 A 
ATOM     60  C   UNL     1       0.732   1.240   2.166  1.00  0.00     0.028 A 
ATOM     61  C   UNL     1       2.187   3.161   2.473  1.00  0.00     0.130 A 
ATOM     62  C   UNL     1       0.397   1.262   3.530  1.00  0.00    -0.017 A 
ATOM     63  C   UNL     1       1.840   3.202   3.822  1.00  0.00     0.048 A 
ATOM     64  C   UNL     1       0.974   2.243   4.350  1.00  0.00     0.012 A 
BRANCH  61  65
ATOM     65  O   UNL     1       3.035   4.108   1.971  1.00  0.00    -0.507 OA
ATOM     66  H   UNL     1       3.276   4.090   1.066  1.00  0.00     0.293 HD
ENDBRANCH  61  65
BRANCH  62  67
ATOM     67  C   UNL     1      -0.548   0.307   4.152  1.00  0.00    -0.011 A 
ATOM     68  C   UNL     1      -1.805   0.747   4.729  1.00  0.00     0.027 A 
ATOM     69  C   UNL     1      -0.208  -0.986   4.288  1.00  0.00     0.080 A 
ATOM     70  C   UNL     1      -2.594  -0.107   5.392  1.00  0.00     0.095 A 
ATOM     71  C   UNL     1      -1.070  -1.953   5.024  1.00  0.00     0.255 A 
ATOM     72  N   UNL     1      -2.244  -1.436   5.540  1.00  0.00    -0.258 N 
ATOM     73  O   UNL     1      -0.682  -3.111   5.142  1.00  0.00    -0.269 OA
BRANCH  72  74
ATOM     74  C   UNL     1      -3.089  -2.344   6.272  1.00  0.00     0.451 C 
ATOM     75  F   UNL     1      -3.443  -3.408   5.511  1.00  0.00    -0.185 F 
ATOM     76  F   UNL     1      -2.458  -2.809   7.378  1.00  0.00    -0.185 F 
ENDBRANCH  72  74
ENDBRANCH  62  67
ENDBRANCH  57  59
ENDBRANCH  56  57
ENDBRANCH  55  56
ENDBRANCH   1  55
TORSDOF 14
