REMARK SMILES O=C(NCC(=O)OCCOC(=O)c1ccc(-c2c3nc(c(-c4ccccc4)c4ccc([nH]4)c(-c4ccccc4)c4nc(c(-c5ccccc5)c5ccc2[nH]5)C=C4)C=C3)cc1)Nc1cccc2c1CCCC2
REMARK SMILES IDX 8 1 7 2 5 3 6 4 4 5 3 6 1 7 2 8 61 9 62 12 63 13 67 14 64 15
REMARK SMILES IDX 66 16 68 17 65 18 71 19 69 20 70 21 9 22 10 23 11 24 12 25
REMARK SMILES IDX 13 26 14 27 60 28 15 29 59 30 16 31 17 32 18 33 53 34 19 35
REMARK SMILES IDX 58 36 52 37 54 38 20 39 57 40 51 41 50 42 21 44 43 45 28 46
REMARK SMILES IDX 42 47 29 48 32 49 41 50 55 51 30 52 31 53 40 55 56 56 33 57
REMARK SMILES IDX 22 58 23 59 27 60 24 61 26 62 25 63 44 64 45 65 49 66 46 67
REMARK SMILES IDX 48 68 47 69 34 70 35 71 39 72 36 73 38 74 37 75
REMARK H PARENT 3 10 61 11 54 43 32 54
REMARK Flexibility Score: inf
ROOT
ATOM      1  C   UNL     1       5.271   4.122  -0.129  1.00  0.00     0.274 C 
ENDROOT
BRANCH   1   2
ATOM      2  O   UNL     1       4.656   2.843  -0.367  1.00  0.00    -0.461 OA
BRANCH   2   3
ATOM      3  C   UNL     1       5.351   1.733   0.010  1.00  0.00     0.325 C 
ATOM      4  O   UNL     1       6.459   1.741   0.533  1.00  0.00    -0.250 OA
BRANCH   3   5
ATOM      5  C   UNL     1       4.578   0.444  -0.279  1.00  0.00     0.240 C 
BRANCH   5   6
ATOM      6  N   UNL     1       3.274   0.696  -0.864  1.00  0.00    -0.327 N 
ATOM      7  O   UNL     1       1.554   0.627  -2.236  1.00  0.00    -0.248 OA
ATOM      8  C   UNL     1       2.590   0.082  -1.862  1.00  0.00     0.319 C 
ATOM      9  N   UNL     1       3.075  -1.140  -2.286  1.00  0.00    -0.308 N 
ATOM     10  H   UNL     1       2.796   1.456  -0.461  1.00  0.00     0.166 HD
ATOM     11  H   UNL     1       4.014  -1.381  -2.111  1.00  0.00     0.171 HD
BRANCH   9  12
ATOM     12  C   UNL     1       2.225  -2.052  -2.973  1.00  0.00     0.046 A 
ATOM     13  C   UNL     1       2.022  -3.275  -2.337  1.00  0.00     0.026 A 
ATOM     14  C   UNL     1       1.290  -1.620  -3.915  1.00  0.00    -0.021 A 
ATOM     15  C   UNL     1       0.755  -3.854  -2.386  1.00  0.00     0.002 A 
ATOM     16  C   UNL     1      -0.036  -2.036  -3.774  1.00  0.00    -0.043 A 
ATOM     17  C   UNL     1       1.722  -0.953  -5.203  1.00  0.00     0.038 C 
ATOM     18  C   UNL     1      -0.297  -3.174  -3.008  1.00  0.00     0.004 A 
ATOM     19  C   UNL     1      -1.142  -1.212  -4.388  1.00  0.00     0.036 C 
ATOM     20  C   UNL     1       0.551  -0.518  -6.094  1.00  0.00     0.005 C 
ATOM     21  C   UNL     1      -0.617  -0.048  -5.241  1.00  0.00     0.005 C 
ENDBRANCH   9  12
ENDBRANCH   5   6
ENDBRANCH   3   5
ENDBRANCH   2   3
ENDBRANCH   1   2
BRANCH   1  22
ATOM     22  C   UNL     1       4.661   4.827   1.086  1.00  0.00     0.275 C 
BRANCH  22  23
ATOM     23  O   UNL     1       5.072   4.225   2.329  1.00  0.00    -0.458 OA
BRANCH  23  24
ATOM     24  C   UNL     1       4.320   3.180   2.736  1.00  0.00     0.338 C 
ATOM     25  O   UNL     1       3.339   2.713   2.162  1.00  0.00    -0.246 OA
BRANCH  24  26
ATOM     26  C   UNL     1       4.904   2.548   3.930  1.00  0.00     0.060 A 
ATOM     27  C   UNL     1       4.963   1.152   3.951  1.00  0.00     0.016 A 
ATOM     28  C   UNL     1       5.322   3.288   5.041  1.00  0.00     0.016 A 
ATOM     29  C   UNL     1       5.415   0.489   5.087  1.00  0.00     0.010 A 
ATOM     30  C   UNL     1       5.784   2.619   6.183  1.00  0.00     0.010 A 
ATOM     31  C   UNL     1       5.814   1.215   6.219  1.00  0.00    -0.014 A 
BRANCH  31  32
ATOM     32  C   UNL     1       6.219   0.468   7.435  1.00  0.00     0.031 A 
ATOM     33  C   UNL     1       5.274   0.339   8.596  1.00  0.00     0.074 A 
ATOM     34  C   UNL     1       7.404  -0.169   7.460  1.00  0.00     0.049 A 
ATOM     35  N   UNL     1       5.403  -0.372   9.689  1.00  0.00    -0.248 NA
ATOM     36  C   UNL     1       4.021   1.103   8.518  1.00  0.00     0.031 C 
ATOM     37  C   UNL     1       8.401  -0.138   6.389  1.00  0.00     0.029 A 
ATOM     38  N   UNL     1       7.956  -0.990   8.411  1.00  0.00    -0.354 N 
ATOM     39  C   UNL     1       4.250  -0.141  10.428  1.00  0.00     0.074 A 
ATOM     40  C   UNL     1       3.448   0.799   9.675  1.00  0.00     0.031 C 
ATOM     41  C   UNL     1       9.430  -0.932   6.729  1.00  0.00     0.029 A 
ATOM     42  C   UNL     1       9.176  -1.505   8.047  1.00  0.00     0.049 A 
ATOM     43  H   UNL     1       7.520  -1.189   9.270  1.00  0.00     0.167 HD
ATOM     44  C   UNL     1       3.886  -0.671  11.621  1.00  0.00     0.031 A 
ATOM     45  C   UNL     1       9.994  -2.352   8.699  1.00  0.00     0.031 A 
ATOM     46  C   UNL     1       4.683  -1.599  12.380  1.00  0.00     0.049 A 
ATOM     47  C   UNL     1       9.581  -2.900  10.036  1.00  0.00     0.074 A 
ATOM     48  C   UNL     1       4.391  -2.196  13.595  1.00  0.00     0.029 A 
ATOM     49  N   UNL     1       5.933  -2.061  11.999  1.00  0.00    -0.354 N 
ATOM     50  N   UNL     1       8.473  -2.697  10.706  1.00  0.00    -0.248 NA
ATOM     51  C   UNL     1      10.530  -3.806  10.698  1.00  0.00     0.031 C 
ATOM     52  C   UNL     1       5.484  -2.988  13.969  1.00  0.00     0.029 A 
ATOM     53  C   UNL     1       6.434  -2.922  12.963  1.00  0.00     0.049 A 
ATOM     54  H   UNL     1       6.397  -1.814  11.166  1.00  0.00     0.167 HD
ATOM     55  C   UNL     1       8.582  -3.467  11.857  1.00  0.00     0.074 A 
ATOM     56  C   UNL     1       9.854  -4.155  11.784  1.00  0.00     0.031 C 
ATOM     57  C   UNL     1       7.704  -3.593  12.883  1.00  0.00     0.031 A 
BRANCH  44  58
ATOM     58  C   UNL     1       2.567  -0.235  12.193  1.00  0.00    -0.014 A 
ATOM     59  C   UNL     1       1.354  -0.691  11.653  1.00  0.00     0.009 A 
ATOM     60  C   UNL     1       2.537   0.619  13.307  1.00  0.00     0.009 A 
ATOM     61  C   UNL     1       0.137  -0.274  12.198  1.00  0.00     0.001 A 
ATOM     62  C   UNL     1       1.320   1.014  13.864  1.00  0.00     0.001 A 
ATOM     63  C   UNL     1       0.121   0.574  13.305  1.00  0.00     0.000 A 
ENDBRANCH  44  58
BRANCH  45  64
ATOM     64  C   UNL     1      11.289  -2.747   8.088  1.00  0.00    -0.014 A 
ATOM     65  C   UNL     1      11.482  -4.048   7.599  1.00  0.00     0.009 A 
ATOM     66  C   UNL     1      12.341  -1.823   7.999  1.00  0.00     0.009 A 
ATOM     67  C   UNL     1      12.712  -4.421   7.053  1.00  0.00     0.001 A 
ATOM     68  C   UNL     1      13.561  -2.192   7.429  1.00  0.00     0.001 A 
ATOM     69  C   UNL     1      13.748  -3.492   6.965  1.00  0.00     0.000 A 
ENDBRANCH  45  64
BRANCH  57  70
ATOM     70  C   UNL     1       8.085  -4.533  13.992  1.00  0.00    -0.014 A 
ATOM     71  C   UNL     1       9.093  -4.204  14.912  1.00  0.00     0.009 A 
ATOM     72  C   UNL     1       7.417  -5.760  14.124  1.00  0.00     0.009 A 
ATOM     73  C   UNL     1       9.453  -5.105  15.916  1.00  0.00     0.001 A 
ATOM     74  C   UNL     1       7.761  -6.647  15.145  1.00  0.00     0.001 A 
ATOM     75  C   UNL     1       8.786  -6.324  16.033  1.00  0.00     0.000 A 
ENDBRANCH  57  70
ENDBRANCH  31  32
ENDBRANCH  24  26
ENDBRANCH  23  24
ENDBRANCH  22  23
ENDBRANCH   1  22
TORSDOF 13
