REMARK SMILES O=C(OCCOC(=O)c1ccc(CNc2ccccc2)nc1)c1ccc(-c2c3nc(c(-c4ccccc4)c4ccc([nH]4)c(-c4ccccc4)c4nc(c(-c5ccccc5)c5ccc2[nH]5)C=C4)C=C3)cc1
REMARK SMILES IDX 5 1 4 2 3 3 2 4 1 5 23 6 24 7 70 8 25 9 69 10 26 11 27 12
REMARK SMILES IDX 28 13 63 14 29 15 68 16 62 17 64 18 30 19 67 20 61 21 60 22
REMARK SMILES IDX 31 24 53 25 38 26 52 27 39 28 42 29 51 30 65 31 40 32 41 33
REMARK SMILES IDX 50 35 66 36 43 37 32 38 33 39 37 40 34 41 36 42 35 43 54 44
REMARK SMILES IDX 55 45 59 46 56 47 58 48 57 49 44 50 45 51 49 52 46 53 48 54
REMARK SMILES IDX 47 55 6 56 7 57 8 58 9 59 10 60 22 61 11 62 21 63 12 64
REMARK SMILES IDX 13 65 14 66 15 68 16 69 20 70 17 71 19 72 18 73
REMARK H PARENT 64 23 42 34 14 67
REMARK Flexibility Score: inf
ROOT
ATOM      1  C   UNL     1       4.054   0.148  -2.406  1.00  0.00     0.275 C 
ENDROOT
BRANCH   1   2
ATOM      2  C   UNL     1       4.153  -0.964  -1.360  1.00  0.00     0.275 C 
BRANCH   2   3
ATOM      3  O   UNL     1       3.026  -1.052  -0.469  1.00  0.00    -0.458 OA
BRANCH   3   4
ATOM      4  C   UNL     1       2.833  -0.485   0.745  1.00  0.00     0.338 C 
ATOM      5  O   UNL     1       1.940  -0.917   1.471  1.00  0.00    -0.246 OA
BRANCH   4   6
ATOM      6  C   UNL     1       3.548   0.746   1.199  1.00  0.00     0.060 A 
ATOM      7  C   UNL     1       4.891   1.041   0.960  1.00  0.00     0.016 A 
ATOM      8  C   UNL     1       2.802   1.649   1.983  1.00  0.00     0.016 A 
ATOM      9  C   UNL     1       5.463   2.220   1.442  1.00  0.00     0.010 A 
ATOM     10  C   UNL     1       3.370   2.830   2.472  1.00  0.00     0.010 A 
ATOM     11  C   UNL     1       4.713   3.111   2.214  1.00  0.00    -0.014 A 
BRANCH  11  12
ATOM     12  C   UNL     1       5.407   4.233   2.880  1.00  0.00     0.031 A 
ATOM     13  C   UNL     1       5.867   4.046   4.295  1.00  0.00     0.074 A 
ATOM     14  C   UNL     1       5.702   5.359   2.208  1.00  0.00     0.049 A 
ATOM     15  N   UNL     1       6.640   4.814   5.016  1.00  0.00    -0.248 NA
ATOM     16  C   UNL     1       5.430   2.814   4.972  1.00  0.00     0.031 C 
ATOM     17  C   UNL     1       5.373   5.615   0.808  1.00  0.00     0.029 A 
ATOM     18  N   UNL     1       6.361   6.493   2.607  1.00  0.00    -0.354 N 
ATOM     19  C   UNL     1       6.814   4.139   6.217  1.00  0.00     0.074 A 
ATOM     20  C   UNL     1       6.021   2.931   6.150  1.00  0.00     0.031 C 
ATOM     21  C   UNL     1       5.803   6.842   0.469  1.00  0.00     0.029 A 
ATOM     22  C   UNL     1       6.460   7.446   1.624  1.00  0.00     0.049 A 
ATOM     23  H   UNL     1       6.728   6.612   3.513  1.00  0.00     0.167 HD
ATOM     24  C   UNL     1       7.586   4.483   7.273  1.00  0.00     0.031 A 
ATOM     25  C   UNL     1       7.039   8.661   1.649  1.00  0.00     0.031 A 
ATOM     26  C   UNL     1       8.327   5.710   7.356  1.00  0.00     0.049 A 
ATOM     27  C   UNL     1       7.788   9.079   2.884  1.00  0.00     0.074 A 
ATOM     28  C   UNL     1       9.125   6.171   8.386  1.00  0.00     0.029 A 
ATOM     29  N   UNL     1       8.338   6.684   6.369  1.00  0.00    -0.354 N 
ATOM     30  N   UNL     1       7.997   8.403   3.988  1.00  0.00    -0.248 NA
ATOM     31  C   UNL     1       8.412  10.408   2.860  1.00  0.00     0.031 C 
ATOM     32  C   UNL     1       9.579   7.450   8.042  1.00  0.00     0.029 A 
ATOM     33  C   UNL     1       9.106   7.760   6.775  1.00  0.00     0.049 A 
ATOM     34  H   UNL     1       7.869   6.619   5.506  1.00  0.00     0.167 HD
ATOM     35  C   UNL     1       8.818   9.203   4.772  1.00  0.00     0.074 A 
ATOM     36  C   UNL     1       9.064  10.415   4.015  1.00  0.00     0.031 C 
ATOM     37  C   UNL     1       9.337   8.951   5.999  1.00  0.00     0.031 A 
BRANCH  24  38
ATOM     38  C   UNL     1       7.615   3.519   8.423  1.00  0.00    -0.014 A 
ATOM     39  C   UNL     1       8.289   2.291   8.320  1.00  0.00     0.009 A 
ATOM     40  C   UNL     1       6.923   3.820   9.604  1.00  0.00     0.009 A 
ATOM     41  C   UNL     1       8.229   1.363   9.362  1.00  0.00     0.001 A 
ATOM     42  C   UNL     1       6.885   2.900  10.653  1.00  0.00     0.001 A 
ATOM     43  C   UNL     1       7.526   1.668  10.527  1.00  0.00     0.000 A 
ENDBRANCH  24  38
BRANCH  25  44
ATOM     44  C   UNL     1       6.972   9.546   0.457  1.00  0.00    -0.014 A 
ATOM     45  C   UNL     1       8.112   9.790  -0.324  1.00  0.00     0.009 A 
ATOM     46  C   UNL     1       5.762  10.162   0.099  1.00  0.00     0.009 A 
ATOM     47  C   UNL     1       8.047  10.651  -1.423  1.00  0.00     0.001 A 
ATOM     48  C   UNL     1       5.695  11.005  -1.013  1.00  0.00     0.001 A 
ATOM     49  C   UNL     1       6.839  11.255  -1.768  1.00  0.00     0.000 A 
ENDBRANCH  25  44
BRANCH  37  50
ATOM     50  C   UNL     1      10.260   9.987   6.573  1.00  0.00    -0.014 A 
ATOM     51  C   UNL     1       9.774  11.207   7.067  1.00  0.00     0.009 A 
ATOM     52  C   UNL     1      11.634   9.713   6.657  1.00  0.00     0.009 A 
ATOM     53  C   UNL     1      10.654  12.147   7.605  1.00  0.00     0.001 A 
ATOM     54  C   UNL     1      12.507  10.644   7.220  1.00  0.00     0.001 A 
ATOM     55  C   UNL     1      12.018  11.863   7.685  1.00  0.00     0.000 A 
ENDBRANCH  37  50
ENDBRANCH  11  12
ENDBRANCH   4   6
ENDBRANCH   3   4
ENDBRANCH   2   3
ENDBRANCH   1   2
BRANCH   1  56
ATOM     56  O   UNL     1       3.583   1.391  -1.868  1.00  0.00    -0.458 OA
BRANCH  56  57
ATOM     57  C   UNL     1       2.245   1.588  -1.998  1.00  0.00     0.339 C 
ATOM     58  O   UNL     1       1.448   0.856  -2.561  1.00  0.00    -0.246 OA
BRANCH  57  59
ATOM     59  C   UNL     1       1.839   2.767  -1.226  1.00  0.00     0.078 A 
ATOM     60  C   UNL     1       2.536   3.974  -1.233  1.00  0.00     0.019 A 
ATOM     61  C   UNL     1       0.711   2.659  -0.432  1.00  0.00     0.127 A 
ATOM     62  C   UNL     1       2.086   5.023  -0.425  1.00  0.00     0.026 A 
ATOM     63  N   UNL     1       0.275   3.651   0.376  1.00  0.00    -0.259 NA
ATOM     64  C   UNL     1       0.969   4.822   0.382  1.00  0.00     0.059 A 
BRANCH  64  65
ATOM     65  C   UNL     1       0.433   5.925   1.285  1.00  0.00     0.169 C 
BRANCH  65  66
ATOM     66  N   UNL     1      -0.947   6.204   0.904  1.00  0.00    -0.379 N 
ATOM     67  H   UNL     1      -1.176   6.334  -0.044  1.00  0.00     0.160 HD
BRANCH  66  68
ATOM     68  C   UNL     1      -1.939   6.289   1.872  1.00  0.00     0.034 A 
ATOM     69  C   UNL     1      -3.141   5.598   1.667  1.00  0.00     0.025 A 
ATOM     70  C   UNL     1      -1.788   7.019   3.054  1.00  0.00     0.025 A 
ATOM     71  C   UNL     1      -4.162   5.624   2.617  1.00  0.00     0.002 A 
ATOM     72  C   UNL     1      -2.815   7.059   4.004  1.00  0.00     0.002 A 
ATOM     73  C   UNL     1      -4.000   6.359   3.787  1.00  0.00     0.000 A 
ENDBRANCH  66  68
ENDBRANCH  65  66
ENDBRANCH  64  65
ENDBRANCH  57  59
ENDBRANCH  56  57
ENDBRANCH   1  56
TORSDOF 14
