REMARK SMILES CC(C)C[C@H](CNC(=O)NC[C@H]1CCC(=O)N1)C(=O)OCCOC(=O)c1ccc(-c2c3nc(c(-c4ccccc4)c4ccc([nH]4)c(-c4ccccc4)c4nc(c(-c5ccccc5)c5ccc2[nH]5)C=C4)C=C3)cc1
REMARK SMILES IDX 21 1 20 2 18 3 19 4 5 5 4 6 2 7 1 8 3 9 6 10 7 11 8 12 9 14
REMARK SMILES IDX 10 15 11 17 12 18 13 19 17 20 14 21 15 22 16 24 22 25 23 26
REMARK SMILES IDX 24 27 25 28 26 29 27 30 73 31 28 32 72 33 29 34 30 35 31 36
REMARK SMILES IDX 66 37 32 38 71 39 65 40 67 41 33 42 70 43 64 44 63 45 34 47
REMARK SMILES IDX 56 48 41 49 55 50 42 51 45 52 54 53 68 54 43 55 44 56 53 58
REMARK SMILES IDX 69 59 46 60 35 61 36 62 40 63 37 64 39 65 38 66 57 67 58 68
REMARK SMILES IDX 62 69 59 70 61 71 60 72 47 73 48 74 52 75 49 76 51 77 50 78
REMARK H PARENT 7 13 10 16 17 23 67 46 45 57
REMARK Flexibility Score: inf
ROOT
ATOM      1  C   UNL     1      -4.456   2.976  10.386  1.00  0.00     0.274 C 
ENDROOT
BRANCH   1   2
ATOM      2  O   UNL     1      -5.190   2.599   9.202  1.00  0.00    -0.462 OA
BRANCH   2   3
ATOM      3  C   UNL     1      -4.690   1.540   8.515  1.00  0.00     0.310 C 
ATOM      4  O   UNL     1      -3.647   0.956   8.792  1.00  0.00    -0.252 OA
BRANCH   3   5
ATOM      5  C   UNL     1      -5.481   1.213   7.260  1.00  0.00     0.119 C 
BRANCH   5   6
ATOM      6  C   UNL     1      -4.779   1.987   6.124  1.00  0.00     0.020 C 
BRANCH   6   7
ATOM      7  C   UNL     1      -5.596   2.435   4.901  1.00  0.00    -0.017 C 
ATOM      8  C   UNL     1      -6.486   3.649   5.197  1.00  0.00     0.007 C 
ATOM      9  C   UNL     1      -4.622   2.803   3.775  1.00  0.00     0.007 C 
ENDBRANCH   6   7
ENDBRANCH   5   6
BRANCH   5  10
ATOM     10  C   UNL     1      -6.994   1.397   7.383  1.00  0.00     0.133 C 
BRANCH  10  11
ATOM     11  N   UNL     1      -7.632   0.508   8.339  1.00  0.00    -0.337 N 
ATOM     12  C   UNL     1      -8.731   0.664   9.096  1.00  0.00     0.314 C 
ATOM     13  H   UNL     1      -7.181  -0.360   8.452  1.00  0.00     0.165 HD
ATOM     14  O   UNL     1      -9.360  -0.346   9.414  1.00  0.00    -0.249 OA
ATOM     15  N   UNL     1      -9.179   1.856   9.511  1.00  0.00    -0.336 N 
ATOM     16  H   UNL     1     -10.117   1.845   9.809  1.00  0.00     0.165 HD
BRANCH  15  17
ATOM     17  C   UNL     1      -8.550   3.160   9.608  1.00  0.00     0.142 C 
BRANCH  17  18
ATOM     18  C   UNL     1      -9.253   4.209   8.727  1.00  0.00     0.101 C 
ATOM     19  C   UNL     1     -10.466   4.817   9.432  1.00  0.00     0.036 C 
ATOM     20  N   UNL     1      -8.427   5.368   8.496  1.00  0.00    -0.352 N 
ATOM     21  C   UNL     1      -9.880   5.995  10.212  1.00  0.00     0.102 C 
ATOM     22  C   UNL     1      -8.730   6.422   9.336  1.00  0.00     0.220 C 
ATOM     23  H   UNL     1      -7.721   5.405   7.811  1.00  0.00     0.163 HD
ATOM     24  O   UNL     1      -8.132   7.476   9.379  1.00  0.00    -0.275 OA
ENDBRANCH  17  18
ENDBRANCH  15  17
ENDBRANCH  10  11
ENDBRANCH   5  10
ENDBRANCH   3   5
ENDBRANCH   2   3
ENDBRANCH   1   2
BRANCH   1  25
ATOM     25  C   UNL     1      -5.008   2.271  11.624  1.00  0.00     0.275 C 
BRANCH  25  26
ATOM     26  O   UNL     1      -4.975   0.848  11.421  1.00  0.00    -0.458 OA
BRANCH  26  27
ATOM     27  C   UNL     1      -6.136   0.194  11.649  1.00  0.00     0.338 C 
ATOM     28  O   UNL     1      -7.166   0.658  12.106  1.00  0.00    -0.246 OA
BRANCH  27  29
ATOM     29  C   UNL     1      -5.964  -1.230  11.302  1.00  0.00     0.060 A 
ATOM     30  C   UNL     1      -5.552  -1.616  10.024  1.00  0.00     0.016 A 
ATOM     31  C   UNL     1      -6.280  -2.195  12.255  1.00  0.00     0.016 A 
ATOM     32  C   UNL     1      -5.496  -2.964   9.679  1.00  0.00     0.010 A 
ATOM     33  C   UNL     1      -6.156  -3.548  11.932  1.00  0.00     0.010 A 
ATOM     34  C   UNL     1      -5.780  -3.944  10.636  1.00  0.00    -0.014 A 
BRANCH  34  35
ATOM     35  C   UNL     1      -5.693  -5.386  10.298  1.00  0.00     0.031 A 
ATOM     36  C   UNL     1      -6.926  -6.243  10.340  1.00  0.00     0.074 A 
ATOM     37  C   UNL     1      -4.500  -5.932   9.993  1.00  0.00     0.049 A 
ATOM     38  N   UNL     1      -7.030  -7.545  10.255  1.00  0.00    -0.248 NA
ATOM     39  C   UNL     1      -8.210  -5.544  10.509  1.00  0.00     0.031 C 
ATOM     40  C   UNL     1      -3.236  -5.201   9.876  1.00  0.00     0.029 A 
ATOM     41  N   UNL     1      -4.155  -7.235   9.738  1.00  0.00    -0.354 N 
ATOM     42  C   UNL     1      -8.383  -7.825  10.401  1.00  0.00     0.074 A 
ATOM     43  C   UNL     1      -9.059  -6.559  10.588  1.00  0.00     0.031 C 
ATOM     44  C   UNL     1      -2.257  -6.064   9.566  1.00  0.00     0.029 A 
ATOM     45  C   UNL     1      -2.808  -7.414   9.534  1.00  0.00     0.049 A 
ATOM     46  H   UNL     1      -4.809  -7.970   9.704  1.00  0.00     0.167 HD
ATOM     47  C   UNL     1      -9.002  -9.030  10.385  1.00  0.00     0.031 A 
ATOM     48  C   UNL     1      -2.089  -8.541   9.382  1.00  0.00     0.031 A 
ATOM     49  C   UNL     1      -8.324 -10.285  10.190  1.00  0.00     0.049 A 
ATOM     50  C   UNL     1      -2.790  -9.868   9.432  1.00  0.00     0.074 A 
ATOM     51  C   UNL     1      -8.863 -11.559  10.143  1.00  0.00     0.029 A 
ATOM     52  N   UNL     1      -6.956 -10.422  10.009  1.00  0.00    -0.354 N 
ATOM     53  N   UNL     1      -4.067 -10.122   9.585  1.00  0.00    -0.248 NA
ATOM     54  C   UNL     1      -1.949 -11.065   9.294  1.00  0.00     0.031 C 
ATOM     55  C   UNL     1      -7.815 -12.471   9.982  1.00  0.00     0.029 A 
ATOM     56  C   UNL     1      -6.630 -11.761   9.871  1.00  0.00     0.049 A 
ATOM     57  H   UNL     1      -6.312  -9.678   9.982  1.00  0.00     0.167 HD
ATOM     58  C   UNL     1      -4.186 -11.504   9.540  1.00  0.00     0.074 A 
ATOM     59  C   UNL     1      -2.854 -12.033   9.328  1.00  0.00     0.031 C 
ATOM     60  C   UNL     1      -5.299 -12.268   9.662  1.00  0.00     0.031 A 
BRANCH  47  61
ATOM     61  C   UNL     1     -10.486  -9.051  10.626  1.00  0.00    -0.014 A 
ATOM     62  C   UNL     1     -11.394  -8.589   9.660  1.00  0.00     0.009 A 
ATOM     63  C   UNL     1     -10.985  -9.573  11.830  1.00  0.00     0.009 A 
ATOM     64  C   UNL     1     -12.768  -8.621   9.910  1.00  0.00     0.001 A 
ATOM     65  C   UNL     1     -12.359  -9.629  12.066  1.00  0.00     0.001 A 
ATOM     66  C   UNL     1     -13.250  -9.145  11.109  1.00  0.00     0.000 A 
ENDBRANCH  47  61
BRANCH  48  67
ATOM     67  C   UNL     1      -0.615  -8.464   9.208  1.00  0.00    -0.014 A 
ATOM     68  C   UNL     1      -0.023  -8.793   7.980  1.00  0.00     0.009 A 
ATOM     69  C   UNL     1       0.208  -8.057  10.271  1.00  0.00     0.009 A 
ATOM     70  C   UNL     1       1.364  -8.734   7.825  1.00  0.00     0.001 A 
ATOM     71  C   UNL     1       1.591  -7.969  10.104  1.00  0.00     0.001 A 
ATOM     72  C   UNL     1       2.169  -8.316   8.884  1.00  0.00     0.000 A 
ENDBRANCH  48  67
BRANCH  60  73
ATOM     73  C   UNL     1      -5.124 -13.754   9.529  1.00  0.00    -0.014 A 
ATOM     74  C   UNL     1      -4.527 -14.513  10.548  1.00  0.00     0.009 A 
ATOM     75  C   UNL     1      -5.593 -14.406   8.378  1.00  0.00     0.009 A 
ATOM     76  C   UNL     1      -4.374 -15.893  10.400  1.00  0.00     0.001 A 
ATOM     77  C   UNL     1      -5.463 -15.788   8.245  1.00  0.00     0.001 A 
ATOM     78  C   UNL     1      -4.846 -16.529   9.252  1.00  0.00     0.000 A 
ENDBRANCH  60  73
ENDBRANCH  34  35
ENDBRANCH  27  29
ENDBRANCH  26  27
ENDBRANCH  25  26
ENDBRANCH   1  25
TORSDOF 17
