REMARK SMILES COc1ccc(-c2nc(NCC(=O)OCCOC(=O)c3ccc(-c4c5nc(c(-c6ccccc6)c6ccc([nH]6)c(-c6ccccc6)c6nc(c(-c7ccccc7)c7ccc4[nH]7)C=C6)C=C5)cc3)sc2-c2ccc(OC)cc2)cc1
REMARK SMILES IDX 15 1 14 2 12 3 13 4 11 5 10 6 9 8 7 9 8 10 69 11 68 12 6 13
REMARK SMILES IDX 3 14 4 15 79 16 5 17 78 18 2 19 1 20 70 21 71 22 77 23 72 24
REMARK SMILES IDX 76 25 73 26 74 27 75 28 16 29 17 30 18 31 19 32 20 33 21 34
REMARK SMILES IDX 67 35 22 36 66 37 23 38 24 39 25 40 60 41 26 42 65 43 59 44
REMARK SMILES IDX 61 45 27 46 64 47 58 48 57 49 28 51 50 52 35 53 49 54 36 55
REMARK SMILES IDX 39 56 48 57 62 58 37 59 38 60 47 62 63 63 40 64 29 65 30 66
REMARK SMILES IDX 34 67 31 68 33 69 32 70 51 71 52 72 56 73 53 74 55 75 54 76
REMARK SMILES IDX 41 77 42 78 46 79 43 80 45 81 44 82
REMARK H PARENT 10 7 61 50 39 61
REMARK Flexibility Score: inf
ROOT
ATOM      1  C   UNL     1       7.461   5.004   9.424  1.00  0.00     0.274 C 
ENDROOT
BRANCH   1   2
ATOM      2  O   UNL     1       6.119   5.084   8.916  1.00  0.00    -0.461 OA
BRANCH   2   3
ATOM      3  C   UNL     1       5.392   6.169   9.298  1.00  0.00     0.325 C 
ATOM      4  O   UNL     1       5.758   7.004  10.119  1.00  0.00    -0.250 OA
BRANCH   3   5
ATOM      5  C   UNL     1       4.035   6.224   8.614  1.00  0.00     0.238 C 
BRANCH   5   6
ATOM      6  N   UNL     1       4.033   5.645   7.276  1.00  0.00    -0.351 N 
ATOM      7  H   UNL     1       4.809   5.819   6.697  1.00  0.00     0.163 HD
BRANCH   6   8
ATOM      8  C   UNL     1       3.034   4.884   6.781  1.00  0.00     0.184 A 
ATOM      9  C   UNL     1       1.874   3.684   5.308  1.00  0.00     0.091 A 
ATOM     10  N   UNL     1       2.998   4.473   5.532  1.00  0.00    -0.220 NA
ATOM     11  C   UNL     1       1.103   3.435   6.431  1.00  0.00     0.064 A 
ATOM     12  S   UNL     1       1.710   4.341   7.741  1.00  0.00    -0.096 S 
BRANCH   9  13
ATOM     13  C   UNL     1       1.573   3.118   3.998  1.00  0.00     0.002 A 
ATOM     14  C   UNL     1       0.907   1.841   1.583  1.00  0.00     0.118 A 
ATOM     15  C   UNL     1      -0.027   2.647   2.232  1.00  0.00     0.047 A 
ATOM     16  C   UNL     1       2.195   1.720   2.110  1.00  0.00     0.047 A 
ATOM     17  C   UNL     1       0.300   3.279   3.434  1.00  0.00     0.014 A 
ATOM     18  C   UNL     1       2.529   2.363   3.312  1.00  0.00     0.014 A 
BRANCH  14  19
ATOM     19  O   UNL     1       0.464   1.251   0.431  1.00  0.00    -0.497 OA
ATOM     20  C   UNL     1       1.080   0.012   0.100  1.00  0.00     0.278 C 
ENDBRANCH  14  19
ENDBRANCH   9  13
BRANCH  11  21
ATOM     21  C   UNL     1      -0.020   2.534   6.669  1.00  0.00    -0.006 A 
ATOM     22  C   UNL     1      -1.248   3.014   7.135  1.00  0.00     0.013 A 
ATOM     23  C   UNL     1       0.147   1.156   6.484  1.00  0.00     0.013 A 
ATOM     24  C   UNL     1      -2.284   2.125   7.425  1.00  0.00     0.047 A 
ATOM     25  C   UNL     1      -0.892   0.268   6.775  1.00  0.00     0.047 A 
ATOM     26  C   UNL     1      -2.111   0.750   7.250  1.00  0.00     0.118 A 
BRANCH  26  27
ATOM     27  O   UNL     1      -3.197  -0.010   7.585  1.00  0.00    -0.497 OA
ATOM     28  C   UNL     1      -3.089  -1.409   7.358  1.00  0.00     0.278 C 
ENDBRANCH  26  27
ENDBRANCH  11  21
ENDBRANCH   6   8
ENDBRANCH   5   6
ENDBRANCH   3   5
ENDBRANCH   2   3
ENDBRANCH   1   2
BRANCH   1  29
ATOM     29  C   UNL     1       8.470   5.555   8.410  1.00  0.00     0.275 C 
BRANCH  29  30
ATOM     30  O   UNL     1       8.389   6.988   8.281  1.00  0.00    -0.458 OA
BRANCH  30  31
ATOM     31  C   UNL     1       7.489   7.442   7.376  1.00  0.00     0.338 C 
ATOM     32  O   UNL     1       6.766   6.773   6.656  1.00  0.00    -0.246 OA
BRANCH  31  33
ATOM     33  C   UNL     1       7.367   8.907   7.482  1.00  0.00     0.060 A 
ATOM     34  C   UNL     1       6.080   9.445   7.585  1.00  0.00     0.016 A 
ATOM     35  C   UNL     1       8.481   9.747   7.425  1.00  0.00     0.016 A 
ATOM     36  C   UNL     1       5.898  10.824   7.632  1.00  0.00     0.010 A 
ATOM     37  C   UNL     1       8.298  11.133   7.465  1.00  0.00     0.010 A 
ATOM     38  C   UNL     1       7.005  11.678   7.559  1.00  0.00    -0.014 A 
BRANCH  38  39
ATOM     39  C   UNL     1       6.793  13.143   7.530  1.00  0.00     0.031 A 
ATOM     40  C   UNL     1       6.904  13.888   6.232  1.00  0.00     0.074 A 
ATOM     41  C   UNL     1       6.468  13.796   8.661  1.00  0.00     0.049 A 
ATOM     42  N   UNL     1       6.796  15.172   6.006  1.00  0.00    -0.248 NA
ATOM     43  C   UNL     1       7.168  13.082   5.030  1.00  0.00     0.031 C 
ATOM     44  C   UNL     1       6.278  13.173   9.971  1.00  0.00     0.029 A 
ATOM     45  N   UNL     1       6.234  15.129   8.884  1.00  0.00    -0.354 N 
ATOM     46  C   UNL     1       6.994  15.331   4.640  1.00  0.00     0.074 A 
ATOM     47  C   UNL     1       7.245  14.015   4.092  1.00  0.00     0.031 C 
ATOM     48  C   UNL     1       5.951  14.124  10.862  1.00  0.00     0.029 A 
ATOM     49  C   UNL     1       5.950  15.423  10.194  1.00  0.00     0.049 A 
ATOM     50  H   UNL     1       6.266  15.809   8.173  1.00  0.00     0.167 HD
ATOM     51  C   UNL     1       6.969  16.472   3.910  1.00  0.00     0.031 A 
ATOM     52  C   UNL     1       5.737  16.609  10.794  1.00  0.00     0.031 A 
ATOM     53  C   UNL     1       6.723  17.779   4.457  1.00  0.00     0.049 A 
ATOM     54  C   UNL     1       5.782  17.867   9.973  1.00  0.00     0.074 A 
ATOM     55  C   UNL     1       6.676  18.995   3.797  1.00  0.00     0.029 A 
ATOM     56  N   UNL     1       6.482  18.041   5.796  1.00  0.00    -0.354 N 
ATOM     57  N   UNL     1       5.977  18.005   8.683  1.00  0.00    -0.248 NA
ATOM     58  C   UNL     1       5.579  19.134  10.690  1.00  0.00     0.031 C 
ATOM     59  C   UNL     1       6.449  19.999   4.745  1.00  0.00     0.029 A 
ATOM     60  C   UNL     1       6.306  19.401   5.987  1.00  0.00     0.049 A 
ATOM     61  H   UNL     1       6.442  17.361   6.507  1.00  0.00     0.167 HD
ATOM     62  C   UNL     1       5.897  19.368   8.432  1.00  0.00     0.074 A 
ATOM     63  C   UNL     1       5.624  20.014   9.700  1.00  0.00     0.031 C 
ATOM     64  C   UNL     1       6.035  20.026   7.255  1.00  0.00     0.031 A 
BRANCH  51  65
ATOM     65  C   UNL     1       7.256  16.355   2.441  1.00  0.00    -0.014 A 
ATOM     66  C   UNL     1       6.312  15.820   1.552  1.00  0.00     0.009 A 
ATOM     67  C   UNL     1       8.482  16.818   1.935  1.00  0.00     0.009 A 
ATOM     68  C   UNL     1       6.601  15.723   0.189  1.00  0.00     0.001 A 
ATOM     69  C   UNL     1       8.758  16.741   0.570  1.00  0.00     0.001 A 
ATOM     70  C   UNL     1       7.822  16.187  -0.301  1.00  0.00     0.000 A 
ENDBRANCH  51  65
BRANCH  52  71
ATOM     71  C   UNL     1       5.486  16.666  12.256  1.00  0.00    -0.014 A 
ATOM     72  C   UNL     1       4.216  16.996  12.753  1.00  0.00     0.009 A 
ATOM     73  C   UNL     1       6.521  16.390  13.164  1.00  0.00     0.009 A 
ATOM     74  C   UNL     1       3.994  17.067  14.131  1.00  0.00     0.001 A 
ATOM     75  C   UNL     1       6.288  16.436  14.540  1.00  0.00     0.001 A 
ATOM     76  C   UNL     1       5.027  16.782  15.022  1.00  0.00     0.000 A 
ENDBRANCH  52  71
BRANCH  64  77
ATOM     77  C   UNL     1       5.857  21.517   7.278  1.00  0.00    -0.014 A 
ATOM     78  C   UNL     1       6.852  22.360   7.796  1.00  0.00     0.009 A 
ATOM     79  C   UNL     1       4.695  22.085   6.733  1.00  0.00     0.009 A 
ATOM     80  C   UNL     1       6.672  23.744   7.793  1.00  0.00     0.001 A 
ATOM     81  C   UNL     1       4.530  23.470   6.710  1.00  0.00     0.001 A 
ATOM     82  C   UNL     1       5.515  24.298   7.246  1.00  0.00     0.000 A 
ENDBRANCH  64  77
ENDBRANCH  38  39
ENDBRANCH  31  33
ENDBRANCH  30  31
ENDBRANCH  29  30
ENDBRANCH   1  29
TORSDOF 17
