REMARK SMILES Cc1ccc(S(=O)(=O)N2CCN(C(=O)[C@H]3CCCC[C@@H]3C(=O)OCCOC(=O)c3ccc(-c4c5nc(c(-c6ccccc6)c6ccc([nH]6)c(-c6ccccc6)c6nc(c(-c7ccccc7)c7ccc4[nH]7)C=C6)C=C5)cc3)CC2)cc1C
REMARK SMILES IDX 24 1 23 2 21 3 22 4 20 5 15 6 16 7 17 8 19 9 18 10 13 11
REMARK SMILES IDX 9 12 10 13 78 14 11 15 77 16 12 17 14 18 6 19 7 20 8 21 5 22
REMARK SMILES IDX 1 23 2 24 3 25 80 26 4 27 79 28 81 29 25 30 26 31 27 32
REMARK SMILES IDX 28 33 29 34 30 35 76 36 31 37 75 38 32 39 33 40 34 41 69 42
REMARK SMILES IDX 35 43 74 44 68 45 70 46 36 47 73 48 67 49 66 50 37 52 59 53
REMARK SMILES IDX 44 54 58 55 45 56 48 57 57 58 71 59 46 60 47 61 56 63 72 64
REMARK SMILES IDX 49 65 38 66 39 67 43 68 40 69 42 70 41 71 60 72 61 73 65 74
REMARK SMILES IDX 62 75 64 76 63 77 50 78 51 79 55 80 52 81 54 82 53 83
REMARK H PARENT 70 51 48 62
REMARK Flexibility Score: inf
ROOT
ATOM      1  C   UNL     1      -3.086   3.283  -3.081  1.00  0.00     0.274 C 
ENDROOT
BRANCH   1   2
ATOM      2  O   UNL     1      -3.615   4.334  -2.247  1.00  0.00    -0.462 OA
BRANCH   2   3
ATOM      3  C   UNL     1      -4.803   4.065  -1.635  1.00  0.00     0.309 C 
ATOM      4  O   UNL     1      -5.386   2.990  -1.692  1.00  0.00    -0.252 OA
BRANCH   3   5
ATOM      5  C   UNL     1      -5.319   5.280  -0.871  1.00  0.00     0.111 C 
ATOM      6  C   UNL     1      -6.406   4.888   0.172  1.00  0.00     0.093 C 
ATOM      7  C   UNL     1      -7.748   4.536  -0.492  1.00  0.00     0.014 C 
ATOM      8  C   UNL     1      -8.210   5.577  -1.499  1.00  0.00     0.001 C 
ATOM      9  C   UNL     1      -5.827   6.323  -1.874  1.00  0.00     0.016 C 
ATOM     10  C   UNL     1      -7.138   5.899  -2.529  1.00  0.00     0.001 C 
BRANCH   6  11
ATOM     11  C   UNL     1      -6.574   5.978   1.241  1.00  0.00     0.226 C 
ATOM     12  N   UNL     1      -9.378   5.468   4.390  1.00  0.00    -0.194 NA
ATOM     13  C   UNL     1      -9.028   6.795   3.853  1.00  0.00     0.124 C 
ATOM     14  C   UNL     1      -9.154   4.327   3.481  1.00  0.00     0.124 C 
ATOM     15  C   UNL     1      -7.595   6.794   3.314  1.00  0.00     0.136 C 
ATOM     16  C   UNL     1      -7.768   4.371   2.810  1.00  0.00     0.136 C 
ATOM     17  N   UNL     1      -7.369   5.708   2.348  1.00  0.00    -0.340 N 
ATOM     18  O   UNL     1      -6.019   7.071   1.115  1.00  0.00    -0.275 OA
BRANCH  12  19
ATOM     19  S   UNL     1      -9.870   5.264   5.980  1.00  0.00     0.243 S 
ATOM     20  O   UNL     1     -10.442   3.951   6.122  1.00  0.00    -0.207 OA
ATOM     21  O   UNL     1     -10.613   6.460   6.346  1.00  0.00    -0.207 OA
BRANCH  19  22
ATOM     22  C   UNL     1      -8.371   5.286   6.940  1.00  0.00     0.082 A 
ATOM     23  C   UNL     1      -4.704   5.454   9.200  1.00  0.00     0.044 C 
ATOM     24  C   UNL     1      -6.003   5.401   8.448  1.00  0.00    -0.048 A 
ATOM     25  C   UNL     1      -6.008   4.848   7.161  1.00  0.00     0.005 A 
ATOM     26  C   UNL     1      -7.214   5.864   9.003  1.00  0.00    -0.047 A 
ATOM     27  C   UNL     1      -7.189   4.768   6.427  1.00  0.00     0.022 A 
ATOM     28  C   UNL     1      -8.388   5.829   8.226  1.00  0.00     0.025 A 
ATOM     29  C   UNL     1      -7.324   6.362  10.418  1.00  0.00     0.044 C 
ENDBRANCH  19  22
ENDBRANCH  12  19
ENDBRANCH   6  11
ENDBRANCH   3   5
ENDBRANCH   2   3
ENDBRANCH   1   2
BRANCH   1  30
ATOM     30  C   UNL     1      -1.977   2.507  -2.372  1.00  0.00     0.275 C 
BRANCH  30  31
ATOM     31  O   UNL     1      -2.490   1.896  -1.175  1.00  0.00    -0.458 OA
BRANCH  31  32
ATOM     32  C   UNL     1      -1.911   2.285  -0.015  1.00  0.00     0.338 C 
ATOM     33  O   UNL     1      -0.956   3.025   0.136  1.00  0.00    -0.246 OA
BRANCH  32  34
ATOM     34  C   UNL     1      -2.668   1.716   1.111  1.00  0.00     0.060 A 
ATOM     35  C   UNL     1      -3.978   2.139   1.305  1.00  0.00     0.016 A 
ATOM     36  C   UNL     1      -2.069   0.865   2.034  1.00  0.00     0.016 A 
ATOM     37  C   UNL     1      -4.689   1.755   2.435  1.00  0.00     0.010 A 
ATOM     38  C   UNL     1      -2.814   0.408   3.130  1.00  0.00     0.010 A 
ATOM     39  C   UNL     1      -4.130   0.858   3.351  1.00  0.00    -0.014 A 
BRANCH  39  40
ATOM     40  C   UNL     1      -4.921   0.404   4.528  1.00  0.00     0.031 A 
ATOM     41  C   UNL     1      -4.403   0.621   5.923  1.00  0.00     0.074 A 
ATOM     42  C   UNL     1      -6.112  -0.207   4.356  1.00  0.00     0.049 A 
ATOM     43  N   UNL     1      -4.831   0.114   7.052  1.00  0.00    -0.248 NA
ATOM     44  C   UNL     1      -3.248   1.519   6.066  1.00  0.00     0.031 C 
ATOM     45  C   UNL     1      -6.775  -0.433   3.070  1.00  0.00     0.029 A 
ATOM     46  N   UNL     1      -6.975  -0.758   5.272  1.00  0.00    -0.354 N 
ATOM     47  C   UNL     1      -3.957   0.574   8.029  1.00  0.00     0.074 A 
ATOM     48  C   UNL     1      -2.984   1.413   7.361  1.00  0.00     0.031 C 
ATOM     49  C   UNL     1      -7.945  -1.053   3.279  1.00  0.00     0.029 A 
ATOM     50  C   UNL     1      -8.063  -1.370   4.697  1.00  0.00     0.049 A 
ATOM     51  H   UNL     1      -6.829  -0.718   6.245  1.00  0.00     0.167 HD
ATOM     52  C   UNL     1      -3.956   0.305   9.357  1.00  0.00     0.031 A 
ATOM     53  C   UNL     1      -9.012  -2.165   5.226  1.00  0.00     0.031 A 
ATOM     54  C   UNL     1      -4.944  -0.504  10.022  1.00  0.00     0.049 A 
ATOM     55  C   UNL     1      -8.954  -2.511   6.684  1.00  0.00     0.074 A 
ATOM     56  C   UNL     1      -5.051  -0.802  11.370  1.00  0.00     0.029 A 
ATOM     57  N   UNL     1      -5.999  -1.143   9.388  1.00  0.00    -0.354 N 
ATOM     58  N   UNL     1      -8.095  -2.111   7.590  1.00  0.00    -0.248 NA
ATOM     59  C   UNL     1      -9.973  -3.443   7.185  1.00  0.00     0.031 C 
ATOM     60  C   UNL     1      -6.133  -1.673  11.542  1.00  0.00     0.029 A 
ATOM     61  C   UNL     1      -6.734  -1.872  10.309  1.00  0.00     0.049 A 
ATOM     62  H   UNL     1      -6.197  -1.087   8.425  1.00  0.00     0.167 HD
ATOM     63  C   UNL     1      -8.470  -2.741   8.769  1.00  0.00     0.074 A 
ATOM     64  C   UNL     1      -9.646  -3.532   8.468  1.00  0.00     0.031 C 
ATOM     65  C   UNL     1      -7.885  -2.676   9.990  1.00  0.00     0.031 A 
BRANCH  52  66
ATOM     66  C   UNL     1      -2.807   0.837  10.169  1.00  0.00    -0.014 A 
ATOM     67  C   UNL     1      -2.675   2.202  10.459  1.00  0.00     0.009 A 
ATOM     68  C   UNL     1      -1.845  -0.056  10.668  1.00  0.00     0.009 A 
ATOM     69  C   UNL     1      -1.580   2.670  11.191  1.00  0.00     0.001 A 
ATOM     70  C   UNL     1      -0.767   0.408  11.424  1.00  0.00     0.001 A 
ATOM     71  C   UNL     1      -0.628   1.772  11.674  1.00  0.00     0.000 A 
ENDBRANCH  52  66
BRANCH  53  72
ATOM     72  C   UNL     1     -10.034  -2.772   4.333  1.00  0.00    -0.014 A 
ATOM     73  C   UNL     1     -11.372  -2.360   4.384  1.00  0.00     0.009 A 
ATOM     74  C   UNL     1      -9.658  -3.746   3.391  1.00  0.00     0.009 A 
ATOM     75  C   UNL     1     -12.312  -2.910   3.508  1.00  0.00     0.001 A 
ATOM     76  C   UNL     1     -10.592  -4.269   2.496  1.00  0.00     0.001 A 
ATOM     77  C   UNL     1     -11.920  -3.854   2.559  1.00  0.00     0.000 A 
ENDBRANCH  53  72
BRANCH  65  78
ATOM     78  C   UNL     1      -8.509  -3.486  11.090  1.00  0.00    -0.014 A 
ATOM     79  C   UNL     1      -8.352  -4.880  11.137  1.00  0.00     0.009 A 
ATOM     80  C   UNL     1      -9.230  -2.845  12.109  1.00  0.00     0.009 A 
ATOM     81  C   UNL     1      -8.926  -5.619  12.173  1.00  0.00     0.001 A 
ATOM     82  C   UNL     1      -9.781  -3.584  13.157  1.00  0.00     0.001 A 
ATOM     83  C   UNL     1      -9.635  -4.971  13.184  1.00  0.00     0.000 A 
ENDBRANCH  65  78
ENDBRANCH  39  40
ENDBRANCH  32  34
ENDBRANCH  31  32
ENDBRANCH  30  31
ENDBRANCH   1  30
TORSDOF 14
