REMARK SMILES Cc1ccc(-c2cnnc(-n3nc(C)c4c3NC(=O)C[C@@H]4c3ccc(C(=O)OCCOC(=O)c4ccc(-c5c6nc(c(-c7ccccc7)c7ccc([nH]7)c(-c7ccccc7)c7nc(c(-c8ccccc8)c8ccc5[nH]8)C=C7)C=C6)cc4)cc3)n2)cc1
REMARK SMILES IDX 29 1 28 2 26 3 27 4 25 5 22 6 23 7 83 8 24 9 82 10 21 11
REMARK SMILES IDX 11 12 12 13 16 14 13 15 15 16 17 17 14 18 18 19 20 21 19 22
REMARK SMILES IDX 10 23 6 24 7 25 84 26 8 27 9 28 5 29 1 30 2 31 3 32 86 33
REMARK SMILES IDX 4 34 85 35 30 36 31 37 32 38 33 39 34 40 35 41 81 42 36 43
REMARK SMILES IDX 80 44 37 45 38 46 39 47 74 48 40 49 79 50 73 51 75 52 41 53
REMARK SMILES IDX 78 54 72 55 71 56 42 58 64 59 49 60 63 61 50 62 53 63 62 64
REMARK SMILES IDX 76 65 51 66 52 67 61 69 77 70 54 71 43 72 44 73 48 74 45 75
REMARK SMILES IDX 47 76 46 77 65 78 66 79 70 80 67 81 69 82 68 83 55 84 56 85
REMARK SMILES IDX 60 86 57 87 59 88 58 89
REMARK H PARENT 17 20 75 57 53 68
REMARK Flexibility Score: inf
ROOT
ATOM      1  C   UNL     1     -11.080   7.489  -7.736  1.00  0.00     0.275 C 
ENDROOT
BRANCH   1   2
ATOM      2  O   UNL     1      -9.924   6.653  -7.859  1.00  0.00    -0.458 OA
BRANCH   2   3
ATOM      3  C   UNL     1     -10.093   5.474  -7.221  1.00  0.00     0.338 C 
ATOM      4  O   UNL     1     -11.074   5.115  -6.589  1.00  0.00    -0.246 OA
BRANCH   3   5
ATOM      5  C   UNL     1      -8.868   4.681  -7.167  1.00  0.00     0.060 A 
ATOM      6  C   UNL     1      -7.255   2.645  -6.203  1.00  0.00    -0.040 A 
ATOM      7  C   UNL     1      -7.908   2.481  -7.425  1.00  0.00     0.005 A 
ATOM      8  C   UNL     1      -7.244   3.923  -5.604  1.00  0.00     0.005 A 
ATOM      9  C   UNL     1      -8.714   3.503  -7.903  1.00  0.00     0.016 A 
ATOM     10  C   UNL     1      -8.086   4.922  -6.052  1.00  0.00     0.016 A 
BRANCH   6  11
ATOM     11  C   UNL     1      -6.713   1.397  -5.535  1.00  0.00     0.064 C 
ATOM     12  N   UNL     1      -5.711   2.033  -2.131  1.00  0.00    -0.180 N 
ATOM     13  N   UNL     1      -7.017   2.371  -1.955  1.00  0.00    -0.168 NA
ATOM     14  C   UNL     1      -5.413   2.014  -3.480  1.00  0.00     0.143 A 
ATOM     15  C   UNL     1      -7.597   2.026  -3.107  1.00  0.00     0.066 A 
ATOM     16  C   UNL     1      -6.614   1.705  -4.086  1.00  0.00     0.026 A 
ATOM     17  N   UNL     1      -4.277   2.245  -4.239  1.00  0.00    -0.310 N 
ATOM     18  C   UNL     1      -9.066   2.204  -3.236  1.00  0.00     0.069 C 
ATOM     19  C   UNL     1      -4.311   1.953  -5.650  1.00  0.00     0.226 C 
ATOM     20  H   UNL     1      -3.460   2.602  -3.821  1.00  0.00     0.171 HD
ATOM     21  C   UNL     1      -5.365   0.968  -6.097  1.00  0.00     0.113 C 
ATOM     22  O   UNL     1      -3.456   2.437  -6.352  1.00  0.00    -0.275 OA
BRANCH  12  23
ATOM     23  C   UNL     1      -5.011   1.333  -1.116  1.00  0.00     0.272 A 
ATOM     24  C   UNL     1      -3.182   0.232  -0.347  1.00  0.00     0.095 A 
ATOM     25  C   UNL     1      -3.981  -0.431   0.568  1.00  0.00     0.164 A 
ATOM     26  N   UNL     1      -3.694   1.096  -1.259  1.00  0.00    -0.208 NA
ATOM     27  N   UNL     1      -5.293  -0.175   0.652  1.00  0.00    -0.153 NA
ATOM     28  N   UNL     1      -5.802   0.755  -0.173  1.00  0.00    -0.109 NA
BRANCH  24  29
ATOM     29  C   UNL     1      -1.724   0.131  -0.298  1.00  0.00     0.002 A 
ATOM     30  C   UNL     1       2.576  -0.057   0.065  1.00  0.00     0.044 C 
ATOM     31  C   UNL     1       1.083   0.015  -0.052  1.00  0.00    -0.051 A 
ATOM     32  C   UNL     1       0.326  -1.160  -0.098  1.00  0.00     0.004 A 
ATOM     33  C   UNL     1       0.434   1.249  -0.129  1.00  0.00     0.004 A 
ATOM     34  C   UNL     1      -1.064  -1.104  -0.219  1.00  0.00     0.011 A 
ATOM     35  C   UNL     1      -0.953   1.304  -0.255  1.00  0.00     0.011 A 
ENDBRANCH  24  29
ENDBRANCH  12  23
ENDBRANCH   6  11
ENDBRANCH   3   5
ENDBRANCH   2   3
ENDBRANCH   1   2
BRANCH   1  36
ATOM     36  C   UNL     1     -11.194   8.531  -8.853  1.00  0.00     0.275 C 
BRANCH  36  37
ATOM     37  O   UNL     1     -10.931   8.195 -10.245  1.00  0.00    -0.458 OA
BRANCH  37  38
ATOM     38  C   UNL     1     -10.587   6.976 -10.715  1.00  0.00     0.338 C 
ATOM     39  O   UNL     1      -9.624   6.783 -11.441  1.00  0.00    -0.246 OA
BRANCH  38  40
ATOM     40  C   UNL     1     -11.487   5.882 -10.326  1.00  0.00     0.060 A 
ATOM     41  C   UNL     1     -10.946   4.595 -10.231  1.00  0.00     0.016 A 
ATOM     42  C   UNL     1     -12.794   6.156  -9.927  1.00  0.00     0.016 A 
ATOM     43  C   UNL     1     -11.663   3.597  -9.592  1.00  0.00     0.010 A 
ATOM     44  C   UNL     1     -13.474   5.197  -9.220  1.00  0.00     0.010 A 
ATOM     45  C   UNL     1     -12.907   3.920  -9.075  1.00  0.00    -0.014 A 
BRANCH  45  46
ATOM     46  C   UNL     1     -13.881   2.892  -8.786  1.00  0.00     0.031 A 
ATOM     47  C   UNL     1     -14.150   2.448  -7.414  1.00  0.00     0.074 A 
ATOM     48  C   UNL     1     -14.626   2.719  -9.899  1.00  0.00     0.049 A 
ATOM     49  N   UNL     1     -14.920   1.461  -7.128  1.00  0.00    -0.248 NA
ATOM     50  C   UNL     1     -13.529   3.014  -6.214  1.00  0.00     0.031 C 
ATOM     51  C   UNL     1     -15.996   2.311 -10.118  1.00  0.00     0.029 A 
ATOM     52  N   UNL     1     -14.104   2.830 -11.200  1.00  0.00    -0.354 N 
ATOM     53  C   UNL     1     -15.241   1.589  -5.792  1.00  0.00     0.074 A 
ATOM     54  C   UNL     1     -14.213   2.418  -5.228  1.00  0.00     0.031 C 
ATOM     55  C   UNL     1     -16.120   1.921 -11.405  1.00  0.00     0.029 A 
ATOM     56  C   UNL     1     -14.776   1.895 -11.979  1.00  0.00     0.049 A 
ATOM     57  H   UNL     1     -13.401   3.449 -11.501  1.00  0.00     0.167 HD
ATOM     58  C   UNL     1     -16.475   1.177  -5.391  1.00  0.00     0.031 A 
ATOM     59  C   UNL     1     -14.086   0.759 -12.305  1.00  0.00     0.031 A 
ATOM     60  C   UNL     1     -17.181   0.591  -6.527  1.00  0.00     0.049 A 
ATOM     61  C   UNL     1     -14.689  -0.447 -11.617  1.00  0.00     0.074 A 
ATOM     62  C   UNL     1     -18.119   1.100  -7.409  1.00  0.00     0.029 A 
ATOM     63  N   UNL     1     -16.626  -0.519  -7.140  1.00  0.00    -0.354 N 
ATOM     64  N   UNL     1     -15.267  -0.437 -10.444  1.00  0.00    -0.248 NA
ATOM     65  C   UNL     1     -14.735  -1.752 -12.254  1.00  0.00     0.031 C 
ATOM     66  C   UNL     1     -18.108   0.279  -8.574  1.00  0.00     0.029 A 
ATOM     67  C   UNL     1     -17.155  -0.709  -8.399  1.00  0.00     0.049 A 
ATOM     68  H   UNL     1     -15.943  -1.098  -6.730  1.00  0.00     0.167 HD
ATOM     69  C   UNL     1     -15.885  -1.646 -10.227  1.00  0.00     0.074 A 
ATOM     70  C   UNL     1     -15.444  -2.455 -11.354  1.00  0.00     0.031 C 
ATOM     71  C   UNL     1     -16.730  -1.871  -9.170  1.00  0.00     0.031 A 
BRANCH  58  72
ATOM     72  C   UNL     1     -17.168   1.560  -4.107  1.00  0.00    -0.014 A 
ATOM     73  C   UNL     1     -18.577   1.516  -4.066  1.00  0.00     0.009 A 
ATOM     74  C   UNL     1     -16.531   1.977  -2.927  1.00  0.00     0.009 A 
ATOM     75  C   UNL     1     -19.312   1.906  -2.940  1.00  0.00     0.001 A 
ATOM     76  C   UNL     1     -17.263   2.379  -1.794  1.00  0.00     0.001 A 
ATOM     77  C   UNL     1     -18.653   2.347  -1.803  1.00  0.00     0.000 A 
ENDBRANCH  58  72
BRANCH  59  78
ATOM     78  C   UNL     1     -12.614   0.976 -12.556  1.00  0.00    -0.014 A 
ATOM     79  C   UNL     1     -12.226   1.933 -13.525  1.00  0.00     0.009 A 
ATOM     80  C   UNL     1     -11.622   0.504 -11.683  1.00  0.00     0.009 A 
ATOM     81  C   UNL     1     -10.936   2.480 -13.543  1.00  0.00     0.001 A 
ATOM     82  C   UNL     1     -10.318   1.034 -11.723  1.00  0.00     0.001 A 
ATOM     83  C   UNL     1      -9.985   2.043 -12.629  1.00  0.00     0.000 A 
ENDBRANCH  59  78
BRANCH  71  84
ATOM     84  C   UNL     1     -17.269  -3.209  -8.694  1.00  0.00    -0.014 A 
ATOM     85  C   UNL     1     -17.273  -4.390  -9.433  1.00  0.00     0.009 A 
ATOM     86  C   UNL     1     -17.800  -3.308  -7.381  1.00  0.00     0.009 A 
ATOM     87  C   UNL     1     -17.676  -5.608  -8.866  1.00  0.00     0.001 A 
ATOM     88  C   UNL     1     -18.200  -4.513  -6.806  1.00  0.00     0.001 A 
ATOM     89  C   UNL     1     -18.118  -5.673  -7.549  1.00  0.00     0.000 A 
ENDBRANCH  71  84
ENDBRANCH  45  46
ENDBRANCH  38  40
ENDBRANCH  37  38
ENDBRANCH  36  37
ENDBRANCH   1  36
TORSDOF 14
