REMARK SMILES C[C@H](CC(=O)OCCOC(=O)c1ccc(-c2c3nc(c(-c4ccccc4)c4ccc([nH]4)c(-c4ccccc4)c4nc(c(-c5ccccc5)c5ccc2[nH]5)C=C4)C=C3)cc1)NC(=O)[C@H]1CC(=O)N(C2CC2)C1
REMARK SMILES IDX 7 1 6 2 4 3 5 4 3 5 2 6 1 7 60 8 61 9 62 11 63 12 64 13
REMARK SMILES IDX 71 14 65 15 67 16 66 17 68 18 69 19 70 20 8 21 9 22 10 23
REMARK SMILES IDX 11 24 12 25 13 26 59 27 14 28 58 29 15 30 16 31 17 32 52 33
REMARK SMILES IDX 18 34 57 35 51 36 53 37 19 38 56 39 50 40 49 41 20 43 42 44
REMARK SMILES IDX 27 45 41 46 28 47 31 48 40 49 54 50 29 51 30 52 39 54 55 55
REMARK SMILES IDX 32 56 21 57 22 58 26 59 23 60 25 61 24 62 43 63 44 64 48 65
REMARK SMILES IDX 45 66 47 67 46 68 33 69 34 70 38 71 35 72 37 73 36 74
REMARK H PARENT 60 10 53 42 31 53
REMARK Flexibility Score: inf
ROOT
ATOM      1  C   UNL     1      -1.508  -2.484  -5.163  1.00  0.00     0.274 C 
ENDROOT
BRANCH   1   2
ATOM      2  O   UNL     1      -1.459  -1.319  -4.313  1.00  0.00    -0.462 OA
BRANCH   2   3
ATOM      3  C   UNL     1      -2.481  -1.201  -3.433  1.00  0.00     0.307 C 
ATOM      4  O   UNL     1      -3.469  -1.929  -3.409  1.00  0.00    -0.252 OA
BRANCH   3   5
ATOM      5  C   UNL     1      -2.311  -0.095  -2.424  1.00  0.00     0.147 C 
BRANCH   5   6
ATOM      6  C   UNL     1      -0.992   0.665  -2.315  1.00  0.00     0.090 C 
ATOM      7  C   UNL     1       0.269  -0.178  -2.150  1.00  0.00     0.031 C 
BRANCH   6   8
ATOM      8  N   UNL     1      -0.812   1.632  -3.386  1.00  0.00    -0.353 N 
ATOM      9  C   UNL     1      -0.818   2.993  -3.364  1.00  0.00     0.225 C 
ATOM     10  H   UNL     1      -0.660   1.237  -4.274  1.00  0.00     0.163 HD
ATOM     11  O   UNL     1      -0.604   3.568  -4.434  1.00  0.00    -0.275 OA
BRANCH   9  12
ATOM     12  C   UNL     1      -1.191   3.765  -2.108  1.00  0.00     0.107 C 
ATOM     13  C   UNL     1      -0.360   3.517  -0.851  1.00  0.00     0.115 C 
ATOM     14  C   UNL     1      -0.969   5.256  -2.348  1.00  0.00     0.133 C 
ATOM     15  C   UNL     1      -0.371   4.841  -0.130  1.00  0.00     0.223 C 
ATOM     16  N   UNL     1      -0.785   5.812  -1.033  1.00  0.00    -0.339 N 
ATOM     17  O   UNL     1      -0.045   4.976   1.038  1.00  0.00    -0.275 OA
BRANCH  16  18
ATOM     18  C   UNL     1      -0.859   7.225  -0.828  1.00  0.00     0.085 C 
ATOM     19  C   UNL     1      -0.817   7.901   0.513  1.00  0.00     0.027 C 
ATOM     20  C   UNL     1       0.360   8.004  -0.414  1.00  0.00     0.027 C 
ENDBRANCH  16  18
ENDBRANCH   9  12
ENDBRANCH   6   8
ENDBRANCH   5   6
ENDBRANCH   3   5
ENDBRANCH   2   3
ENDBRANCH   1   2
BRANCH   1  21
ATOM     21  C   UNL     1      -0.672  -3.618  -4.569  1.00  0.00     0.275 C 
BRANCH  21  22
ATOM     22  O   UNL     1      -1.162  -3.964  -3.260  1.00  0.00    -0.458 OA
BRANCH  22  23
ATOM     23  C   UNL     1      -0.273  -3.863  -2.250  1.00  0.00     0.338 C 
ATOM     24  O   UNL     1       0.906  -3.542  -2.323  1.00  0.00    -0.246 OA
BRANCH  23  25
ATOM     25  C   UNL     1      -0.914  -4.222  -0.977  1.00  0.00     0.060 A 
ATOM     26  C   UNL     1      -2.016  -3.504  -0.505  1.00  0.00     0.016 A 
ATOM     27  C   UNL     1      -0.350  -5.236  -0.203  1.00  0.00     0.016 A 
ATOM     28  C   UNL     1      -2.533  -3.773   0.762  1.00  0.00     0.010 A 
ATOM     29  C   UNL     1      -0.916  -5.555   1.032  1.00  0.00     0.010 A 
ATOM     30  C   UNL     1      -2.005  -4.819   1.531  1.00  0.00    -0.014 A 
BRANCH  30  31
ATOM     31  C   UNL     1      -2.600  -5.189   2.838  1.00  0.00     0.031 A 
ATOM     32  C   UNL     1      -1.793  -5.079   4.100  1.00  0.00     0.074 A 
ATOM     33  C   UNL     1      -3.851  -5.687   2.879  1.00  0.00     0.049 A 
ATOM     34  N   UNL     1      -2.054  -5.551   5.292  1.00  0.00    -0.248 NA
ATOM     35  C   UNL     1      -0.520  -4.346   4.006  1.00  0.00     0.031 C 
ATOM     36  C   UNL     1      -4.755  -5.806   1.734  1.00  0.00     0.029 A 
ATOM     37  N   UNL     1      -4.570  -6.206   3.926  1.00  0.00    -0.354 N 
ATOM     38  C   UNL     1      -0.965  -5.206   6.083  1.00  0.00     0.074 A 
ATOM     39  C   UNL     1      -0.037  -4.489   5.233  1.00  0.00     0.031 C 
ATOM     40  C   UNL     1      -5.910  -6.354   2.140  1.00  0.00     0.029 A 
ATOM     41  C   UNL     1      -5.798  -6.697   3.553  1.00  0.00     0.049 A 
ATOM     42  H   UNL     1      -4.239  -6.224   4.853  1.00  0.00     0.167 HD
ATOM     43  C   UNL     1      -0.758  -5.470   7.395  1.00  0.00     0.031 A 
ATOM     44  C   UNL     1      -6.712  -7.393   4.253  1.00  0.00     0.031 A 
ATOM     45  C   UNL     1      -1.686  -6.184   8.233  1.00  0.00     0.049 A 
ATOM     46  C   UNL     1      -6.421  -7.752   5.680  1.00  0.00     0.074 A 
ATOM     47  C   UNL     1      -1.575  -6.495   9.577  1.00  0.00     0.029 A 
ATOM     48  N   UNL     1      -2.899  -6.699   7.802  1.00  0.00    -0.354 N 
ATOM     49  N   UNL     1      -5.375  -7.448   6.408  1.00  0.00    -0.248 NA
ATOM     50  C   UNL     1      -7.428  -8.566   6.374  1.00  0.00     0.031 C 
ATOM     51  C   UNL     1      -2.701  -7.238   9.949  1.00  0.00     0.029 A 
ATOM     52  C   UNL     1      -3.535  -7.348   8.847  1.00  0.00     0.049 A 
ATOM     53  H   UNL     1      -3.255  -6.616   6.888  1.00  0.00     0.167 HD
ATOM     54  C   UNL     1      -5.601  -8.022   7.651  1.00  0.00     0.074 A 
ATOM     55  C   UNL     1      -6.891  -8.680   7.581  1.00  0.00     0.031 C 
ATOM     56  C   UNL     1      -4.812  -8.005   8.752  1.00  0.00     0.031 A 
BRANCH  43  57
ATOM     57  C   UNL     1       0.545  -5.019   7.994  1.00  0.00    -0.014 A 
ATOM     58  C   UNL     1       0.797  -3.666   8.266  1.00  0.00     0.009 A 
ATOM     59  C   UNL     1       1.526  -5.971   8.318  1.00  0.00     0.009 A 
ATOM     60  C   UNL     1       2.018  -3.271   8.819  1.00  0.00     0.001 A 
ATOM     61  C   UNL     1       2.736  -5.576   8.892  1.00  0.00     0.001 A 
ATOM     62  C   UNL     1       2.984  -4.226   9.134  1.00  0.00     0.000 A 
ENDBRANCH  43  57
BRANCH  44  63
ATOM     63  C   UNL     1      -7.965  -7.835   3.590  1.00  0.00    -0.014 A 
ATOM     64  C   UNL     1      -9.187  -7.226   3.907  1.00  0.00     0.009 A 
ATOM     65  C   UNL     1      -7.939  -8.845   2.615  1.00  0.00     0.009 A 
ATOM     66  C   UNL     1     -10.361  -7.625   3.264  1.00  0.00     0.001 A 
ATOM     67  C   UNL     1      -9.110  -9.223   1.955  1.00  0.00     0.001 A 
ATOM     68  C   UNL     1     -10.320  -8.616   2.284  1.00  0.00     0.000 A 
ENDBRANCH  44  63
BRANCH  56  69
ATOM     69  C   UNL     1      -5.338  -8.701   9.972  1.00  0.00    -0.014 A 
ATOM     70  C   UNL     1      -5.320 -10.101  10.071  1.00  0.00     0.009 A 
ATOM     71  C   UNL     1      -5.832  -7.945  11.046  1.00  0.00     0.009 A 
ATOM     72  C   UNL     1      -5.812 -10.731  11.215  1.00  0.00     0.001 A 
ATOM     73  C   UNL     1      -6.303  -8.578  12.197  1.00  0.00     0.001 A 
ATOM     74  C   UNL     1      -6.299  -9.970  12.277  1.00  0.00     0.000 A 
ENDBRANCH  56  69
ENDBRANCH  30  31
ENDBRANCH  23  25
ENDBRANCH  22  23
ENDBRANCH  21  22
ENDBRANCH   1  21
TORSDOF 15
