REMARK SMILES Cc1n[nH]c2c1[C@@]1(C(=O)N([C@@H](C)C(=O)OCCOC(=O)c3ccc(-c4c5nc(c(-c6ccccc6)c6ccc([nH]6)c(-c6ccccc6)c6nc(c(-c7ccccc7)c7ccc4[nH]7)C=C6)C=C5)cc3)c3ccccc31)C(C#N)=C(N)O2
REMARK SMILES IDX 16 1 15 2 13 3 14 4 11 5 12 6 10 7 1 8 2 9 3 10 6 11 4 12
REMARK SMILES IDX 5 13 7 14 80 16 8 17 74 18 75 19 78 20 9 21 69 22 73 23
REMARK SMILES IDX 70 24 72 25 71 26 76 27 77 28 79 29 17 32 18 33 19 34 20 35
REMARK SMILES IDX 21 36 22 37 68 38 23 39 67 40 24 41 25 42 26 43 61 44 27 45
REMARK SMILES IDX 66 46 60 47 62 48 28 49 65 50 59 51 58 52 29 54 51 55 36 56
REMARK SMILES IDX 50 57 37 58 40 59 49 60 63 61 38 62 39 63 48 65 64 66 41 67
REMARK SMILES IDX 30 68 31 69 35 70 32 71 34 72 33 73 52 74 53 75 57 76 54 77
REMARK SMILES IDX 56 78 55 79 42 80 43 81 47 82 44 83 46 84 45 85
REMARK H PARENT 4 15 79 30 79 31 62 53 40 64
REMARK Flexibility Score: inf
ROOT
ATOM      1  C   UNL     1      -1.975   5.678  -2.299  1.00  0.00     0.274 C 
ENDROOT
BRANCH   1   2
ATOM      2  O   UNL     1      -0.988   4.686  -1.925  1.00  0.00    -0.461 OA
BRANCH   2   3
ATOM      3  C   UNL     1      -0.720   3.701  -2.827  1.00  0.00     0.329 C 
ATOM      4  O   UNL     1      -1.163   3.678  -3.972  1.00  0.00    -0.250 OA
BRANCH   3   5
ATOM      5  C   UNL     1       0.190   2.570  -2.271  1.00  0.00     0.197 C 
ATOM      6  C   UNL     1      -0.522   1.227  -2.479  1.00  0.00     0.044 C 
BRANCH   5   7
ATOM      7  N   UNL     1       0.632   2.728  -0.900  1.00  0.00    -0.297 N 
ATOM      8  C   UNL     1       0.994  -0.457   0.534  1.00  0.00     0.069 C 
ATOM      9  C   UNL     1       0.537   0.153   1.807  1.00  0.00     0.068 A 
ATOM     10  N   UNL     1       0.231  -0.643   2.845  1.00  0.00    -0.177 NA
ATOM     11  C   UNL     1       0.345   1.521   2.135  1.00  0.00     0.063 A 
ATOM     12  N   UNL     1      -0.180   0.206   3.808  1.00  0.00    -0.246 N 
ATOM     13  C   UNL     1      -0.115   1.505   3.421  1.00  0.00     0.222 A 
ATOM     14  C   UNL     1       0.459   2.830   1.424  1.00  0.00     0.149 C 
ATOM     15  H   UNL     1      -0.492  -0.084   4.695  1.00  0.00     0.193 HD
ATOM     16  O   UNL     1      -0.476   2.544   4.158  1.00  0.00    -0.422 OA
ATOM     17  C   UNL     1      -0.321   2.768   0.127  1.00  0.00     0.248 C 
ATOM     18  C   UNL     1       1.885   2.942   1.007  1.00  0.00     0.002 A 
ATOM     19  C   UNL     1      -0.001   3.983   2.242  1.00  0.00     0.114 C 
ATOM     20  C   UNL     1      -0.439   3.805   3.530  1.00  0.00     0.208 C 
ATOM     21  O   UNL     1      -1.537   2.716   0.011  1.00  0.00    -0.273 OA
ATOM     22  C   UNL     1       1.948   2.796  -0.376  1.00  0.00     0.050 A 
ATOM     23  C   UNL     1       3.006   3.152   1.809  1.00  0.00     0.008 A 
ATOM     24  C   UNL     1       3.191   2.719  -0.960  1.00  0.00     0.027 A 
ATOM     25  C   UNL     1       4.246   3.204   1.192  1.00  0.00     0.001 A 
ATOM     26  C   UNL     1       4.339   2.970  -0.184  1.00  0.00     0.002 A 
BRANCH  19  27
ATOM     27  C   UNL     1      -0.116   5.398   1.698  1.00  0.00     0.102 C 
ATOM     28  N   UNL     1      -0.211   6.572   1.247  1.00  0.00    -0.193 NA
ENDBRANCH  19  27
BRANCH  20  29
ATOM     29  N   UNL     1      -0.898   4.790   4.356  1.00  0.00    -0.369 N 
ATOM     30  H   UNL     1      -0.926   5.722   4.042  1.00  0.00     0.159 HD
ATOM     31  H   UNL     1      -1.202   4.567   5.266  1.00  0.00     0.159 HD
ENDBRANCH  20  29
ENDBRANCH   5   7
ENDBRANCH   3   5
ENDBRANCH   2   3
ENDBRANCH   1   2
BRANCH   1  32
ATOM     32  C   UNL     1      -1.404   7.091  -2.150  1.00  0.00     0.275 C 
BRANCH  32  33
ATOM     33  O   UNL     1      -0.383   7.279  -3.141  1.00  0.00    -0.458 OA
BRANCH  33  34
ATOM     34  C   UNL     1       0.877   7.022  -2.724  1.00  0.00     0.338 C 
ATOM     35  O   UNL     1       1.342   7.203  -1.605  1.00  0.00    -0.246 OA
BRANCH  34  36
ATOM     36  C   UNL     1       1.495   6.134  -3.728  1.00  0.00     0.060 A 
ATOM     37  C   UNL     1       1.049   6.077  -5.054  1.00  0.00     0.016 A 
ATOM     38  C   UNL     1       2.374   5.169  -3.248  1.00  0.00     0.016 A 
ATOM     39  C   UNL     1       1.319   4.946  -5.828  1.00  0.00     0.010 A 
ATOM     40  C   UNL     1       2.656   4.068  -4.042  1.00  0.00     0.010 A 
ATOM     41  C   UNL     1       2.036   3.883  -5.276  1.00  0.00    -0.014 A 
BRANCH  41  42
ATOM     42  C   UNL     1       2.452   2.725  -6.071  1.00  0.00     0.031 A 
ATOM     43  C   UNL     1       3.732   3.011  -6.728  1.00  0.00     0.074 A 
ATOM     44  C   UNL     1       1.906   1.504  -6.253  1.00  0.00     0.049 A 
ATOM     45  N   UNL     1       3.813   3.597  -7.870  1.00  0.00    -0.248 NA
ATOM     46  C   UNL     1       5.001   2.868  -6.010  1.00  0.00     0.031 C 
ATOM     47  C   UNL     1       0.733   0.911  -5.628  1.00  0.00     0.029 A 
ATOM     48  N   UNL     1       2.339   0.498  -7.084  1.00  0.00    -0.354 N 
ATOM     49  C   UNL     1       5.160   3.696  -8.130  1.00  0.00     0.074 A 
ATOM     50  C   UNL     1       5.831   3.455  -6.876  1.00  0.00     0.031 C 
ATOM     51  C   UNL     1       0.644  -0.408  -5.942  1.00  0.00     0.029 A 
ATOM     52  C   UNL     1       1.659  -0.707  -6.945  1.00  0.00     0.049 A 
ATOM     53  H   UNL     1       3.073   0.622  -7.728  1.00  0.00     0.167 HD
ATOM     54  C   UNL     1       5.593   3.667  -9.416  1.00  0.00     0.031 A 
ATOM     55  C   UNL     1       1.683  -1.781  -7.776  1.00  0.00     0.031 A 
ATOM     56  C   UNL     1       4.485   3.727 -10.343  1.00  0.00     0.049 A 
ATOM     57  C   UNL     1       2.015  -1.283  -9.125  1.00  0.00     0.074 A 
ATOM     58  C   UNL     1       3.612   4.694 -10.794  1.00  0.00     0.029 A 
ATOM     59  N   UNL     1       3.906   2.507 -10.598  1.00  0.00    -0.354 N 
ATOM     60  N   UNL     1       1.196  -0.565  -9.837  1.00  0.00    -0.248 NA
ATOM     61  C   UNL     1       3.392  -1.328  -9.600  1.00  0.00     0.031 C 
ATOM     62  C   UNL     1       2.416   4.012 -11.169  1.00  0.00     0.029 A 
ATOM     63  C   UNL     1       2.593   2.644 -10.972  1.00  0.00     0.049 A 
ATOM     64  H   UNL     1       4.374   1.645 -10.521  1.00  0.00     0.167 HD
ATOM     65  C   UNL     1       2.024   0.268 -10.560  1.00  0.00     0.074 A 
ATOM     66  C   UNL     1       3.338  -0.359 -10.518  1.00  0.00     0.031 C 
ATOM     67  C   UNL     1       1.652   1.544 -10.855  1.00  0.00     0.031 A 
BRANCH  54  68
ATOM     68  C   UNL     1       6.928   3.120  -9.828  1.00  0.00    -0.014 A 
ATOM     69  C   UNL     1       7.727   2.303  -9.007  1.00  0.00     0.009 A 
ATOM     70  C   UNL     1       7.298   3.220 -11.178  1.00  0.00     0.009 A 
ATOM     71  C   UNL     1       8.846   1.630  -9.498  1.00  0.00     0.001 A 
ATOM     72  C   UNL     1       8.396   2.518 -11.683  1.00  0.00     0.001 A 
ATOM     73  C   UNL     1       9.171   1.725 -10.842  1.00  0.00     0.000 A 
ENDBRANCH  54  68
BRANCH  55  74
ATOM     74  C   UNL     1       1.856  -3.219  -7.453  1.00  0.00    -0.014 A 
ATOM     75  C   UNL     1       2.534  -3.614  -6.289  1.00  0.00     0.009 A 
ATOM     76  C   UNL     1       1.644  -4.192  -8.450  1.00  0.00     0.009 A 
ATOM     77  C   UNL     1       3.043  -4.914  -6.158  1.00  0.00     0.001 A 
ATOM     78  C   UNL     1       2.155  -5.491  -8.318  1.00  0.00     0.001 A 
ATOM     79  C   UNL     1       2.873  -5.845  -7.181  1.00  0.00     0.000 A 
ENDBRANCH  55  74
BRANCH  67  80
ATOM     80  C   UNL     1       0.181   1.863 -10.879  1.00  0.00    -0.014 A 
ATOM     81  C   UNL     1      -0.349   2.384 -12.070  1.00  0.00     0.009 A 
ATOM     82  C   UNL     1      -0.669   1.751  -9.766  1.00  0.00     0.009 A 
ATOM     83  C   UNL     1      -1.676   2.809 -12.145  1.00  0.00     0.001 A 
ATOM     84  C   UNL     1      -2.008   2.152  -9.848  1.00  0.00     0.001 A 
ATOM     85  C   UNL     1      -2.506   2.693 -11.033  1.00  0.00     0.000 A 
ENDBRANCH  67  80
ENDBRANCH  41  42
ENDBRANCH  34  36
ENDBRANCH  33  34
ENDBRANCH  32  33
ENDBRANCH   1  32
TORSDOF 14
