REMARK SMILES CC[N@@H+](C[C@@H]1CCCO1)[C@@H](C)c1ccc(C(=O)OCCOC(=O)c2ccc(-c3c4nc(c(-c5ccccc5)c5ccc([nH]5)c(-c5ccccc5)c5nc(c(-c6ccccc6)c6ccc3[nH]6)C=C5)C=C4)cc2)o1
REMARK SMILES IDX 19 1 18 2 16 3 17 4 15 5 12 6 13 7 72 8 14 9 10 10 11 11
REMARK SMILES IDX 3 12 2 14 1 15 4 16 5 17 6 18 9 19 7 20 8 21 20 22 21 23
REMARK SMILES IDX 22 24 23 25 24 26 25 27 71 28 26 29 70 30 27 31 28 32 29 33
REMARK SMILES IDX 64 34 30 35 69 36 63 37 65 38 31 39 68 40 62 41 61 42 32 44
REMARK SMILES IDX 54 45 39 46 53 47 40 48 43 49 52 50 66 51 41 52 42 53 51 55
REMARK SMILES IDX 67 56 44 57 33 58 34 59 38 60 35 61 37 62 36 63 55 64 56 65
REMARK SMILES IDX 60 66 57 67 59 68 58 69 45 70 46 71 50 72 47 73 49 74 48 75
REMARK H PARENT 3 13 65 43 43 54
REMARK Flexibility Score: inf
ROOT
ATOM      1  C   UNL     1       6.576   3.933   1.253  1.00  0.00     0.275 C 
ENDROOT
BRANCH   1   2
ATOM      2  O   UNL     1       5.261   3.351   1.288  1.00  0.00    -0.456 OA
BRANCH   2   3
ATOM      3  C   UNL     1       5.100   2.192   0.586  1.00  0.00     0.374 C 
ATOM      4  O   UNL     1       5.908   1.756  -0.227  1.00  0.00    -0.242 OA
BRANCH   3   5
ATOM      5  C   UNL     1       3.917   1.503   1.046  1.00  0.00     0.212 A 
ATOM      6  C   UNL     1       2.673  -0.308   1.304  1.00  0.00     0.162 A 
ATOM      7  C   UNL     1       2.164   0.647   2.161  1.00  0.00     0.053 A 
ATOM      8  O   UNL     1       3.708   0.228   0.594  1.00  0.00    -0.448 OA
ATOM      9  C   UNL     1       2.943   1.816   1.975  1.00  0.00     0.059 A 
BRANCH   6  10
ATOM     10  C   UNL     1       2.342  -1.760   1.062  1.00  0.00     0.248 C 
ATOM     11  C   UNL     1       3.331  -2.429   0.095  1.00  0.00     0.084 C 
BRANCH  10  12
ATOM     12  N   UNL     1       0.904  -1.980   0.764  1.00  0.00    -0.324 N 
ATOM     13  H   UNL     1       0.440  -1.417   1.477  1.00  0.00     0.348 HD
BRANCH  12  14
ATOM     14  C   UNL     1       0.379  -1.413  -0.484  1.00  0.00     0.259 C 
ATOM     15  C   UNL     1       0.370   0.105  -0.616  1.00  0.00     0.071 C 
ENDBRANCH  12  14
BRANCH  12  16
ATOM     16  C   UNL     1       0.513  -3.405   0.934  1.00  0.00     0.295 C 
BRANCH  16  17
ATOM     17  C   UNL     1       0.642  -4.374  -0.266  1.00  0.00     0.173 C 
ATOM     18  C   UNL     1      -0.516  -4.390  -1.251  1.00  0.00     0.040 C 
ATOM     19  O   UNL     1       0.733  -5.739   0.197  1.00  0.00    -0.372 OA
ATOM     20  C   UNL     1      -0.272  -5.700  -1.958  1.00  0.00     0.031 C 
ATOM     21  C   UNL     1       0.203  -6.594  -0.830  1.00  0.00     0.161 C 
ENDBRANCH  16  17
ENDBRANCH  12  16
ENDBRANCH  10  12
ENDBRANCH   6  10
ENDBRANCH   3   5
ENDBRANCH   2   3
ENDBRANCH   1   2
BRANCH   1  22
ATOM     22  C   UNL     1       7.334   3.593   2.541  1.00  0.00     0.275 C 
BRANCH  22  23
ATOM     23  O   UNL     1       7.713   2.202   2.583  1.00  0.00    -0.458 OA
BRANCH  23  24
ATOM     24  C   UNL     1       6.865   1.386   3.253  1.00  0.00     0.338 C 
ATOM     25  O   UNL     1       5.835   1.699   3.823  1.00  0.00    -0.246 OA
BRANCH  24  26
ATOM     26  C   UNL     1       7.314  -0.010   3.120  1.00  0.00     0.060 A 
ATOM     27  C   UNL     1       6.524  -0.893   2.383  1.00  0.00     0.016 A 
ATOM     28  C   UNL     1       8.448  -0.470   3.788  1.00  0.00     0.016 A 
ATOM     29  C   UNL     1       6.851  -2.244   2.321  1.00  0.00     0.010 A 
ATOM     30  C   UNL     1       8.789  -1.826   3.709  1.00  0.00     0.010 A 
ATOM     31  C   UNL     1       7.985  -2.726   2.986  1.00  0.00    -0.014 A 
BRANCH  31  32
ATOM     32  C   UNL     1       8.301  -4.176   2.944  1.00  0.00     0.031 A 
ATOM     33  C   UNL     1       8.141  -5.019   4.178  1.00  0.00     0.074 A 
ATOM     34  C   UNL     1       8.707  -4.742   1.792  1.00  0.00     0.049 A 
ATOM     35  N   UNL     1       8.428  -6.284   4.359  1.00  0.00    -0.248 NA
ATOM     36  C   UNL     1       7.587  -4.351   5.366  1.00  0.00     0.031 C 
ATOM     37  C   UNL     1       8.852  -4.047   0.512  1.00  0.00     0.029 A 
ATOM     38  N   UNL     1       9.070  -6.036   1.512  1.00  0.00    -0.354 N 
ATOM     39  C   UNL     1       8.112  -6.557   5.684  1.00  0.00     0.074 A 
ATOM     40  C   UNL     1       7.632  -5.322   6.266  1.00  0.00     0.031 C 
ATOM     41  C   UNL     1       9.262  -4.924  -0.418  1.00  0.00     0.029 A 
ATOM     42  C   UNL     1       9.461  -6.226   0.209  1.00  0.00     0.049 A 
ATOM     43  H   UNL     1       9.051  -6.759   2.181  1.00  0.00     0.167 HD
ATOM     44  C   UNL     1       8.212  -7.731   6.353  1.00  0.00     0.031 A 
ATOM     45  C   UNL     1       9.953  -7.319  -0.405  1.00  0.00     0.031 A 
ATOM     46  C   UNL     1       8.688  -8.959   5.772  1.00  0.00     0.049 A 
ATOM     47  C   UNL     1      10.124  -8.590   0.380  1.00  0.00     0.074 A 
ATOM     48  C   UNL     1       8.815 -10.203   6.367  1.00  0.00     0.029 A 
ATOM     49  N   UNL     1       9.116  -9.098   4.461  1.00  0.00    -0.354 N 
ATOM     50  N   UNL     1       9.824  -8.835   1.632  1.00  0.00    -0.248 NA
ATOM     51  C   UNL     1      10.702  -9.736  -0.336  1.00  0.00     0.031 C 
ATOM     52  C   UNL     1       9.373 -11.080   5.432  1.00  0.00     0.029 A 
ATOM     53  C   UNL     1       9.534 -10.400   4.236  1.00  0.00     0.049 A 
ATOM     54  H   UNL     1       9.123  -8.379   3.789  1.00  0.00     0.167 HD
ATOM     55  C   UNL     1      10.150 -10.167   1.847  1.00  0.00     0.074 A 
ATOM     56  C   UNL     1      10.658 -10.682   0.592  1.00  0.00     0.031 C 
ATOM     57  C   UNL     1      10.037 -10.899   2.982  1.00  0.00     0.031 A 
BRANCH  44  58
ATOM     58  C   UNL     1       7.837  -7.731   7.810  1.00  0.00    -0.014 A 
ATOM     59  C   UNL     1       6.501  -7.614   8.225  1.00  0.00     0.009 A 
ATOM     60  C   UNL     1       8.838  -7.885   8.782  1.00  0.00     0.009 A 
ATOM     61  C   UNL     1       6.181  -7.613   9.585  1.00  0.00     0.001 A 
ATOM     62  C   UNL     1       8.512  -7.913  10.139  1.00  0.00     0.001 A 
ATOM     63  C   UNL     1       7.185  -7.767  10.540  1.00  0.00     0.000 A 
ENDBRANCH  44  58
BRANCH  45  64
ATOM     64  C   UNL     1      10.349  -7.252  -1.837  1.00  0.00    -0.014 A 
ATOM     65  C   UNL     1       9.625  -7.950  -2.814  1.00  0.00     0.009 A 
ATOM     66  C   UNL     1      11.461  -6.490  -2.231  1.00  0.00     0.009 A 
ATOM     67  C   UNL     1      10.020  -7.905  -4.154  1.00  0.00     0.001 A 
ATOM     68  C   UNL     1      11.835  -6.422  -3.574  1.00  0.00     0.001 A 
ATOM     69  C   UNL     1      11.120  -7.137  -4.533  1.00  0.00     0.000 A 
ENDBRANCH  45  64
BRANCH  57  70
ATOM     70  C   UNL     1      10.431 -12.348   2.909  1.00  0.00    -0.014 A 
ATOM     71  C   UNL     1      11.776 -12.737   2.814  1.00  0.00     0.009 A 
ATOM     72  C   UNL     1       9.439 -13.339   2.976  1.00  0.00     0.009 A 
ATOM     73  C   UNL     1      12.116 -14.091   2.756  1.00  0.00     0.001 A 
ATOM     74  C   UNL     1       9.784 -14.691   2.948  1.00  0.00     0.001 A 
ATOM     75  C   UNL     1      11.121 -15.066   2.829  1.00  0.00     0.000 A 
ENDBRANCH  57  70
ENDBRANCH  31  32
ENDBRANCH  24  26
ENDBRANCH  23  24
ENDBRANCH  22  23
ENDBRANCH   1  22
TORSDOF 16
