REMARK SMILES CC(C)[C@H](CO)Nc1ccc(C(F)(F)F)cc1C(=O)OCCOC(=O)c1ccc(-c2c3nc(c(-c4ccccc4)c4ccc([nH]4)c(-c4ccccc4)c4nc(c(-c5ccccc5)c5ccc2[nH]5)C=C4)C=C3)cc1
REMARK SMILES IDX 21 1 20 2 18 3 19 4 17 5 8 6 9 7 10 8 16 9 11 10 7 11 4 13
REMARK SMILES IDX 2 14 1 15 3 16 5 17 6 18 12 20 13 21 14 22 15 23 22 24 23 25
REMARK SMILES IDX 24 26 25 27 26 28 27 29 73 30 28 31 72 32 29 33 30 34 31 35
REMARK SMILES IDX 66 36 32 37 71 38 65 39 67 40 33 41 70 42 64 43 63 44 34 46
REMARK SMILES IDX 56 47 41 48 55 49 42 50 45 51 54 52 68 53 43 54 44 55 53 57
REMARK SMILES IDX 69 58 46 59 35 60 36 61 40 62 37 63 39 64 38 65 57 66 58 67
REMARK SMILES IDX 62 68 59 69 61 70 60 71 47 72 48 73 52 74 49 75 51 76 50 77
REMARK H PARENT 7 12 6 19 67 45 45 56
REMARK Flexibility Score: inf
ROOT
ATOM      1  C   UNL     1      -3.481  -0.426   0.626  1.00  0.00     0.275 C 
ENDROOT
BRANCH   1   2
ATOM      2  O   UNL     1      -3.282  -0.076  -0.758  1.00  0.00    -0.458 OA
BRANCH   2   3
ATOM      3  C   UNL     1      -2.813  -1.056  -1.565  1.00  0.00     0.340 C 
ATOM      4  O   UNL     1      -2.607  -2.217  -1.251  1.00  0.00    -0.246 OA
BRANCH   3   5
ATOM      5  C   UNL     1      -2.689  -0.560  -2.954  1.00  0.00     0.083 A 
ATOM      6  C   UNL     1      -1.892   0.527  -3.357  1.00  0.00     0.049 A 
ATOM      7  C   UNL     1      -1.988   0.895  -4.719  1.00  0.00     0.027 A 
ATOM      8  C   UNL     1      -2.819   0.233  -5.632  1.00  0.00     0.015 A 
ATOM      9  C   UNL     1      -3.483  -1.265  -3.889  1.00  0.00     0.031 A 
ATOM     10  C   UNL     1      -3.587  -0.854  -5.223  1.00  0.00     0.057 A 
BRANCH   6  11
ATOM     11  N   UNL     1      -0.985   1.255  -2.607  1.00  0.00    -0.379 N 
ATOM     12  H   UNL     1      -0.702   2.110  -3.003  1.00  0.00     0.160 HD
BRANCH  11  13
ATOM     13  C   UNL     1      -0.385   0.938  -1.310  1.00  0.00     0.107 C 
BRANCH  13  14
ATOM     14  C   UNL     1      -0.751   2.012  -0.232  1.00  0.00     0.007 C 
ATOM     15  C   UNL     1       0.428   2.832   0.301  1.00  0.00     0.009 C 
ATOM     16  C   UNL     1      -1.875   2.978  -0.636  1.00  0.00     0.009 C 
ENDBRANCH  13  14
BRANCH  13  17
ATOM     17  C   UNL     1       1.137   0.711  -1.516  1.00  0.00     0.181 C 
BRANCH  17  18
ATOM     18  O   UNL     1       1.411  -0.355  -2.429  1.00  0.00    -0.394 OA
ATOM     19  H   UNL     1       1.049  -1.183  -2.077  1.00  0.00     0.210 HD
ENDBRANCH  17  18
ENDBRANCH  13  17
ENDBRANCH  11  13
ENDBRANCH   6  11
BRANCH  10  20
ATOM     20  C   UNL     1      -4.497  -1.565  -6.195  1.00  0.00     0.416 C 
ATOM     21  F   UNL     1      -5.159  -0.708  -7.021  1.00  0.00    -0.166 F 
ATOM     22  F   UNL     1      -3.826  -2.427  -7.005  1.00  0.00    -0.166 F 
ATOM     23  F   UNL     1      -5.463  -2.301  -5.577  1.00  0.00    -0.166 F 
ENDBRANCH  10  20
ENDBRANCH   3   5
ENDBRANCH   2   3
ENDBRANCH   1   2
BRANCH   1  24
ATOM     24  C   UNL     1      -4.539   0.495   1.240  1.00  0.00     0.275 C 
BRANCH  24  25
ATOM     25  O   UNL     1      -5.837   0.050   0.809  1.00  0.00    -0.458 OA
BRANCH  25  26
ATOM     26  C   UNL     1      -6.260   0.588  -0.357  1.00  0.00     0.338 C 
ATOM     27  O   UNL     1      -5.832   1.568  -0.936  1.00  0.00    -0.246 OA
BRANCH  26  28
ATOM     28  C   UNL     1      -7.176  -0.383  -0.966  1.00  0.00     0.060 A 
ATOM     29  C   UNL     1      -6.676  -1.150  -2.019  1.00  0.00     0.016 A 
ATOM     30  C   UNL     1      -8.490  -0.527  -0.536  1.00  0.00     0.016 A 
ATOM     31  C   UNL     1      -7.498  -2.052  -2.683  1.00  0.00     0.010 A 
ATOM     32  C   UNL     1      -9.313  -1.447  -1.190  1.00  0.00     0.010 A 
ATOM     33  C   UNL     1      -8.829  -2.200  -2.280  1.00  0.00    -0.014 A 
BRANCH  33  34
ATOM     34  C   UNL     1      -9.758  -3.053  -3.059  1.00  0.00     0.031 A 
ATOM     35  C   UNL     1     -10.881  -2.397  -3.812  1.00  0.00     0.074 A 
ATOM     36  C   UNL     1      -9.605  -4.389  -3.103  1.00  0.00     0.049 A 
ATOM     37  N   UNL     1     -11.942  -2.934  -4.354  1.00  0.00    -0.248 NA
ATOM     38  C   UNL     1     -10.801  -0.934  -3.957  1.00  0.00     0.031 C 
ATOM     39  C   UNL     1      -8.507  -5.142  -2.499  1.00  0.00     0.029 A 
ATOM     40  N   UNL     1     -10.389  -5.352  -3.688  1.00  0.00    -0.354 N 
ATOM     41  C   UNL     1     -12.686  -1.871  -4.850  1.00  0.00     0.074 A 
ATOM     42  C   UNL     1     -11.954  -0.660  -4.548  1.00  0.00     0.031 C 
ATOM     43  C   UNL     1      -8.680  -6.449  -2.754  1.00  0.00     0.029 A 
ATOM     44  C   UNL     1      -9.939  -6.631  -3.470  1.00  0.00     0.049 A 
ATOM     45  H   UNL     1     -11.196  -5.146  -4.213  1.00  0.00     0.167 HD
ATOM     46  C   UNL     1     -13.877  -1.905  -5.492  1.00  0.00     0.031 A 
ATOM     47  C   UNL     1     -10.503  -7.815  -3.773  1.00  0.00     0.031 A 
ATOM     48  C   UNL     1     -14.578  -3.118  -5.816  1.00  0.00     0.049 A 
ATOM     49  C   UNL     1     -11.852  -7.831  -4.438  1.00  0.00     0.074 A 
ATOM     50  C   UNL     1     -15.801  -3.271  -6.444  1.00  0.00     0.029 A 
ATOM     51  N   UNL     1     -14.099  -4.393  -5.552  1.00  0.00    -0.354 N 
ATOM     52  N   UNL     1     -12.595  -6.821  -4.824  1.00  0.00    -0.248 NA
ATOM     53  C   UNL     1     -12.449  -9.150  -4.691  1.00  0.00     0.031 C 
ATOM     54  C   UNL     1     -16.076  -4.640  -6.534  1.00  0.00     0.029 A 
ATOM     55  C   UNL     1     -15.003  -5.338  -6.003  1.00  0.00     0.049 A 
ATOM     56  H   UNL     1     -13.243  -4.595  -5.110  1.00  0.00     0.167 HD
ATOM     57  C   UNL     1     -13.736  -7.381  -5.383  1.00  0.00     0.074 A 
ATOM     58  C   UNL     1     -13.581  -8.819  -5.299  1.00  0.00     0.031 C 
ATOM     59  C   UNL     1     -14.818  -6.763  -5.915  1.00  0.00     0.031 A 
BRANCH  46  60
ATOM     60  C   UNL     1     -14.515  -0.589  -5.834  1.00  0.00    -0.014 A 
ATOM     61  C   UNL     1     -14.015   0.227  -6.860  1.00  0.00     0.009 A 
ATOM     62  C   UNL     1     -15.645  -0.163  -5.117  1.00  0.00     0.009 A 
ATOM     63  C   UNL     1     -14.613   1.459  -7.136  1.00  0.00     0.001 A 
ATOM     64  C   UNL     1     -16.257   1.056  -5.413  1.00  0.00     0.001 A 
ATOM     65  C   UNL     1     -15.734   1.871  -6.416  1.00  0.00     0.000 A 
ENDBRANCH  46  60
BRANCH  47  66
ATOM     66  C   UNL     1      -9.822  -9.084  -3.403  1.00  0.00    -0.014 A 
ATOM     67  C   UNL     1      -9.299  -9.929  -4.393  1.00  0.00     0.009 A 
ATOM     68  C   UNL     1      -9.695  -9.461  -2.056  1.00  0.00     0.009 A 
ATOM     69  C   UNL     1      -8.679 -11.131  -4.043  1.00  0.00     0.001 A 
ATOM     70  C   UNL     1      -9.048 -10.648  -1.707  1.00  0.00     0.001 A 
ATOM     71  C   UNL     1      -8.548 -11.486  -2.701  1.00  0.00     0.000 A 
ENDBRANCH  47  66
BRANCH  59  72
ATOM     72  C   UNL     1     -15.892  -7.641  -6.487  1.00  0.00    -0.014 A 
ATOM     73  C   UNL     1     -16.785  -8.334  -5.656  1.00  0.00     0.009 A 
ATOM     74  C   UNL     1     -16.037  -7.737  -7.880  1.00  0.00     0.009 A 
ATOM     75  C   UNL     1     -17.786  -9.133  -6.212  1.00  0.00     0.001 A 
ATOM     76  C   UNL     1     -17.053  -8.517  -8.432  1.00  0.00     0.001 A 
ATOM     77  C   UNL     1     -17.922  -9.220  -7.598  1.00  0.00     0.000 A 
ENDBRANCH  59  72
ENDBRANCH  33  34
ENDBRANCH  26  28
ENDBRANCH  25  26
ENDBRANCH  24  25
ENDBRANCH   1  24
TORSDOF 17
