REMARK SMILES Cc1c(CC(=O)OCCOC(=O)c2ccc(-c3c4nc(c(-c5ccccc5)c5ccc([nH]5)c(-c5ccccc5)c5nc(c(-c6ccccc6)c6ccc3[nH]6)C=C5)C=C4)cc2)cc(-c2ccc(S(C)(=O)=O)cc2)n1-c1ccccc1
REMARK SMILES IDX 8 1 7 2 5 3 6 4 4 5 3 6 1 7 2 8 73 9 61 10 62 11 74 12 75 13
REMARK SMILES IDX 79 14 76 15 78 16 77 17 63 18 64 19 72 20 65 21 71 22 66 23
REMARK SMILES IDX 67 24 68 25 69 26 70 27 9 28 10 29 11 30 12 31 13 32 14 33
REMARK SMILES IDX 60 34 15 35 59 36 16 37 17 38 18 39 53 40 19 41 58 42 52 43
REMARK SMILES IDX 54 44 20 45 57 46 51 47 50 48 21 50 43 51 28 52 42 53 29 54
REMARK SMILES IDX 32 55 41 56 55 57 30 58 31 59 40 61 56 62 33 63 22 64 23 65
REMARK SMILES IDX 27 66 24 67 26 68 25 69 44 70 45 71 49 72 46 73 48 74 47 75
REMARK SMILES IDX 34 76 35 77 39 78 36 79 38 80 37 81
REMARK H PARENT 54 49 32 60
REMARK Flexibility Score: inf
ROOT
ATOM      1  C   UNL     1       3.848   0.536   0.707  1.00  0.00     0.274 C 
ENDROOT
BRANCH   1   2
ATOM      2  O   UNL     1       2.862  -0.487   0.554  1.00  0.00    -0.462 OA
BRANCH   2   3
ATOM      3  C   UNL     1       3.150  -1.733   1.009  1.00  0.00     0.310 C 
ATOM      4  O   UNL     1       4.248  -2.079   1.432  1.00  0.00    -0.252 OA
BRANCH   3   5
ATOM      5  C   UNL     1       1.913  -2.611   1.072  1.00  0.00     0.160 C 
BRANCH   5   6
ATOM      6  C   UNL     1       0.924  -2.487  -0.063  1.00  0.00    -0.015 A 
ATOM      7  C   UNL     1       0.218   0.021   0.066  1.00  0.00     0.065 C 
ATOM      8  C   UNL     1       0.231  -1.361  -0.492  1.00  0.00     0.024 A 
ATOM      9  N   UNL     1      -0.590  -1.713  -1.548  1.00  0.00    -0.314 N 
ATOM     10  C   UNL     1       0.388  -3.574  -0.812  1.00  0.00     0.033 A 
ATOM     11  C   UNL     1      -0.594  -3.094  -1.665  1.00  0.00     0.053 A 
BRANCH   9  12
ATOM     12  C   UNL     1      -1.395  -0.793  -2.262  1.00  0.00     0.046 A 
ATOM     13  C   UNL     1      -2.785  -0.872  -2.163  1.00  0.00     0.026 A 
ATOM     14  C   UNL     1      -0.778   0.243  -2.974  1.00  0.00     0.026 A 
ATOM     15  C   UNL     1      -3.565   0.104  -2.780  1.00  0.00     0.002 A 
ATOM     16  C   UNL     1      -1.568   1.199  -3.609  1.00  0.00     0.002 A 
ATOM     17  C   UNL     1      -2.959   1.132  -3.505  1.00  0.00     0.000 A 
ENDBRANCH   9  12
BRANCH  11  18
ATOM     18  C   UNL     1      -1.480  -3.846  -2.550  1.00  0.00    -0.001 A 
ATOM     19  C   UNL     1      -1.457  -3.650  -3.937  1.00  0.00     0.011 A 
ATOM     20  C   UNL     1      -2.393  -4.753  -1.994  1.00  0.00     0.011 A 
ATOM     21  C   UNL     1      -2.349  -4.338  -4.761  1.00  0.00     0.021 A 
ATOM     22  C   UNL     1      -3.292  -5.439  -2.810  1.00  0.00     0.021 A 
ATOM     23  C   UNL     1      -3.270  -5.221  -4.188  1.00  0.00     0.067 A 
BRANCH  23  24
ATOM     24  S   UNL     1      -4.386  -6.104  -5.249  1.00  0.00     0.175 S 
ATOM     25  C   UNL     1      -5.424  -4.840  -5.933  1.00  0.00     0.163 C 
ATOM     26  O   UNL     1      -3.603  -6.682  -6.309  1.00  0.00    -0.224 OA
ATOM     27  O   UNL     1      -5.233  -6.940  -4.397  1.00  0.00    -0.224 OA
ENDBRANCH  23  24
ENDBRANCH  11  18
ENDBRANCH   5   6
ENDBRANCH   3   5
ENDBRANCH   2   3
ENDBRANCH   1   2
BRANCH   1  28
ATOM     28  C   UNL     1       3.220   1.937   0.486  1.00  0.00     0.275 C 
BRANCH  28  29
ATOM     29  O   UNL     1       2.256   2.635   1.408  1.00  0.00    -0.458 OA
BRANCH  29  30
ATOM     30  C   UNL     1       1.561   2.208   2.517  1.00  0.00     0.338 C 
ATOM     31  O   UNL     1       1.674   1.087   2.985  1.00  0.00    -0.246 OA
BRANCH  30  32
ATOM     32  C   UNL     1       0.620   3.319   3.150  1.00  0.00     0.060 A 
ATOM     33  C   UNL     1      -0.195   3.248   4.317  1.00  0.00     0.016 A 
ATOM     34  C   UNL     1       0.618   4.590   2.666  1.00  0.00     0.016 A 
ATOM     35  C   UNL     1      -0.870   4.451   5.045  1.00  0.00     0.010 A 
ATOM     36  C   UNL     1      -0.063   5.680   3.396  1.00  0.00     0.010 A 
ATOM     37  C   UNL     1      -0.814   5.808   4.636  1.00  0.00    -0.014 A 
BRANCH  37  38
ATOM     38  C   UNL     1      -0.541   7.242   5.721  1.00  0.00     0.031 A 
ATOM     39  C   UNL     1       0.875   6.942   6.116  1.00  0.00     0.074 A 
ATOM     40  C   UNL     1      -0.897   8.642   6.085  1.00  0.00     0.049 A 
ATOM     41  N   UNL     1       1.598   6.495   5.125  1.00  0.00    -0.248 NA
ATOM     42  C   UNL     1       1.702   7.622   7.093  1.00  0.00     0.031 C 
ATOM     43  C   UNL     1      -2.105   9.495   5.804  1.00  0.00     0.029 A 
ATOM     44  N   UNL     1      -0.113   9.755   6.732  1.00  0.00    -0.354 N 
ATOM     45  C   UNL     1       2.292   7.618   4.853  1.00  0.00     0.074 A 
ATOM     46  C   UNL     1       2.663   8.021   6.237  1.00  0.00     0.031 C 
ATOM     47  C   UNL     1      -2.020  10.787   6.297  1.00  0.00     0.029 A 
ATOM     48  C   UNL     1      -0.722  11.088   6.928  1.00  0.00     0.049 A 
ATOM     49  H   UNL     1       0.813   9.593   7.027  1.00  0.00     0.167 HD
ATOM     50  C   UNL     1       2.076   8.426   3.748  1.00  0.00     0.031 A 
ATOM     51  C   UNL     1      -0.160  12.315   7.425  1.00  0.00     0.031 A 
ATOM     52  C   UNL     1       3.041   9.441   3.638  1.00  0.00     0.049 A 
ATOM     53  C   UNL     1       0.964  12.462   6.470  1.00  0.00     0.074 A 
ATOM     54  C   UNL     1       4.253   9.716   4.218  1.00  0.00     0.029 A 
ATOM     55  N   UNL     1       2.769  10.497   2.811  1.00  0.00    -0.354 N 
ATOM     56  N   UNL     1       0.799  13.183   5.394  1.00  0.00    -0.248 NA
ATOM     57  C   UNL     1       2.355  12.217   6.879  1.00  0.00     0.031 C 
ATOM     58  C   UNL     1       4.263  11.132   4.257  1.00  0.00     0.029 A 
ATOM     59  C   UNL     1       3.146  11.584   3.541  1.00  0.00     0.049 A 
ATOM     60  H   UNL     1       2.390  10.476   1.903  1.00  0.00     0.167 HD
ATOM     61  C   UNL     1       2.044  13.185   4.840  1.00  0.00     0.074 A 
ATOM     62  C   UNL     1       2.950  12.969   5.945  1.00  0.00     0.031 C 
ATOM     63  C   UNL     1       2.171  12.645   3.604  1.00  0.00     0.031 A 
BRANCH  50  64
ATOM     64  C   UNL     1       0.961   8.399   2.607  1.00  0.00    -0.014 A 
ATOM     65  C   UNL     1      -0.456   8.498   2.769  1.00  0.00     0.009 A 
ATOM     66  C   UNL     1       1.361   8.194   1.279  1.00  0.00     0.009 A 
ATOM     67  C   UNL     1      -1.392   8.195   1.751  1.00  0.00     0.001 A 
ATOM     68  C   UNL     1       0.432   7.984   0.235  1.00  0.00     0.001 A 
ATOM     69  C   UNL     1      -0.939   7.927   0.476  1.00  0.00     0.000 A 
ENDBRANCH  50  64
BRANCH  51  70
ATOM     70  C   UNL     1      -0.189  13.931   7.990  1.00  0.00    -0.014 A 
ATOM     71  C   UNL     1      -1.227  14.771   8.418  1.00  0.00     0.009 A 
ATOM     72  C   UNL     1       1.078  14.665   8.074  1.00  0.00     0.009 A 
ATOM     73  C   UNL     1      -0.997  16.158   8.832  1.00  0.00     0.001 A 
ATOM     74  C   UNL     1       1.312  16.022   8.411  1.00  0.00     0.001 A 
ATOM     75  C   UNL     1       0.255  16.784   8.813  1.00  0.00     0.000 A 
ENDBRANCH  51  70
BRANCH  63  76
ATOM     76  C   UNL     1       0.864  12.723   2.816  1.00  0.00    -0.014 A 
ATOM     77  C   UNL     1       0.551  13.888   2.114  1.00  0.00     0.009 A 
ATOM     78  C   UNL     1      -0.165  11.765   2.961  1.00  0.00     0.009 A 
ATOM     79  C   UNL     1      -0.723  14.076   1.555  1.00  0.00     0.001 A 
ATOM     80  C   UNL     1      -1.429  11.933   2.379  1.00  0.00     0.001 A 
ATOM     81  C   UNL     1      -1.708  13.096   1.674  1.00  0.00     0.000 A 
ENDBRANCH  63  76
ENDBRANCH  37  38
ENDBRANCH  30  32
ENDBRANCH  29  30
ENDBRANCH  28  29
ENDBRANCH   1  28
TORSDOF 15
