REMARK SMILES C[N@H+]1CCO[C@@H](CN2C[C@H](C(=O)OCCOC(=O)c3ccc(-c4c5nc(c(-c6ccccc6)c6ccc([nH]6)c(-c6ccccc6)c6nc(c(-c7ccccc7)c7ccc4[nH]7)C=C6)C=C5)cc3)CC2=O)C1
REMARK SMILES IDX 14 1 13 2 11 3 12 4 10 5 8 6 9 7 68 8 67 9 69 10 7 11 6 12
REMARK SMILES IDX 1 13 2 14 3 15 70 16 4 18 5 19 15 20 16 21 17 22 18 23 19 24
REMARK SMILES IDX 20 25 66 26 21 27 65 28 22 29 23 30 24 31 59 32 25 33 64 34
REMARK SMILES IDX 58 35 60 36 26 37 63 38 57 39 56 40 27 42 49 43 34 44 48 45
REMARK SMILES IDX 35 46 38 47 47 48 61 49 36 50 37 51 46 53 62 54 39 55 28 56
REMARK SMILES IDX 29 57 33 58 30 59 32 60 31 61 50 62 51 63 55 64 52 65 54 66
REMARK SMILES IDX 53 67 40 68 41 69 45 70 42 71 44 72 43 73
REMARK H PARENT 2 17 60 41 38 52
REMARK Flexibility Score: inf
ROOT
ATOM      1  C   UNL     1       7.099   0.954   4.572  1.00  0.00     0.274 C 
ENDROOT
BRANCH   1   2
ATOM      2  O   UNL     1       5.760   1.346   4.203  1.00  0.00    -0.462 OA
BRANCH   2   3
ATOM      3  C   UNL     1       5.148   0.548   3.284  1.00  0.00     0.311 C 
ATOM      4  O   UNL     1       5.633  -0.471   2.813  1.00  0.00    -0.252 OA
BRANCH   3   5
ATOM      5  C   UNL     1       3.810   1.129   2.870  1.00  0.00     0.128 C 
ATOM      6  N   UNL     1       2.322  -0.591   2.309  1.00  0.00    -0.339 N 
ATOM      7  C   UNL     1       3.230   0.350   1.702  1.00  0.00     0.135 C 
ATOM      8  C   UNL     1       1.973  -0.225   3.595  1.00  0.00     0.223 C 
ATOM      9  C   UNL     1       2.749   1.019   3.963  1.00  0.00     0.117 C 
ATOM     10  O   UNL     1       1.184  -0.799   4.325  1.00  0.00    -0.275 OA
BRANCH   6  11
ATOM     11  C   UNL     1       2.032  -1.876   1.686  1.00  0.00     0.157 C 
BRANCH  11  12
ATOM     12  C   UNL     1       0.570  -2.358   1.708  1.00  0.00     0.192 C 
ATOM     13  C   UNL     1       0.542  -0.311  -0.857  1.00  0.00     0.332 C 
ATOM     14  N   UNL     1      -0.463  -1.230  -0.350  1.00  0.00    -0.333 N 
ATOM     15  C   UNL     1      -0.418  -2.557  -0.987  1.00  0.00     0.290 C 
ATOM     16  C   UNL     1      -0.460  -1.373   1.117  1.00  0.00     0.296 C 
ATOM     17  H   UNL     1      -1.343  -0.786  -0.612  1.00  0.00     0.348 HD
ATOM     18  C   UNL     1       0.572  -3.559  -0.366  1.00  0.00     0.222 C 
ATOM     19  O   UNL     1       0.457  -3.643   1.057  1.00  0.00    -0.365 OA
ENDBRANCH  11  12
ENDBRANCH   6  11
ENDBRANCH   3   5
ENDBRANCH   2   3
ENDBRANCH   1   2
BRANCH   1  20
ATOM     20  C   UNL     1       7.114   0.218   5.908  1.00  0.00     0.275 C 
BRANCH  20  21
ATOM     21  O   UNL     1       6.336  -0.988   5.814  1.00  0.00    -0.458 OA
BRANCH  21  22
ATOM     22  C   UNL     1       5.306  -1.090   6.684  1.00  0.00     0.338 C 
ATOM     23  O   UNL     1       4.992  -0.301   7.559  1.00  0.00    -0.246 OA
BRANCH  22  24
ATOM     24  C   UNL     1       4.550  -2.324   6.415  1.00  0.00     0.060 A 
ATOM     25  C   UNL     1       3.900  -2.468   5.195  1.00  0.00     0.016 A 
ATOM     26  C   UNL     1       4.357  -3.267   7.426  1.00  0.00     0.016 A 
ATOM     27  C   UNL     1       2.981  -3.499   5.018  1.00  0.00     0.010 A 
ATOM     28  C   UNL     1       3.508  -4.361   7.202  1.00  0.00     0.010 A 
ATOM     29  C   UNL     1       2.783  -4.470   6.004  1.00  0.00    -0.014 A 
BRANCH  29  30
ATOM     30  C   UNL     1       1.770  -5.540   5.785  1.00  0.00     0.031 A 
ATOM     31  C   UNL     1       0.582  -5.657   6.703  1.00  0.00     0.074 A 
ATOM     32  C   UNL     1       1.858  -6.369   4.724  1.00  0.00     0.049 A 
ATOM     33  N   UNL     1      -0.314  -6.609   6.782  1.00  0.00    -0.248 NA
ATOM     34  C   UNL     1       0.378  -4.559   7.660  1.00  0.00     0.031 C 
ATOM     35  C   UNL     1       2.885  -6.312   3.681  1.00  0.00     0.029 A 
ATOM     36  N   UNL     1       1.049  -7.409   4.333  1.00  0.00    -0.354 N 
ATOM     37  C   UNL     1      -1.151  -6.254   7.831  1.00  0.00     0.074 A 
ATOM     38  C   UNL     1      -0.660  -4.999   8.358  1.00  0.00     0.031 C 
ATOM     39  C   UNL     1       2.613  -7.235   2.746  1.00  0.00     0.029 A 
ATOM     40  C   UNL     1       1.456  -8.016   3.170  1.00  0.00     0.049 A 
ATOM     41  H   UNL     1       0.254  -7.692   4.839  1.00  0.00     0.167 HD
ATOM     42  C   UNL     1      -2.229  -6.917   8.316  1.00  0.00     0.031 A 
ATOM     43  C   UNL     1       0.985  -9.105   2.534  1.00  0.00     0.031 A 
ATOM     44  C   UNL     1      -2.749  -8.141   7.765  1.00  0.00     0.049 A 
ATOM     45  C   UNL     1      -0.160  -9.870   3.135  1.00  0.00     0.074 A 
ATOM     46  C   UNL     1      -3.819  -8.901   8.206  1.00  0.00     0.029 A 
ATOM     47  N   UNL     1      -2.251  -8.770   6.635  1.00  0.00    -0.354 N 
ATOM     48  N   UNL     1      -0.874  -9.589   4.197  1.00  0.00    -0.248 NA
ATOM     49  C   UNL     1      -0.544 -11.120   2.463  1.00  0.00     0.031 C 
ATOM     50  C   UNL     1      -3.942 -10.014   7.366  1.00  0.00     0.029 A 
ATOM     51  C   UNL     1      -2.980  -9.919   6.374  1.00  0.00     0.049 A 
ATOM     52  H   UNL     1      -1.492  -8.449   6.097  1.00  0.00     0.167 HD
ATOM     53  C   UNL     1      -1.794 -10.621   4.318  1.00  0.00     0.074 A 
ATOM     54  C   UNL     1      -1.565 -11.522   3.207  1.00  0.00     0.031 C 
ATOM     55  C   UNL     1      -2.739 -10.810   5.271  1.00  0.00     0.031 A 
BRANCH  42  56
ATOM     56  C   UNL     1      -2.880  -6.362   9.551  1.00  0.00    -0.014 A 
ATOM     57  C   UNL     1      -3.686  -5.215   9.512  1.00  0.00     0.009 A 
ATOM     58  C   UNL     1      -2.695  -7.023  10.777  1.00  0.00     0.009 A 
ATOM     59  C   UNL     1      -4.266  -4.722  10.683  1.00  0.00     0.001 A 
ATOM     60  C   UNL     1      -3.297  -6.543  11.940  1.00  0.00     0.001 A 
ATOM     61  C   UNL     1      -4.075  -5.387  11.894  1.00  0.00     0.000 A 
ENDBRANCH  42  56
BRANCH  43  62
ATOM     62  C   UNL     1       1.648  -9.589   1.294  1.00  0.00    -0.014 A 
ATOM     63  C   UNL     1       0.983  -9.543   0.060  1.00  0.00     0.009 A 
ATOM     64  C   UNL     1       2.949 -10.116   1.343  1.00  0.00     0.009 A 
ATOM     65  C   UNL     1       1.601 -10.029  -1.095  1.00  0.00     0.001 A 
ATOM     66  C   UNL     1       3.577 -10.570   0.183  1.00  0.00     0.001 A 
ATOM     67  C   UNL     1       2.899 -10.535  -1.034  1.00  0.00     0.000 A 
ENDBRANCH  43  62
BRANCH  55  68
ATOM     68  C   UNL     1      -3.609 -12.027   5.138  1.00  0.00    -0.014 A 
ATOM     69  C   UNL     1      -3.115 -13.307   5.432  1.00  0.00     0.009 A 
ATOM     70  C   UNL     1      -4.947 -11.886   4.738  1.00  0.00     0.009 A 
ATOM     71  C   UNL     1      -3.938 -14.427   5.298  1.00  0.00     0.001 A 
ATOM     72  C   UNL     1      -5.773 -13.006   4.629  1.00  0.00     0.001 A 
ATOM     73  C   UNL     1      -5.266 -14.275   4.901  1.00  0.00     0.000 A 
ENDBRANCH  55  68
ENDBRANCH  29  30
ENDBRANCH  22  24
ENDBRANCH  21  22
ENDBRANCH  20  21
ENDBRANCH   1  20
TORSDOF 13
