REMARK SMILES C[C@H]1OCC[C@@H]1C(=O)Nc1sc2c(c1C(=O)OCCOC(=O)c1ccc(-c3c4nc(c(-c5ccccc5)c5ccc([nH]5)c(-c5ccccc5)c5nc(c(-c6ccccc6)c6ccc3[nH]6)C=C5)C=C4)cc1)CCC2
REMARK SMILES IDX 18 1 17 2 15 3 16 4 14 5 10 6 11 7 12 8 13 9 73 10 71 11
REMARK SMILES IDX 72 12 9 13 7 14 8 15 6 17 1 18 2 19 3 20 4 21 5 22 19 23
REMARK SMILES IDX 20 24 21 25 22 26 23 27 24 28 70 29 25 30 69 31 26 32 27 33
REMARK SMILES IDX 28 34 63 35 29 36 68 37 62 38 64 39 30 40 67 41 61 42 60 43
REMARK SMILES IDX 31 45 53 46 38 47 52 48 39 49 42 50 51 51 65 52 40 53 41 54
REMARK SMILES IDX 50 56 66 57 43 58 32 59 33 60 37 61 34 62 36 63 35 64 54 65
REMARK SMILES IDX 55 66 59 67 56 68 58 69 57 70 44 71 45 72 49 73 46 74 48 75
REMARK SMILES IDX 47 76
REMARK H PARENT 9 16 64 44 42 55
REMARK Flexibility Score: inf
ROOT
ATOM      1  C   UNL     1      -4.841  -0.222  -0.023  1.00  0.00     0.275 C 
ENDROOT
BRANCH   1   2
ATOM      2  O   UNL     1      -4.045   0.209   1.100  1.00  0.00    -0.458 OA
BRANCH   2   3
ATOM      3  C   UNL     1      -3.356  -0.779   1.752  1.00  0.00     0.341 C 
ATOM      4  O   UNL     1      -3.416  -1.957   1.464  1.00  0.00    -0.246 OA
BRANCH   3   5
ATOM      5  C   UNL     1      -2.501  -0.256   2.819  1.00  0.00     0.098 A 
ATOM      6  C   UNL     1      -1.282  -0.834   3.154  1.00  0.00     0.110 A 
ATOM      7  S   UNL     1      -0.593  -0.239   4.605  1.00  0.00    -0.122 S 
ATOM      8  C   UNL     1      -1.613   1.075   4.515  1.00  0.00     0.011 A 
ATOM      9  C   UNL     1      -2.571   0.978   3.537  1.00  0.00    -0.017 A 
ATOM     10  C   UNL     1      -1.555   2.388   5.193  1.00  0.00     0.047 C 
ATOM     11  C   UNL     1      -3.304   2.268   3.411  1.00  0.00     0.038 C 
ATOM     12  C   UNL     1      -2.346   3.251   4.168  1.00  0.00     0.010 C 
BRANCH   6  13
ATOM     13  N   UNL     1      -0.479  -1.727   2.486  1.00  0.00    -0.317 N 
ATOM     14  C   UNL     1       0.571  -1.293   1.712  1.00  0.00     0.230 C 
ATOM     15  O   UNL     1       1.599  -1.982   1.749  1.00  0.00    -0.274 OA
ATOM     16  H   UNL     1      -0.657  -2.692   2.564  1.00  0.00     0.170 HD
BRANCH  14  17
ATOM     17  C   UNL     1       0.512  -0.117   0.726  1.00  0.00     0.110 C 
ATOM     18  C   UNL     1       2.843   0.609   0.022  1.00  0.00     0.039 C 
ATOM     19  C   UNL     1       1.636   0.908   0.902  1.00  0.00     0.127 C 
ATOM     20  O   UNL     1       1.106   2.186   0.462  1.00  0.00    -0.378 OA
ATOM     21  C   UNL     1      -0.120   1.926  -0.230  1.00  0.00     0.161 C 
ATOM     22  C   UNL     1      -0.692   0.762   0.530  1.00  0.00     0.044 C 
ENDBRANCH  14  17
ENDBRANCH   6  13
ENDBRANCH   3   5
ENDBRANCH   2   3
ENDBRANCH   1   2
BRANCH   1  23
ATOM     23  C   UNL     1      -4.039  -0.175  -1.316  1.00  0.00     0.275 C 
BRANCH  23  24
ATOM     24  O   UNL     1      -3.147  -1.295  -1.433  1.00  0.00    -0.458 OA
BRANCH  24  25
ATOM     25  C   UNL     1      -2.221  -1.052  -2.384  1.00  0.00     0.338 C 
ATOM     26  O   UNL     1      -2.086  -0.004  -3.005  1.00  0.00    -0.246 OA
BRANCH  25  27
ATOM     27  C   UNL     1      -1.291  -2.162  -2.628  1.00  0.00     0.060 A 
ATOM     28  C   UNL     1      -0.351  -2.445  -1.637  1.00  0.00     0.016 A 
ATOM     29  C   UNL     1      -0.985  -2.331  -3.979  1.00  0.00     0.016 A 
ATOM     30  C   UNL     1       0.987  -2.547  -2.006  1.00  0.00     0.010 A 
ATOM     31  C   UNL     1       0.336  -2.480  -4.343  1.00  0.00     0.010 A 
ATOM     32  C   UNL     1       1.333  -2.451  -3.357  1.00  0.00    -0.014 A 
BRANCH  32  33
ATOM     33  C   UNL     1       2.744  -2.472  -3.777  1.00  0.00     0.031 A 
ATOM     34  C   UNL     1       3.462  -3.753  -3.501  1.00  0.00     0.074 A 
ATOM     35  C   UNL     1       3.206  -1.514  -4.618  1.00  0.00     0.049 A 
ATOM     36  N   UNL     1       4.727  -3.964  -3.314  1.00  0.00    -0.248 NA
ATOM     37  C   UNL     1       2.631  -4.972  -3.381  1.00  0.00     0.031 C 
ATOM     38  C   UNL     1       2.458  -0.332  -5.074  1.00  0.00     0.029 A 
ATOM     39  N   UNL     1       4.326  -1.492  -5.413  1.00  0.00    -0.354 N 
ATOM     40  C   UNL     1       4.862  -5.350  -3.234  1.00  0.00     0.074 A 
ATOM     41  C   UNL     1       3.541  -5.907  -3.141  1.00  0.00     0.031 C 
ATOM     42  C   UNL     1       2.984   0.103  -6.236  1.00  0.00     0.029 A 
ATOM     43  C   UNL     1       4.139  -0.716  -6.561  1.00  0.00     0.049 A 
ATOM     44  H   UNL     1       5.162  -1.966  -5.199  1.00  0.00     0.167 HD
ATOM     45  C   UNL     1       6.013  -5.994  -3.556  1.00  0.00     0.031 A 
ATOM     46  C   UNL     1       4.779  -0.813  -7.753  1.00  0.00     0.031 A 
ATOM     47  C   UNL     1       7.180  -5.188  -3.368  1.00  0.00     0.049 A 
ATOM     48  C   UNL     1       5.984  -1.645  -7.575  1.00  0.00     0.074 A 
ATOM     49  C   UNL     1       7.761  -4.550  -2.292  1.00  0.00     0.029 A 
ATOM     50  N   UNL     1       7.807  -4.707  -4.487  1.00  0.00    -0.354 N 
ATOM     51  N   UNL     1       7.061  -1.260  -6.959  1.00  0.00    -0.248 NA
ATOM     52  C   UNL     1       5.892  -3.073  -7.838  1.00  0.00     0.031 C 
ATOM     53  C   UNL     1       8.430  -3.420  -2.838  1.00  0.00     0.029 A 
ATOM     54  C   UNL     1       8.229  -3.433  -4.219  1.00  0.00     0.049 A 
ATOM     55  H   UNL     1       7.931  -5.193  -5.335  1.00  0.00     0.167 HD
ATOM     56  C   UNL     1       7.561  -2.415  -6.380  1.00  0.00     0.074 A 
ATOM     57  C   UNL     1       6.902  -3.508  -7.083  1.00  0.00     0.031 C 
ATOM     58  C   UNL     1       8.229  -2.364  -5.191  1.00  0.00     0.031 A 
BRANCH  45  59
ATOM     59  C   UNL     1       5.990  -7.201  -4.465  1.00  0.00    -0.014 A 
ATOM     60  C   UNL     1       7.175  -7.917  -4.689  1.00  0.00     0.009 A 
ATOM     61  C   UNL     1       4.908  -7.477  -5.329  1.00  0.00     0.009 A 
ATOM     62  C   UNL     1       7.283  -8.822  -5.753  1.00  0.00     0.001 A 
ATOM     63  C   UNL     1       4.996  -8.412  -6.361  1.00  0.00     0.001 A 
ATOM     64  C   UNL     1       6.196  -9.066  -6.589  1.00  0.00     0.000 A 
ENDBRANCH  45  59
BRANCH  46  65
ATOM     65  C   UNL     1       4.298  -0.438  -9.106  1.00  0.00    -0.014 A 
ATOM     66  C   UNL     1       5.203  -0.283 -10.170  1.00  0.00     0.009 A 
ATOM     67  C   UNL     1       2.926  -0.444  -9.420  1.00  0.00     0.009 A 
ATOM     68  C   UNL     1       4.752  -0.159 -11.492  1.00  0.00     0.001 A 
ATOM     69  C   UNL     1       2.474  -0.304 -10.737  1.00  0.00     0.001 A 
ATOM     70  C   UNL     1       3.389  -0.175 -11.775  1.00  0.00     0.000 A 
ENDBRANCH  46  65
BRANCH  58  71
ATOM     71  C   UNL     1       8.717  -1.020  -4.716  1.00  0.00    -0.014 A 
ATOM     72  C   UNL     1       7.854   0.064  -4.478  1.00  0.00     0.009 A 
ATOM     73  C   UNL     1      10.070  -0.885  -4.368  1.00  0.00     0.009 A 
ATOM     74  C   UNL     1       8.339   1.262  -3.948  1.00  0.00     0.001 A 
ATOM     75  C   UNL     1      10.549   0.303  -3.812  1.00  0.00     0.001 A 
ATOM     76  C   UNL     1       9.685   1.378  -3.610  1.00  0.00     0.000 A 
ENDBRANCH  58  71
ENDBRANCH  32  33
ENDBRANCH  25  27
ENDBRANCH  24  25
ENDBRANCH  23  24
ENDBRANCH   1  23
TORSDOF 13
