REMARK SMILES O=C(OCCOC(=O)[C@H]1CC=CC[C@@H]1C(=O)N[C@@H]1CCCN(c2ccccc2F)C1=O)c1ccc(-c2c3nc(c(-c4ccccc4)c4ccc([nH]4)c(-c4ccccc4)c4nc(c(-c5ccccc5)c5ccc2[nH]5)C=C4)C=C3)cc1
REMARK SMILES IDX 5 1 4 2 3 3 2 4 1 5 32 6 33 7 79 8 34 9 78 10 35 11 36 12
REMARK SMILES IDX 37 13 72 14 38 15 77 16 71 17 73 18 39 19 76 20 70 21 69 22
REMARK SMILES IDX 40 24 62 25 47 26 61 27 48 28 51 29 60 30 74 31 49 32 50 33
REMARK SMILES IDX 59 35 75 36 52 37 41 38 42 39 46 40 43 41 45 42 44 43 63 44
REMARK SMILES IDX 64 45 68 46 65 47 67 48 66 49 53 50 54 51 58 52 55 53 57 54
REMARK SMILES IDX 56 55 6 56 7 57 8 58 9 59 10 60 14 61 11 62 13 63 12 64
REMARK SMILES IDX 15 65 16 66 17 67 18 69 19 70 30 71 20 72 22 73 31 74 21 75
REMARK SMILES IDX 23 76 24 77 28 78 25 79 27 80 29 81 26 82
REMARK H PARENT 73 23 51 34 17 68
REMARK Flexibility Score: inf
ROOT
ATOM      1  C   UNL     1       2.163   2.672  -1.112  1.00  0.00     0.274 C 
ENDROOT
BRANCH   1   2
ATOM      2  C   UNL     1       3.374   3.441  -1.627  1.00  0.00     0.275 C 
BRANCH   2   3
ATOM      3  O   UNL     1       4.339   3.790  -0.612  1.00  0.00    -0.458 OA
BRANCH   3   4
ATOM      4  C   UNL     1       4.372   4.787   0.304  1.00  0.00     0.338 C 
ATOM      5  O   UNL     1       5.336   4.847   1.067  1.00  0.00    -0.246 OA
BRANCH   4   6
ATOM      6  C   UNL     1       3.274   5.787   0.519  1.00  0.00     0.060 A 
ATOM      7  C   UNL     1       2.370   6.231  -0.447  1.00  0.00     0.016 A 
ATOM      8  C   UNL     1       3.159   6.331   1.817  1.00  0.00     0.016 A 
ATOM      9  C   UNL     1       1.331   7.115  -0.116  1.00  0.00     0.010 A 
ATOM     10  C   UNL     1       2.115   7.204   2.158  1.00  0.00     0.010 A 
ATOM     11  C   UNL     1       1.184   7.598   1.188  1.00  0.00    -0.014 A 
BRANCH  11  12
ATOM     12  C   UNL     1       0.164   8.638   1.474  1.00  0.00     0.031 A 
ATOM     13  C   UNL     1       0.612  10.069   1.469  1.00  0.00     0.074 A 
ATOM     14  C   UNL     1      -1.144   8.351   1.631  1.00  0.00     0.049 A 
ATOM     15  N   UNL     1      -0.122  11.149   1.497  1.00  0.00    -0.248 NA
ATOM     16  C   UNL     1       2.058  10.315   1.336  1.00  0.00     0.031 C 
ATOM     17  C   UNL     1      -1.744   7.029   1.508  1.00  0.00     0.029 A 
ATOM     18  N   UNL     1      -2.219   9.154   1.924  1.00  0.00    -0.354 N 
ATOM     19  C   UNL     1       0.761  12.194   1.276  1.00  0.00     0.074 A 
ATOM     20  C   UNL     1       2.093  11.634   1.227  1.00  0.00     0.031 C 
ATOM     21  C   UNL     1      -3.047   7.082   1.827  1.00  0.00     0.029 A 
ATOM     22  C   UNL     1      -3.394   8.462   2.115  1.00  0.00     0.049 A 
ATOM     23  H   UNL     1      -2.155  10.134   1.990  1.00  0.00     0.167 HD
ATOM     24  C   UNL     1       0.476  13.499   1.067  1.00  0.00     0.031 A 
ATOM     25  C   UNL     1      -4.620   8.897   2.453  1.00  0.00     0.031 A 
ATOM     26  C   UNL     1      -0.837  14.063   1.207  1.00  0.00     0.049 A 
ATOM     27  C   UNL     1      -4.865  10.371   2.474  1.00  0.00     0.074 A 
ATOM     28  C   UNL     1      -1.231  15.381   1.070  1.00  0.00     0.029 A 
ATOM     29  N   UNL     1      -1.969  13.339   1.553  1.00  0.00    -0.354 N 
ATOM     30  N   UNL     1      -4.024  11.345   2.232  1.00  0.00    -0.248 NA
ATOM     31  C   UNL     1      -6.245  10.798   2.732  1.00  0.00     0.031 C 
ATOM     32  C   UNL     1      -2.588  15.464   1.400  1.00  0.00     0.029 A 
ATOM     33  C   UNL     1      -3.054  14.189   1.676  1.00  0.00     0.049 A 
ATOM     34  H   UNL     1      -1.996  12.364   1.690  1.00  0.00     0.167 HD
ATOM     35  C   UNL     1      -4.782  12.503   2.254  1.00  0.00     0.074 A 
ATOM     36  C   UNL     1      -6.147  12.105   2.544  1.00  0.00     0.031 C 
ATOM     37  C   UNL     1      -4.391  13.778   2.020  1.00  0.00     0.031 A 
BRANCH  24  38
ATOM     38  C   UNL     1       1.627  14.378   0.679  1.00  0.00    -0.014 A 
ATOM     39  C   UNL     1       2.216  14.267  -0.593  1.00  0.00     0.009 A 
ATOM     40  C   UNL     1       2.149  15.300   1.595  1.00  0.00     0.009 A 
ATOM     41  C   UNL     1       3.329  15.039  -0.926  1.00  0.00     0.001 A 
ATOM     42  C   UNL     1       3.248  16.088   1.249  1.00  0.00     0.001 A 
ATOM     43  C   UNL     1       3.843  15.950  -0.005  1.00  0.00     0.000 A 
ENDBRANCH  24  38
BRANCH  25  44
ATOM     44  C   UNL     1      -5.724   7.963   2.789  1.00  0.00    -0.014 A 
ATOM     45  C   UNL     1      -6.680   7.567   1.845  1.00  0.00     0.009 A 
ATOM     46  C   UNL     1      -5.876   7.549   4.120  1.00  0.00     0.009 A 
ATOM     47  C   UNL     1      -7.767   6.775   2.231  1.00  0.00     0.001 A 
ATOM     48  C   UNL     1      -6.954   6.744   4.501  1.00  0.00     0.001 A 
ATOM     49  C   UNL     1      -7.900   6.359   3.556  1.00  0.00     0.000 A 
ENDBRANCH  25  44
BRANCH  37  50
ATOM     50  C   UNL     1      -5.470  14.817   2.062  1.00  0.00    -0.014 A 
ATOM     51  C   UNL     1      -6.091  15.175   3.269  1.00  0.00     0.009 A 
ATOM     52  C   UNL     1      -5.884  15.429   0.869  1.00  0.00     0.009 A 
ATOM     53  C   UNL     1      -7.143  16.090   3.271  1.00  0.00     0.001 A 
ATOM     54  C   UNL     1      -6.911  16.371   0.881  1.00  0.00     0.001 A 
ATOM     55  C   UNL     1      -7.549  16.689   2.079  1.00  0.00     0.000 A 
ENDBRANCH  37  50
ENDBRANCH  11  12
ENDBRANCH   4   6
ENDBRANCH   3   4
ENDBRANCH   2   3
ENDBRANCH   1   2
BRANCH   1  56
ATOM     56  O   UNL     1       1.651   3.266   0.079  1.00  0.00    -0.462 OA
BRANCH  56  57
ATOM     57  C   UNL     1       1.934   2.657   1.267  1.00  0.00     0.310 C 
ATOM     58  O   UNL     1       2.585   1.625   1.380  1.00  0.00    -0.252 OA
BRANCH  57  59
ATOM     59  C   UNL     1       1.374   3.473   2.429  1.00  0.00     0.115 C 
ATOM     60  C   UNL     1       0.140   4.256   1.987  1.00  0.00     0.043 C 
ATOM     61  C   UNL     1       1.016   2.605   3.641  1.00  0.00     0.097 C 
ATOM     62  C   UNL     1      -1.035   3.357   1.728  1.00  0.00    -0.030 C 
ATOM     63  C   UNL     1      -0.104   1.622   3.277  1.00  0.00     0.041 C 
ATOM     64  C   UNL     1      -1.121   2.146   2.294  1.00  0.00    -0.030 C 
BRANCH  61  65
ATOM     65  C   UNL     1       0.961   3.503   4.903  1.00  0.00     0.224 C 
ATOM     66  O   UNL     1       2.032   3.808   5.449  1.00  0.00    -0.275 OA
ATOM     67  N   UNL     1      -0.136   4.123   5.414  1.00  0.00    -0.344 N 
ATOM     68  H   UNL     1       0.054   4.776   6.127  1.00  0.00     0.164 HD
BRANCH  67  69
ATOM     69  C   UNL     1      -1.539   3.980   5.081  1.00  0.00     0.172 C 
ATOM     70  C   UNL     1      -2.441   5.094   5.577  1.00  0.00     0.037 C 
ATOM     71  C   UNL     1      -2.117   2.663   5.602  1.00  0.00     0.249 C 
ATOM     72  C   UNL     1      -3.801   4.904   4.913  1.00  0.00     0.025 C 
ATOM     73  N   UNL     1      -3.368   2.403   5.024  1.00  0.00    -0.308 N 
ATOM     74  O   UNL     1      -1.444   1.914   6.301  1.00  0.00    -0.272 OA
ATOM     75  C   UNL     1      -4.359   3.477   4.982  1.00  0.00     0.126 C 
BRANCH  73  76
ATOM     76  C   UNL     1      -3.720   1.082   4.590  1.00  0.00     0.080 A 
ATOM     77  C   UNL     1      -4.398   0.922   3.368  1.00  0.00     0.029 A 
ATOM     78  C   UNL     1      -3.280  -0.084   5.237  1.00  0.00     0.146 A 
ATOM     79  C   UNL     1      -4.562  -0.346   2.792  1.00  0.00     0.002 A 
ATOM     80  C   UNL     1      -3.438  -1.345   4.665  1.00  0.00     0.041 A 
ATOM     81  F   UNL     1      -2.765  -0.048   6.472  1.00  0.00    -0.205 F 
ATOM     82  C   UNL     1      -4.067  -1.478   3.433  1.00  0.00     0.003 A 
ENDBRANCH  73  76
ENDBRANCH  67  69
ENDBRANCH  61  65
ENDBRANCH  57  59
ENDBRANCH  56  57
ENDBRANCH   1  56
TORSDOF 14
