REMARK SMILES O=C(CCOc1cccc(/C=C2\CCn3c2nc2cc(Cl)ccc2c3=O)c1)OCCOC(=O)c1ccc(-c2c3nc(c(-c4ccccc4)c4ccc([nH]4)c(-c4ccccc4)c4nc(c(-c5ccccc5)c5ccc2[nH]5)C=C4)C=C3)cc1
REMARK SMILES IDX 29 1 28 2 2 3 1 4 3 5 4 6 5 7 6 8 7 9 27 10 8 11 10 12 9 13
REMARK SMILES IDX 11 14 12 15 13 16 16 17 14 18 15 19 17 20 25 21 18 22 24 23
REMARK SMILES IDX 26 24 19 25 23 26 20 27 22 28 21 29 30 30 31 31 32 32 33 33
REMARK SMILES IDX 34 34 35 35 81 36 36 37 80 38 37 39 38 40 39 41 74 42 40 43
REMARK SMILES IDX 79 44 73 45 75 46 41 47 78 48 72 49 71 50 42 52 64 53 49 54
REMARK SMILES IDX 63 55 50 56 53 57 62 58 76 59 51 60 52 61 61 63 77 64 54 65
REMARK SMILES IDX 43 66 44 67 48 68 45 69 47 70 46 71 65 72 66 73 70 74 67 75
REMARK SMILES IDX 69 76 68 77 55 78 56 79 60 80 57 81 59 82 58 83
REMARK H PARENT 75 51 53 62
REMARK Flexibility Score: inf
ROOT
ATOM      1  C   UNL     1       4.673   0.895  -0.185  1.00  0.00     0.274 C 
ENDROOT
BRANCH   1   2
ATOM      2  O   UNL     1       3.264   0.630  -0.366  1.00  0.00    -0.462 OA
BRANCH   2   3
ATOM      3  C   UNL     1       2.598  -0.437   0.128  1.00  0.00     0.309 C 
ATOM      4  O   UNL     1       1.374  -0.507   0.021  1.00  0.00    -0.252 OA
BRANCH   3   5
ATOM      5  C   UNL     1       3.358  -1.579   0.744  1.00  0.00     0.164 C 
BRANCH   5   6
ATOM      6  C   UNL     1       3.519  -2.724  -0.244  1.00  0.00     0.241 C 
BRANCH   6   7
ATOM      7  O   UNL     1       4.580  -2.488  -1.168  1.00  0.00    -0.493 OA
BRANCH   7   8
ATOM      8  C   UNL     1       4.297  -1.951  -2.394  1.00  0.00     0.119 A 
ATOM      9  C   UNL     1       5.394  -1.883  -3.247  1.00  0.00     0.046 A 
ATOM     10  C   UNL     1       3.076  -1.411  -2.813  1.00  0.00     0.054 A 
ATOM     11  C   UNL     1       5.258  -1.329  -4.514  1.00  0.00     0.004 A 
ATOM     12  C   UNL     1       2.953  -0.714  -4.032  1.00  0.00    -0.022 A 
ATOM     13  C   UNL     1       4.040  -0.767  -4.907  1.00  0.00     0.008 A 
BRANCH  12  14
ATOM     14  C   UNL     1       1.761   0.183  -4.178  1.00  0.00     0.015 C 
ATOM     15  C   UNL     1       1.758   1.378  -4.813  1.00  0.00    -0.003 C 
ATOM     16  C   UNL     1       2.631   1.927  -5.903  1.00  0.00     0.061 C 
ATOM     17  C   UNL     1       1.714   2.508  -3.819  1.00  0.00     0.139 A 
ATOM     18  C   UNL     1       3.673   2.689  -5.104  1.00  0.00     0.132 C 
ATOM     19  N   UNL     1       2.961   3.108  -3.922  1.00  0.00    -0.292 N 
ATOM     20  N   UNL     1       0.814   2.866  -2.975  1.00  0.00    -0.230 NA
ATOM     21  C   UNL     1       3.520   3.780  -2.869  1.00  0.00     0.261 A 
ATOM     22  C   UNL     1       1.193   3.884  -2.066  1.00  0.00     0.080 A 
ATOM     23  C   UNL     1       2.539   4.236  -1.867  1.00  0.00     0.066 A 
ATOM     24  O   UNL     1       4.721   3.987  -2.735  1.00  0.00    -0.269 OA
ATOM     25  C   UNL     1       0.225   4.525  -1.294  1.00  0.00     0.049 A 
ATOM     26  C   UNL     1       2.935   5.076  -0.823  1.00  0.00     0.017 A 
ATOM     27  C   UNL     1       0.611   5.421  -0.291  1.00  0.00     0.043 A 
ATOM     28  C   UNL     1       1.960   5.661  -0.021  1.00  0.00     0.021 A 
ATOM     29  Cl  UNL     1      -0.588   6.254   0.622  1.00  0.00    -0.084 Cl
ENDBRANCH  12  14
ENDBRANCH   7   8
ENDBRANCH   6   7
ENDBRANCH   5   6
ENDBRANCH   3   5
ENDBRANCH   2   3
ENDBRANCH   1   2
BRANCH   1  30
ATOM     30  C   UNL     1       4.890   1.823   1.010  1.00  0.00     0.275 C 
BRANCH  30  31
ATOM     31  O   UNL     1       4.383   1.201   2.204  1.00  0.00    -0.458 OA
BRANCH  31  32
ATOM     32  C   UNL     1       3.117   1.553   2.543  1.00  0.00     0.338 C 
ATOM     33  O   UNL     1       2.443   2.445   2.054  1.00  0.00    -0.246 OA
BRANCH  32  34
ATOM     34  C   UNL     1       2.592   0.555   3.497  1.00  0.00     0.060 A 
ATOM     35  C   UNL     1       1.274   0.110   3.335  1.00  0.00     0.016 A 
ATOM     36  C   UNL     1       3.384   0.061   4.538  1.00  0.00     0.016 A 
ATOM     37  C   UNL     1       0.726  -0.792   4.246  1.00  0.00     0.010 A 
ATOM     38  C   UNL     1       2.834  -0.836   5.454  1.00  0.00     0.010 A 
ATOM     39  C   UNL     1       1.489  -1.229   5.337  1.00  0.00    -0.014 A 
BRANCH  39  40
ATOM     40  C   UNL     1       0.818  -1.894   6.476  1.00  0.00     0.031 A 
ATOM     41  C   UNL     1       0.386  -1.036   7.635  1.00  0.00     0.074 A 
ATOM     42  C   UNL     1       0.579  -3.216   6.481  1.00  0.00     0.049 A 
ATOM     43  N   UNL     1      -0.239  -1.375   8.733  1.00  0.00    -0.248 NA
ATOM     44  C   UNL     1       0.711   0.398   7.544  1.00  0.00     0.031 C 
ATOM     45  C   UNL     1       0.923  -4.146   5.407  1.00  0.00     0.029 A 
ATOM     46  N   UNL     1      -0.018  -4.003   7.433  1.00  0.00    -0.354 N 
ATOM     47  C   UNL     1      -0.380  -0.198   9.459  1.00  0.00     0.074 A 
ATOM     48  C   UNL     1       0.261   0.852   8.701  1.00  0.00     0.031 C 
ATOM     49  C   UNL     1       0.524  -5.382   5.759  1.00  0.00     0.029 A 
ATOM     50  C   UNL     1      -0.083  -5.330   7.088  1.00  0.00     0.049 A 
ATOM     51  H   UNL     1      -0.368  -3.649   8.282  1.00  0.00     0.167 HD
ATOM     52  C   UNL     1      -0.998  -0.005  10.648  1.00  0.00     0.031 A 
ATOM     53  C   UNL     1      -0.579  -6.379   7.772  1.00  0.00     0.031 A 
ATOM     54  C   UNL     1      -1.618  -1.052  11.411  1.00  0.00     0.049 A 
ATOM     55  C   UNL     1      -1.204  -6.149   9.124  1.00  0.00     0.074 A 
ATOM     56  C   UNL     1      -2.288  -0.960  12.618  1.00  0.00     0.029 A 
ATOM     57  N   UNL     1      -1.630  -2.389  11.044  1.00  0.00    -0.354 N 
ATOM     58  N   UNL     1      -1.379  -5.025   9.778  1.00  0.00    -0.248 NA
ATOM     59  C   UNL     1      -1.715  -7.336   9.825  1.00  0.00     0.031 C 
ATOM     60  C   UNL     1      -2.656  -2.252  13.009  1.00  0.00     0.029 A 
ATOM     61  C   UNL     1      -2.272  -3.138  12.015  1.00  0.00     0.049 A 
ATOM     62  H   UNL     1      -1.241  -2.751  10.216  1.00  0.00     0.167 HD
ATOM     63  C   UNL     1      -2.056  -5.364  10.943  1.00  0.00     0.074 A 
ATOM     64  C   UNL     1      -2.267  -6.796  10.902  1.00  0.00     0.031 C 
ATOM     65  C   UNL     1      -2.474  -4.562  11.954  1.00  0.00     0.031 A 
BRANCH  52  66
ATOM     66  C   UNL     1      -0.992   1.392  11.204  1.00  0.00    -0.014 A 
ATOM     67  C   UNL     1      -1.746   2.419  10.612  1.00  0.00     0.009 A 
ATOM     68  C   UNL     1      -0.221   1.684  12.339  1.00  0.00     0.009 A 
ATOM     69  C   UNL     1      -1.693   3.718  11.122  1.00  0.00     0.001 A 
ATOM     70  C   UNL     1      -0.194   2.977  12.865  1.00  0.00     0.001 A 
ATOM     71  C   UNL     1      -0.921   3.994  12.249  1.00  0.00     0.000 A 
ENDBRANCH  52  66
BRANCH  53  72
ATOM     72  C   UNL     1      -0.526  -7.748   7.192  1.00  0.00    -0.014 A 
ATOM     73  C   UNL     1      -1.703  -8.400   6.794  1.00  0.00     0.009 A 
ATOM     74  C   UNL     1       0.698  -8.423   7.065  1.00  0.00     0.009 A 
ATOM     75  C   UNL     1      -1.659  -9.710   6.310  1.00  0.00     0.001 A 
ATOM     76  C   UNL     1       0.742  -9.722   6.554  1.00  0.00     0.001 A 
ATOM     77  C   UNL     1      -0.437 -10.368   6.187  1.00  0.00     0.000 A 
ENDBRANCH  53  72
BRANCH  65  78
ATOM     78  C   UNL     1      -3.245  -5.208  13.073  1.00  0.00    -0.014 A 
ATOM     79  C   UNL     1      -2.624  -6.058  14.000  1.00  0.00     0.009 A 
ATOM     80  C   UNL     1      -4.614  -4.926  13.220  1.00  0.00     0.009 A 
ATOM     81  C   UNL     1      -3.367  -6.646  15.026  1.00  0.00     0.001 A 
ATOM     82  C   UNL     1      -5.346  -5.488  14.265  1.00  0.00     0.001 A 
ATOM     83  C   UNL     1      -4.725  -6.357  15.161  1.00  0.00     0.000 A 
ENDBRANCH  65  78
ENDBRANCH  39  40
ENDBRANCH  32  34
ENDBRANCH  31  32
ENDBRANCH  30  31
ENDBRANCH   1  30
TORSDOF 15
