REMARK SMILES C=CCN(CC(=O)OCCOC(=O)c1ccc(-c2c3nc(c(-c4ccccc4)c4ccc([nH]4)c(-c4ccccc4)c4nc(c(-c5ccccc5)c5ccc2[nH]5)C=C4)C=C3)cc1)c1ccc([N+](=O)[O-])cc1Br
REMARK SMILES IDX 9 1 8 2 6 3 7 4 5 5 4 6 3 7 2 8 1 9 62 10 63 11 70 12 64 13
REMARK SMILES IDX 69 14 71 15 65 16 66 17 67 18 68 19 10 20 11 21 12 22 13 23
REMARK SMILES IDX 14 24 15 25 61 26 16 27 60 28 17 29 18 30 19 31 54 32 20 33
REMARK SMILES IDX 59 34 53 35 55 36 21 37 58 38 52 39 51 40 22 42 44 43 29 44
REMARK SMILES IDX 43 45 30 46 33 47 42 48 56 49 31 50 32 51 41 53 57 54 34 55
REMARK SMILES IDX 23 56 24 57 28 58 25 59 27 60 26 61 45 62 46 63 50 64 47 65
REMARK SMILES IDX 49 66 48 67 35 68 36 69 40 70 37 71 39 72 38 73
REMARK H PARENT 55 41 33 52
REMARK Flexibility Score: inf
ROOT
ATOM      1  C   UNL     1      -5.521   1.481   1.720  1.00  0.00     0.274 C 
ENDROOT
BRANCH   1   2
ATOM      2  O   UNL     1      -4.110   1.398   1.442  1.00  0.00    -0.461 OA
BRANCH   2   3
ATOM      3  C   UNL     1      -3.482   2.588   1.232  1.00  0.00     0.325 C 
ATOM      4  O   UNL     1      -4.053   3.676   1.201  1.00  0.00    -0.250 OA
BRANCH   3   5
ATOM      5  C   UNL     1      -1.972   2.478   1.038  1.00  0.00     0.239 C 
BRANCH   5   6
ATOM      6  N   UNL     1      -1.408   1.130   1.189  1.00  0.00    -0.356 N 
BRANCH   6   7
ATOM      7  C   UNL     1      -1.342   0.250   0.032  1.00  0.00     0.144 C 
BRANCH   7   8
ATOM      8  C   UNL     1      -0.017   0.462  -0.641  1.00  0.00    -0.014 C 
ATOM      9  C   UNL     1       0.929  -0.475  -0.789  1.00  0.00     0.006 C 
ENDBRANCH   7   8
ENDBRANCH   6   7
BRANCH   6  10
ATOM     10  C   UNL     1      -0.963   0.698   2.428  1.00  0.00     0.052 A 
ATOM     11  C   UNL     1      -1.698  -0.293   3.104  1.00  0.00     0.034 A 
ATOM     12  C   UNL     1       0.186   1.210   3.071  1.00  0.00     0.048 A 
ATOM     13  C   UNL     1      -1.339  -0.731   4.383  1.00  0.00     0.088 A 
ATOM     14  C   UNL     1       0.565   0.772   4.346  1.00  0.00     0.103 A 
ATOM     15  Br  UNL     1       1.329   2.490   2.242  1.00  0.00    -0.048 Br
ATOM     16  C   UNL     1      -0.212  -0.187   4.999  1.00  0.00     0.270 A 
BRANCH  16  17
ATOM     17  N   UNL     1       0.158  -0.615   6.348  1.00  0.00     0.062 N 
ATOM     18  O   UNL     1      -0.732  -1.094   7.065  1.00  0.00    -0.258 OA
ATOM     19  O   UNL     1       1.338  -0.461   6.693  1.00  0.00    -0.258 OA
ENDBRANCH  16  17
ENDBRANCH   6  10
ENDBRANCH   5   6
ENDBRANCH   3   5
ENDBRANCH   2   3
ENDBRANCH   1   2
BRANCH   1  20
ATOM     20  C   UNL     1      -5.784   1.420   3.222  1.00  0.00     0.275 C 
BRANCH  20  21
ATOM     21  O   UNL     1      -5.045   2.456   3.895  1.00  0.00    -0.458 OA
BRANCH  21  22
ATOM     22  C   UNL     1      -4.253   2.033   4.903  1.00  0.00     0.338 C 
ATOM     23  O   UNL     1      -4.136   0.892   5.328  1.00  0.00    -0.246 OA
BRANCH  22  24
ATOM     24  C   UNL     1      -3.523   3.165   5.496  1.00  0.00     0.060 A 
ATOM     25  C   UNL     1      -2.693   3.975   4.717  1.00  0.00     0.016 A 
ATOM     26  C   UNL     1      -3.567   3.323   6.883  1.00  0.00     0.016 A 
ATOM     27  C   UNL     1      -1.843   4.892   5.338  1.00  0.00     0.010 A 
ATOM     28  C   UNL     1      -2.759   4.280   7.496  1.00  0.00     0.010 A 
ATOM     29  C   UNL     1      -1.856   5.038   6.734  1.00  0.00    -0.014 A 
BRANCH  29  30
ATOM     30  C   UNL     1      -0.882   5.925   7.417  1.00  0.00     0.031 A 
ATOM     31  C   UNL     1       0.215   5.326   8.257  1.00  0.00     0.074 A 
ATOM     32  C   UNL     1      -0.977   7.260   7.291  1.00  0.00     0.049 A 
ATOM     33  N   UNL     1       1.108   5.928   9.002  1.00  0.00    -0.248 NA
ATOM     34  C   UNL     1       0.317   3.858   8.263  1.00  0.00     0.031 C 
ATOM     35  C   UNL     1      -1.969   7.966   6.481  1.00  0.00     0.029 A 
ATOM     36  N   UNL     1      -0.220   8.262   7.845  1.00  0.00    -0.354 N 
ATOM     37  C   UNL     1       1.859   4.915   9.585  1.00  0.00     0.074 A 
ATOM     38  C   UNL     1       1.312   3.659   9.117  1.00  0.00     0.031 C 
ATOM     39  C   UNL     1      -1.742   9.287   6.567  1.00  0.00     0.029 A 
ATOM     40  C   UNL     1      -0.624   9.520   7.476  1.00  0.00     0.049 A 
ATOM     41  H   UNL     1       0.539   8.093   8.448  1.00  0.00     0.167 HD
ATOM     42  C   UNL     1       2.909   5.019  10.435  1.00  0.00     0.031 A 
ATOM     43  C   UNL     1      -0.157  10.728   7.841  1.00  0.00     0.031 A 
ATOM     44  C   UNL     1       3.460   6.263  10.901  1.00  0.00     0.049 A 
ATOM     45  C   UNL     1       0.983  10.818   8.813  1.00  0.00     0.074 A 
ATOM     46  C   UNL     1       4.518   6.469  11.770  1.00  0.00     0.029 A 
ATOM     47  N   UNL     1       3.000   7.515  10.528  1.00  0.00    -0.354 N 
ATOM     48  N   UNL     1       1.661   9.851   9.382  1.00  0.00    -0.248 NA
ATOM     49  C   UNL     1       1.417  12.169   9.198  1.00  0.00     0.031 C 
ATOM     50  C   UNL     1       4.680   7.848  11.944  1.00  0.00     0.029 A 
ATOM     51  C   UNL     1       3.746   8.499  11.154  1.00  0.00     0.049 A 
ATOM     52  H   UNL     1       2.252   7.681   9.909  1.00  0.00     0.167 HD
ATOM     53  C   UNL     1       2.610  10.474  10.180  1.00  0.00     0.074 A 
ATOM     54  C   UNL     1       2.429  11.902  10.013  1.00  0.00     0.031 C 
ATOM     55  C   UNL     1       3.548   9.913  10.980  1.00  0.00     0.031 A 
BRANCH  42  56
ATOM     56  C   UNL     1       3.510   3.739  10.941  1.00  0.00    -0.014 A 
ATOM     57  C   UNL     1       4.336   2.951  10.125  1.00  0.00     0.009 A 
ATOM     58  C   UNL     1       3.263   3.328  12.261  1.00  0.00     0.009 A 
ATOM     59  C   UNL     1       4.879   1.760  10.613  1.00  0.00     0.001 A 
ATOM     60  C   UNL     1       3.824   2.148  12.751  1.00  0.00     0.001 A 
ATOM     61  C   UNL     1       4.626   1.361  11.925  1.00  0.00     0.000 A 
ENDBRANCH  42  56
BRANCH  43  62
ATOM     62  C   UNL     1      -0.773  11.954   7.277  1.00  0.00    -0.014 A 
ATOM     63  C   UNL     1      -0.102  12.693   6.292  1.00  0.00     0.009 A 
ATOM     64  C   UNL     1      -2.042  12.375   7.700  1.00  0.00     0.009 A 
ATOM     65  C   UNL     1      -0.689  13.835   5.745  1.00  0.00     0.001 A 
ATOM     66  C   UNL     1      -2.635  13.506   7.136  1.00  0.00     0.001 A 
ATOM     67  C   UNL     1      -1.957  14.237   6.162  1.00  0.00     0.000 A 
ENDBRANCH  43  62
BRANCH  55  68
ATOM     68  C   UNL     1       4.462  10.851  11.710  1.00  0.00    -0.014 A 
ATOM     69  C   UNL     1       4.030  11.538  12.855  1.00  0.00     0.009 A 
ATOM     70  C   UNL     1       5.776  11.039  11.253  1.00  0.00     0.009 A 
ATOM     71  C   UNL     1       4.889  12.422  13.510  1.00  0.00     0.001 A 
ATOM     72  C   UNL     1       6.637  11.909  11.921  1.00  0.00     0.001 A 
ATOM     73  C   UNL     1       6.191  12.606  13.044  1.00  0.00     0.000 A 
ENDBRANCH  55  68
ENDBRANCH  29  30
ENDBRANCH  22  24
ENDBRANCH  21  22
ENDBRANCH  20  21
ENDBRANCH   1  20
TORSDOF 16
