REMARK SMILES CS(=O)(=O)c1ccc(/C=C(/C(=O)OCCOC(=O)c2ccc(-c3c4nc(c(-c5ccccc5)c5ccc([nH]5)c(-c5ccccc5)c5nc(c(-c6ccccc6)c6ccc3[nH]6)C=C5)C=C4)cc2)c2ccccc2)cc1
REMARK SMILES IDX 14 1 13 2 11 3 12 4 10 5 9 6 8 7 5 8 6 9 74 10 7 11 73 12
REMARK SMILES IDX 2 13 1 14 3 15 4 16 67 17 68 18 72 19 69 20 71 21 70 22
REMARK SMILES IDX 15 23 16 24 17 25 18 26 19 27 20 28 66 29 21 30 65 31 22 32
REMARK SMILES IDX 23 33 24 34 59 35 25 36 64 37 58 38 60 39 26 40 63 41 57 42
REMARK SMILES IDX 56 43 27 45 49 46 34 47 48 48 35 49 38 50 47 51 61 52 36 53
REMARK SMILES IDX 37 54 46 56 62 57 39 58 28 59 29 60 33 61 30 62 32 63 31 64
REMARK SMILES IDX 50 65 51 66 55 67 52 68 54 69 53 70 40 71 41 72 45 73 42 74
REMARK SMILES IDX 44 75 43 76
REMARK H PARENT 60 44 38 55
REMARK Flexibility Score: inf
ROOT
ATOM      1  C   UNL     1       2.741  -8.593   6.122  1.00  0.00     0.275 C 
ENDROOT
BRANCH   1   2
ATOM      2  O   UNL     1       2.133  -7.428   5.526  1.00  0.00    -0.458 OA
BRANCH   2   3
ATOM      3  C   UNL     1       2.350  -7.275   4.194  1.00  0.00     0.338 C 
ATOM      4  O   UNL     1       3.038  -8.008   3.496  1.00  0.00    -0.246 OA
BRANCH   3   5
ATOM      5  C   UNL     1       1.598  -6.110   3.637  1.00  0.00     0.067 C 
ATOM      6  C   UNL     1       1.636  -4.936   4.310  1.00  0.00     0.024 C 
BRANCH   6   7
ATOM      7  C   UNL     1       1.204  -3.604   3.825  1.00  0.00    -0.025 A 
ATOM      8  C   UNL     1       0.683  -1.084   2.705  1.00  0.00     0.067 A 
ATOM      9  C   UNL     1      -0.173  -2.147   2.437  1.00  0.00     0.021 A 
ATOM     10  C   UNL     1       1.737  -1.233   3.605  1.00  0.00     0.021 A 
ATOM     11  C   UNL     1       0.075  -3.388   3.023  1.00  0.00     0.009 A 
ATOM     12  C   UNL     1       1.996  -2.494   4.156  1.00  0.00     0.009 A 
BRANCH   8  13
ATOM     13  S   UNL     1       0.418   0.461   1.874  1.00  0.00     0.175 S 
ATOM     14  C   UNL     1       1.065   0.154   0.247  1.00  0.00     0.163 C 
ATOM     15  O   UNL     1       1.255   1.456   2.508  1.00  0.00    -0.224 OA
ATOM     16  O   UNL     1      -1.019   0.649   1.763  1.00  0.00    -0.224 OA
ENDBRANCH   8  13
ENDBRANCH   6   7
BRANCH   5  17
ATOM     17  C   UNL     1       0.996  -6.253   2.298  1.00  0.00    -0.011 A 
ATOM     18  C   UNL     1      -0.360  -6.603   2.186  1.00  0.00     0.009 A 
ATOM     19  C   UNL     1       1.732  -5.987   1.138  1.00  0.00     0.009 A 
ATOM     20  C   UNL     1      -0.980  -6.638   0.935  1.00  0.00     0.001 A 
ATOM     21  C   UNL     1       1.112  -6.042  -0.113  1.00  0.00     0.001 A 
ATOM     22  C   UNL     1      -0.243  -6.356  -0.213  1.00  0.00     0.000 A 
ENDBRANCH   5  17
ENDBRANCH   3   5
ENDBRANCH   2   3
ENDBRANCH   1   2
BRANCH   1  23
ATOM     23  C   UNL     1       1.711  -9.706   6.305  1.00  0.00     0.275 C 
BRANCH  23  24
ATOM     24  O   UNL     1       1.223 -10.134   5.020  1.00  0.00    -0.458 OA
BRANCH  24  25
ATOM     25  C   UNL     1      -0.103  -9.982   4.812  1.00  0.00     0.338 C 
ATOM     26  O   UNL     1      -0.938  -9.584   5.610  1.00  0.00    -0.246 OA
BRANCH  25  27
ATOM     27  C   UNL     1      -0.451 -10.347   3.427  1.00  0.00     0.060 A 
ATOM     28  C   UNL     1       0.263  -9.811   2.361  1.00  0.00     0.016 A 
ATOM     29  C   UNL     1      -1.603 -11.096   3.181  1.00  0.00     0.016 A 
ATOM     30  C   UNL     1      -0.248  -9.907   1.066  1.00  0.00     0.010 A 
ATOM     31  C   UNL     1      -2.046 -11.286   1.866  1.00  0.00     0.010 A 
ATOM     32  C   UNL     1      -1.409 -10.643   0.790  1.00  0.00    -0.014 A 
BRANCH  32  33
ATOM     33  C   UNL     1      -1.988 -10.692  -0.590  1.00  0.00     0.031 A 
ATOM     34  C   UNL     1      -3.446 -10.366  -0.825  1.00  0.00     0.074 A 
ATOM     35  C   UNL     1      -1.225 -11.006  -1.659  1.00  0.00     0.049 A 
ATOM     36  N   UNL     1      -4.185 -10.588  -1.886  1.00  0.00    -0.248 NA
ATOM     37  C   UNL     1      -4.174  -9.718   0.279  1.00  0.00     0.031 C 
ATOM     38  C   UNL     1       0.213 -11.281  -1.634  1.00  0.00     0.029 A 
ATOM     39  N   UNL     1      -1.558 -11.136  -2.987  1.00  0.00    -0.354 N 
ATOM     40  C   UNL     1      -5.474 -10.193  -1.544  1.00  0.00     0.074 A 
ATOM     41  C   UNL     1      -5.416  -9.698  -0.186  1.00  0.00     0.031 C 
ATOM     42  C   UNL     1       0.648 -11.478  -2.886  1.00  0.00     0.029 A 
ATOM     43  C   UNL     1      -0.495 -11.474  -3.790  1.00  0.00     0.049 A 
ATOM     44  H   UNL     1      -2.471 -10.999  -3.330  1.00  0.00     0.167 HD
ATOM     45  C   UNL     1      -6.606 -10.250  -2.288  1.00  0.00     0.031 A 
ATOM     46  C   UNL     1      -0.438 -11.808  -5.093  1.00  0.00     0.031 A 
ATOM     47  C   UNL     1      -6.659 -10.671  -3.664  1.00  0.00     0.049 A 
ATOM     48  C   UNL     1      -1.703 -11.897  -5.891  1.00  0.00     0.074 A 
ATOM     49  C   UNL     1      -7.760 -10.749  -4.502  1.00  0.00     0.029 A 
ATOM     50  N   UNL     1      -5.561 -11.058  -4.414  1.00  0.00    -0.354 N 
ATOM     51  N   UNL     1      -2.931 -11.629  -5.522  1.00  0.00    -0.248 NA
ATOM     52  C   UNL     1      -1.577 -12.370  -7.277  1.00  0.00     0.031 C 
ATOM     53  C   UNL     1      -7.332 -11.216  -5.749  1.00  0.00     0.029 A 
ATOM     54  C   UNL     1      -5.958 -11.384  -5.700  1.00  0.00     0.049 A 
ATOM     55  H   UNL     1      -4.635 -11.096  -4.082  1.00  0.00     0.167 HD
ATOM     56  C   UNL     1      -3.724 -11.902  -6.627  1.00  0.00     0.074 A 
ATOM     57  C   UNL     1      -2.837 -12.330  -7.689  1.00  0.00     0.031 C 
ATOM     58  C   UNL     1      -5.071 -11.815  -6.746  1.00  0.00     0.031 A 
BRANCH  45  59
ATOM     59  C   UNL     1      -7.905  -9.892  -1.619  1.00  0.00    -0.014 A 
ATOM     60  C   UNL     1      -8.254  -8.563  -1.339  1.00  0.00     0.009 A 
ATOM     61  C   UNL     1      -8.824 -10.912  -1.321  1.00  0.00     0.009 A 
ATOM     62  C   UNL     1      -9.486  -8.267  -0.750  1.00  0.00     0.001 A 
ATOM     63  C   UNL     1     -10.064 -10.611  -0.757  1.00  0.00     0.001 A 
ATOM     64  C   UNL     1     -10.392  -9.289  -0.464  1.00  0.00     0.000 A 
ENDBRANCH  45  59
BRANCH  46  65
ATOM     65  C   UNL     1       0.871 -12.165  -5.702  1.00  0.00    -0.014 A 
ATOM     66  C   UNL     1       1.478 -11.315  -6.638  1.00  0.00     0.009 A 
ATOM     67  C   UNL     1       1.530 -13.347  -5.327  1.00  0.00     0.009 A 
ATOM     68  C   UNL     1       2.718 -11.646  -7.189  1.00  0.00     0.001 A 
ATOM     69  C   UNL     1       2.784 -13.658  -5.855  1.00  0.00     0.001 A 
ATOM     70  C   UNL     1       3.374 -12.809  -6.789  1.00  0.00     0.000 A 
ENDBRANCH  46  65
BRANCH  58  71
ATOM     71  C   UNL     1      -5.662 -12.167  -8.079  1.00  0.00    -0.014 A 
ATOM     72  C   UNL     1      -5.784 -13.505  -8.486  1.00  0.00     0.009 A 
ATOM     73  C   UNL     1      -6.125 -11.150  -8.927  1.00  0.00     0.009 A 
ATOM     74  C   UNL     1      -6.335 -13.815  -9.731  1.00  0.00     0.001 A 
ATOM     75  C   UNL     1      -6.695 -11.464 -10.162  1.00  0.00     0.001 A 
ATOM     76  C   UNL     1      -6.792 -12.795 -10.566  1.00  0.00     0.000 A 
ENDBRANCH  58  71
ENDBRANCH  32  33
ENDBRANCH  25  27
ENDBRANCH  24  25
ENDBRANCH  23  24
ENDBRANCH   1  23
TORSDOF 14
