REMARK SMILES Cc1cc(-c2cc(C(=O)OCCOC(=O)c3ccc(-c4c5nc(c(-c6ccccc6)c6ccc([nH]6)c(-c6ccccc6)c6nc(c(-c7ccccc7)c7ccc4[nH]7)C=C6)C=C5)cc3)c[nH]c2=O)ccc1Cl
REMARK SMILES IDX 12 1 11 2 10 3 8 4 9 5 7 6 5 7 6 8 66 9 65 10 67 11 64 12
REMARK SMILES IDX 4 14 1 15 2 16 3 17 70 18 69 19 71 20 68 21 13 22 14 23
REMARK SMILES IDX 15 24 16 25 17 26 63 27 18 28 62 29 19 30 20 31 21 32 56 33
REMARK SMILES IDX 22 34 61 35 55 36 57 37 23 38 60 39 54 40 53 41 24 43 46 44
REMARK SMILES IDX 31 45 45 46 32 47 35 48 44 49 58 50 33 51 34 52 43 54 59 55
REMARK SMILES IDX 36 56 25 57 26 58 30 59 27 60 29 61 28 62 47 63 48 64 52 65
REMARK SMILES IDX 49 66 51 67 50 68 37 69 38 70 42 71 39 72 41 73 40 74
REMARK H PARENT 65 13 57 42 35 53
REMARK Flexibility Score: inf
ROOT
ATOM      1  C   UNL     1      -7.780  -1.058   4.612  1.00  0.00     0.275 C 
ENDROOT
BRANCH   1   2
ATOM      2  C   UNL     1      -6.933  -2.127   3.924  1.00  0.00     0.275 C 
BRANCH   2   3
ATOM      3  O   UNL     1      -6.111  -1.536   2.894  1.00  0.00    -0.458 OA
BRANCH   3   4
ATOM      4  C   UNL     1      -6.550  -1.687   1.618  1.00  0.00     0.339 C 
ATOM      5  O   UNL     1      -7.547  -2.299   1.265  1.00  0.00    -0.246 OA
BRANCH   4   6
ATOM      6  C   UNL     1      -5.692  -0.912   0.682  1.00  0.00     0.077 A 
ATOM      7  C   UNL     1      -3.505  -0.093  -0.034  1.00  0.00     0.048 A 
ATOM      8  C   UNL     1      -4.262  -0.761   0.862  1.00  0.00     0.031 A 
ATOM      9  C   UNL     1      -4.192   0.599  -1.183  1.00  0.00     0.255 A 
ATOM     10  N   UNL     1      -5.542   0.366  -1.296  1.00  0.00    -0.328 N 
ATOM     11  O   UNL     1      -3.602   1.310  -1.988  1.00  0.00    -0.269 OA
ATOM     12  C   UNL     1      -6.270  -0.387  -0.411  1.00  0.00     0.101 A 
ATOM     13  H   UNL     1      -6.017   0.766  -2.061  1.00  0.00     0.169 HD
BRANCH   7  14
ATOM     14  C   UNL     1      -2.037  -0.114   0.066  1.00  0.00    -0.012 A 
ATOM     15  C   UNL     1       0.874   2.344   0.060  1.00  0.00     0.046 C 
ATOM     16  C   UNL     1       0.114   1.049   0.088  1.00  0.00    -0.032 A 
ATOM     17  C   UNL     1      -1.292   1.073   0.068  1.00  0.00     0.014 A 
ATOM     18  C   UNL     1       0.766  -0.193   0.107  1.00  0.00     0.044 A 
ATOM     19  C   UNL     1       0.033  -1.381   0.107  1.00  0.00     0.021 A 
ATOM     20  Cl  UNL     1       2.489  -0.312   0.115  1.00  0.00    -0.084 Cl
ATOM     21  C   UNL     1      -1.360  -1.341   0.084  1.00  0.00     0.010 A 
ENDBRANCH   7  14
ENDBRANCH   4   6
ENDBRANCH   3   4
ENDBRANCH   2   3
ENDBRANCH   1   2
BRANCH   1  22
ATOM     22  O   UNL     1      -8.714  -0.515   3.663  1.00  0.00    -0.458 OA
BRANCH  22  23
ATOM     23  C   UNL     1      -8.751   0.833   3.562  1.00  0.00     0.338 C 
ATOM     24  O   UNL     1      -8.145   1.650   4.230  1.00  0.00    -0.246 OA
BRANCH  23  25
ATOM     25  C   UNL     1      -9.656   1.200   2.459  1.00  0.00     0.060 A 
ATOM     26  C   UNL     1      -9.402   0.710   1.180  1.00  0.00     0.016 A 
ATOM     27  C   UNL     1     -10.701   2.095   2.667  1.00  0.00     0.016 A 
ATOM     28  C   UNL     1     -10.145   1.156   0.091  1.00  0.00     0.010 A 
ATOM     29  C   UNL     1     -11.509   2.472   1.587  1.00  0.00     0.010 A 
ATOM     30  C   UNL     1     -11.226   2.026   0.282  1.00  0.00    -0.014 A 
BRANCH  30  31
ATOM     31  C   UNL     1     -12.039   2.485  -0.878  1.00  0.00     0.031 A 
ATOM     32  C   UNL     1     -12.157   3.954  -1.188  1.00  0.00     0.074 A 
ATOM     33  C   UNL     1     -12.673   1.593  -1.666  1.00  0.00     0.049 A 
ATOM     34  N   UNL     1     -12.957   4.560  -2.029  1.00  0.00    -0.248 NA
ATOM     35  C   UNL     1     -11.270   4.861  -0.443  1.00  0.00     0.031 C 
ATOM     36  C   UNL     1     -12.615   0.137  -1.523  1.00  0.00     0.029 A 
ATOM     37  N   UNL     1     -13.492   1.785  -2.753  1.00  0.00    -0.354 N 
ATOM     38  C   UNL     1     -12.716   5.919  -1.869  1.00  0.00     0.074 A 
ATOM     39  C   UNL     1     -11.692   6.049  -0.854  1.00  0.00     0.031 C 
ATOM     40  C   UNL     1     -13.333  -0.431  -2.503  1.00  0.00     0.029 A 
ATOM     41  C   UNL     1     -13.977   0.616  -3.288  1.00  0.00     0.049 A 
ATOM     42  H   UNL     1     -13.711   2.675  -3.113  1.00  0.00     0.167 HD
ATOM     43  C   UNL     1     -13.301   6.964  -2.502  1.00  0.00     0.031 A 
ATOM     44  C   UNL     1     -14.877   0.402  -4.266  1.00  0.00     0.031 A 
ATOM     45  C   UNL     1     -14.287   6.837  -3.542  1.00  0.00     0.049 A 
ATOM     46  C   UNL     1     -15.536   1.573  -4.933  1.00  0.00     0.074 A 
ATOM     47  C   UNL     1     -14.920   7.840  -4.258  1.00  0.00     0.029 A 
ATOM     48  N   UNL     1     -14.771   5.633  -4.027  1.00  0.00    -0.354 N 
ATOM     49  N   UNL     1     -15.338   2.853  -4.731  1.00  0.00    -0.248 NA
ATOM     50  C   UNL     1     -16.558   1.270  -5.944  1.00  0.00     0.031 C 
ATOM     51  C   UNL     1     -15.818   7.241  -5.149  1.00  0.00     0.029 A 
ATOM     52  C   UNL     1     -15.711   5.867  -5.018  1.00  0.00     0.049 A 
ATOM     53  H   UNL     1     -14.490   4.743  -3.713  1.00  0.00     0.167 HD
ATOM     54  C   UNL     1     -16.212   3.509  -5.587  1.00  0.00     0.074 A 
ATOM     55  C   UNL     1     -16.921   2.486  -6.330  1.00  0.00     0.031 C 
ATOM     56  C   UNL     1     -16.416   4.839  -5.737  1.00  0.00     0.031 A 
BRANCH  43  57
ATOM     57  C   UNL     1     -12.924   8.345  -2.046  1.00  0.00    -0.014 A 
ATOM     58  C   UNL     1     -11.684   8.917  -2.369  1.00  0.00     0.009 A 
ATOM     59  C   UNL     1     -13.846   9.096  -1.299  1.00  0.00     0.009 A 
ATOM     60  C   UNL     1     -11.363  10.201  -1.923  1.00  0.00     0.001 A 
ATOM     61  C   UNL     1     -13.532  10.389  -0.876  1.00  0.00     0.001 A 
ATOM     62  C   UNL     1     -12.287  10.937  -1.180  1.00  0.00     0.000 A 
ENDBRANCH  43  57
BRANCH  44  63
ATOM     63  C   UNL     1     -15.258  -0.990  -4.621  1.00  0.00    -0.014 A 
ATOM     64  C   UNL     1     -14.855  -1.554  -5.840  1.00  0.00     0.009 A 
ATOM     65  C   UNL     1     -16.011  -1.769  -3.727  1.00  0.00     0.009 A 
ATOM     66  C   UNL     1     -15.205  -2.868  -6.159  1.00  0.00     0.001 A 
ATOM     67  C   UNL     1     -16.334  -3.091  -4.036  1.00  0.00     0.001 A 
ATOM     68  C   UNL     1     -15.936  -3.638  -5.254  1.00  0.00     0.000 A 
ENDBRANCH  44  63
BRANCH  56  69
ATOM     69  C   UNL     1     -17.440   5.262  -6.749  1.00  0.00    -0.014 A 
ATOM     70  C   UNL     1     -18.812   5.152  -6.475  1.00  0.00     0.009 A 
ATOM     71  C   UNL     1     -17.029   5.804  -7.976  1.00  0.00     0.009 A 
ATOM     72  C   UNL     1     -19.754   5.553  -7.424  1.00  0.00     0.001 A 
ATOM     73  C   UNL     1     -17.973   6.224  -8.914  1.00  0.00     0.001 A 
ATOM     74  C   UNL     1     -19.334   6.091  -8.640  1.00  0.00     0.000 A 
ENDBRANCH  56  69
ENDBRANCH  30  31
ENDBRANCH  23  25
ENDBRANCH  22  23
ENDBRANCH   1  22
TORSDOF 12
