REMARK SMILES CC(C)[C@H](NC(=O)Cn1ccc2c(Br)cccc21)C(=O)OCCOC(=O)c1ccc(-c2c3nc(c(-c4ccccc4)c4ccc([nH]4)c(-c4ccccc4)c4nc(c(-c5ccccc5)c5ccc2[nH]5)C=C4)C=C3)cc1
REMARK SMILES IDX 22 1 21 2 19 3 20 4 4 5 2 6 1 7 3 8 5 9 6 10 7 12 8 13 9 14
REMARK SMILES IDX 10 15 18 16 11 17 12 18 17 19 13 20 16 21 14 22 15 23 23 24
REMARK SMILES IDX 24 25 25 26 26 27 27 28 28 29 74 30 29 31 73 32 30 33 31 34
REMARK SMILES IDX 32 35 67 36 33 37 72 38 66 39 68 40 34 41 71 42 65 43 64 44
REMARK SMILES IDX 35 46 57 47 42 48 56 49 43 50 46 51 55 52 69 53 44 54 45 55
REMARK SMILES IDX 54 57 70 58 47 59 36 60 37 61 41 62 38 63 40 64 39 65 58 66
REMARK SMILES IDX 59 67 63 68 60 69 62 70 61 71 48 72 49 73 53 74 50 75 52 76
REMARK SMILES IDX 51 77
REMARK H PARENT 5 11 68 45 46 56
REMARK Flexibility Score: inf
ROOT
ATOM      1  C   UNL     1      -1.720  -4.857   2.476  1.00  0.00     0.274 C 
ENDROOT
BRANCH   1   2
ATOM      2  O   UNL     1      -1.070  -3.798   1.740  1.00  0.00    -0.461 OA
BRANCH   2   3
ATOM      3  C   UNL     1      -1.805  -2.661   1.605  1.00  0.00     0.329 C 
ATOM      4  O   UNL     1      -2.959  -2.540   2.010  1.00  0.00    -0.250 OA
BRANCH   3   5
ATOM      5  C   UNL     1      -1.118  -1.558   0.776  1.00  0.00     0.194 C 
BRANCH   5   6
ATOM      6  C   UNL     1      -1.533  -1.652  -0.723  1.00  0.00     0.017 C 
ATOM      7  C   UNL     1      -0.783  -2.751  -1.492  1.00  0.00     0.010 C 
ATOM      8  C   UNL     1      -3.040  -1.834  -0.923  1.00  0.00     0.010 C 
ENDBRANCH   5   6
BRANCH   5   9
ATOM      9  N   UNL     1       0.348  -1.423   0.849  1.00  0.00    -0.341 N 
ATOM     10  C   UNL     1       1.109  -0.392   1.333  1.00  0.00     0.240 C 
ATOM     11  H   UNL     1       0.857  -2.189   0.497  1.00  0.00     0.164 HD
ATOM     12  O   UNL     1       2.273  -0.298   0.935  1.00  0.00    -0.273 OA
BRANCH  10  13
ATOM     13  C   UNL     1       0.576   0.517   2.413  1.00  0.00     0.222 C 
BRANCH  13  14
ATOM     14  N   UNL     1      -0.002   1.805   2.030  1.00  0.00    -0.338 N 
ATOM     15  C   UNL     1      -0.901   2.002   1.014  1.00  0.00     0.087 A 
ATOM     16  C   UNL     1       0.014   2.931   2.850  1.00  0.00     0.050 A 
ATOM     17  C   UNL     1      -1.596   3.162   1.271  1.00  0.00     0.029 A 
ATOM     18  C   UNL     1      -1.037   3.761   2.434  1.00  0.00     0.014 A 
ATOM     19  C   UNL     1       0.827   3.276   3.946  1.00  0.00     0.027 A 
ATOM     20  C   UNL     1      -1.316   4.929   3.179  1.00  0.00     0.027 A 
ATOM     21  C   UNL     1       0.544   4.454   4.648  1.00  0.00     0.003 A 
ATOM     22  Br  UNL     1      -2.774   6.050   2.719  1.00  0.00    -0.050 Br
ATOM     23  C   UNL     1      -0.524   5.266   4.281  1.00  0.00     0.016 A 
ENDBRANCH  13  14
ENDBRANCH  10  13
ENDBRANCH   5   9
ENDBRANCH   3   5
ENDBRANCH   2   3
ENDBRANCH   1   2
BRANCH   1  24
ATOM     24  C   UNL     1      -1.346  -4.878   3.963  1.00  0.00     0.275 C 
BRANCH  24  25
ATOM     25  O   UNL     1      -1.877  -3.779   4.723  1.00  0.00    -0.458 OA
BRANCH  25  26
ATOM     26  C   UNL     1      -1.130  -2.661   4.625  1.00  0.00     0.338 C 
ATOM     27  O   UNL     1      -0.193  -2.454   3.871  1.00  0.00    -0.246 OA
BRANCH  26  28
ATOM     28  C   UNL     1      -1.419  -1.694   5.683  1.00  0.00     0.060 A 
ATOM     29  C   UNL     1      -1.452  -0.355   5.295  1.00  0.00     0.016 A 
ATOM     30  C   UNL     1      -1.048  -2.070   6.974  1.00  0.00     0.016 A 
ATOM     31  C   UNL     1      -0.842   0.586   6.106  1.00  0.00     0.010 A 
ATOM     32  C   UNL     1      -0.502  -1.109   7.811  1.00  0.00     0.010 A 
ATOM     33  C   UNL     1      -0.279   0.188   7.326  1.00  0.00    -0.014 A 
BRANCH  33  34
ATOM     34  C   UNL     1       0.508   1.175   8.085  1.00  0.00     0.031 A 
ATOM     35  C   UNL     1      -0.196   2.437   8.453  1.00  0.00     0.074 A 
ATOM     36  C   UNL     1       1.736   0.907   8.585  1.00  0.00     0.049 A 
ATOM     37  N   UNL     1       0.270   3.647   8.499  1.00  0.00    -0.248 NA
ATOM     38  C   UNL     1      -1.622   2.319   8.809  1.00  0.00     0.031 C 
ATOM     39  C   UNL     1       2.441  -0.377   8.521  1.00  0.00     0.029 A 
ATOM     40  N   UNL     1       2.543   1.666   9.397  1.00  0.00    -0.354 N 
ATOM     41  C   UNL     1      -0.762   4.418   9.024  1.00  0.00     0.074 A 
ATOM     42  C   UNL     1      -1.928   3.575   9.113  1.00  0.00     0.031 C 
ATOM     43  C   UNL     1       3.390  -0.404   9.477  1.00  0.00     0.029 A 
ATOM     44  C   UNL     1       3.446   0.898  10.123  1.00  0.00     0.049 A 
ATOM     45  H   UNL     1       2.489   2.647   9.459  1.00  0.00     0.167 HD
ATOM     46  C   UNL     1      -0.586   5.645   9.576  1.00  0.00     0.031 A 
ATOM     47  C   UNL     1       4.130   1.248  11.237  1.00  0.00     0.031 A 
ATOM     48  C   UNL     1       0.640   6.298   9.246  1.00  0.00     0.049 A 
ATOM     49  C   UNL     1       4.218   2.720  11.340  1.00  0.00     0.074 A 
ATOM     50  C   UNL     1       1.078   7.226   8.328  1.00  0.00     0.029 A 
ATOM     51  N   UNL     1       1.741   5.819   9.894  1.00  0.00    -0.354 N 
ATOM     52  N   UNL     1       4.873   3.474  10.505  1.00  0.00    -0.248 NA
ATOM     53  C   UNL     1       3.404   3.434  12.321  1.00  0.00     0.031 C 
ATOM     54  C   UNL     1       2.506   7.202   8.366  1.00  0.00     0.029 A 
ATOM     55  C   UNL     1       2.900   6.256   9.303  1.00  0.00     0.049 A 
ATOM     56  H   UNL     1       1.708   5.234  10.685  1.00  0.00     0.167 HD
ATOM     57  C   UNL     1       4.268   4.708  10.610  1.00  0.00     0.074 A 
ATOM     58  C   UNL     1       3.506   4.677  11.848  1.00  0.00     0.031 C 
ATOM     59  C   UNL     1       4.120   5.517   9.526  1.00  0.00     0.031 A 
BRANCH  46  60
ATOM     60  C   UNL     1      -1.402   6.063  10.764  1.00  0.00    -0.014 A 
ATOM     61  C   UNL     1      -1.609   7.416  11.053  1.00  0.00     0.009 A 
ATOM     62  C   UNL     1      -1.776   5.121  11.749  1.00  0.00     0.009 A 
ATOM     63  C   UNL     1      -2.196   7.806  12.264  1.00  0.00     0.001 A 
ATOM     64  C   UNL     1      -2.389   5.504  12.940  1.00  0.00     0.001 A 
ATOM     65  C   UNL     1      -2.593   6.852  13.200  1.00  0.00     0.000 A 
ENDBRANCH  46  60
BRANCH  47  66
ATOM     66  C   UNL     1       4.555   0.369  12.354  1.00  0.00    -0.014 A 
ATOM     67  C   UNL     1       5.478   0.830  13.307  1.00  0.00     0.009 A 
ATOM     68  C   UNL     1       3.884  -0.837  12.632  1.00  0.00     0.009 A 
ATOM     69  C   UNL     1       5.691   0.134  14.503  1.00  0.00     0.001 A 
ATOM     70  C   UNL     1       4.113  -1.545  13.815  1.00  0.00     0.001 A 
ATOM     71  C   UNL     1       5.004  -1.049  14.759  1.00  0.00     0.000 A 
ENDBRANCH  47  66
BRANCH  59  72
ATOM     72  C   UNL     1       5.101   5.382   8.408  1.00  0.00    -0.014 A 
ATOM     73  C   UNL     1       5.167   4.238   7.597  1.00  0.00     0.009 A 
ATOM     74  C   UNL     1       5.958   6.457   8.129  1.00  0.00     0.009 A 
ATOM     75  C   UNL     1       6.088   4.162   6.550  1.00  0.00     0.001 A 
ATOM     76  C   UNL     1       6.869   6.386   7.073  1.00  0.00     0.001 A 
ATOM     77  C   UNL     1       6.937   5.236   6.287  1.00  0.00     0.000 A 
ENDBRANCH  59  72
ENDBRANCH  33  34
ENDBRANCH  26  28
ENDBRANCH  25  26
ENDBRANCH  24  25
ENDBRANCH   1  24
TORSDOF 15
