REMARK SMILES C[NH+]1CCC2(CC1)OC[C@H](C(=O)OCCOC(=O)c1ccc(-c3c4nc(c(-c5ccccc5)c5ccc([nH]5)c(-c5ccccc5)c5nc(c(-c6ccccc6)c6ccc3[nH]6)C=C5)C=C4)cc1)N2C(=O)c1cc(C(F)(F)F)cc(C(F)(F)F)c1
REMARK SMILES IDX 14 1 13 2 11 3 12 4 10 5 1 6 2 7 3 8 7 9 4 11 6 12 5 13 8 14
REMARK SMILES IDX 67 15 9 16 68 17 69 18 70 19 71 20 83 21 72 22 78 23 77 24
REMARK SMILES IDX 73 25 74 26 75 27 76 28 79 29 80 30 81 31 82 32 15 33 16 34
REMARK SMILES IDX 17 35 18 36 19 37 20 38 66 39 21 40 65 41 22 42 23 43 24 44
REMARK SMILES IDX 59 45 25 46 64 47 58 48 60 49 26 50 63 51 57 52 56 53 27 55
REMARK SMILES IDX 49 56 34 57 48 58 35 59 38 60 47 61 61 62 36 63 37 64 46 66
REMARK SMILES IDX 62 67 39 68 28 69 29 70 33 71 30 72 32 73 31 74 50 75 51 76
REMARK SMILES IDX 55 77 52 78 54 79 53 80 40 81 41 82 45 83 42 84 44 85 43 86
REMARK H PARENT 2 10 60 54 38 65
REMARK Flexibility Score: inf
ROOT
ATOM      1  C   UNL     1       1.697   7.844   0.786  1.00  0.00     0.274 C 
ENDROOT
BRANCH   1   2
ATOM      2  O   UNL     1       1.509   7.178  -0.481  1.00  0.00    -0.460 OA
BRANCH   2   3
ATOM      3  C   UNL     1       0.633   6.136  -0.486  1.00  0.00     0.331 C 
ATOM      4  O   UNL     1      -0.017   5.787   0.495  1.00  0.00    -0.250 OA
BRANCH   3   5
ATOM      5  C   UNL     1       0.497   5.476  -1.870  1.00  0.00     0.224 C 
ATOM      6  C   UNL     1       2.168  -0.480   0.167  1.00  0.00     0.332 C 
ATOM      7  N   UNL     1       1.462   0.710  -0.279  1.00  0.00    -0.337 N 
ATOM      8  C   UNL     1       1.801   1.910   0.458  1.00  0.00     0.267 C 
ATOM      9  C   UNL     1       1.180   0.744  -1.704  1.00  0.00     0.267 C 
ATOM     10  H   UNL     1       0.491   0.647   0.026  1.00  0.00     0.347 HD
ATOM     11  C   UNL     1       2.176   3.130  -0.348  1.00  0.00     0.120 C 
ATOM     12  C   UNL     1       1.488   2.013  -2.485  1.00  0.00     0.120 C 
ATOM     13  C   UNL     1       1.452   3.304  -1.682  1.00  0.00     0.155 C 
ATOM     14  O   UNL     1       2.382   4.194  -2.400  1.00  0.00    -0.352 OA
ATOM     15  N   UNL     1       0.192   4.063  -1.682  1.00  0.00    -0.293 N 
ATOM     16  C   UNL     1       1.742   5.434  -2.703  1.00  0.00     0.200 C 
BRANCH  15  17
ATOM     17  C   UNL     1      -1.152   3.727  -1.616  1.00  0.00     0.256 C 
ATOM     18  O   UNL     1      -2.040   4.513  -1.950  1.00  0.00    -0.269 OA
BRANCH  17  19
ATOM     19  C   UNL     1      -1.637   2.421  -1.155  1.00  0.00     0.041 A 
ATOM     20  C   UNL     1      -2.423   1.639  -2.011  1.00  0.00     0.027 A 
ATOM     21  C   UNL     1      -1.477   2.049   0.177  1.00  0.00     0.027 A 
ATOM     22  C   UNL     1      -2.951   0.414  -1.570  1.00  0.00     0.057 A 
ATOM     23  C   UNL     1      -1.926   0.795   0.621  1.00  0.00     0.057 A 
ATOM     24  C   UNL     1      -2.671  -0.010  -0.259  1.00  0.00     0.026 A 
BRANCH  22  25
ATOM     25  C   UNL     1      -3.822  -0.415  -2.483  1.00  0.00     0.416 C 
ATOM     26  F   UNL     1      -5.084   0.081  -2.591  1.00  0.00    -0.166 F 
ATOM     27  F   UNL     1      -3.333  -0.487  -3.752  1.00  0.00    -0.166 F 
ATOM     28  F   UNL     1      -3.961  -1.705  -2.066  1.00  0.00    -0.166 F 
ENDBRANCH  22  25
BRANCH  23  29
ATOM     29  C   UNL     1      -1.588   0.291   2.004  1.00  0.00     0.416 C 
ATOM     30  F   UNL     1      -2.698   0.068   2.761  1.00  0.00    -0.166 F 
ATOM     31  F   UNL     1      -0.917  -0.895   1.972  1.00  0.00    -0.166 F 
ATOM     32  F   UNL     1      -0.807   1.141   2.725  1.00  0.00    -0.166 F 
ENDBRANCH  23  29
ENDBRANCH  17  19
ENDBRANCH  15  17
ENDBRANCH   3   5
ENDBRANCH   2   3
ENDBRANCH   1   2
BRANCH   1  33
ATOM     33  C   UNL     1       0.995   9.205   0.833  1.00  0.00     0.275 C 
BRANCH  33  34
ATOM     34  O   UNL     1      -0.438   9.075   0.764  1.00  0.00    -0.458 OA
BRANCH  34  35
ATOM     35  C   UNL     1      -0.938   9.100  -0.491  1.00  0.00     0.338 C 
ATOM     36  O   UNL     1      -0.309   9.269  -1.529  1.00  0.00    -0.246 OA
BRANCH  35  37
ATOM     37  C   UNL     1      -2.350   8.696  -0.497  1.00  0.00     0.060 A 
ATOM     38  C   UNL     1      -2.659   7.563  -1.246  1.00  0.00     0.016 A 
ATOM     39  C   UNL     1      -3.370   9.442   0.092  1.00  0.00     0.016 A 
ATOM     40  C   UNL     1      -3.971   7.172  -1.444  1.00  0.00     0.010 A 
ATOM     41  C   UNL     1      -4.704   9.052  -0.109  1.00  0.00     0.010 A 
ATOM     42  C   UNL     1      -5.009   7.928  -0.900  1.00  0.00    -0.014 A 
BRANCH  42  43
ATOM     43  C   UNL     1      -6.391   7.580  -1.302  1.00  0.00     0.031 A 
ATOM     44  C   UNL     1      -7.088   8.419  -2.333  1.00  0.00     0.074 A 
ATOM     45  C   UNL     1      -6.960   6.445  -0.856  1.00  0.00     0.049 A 
ATOM     46  N   UNL     1      -8.290   8.285  -2.835  1.00  0.00    -0.248 NA
ATOM     47  C   UNL     1      -6.329   9.555  -2.880  1.00  0.00     0.031 C 
ATOM     48  C   UNL     1      -6.337   5.491   0.062  1.00  0.00     0.029 A 
ATOM     49  N   UNL     1      -8.180   5.889  -1.144  1.00  0.00    -0.354 N 
ATOM     50  C   UNL     1      -8.441   9.335  -3.731  1.00  0.00     0.074 A 
ATOM     51  C   UNL     1      -7.214  10.102  -3.700  1.00  0.00     0.031 C 
ATOM     52  C   UNL     1      -7.176   4.459   0.252  1.00  0.00     0.029 A 
ATOM     53  C   UNL     1      -8.407   4.702  -0.494  1.00  0.00     0.049 A 
ATOM     54  H   UNL     1      -8.830   6.302  -1.757  1.00  0.00     0.167 HD
ATOM     55  C   UNL     1      -9.509   9.636  -4.507  1.00  0.00     0.031 A 
ATOM     56  C   UNL     1      -9.495   3.909  -0.486  1.00  0.00     0.031 A 
ATOM     57  C   UNL     1     -10.720   8.864  -4.552  1.00  0.00     0.049 A 
ATOM     58  C   UNL     1     -10.691   4.297  -1.309  1.00  0.00     0.074 A 
ATOM     59  C   UNL     1     -11.865   9.094  -5.295  1.00  0.00     0.029 A 
ATOM     60  N   UNL     1     -10.940   7.703  -3.826  1.00  0.00    -0.354 N 
ATOM     61  N   UNL     1     -10.842   5.319  -2.116  1.00  0.00    -0.248 NA
ATOM     62  C   UNL     1     -11.868   3.422  -1.217  1.00  0.00     0.031 C 
ATOM     63  C   UNL     1     -12.795   8.095  -4.984  1.00  0.00     0.029 A 
ATOM     64  C   UNL     1     -12.210   7.217  -4.085  1.00  0.00     0.049 A 
ATOM     65  H   UNL     1     -10.289   7.287  -3.216  1.00  0.00     0.167 HD
ATOM     66  C   UNL     1     -12.124   5.204  -2.637  1.00  0.00     0.074 A 
ATOM     67  C   UNL     1     -12.700   4.002  -2.070  1.00  0.00     0.031 C 
ATOM     68  C   UNL     1     -12.767   6.023  -3.505  1.00  0.00     0.031 A 
BRANCH  55  69
ATOM     69  C   UNL     1      -9.426  10.896  -5.320  1.00  0.00    -0.014 A 
ATOM     70  C   UNL     1      -8.630  10.980  -6.473  1.00  0.00     0.009 A 
ATOM     71  C   UNL     1     -10.159  12.022  -4.915  1.00  0.00     0.009 A 
ATOM     72  C   UNL     1      -8.542  12.180  -7.182  1.00  0.00     0.001 A 
ATOM     73  C   UNL     1     -10.088  13.213  -5.639  1.00  0.00     0.001 A 
ATOM     74  C   UNL     1      -9.271  13.294  -6.766  1.00  0.00     0.000 A 
ENDBRANCH  55  69
BRANCH  56  75
ATOM     75  C   UNL     1      -9.517   2.695   0.369  1.00  0.00    -0.014 A 
ATOM     76  C   UNL     1      -9.494   1.412  -0.197  1.00  0.00     0.009 A 
ATOM     77  C   UNL     1      -9.562   2.820   1.767  1.00  0.00     0.009 A 
ATOM     78  C   UNL     1      -9.534   0.279   0.621  1.00  0.00     0.001 A 
ATOM     79  C   UNL     1      -9.575   1.688   2.582  1.00  0.00     0.001 A 
ATOM     80  C   UNL     1      -9.569   0.418   2.009  1.00  0.00     0.000 A 
ENDBRANCH  56  75
BRANCH  68  81
ATOM     81  C   UNL     1     -14.160   5.631  -3.906  1.00  0.00    -0.014 A 
ATOM     82  C   UNL     1     -15.240   5.785  -3.022  1.00  0.00     0.009 A 
ATOM     83  C   UNL     1     -14.399   5.132  -5.196  1.00  0.00     0.009 A 
ATOM     84  C   UNL     1     -16.528   5.415  -3.413  1.00  0.00     0.001 A 
ATOM     85  C   UNL     1     -15.691   4.786  -5.591  1.00  0.00     0.001 A 
ATOM     86  C   UNL     1     -16.753   4.920  -4.698  1.00  0.00     0.000 A 
ENDBRANCH  68  81
ENDBRANCH  42  43
ENDBRANCH  35  37
ENDBRANCH  34  35
ENDBRANCH  33  34
ENDBRANCH   1  33
TORSDOF 15
