REMARK SMILES O=C(COc1cccc(/C=C2/SC(=S)N(NC(=O)c3ccccc3F)C2=O)c1)OCCOC(=O)c1ccc(-c2c3nc(c(-c4ccccc4)c4ccc([nH]4)c(-c4ccccc4)c4nc(c(-c5ccccc5)c5ccc2[nH]5)C=C4)C=C3)cc1
REMARK SMILES IDX 29 1 2 2 1 3 3 4 4 5 5 6 6 7 28 8 7 9 9 10 8 11 10 12 11 13
REMARK SMILES IDX 12 14 26 15 13 16 15 17 27 18 14 19 16 20 17 21 18 23 19 24
REMARK SMILES IDX 20 25 24 26 21 27 23 28 25 29 22 30 30 31 31 32 32 33 33 34
REMARK SMILES IDX 34 35 35 36 36 37 82 38 37 39 81 40 38 41 39 42 40 43 75 44
REMARK SMILES IDX 41 45 80 46 74 47 76 48 42 49 79 50 73 51 72 52 43 54 65 55
REMARK SMILES IDX 50 56 64 57 51 58 54 59 63 60 77 61 52 62 53 63 62 65 78 66
REMARK SMILES IDX 55 67 44 68 45 69 49 70 46 71 48 72 47 73 66 74 67 75 71 76
REMARK SMILES IDX 68 77 70 78 69 79 56 80 57 81 61 82 58 83 60 84 59 85
REMARK H PARENT 16 22 76 53 54 64
REMARK Flexibility Score: inf
ROOT
ATOM      1  O   UNL     1       2.950  -0.724   0.138  1.00  0.00    -0.460 OA
ENDROOT
BRANCH   1   2
ATOM      2  C   UNL     1       2.180   0.384   0.080  1.00  0.00     0.344 C 
ATOM      3  O   UNL     1       0.953   0.273   0.143  1.00  0.00    -0.248 OA
BRANCH   2   4
ATOM      4  C   UNL     1       2.824   1.771  -0.105  1.00  0.00     0.351 C 
BRANCH   4   5
ATOM      5  O   UNL     1       3.613   2.438   0.857  1.00  0.00    -0.482 OA
BRANCH   5   6
ATOM      6  C   UNL     1       2.965   2.927   1.957  1.00  0.00     0.120 A 
ATOM      7  C   UNL     1       3.517   4.059   2.554  1.00  0.00     0.046 A 
ATOM      8  C   UNL     1       1.921   2.269   2.594  1.00  0.00     0.054 A 
ATOM      9  C   UNL     1       3.057   4.489   3.800  1.00  0.00     0.004 A 
ATOM     10  C   UNL     1       1.588   2.571   3.912  1.00  0.00    -0.021 A 
ATOM     11  C   UNL     1       2.116   3.726   4.496  1.00  0.00     0.008 A 
BRANCH  10  12
ATOM     12  C   UNL     1       0.798   1.624   4.713  1.00  0.00     0.029 C 
ATOM     13  C   UNL     1       1.081   0.314   4.859  1.00  0.00     0.082 C 
ATOM     14  S   UNL     1       0.301  -0.663   6.061  1.00  0.00    -0.052 SA
ATOM     15  C   UNL     1       2.155  -0.509   4.203  1.00  0.00     0.285 C 
ATOM     16  C   UNL     1       1.544  -1.911   5.989  1.00  0.00     0.168 C 
ATOM     17  N   UNL     1       2.458  -1.591   5.006  1.00  0.00    -0.198 N 
ATOM     18  O   UNL     1       2.646  -0.303   3.104  1.00  0.00    -0.266 OA
ATOM     19  S   UNL     1       1.533  -3.272   6.955  1.00  0.00    -0.050 S 
BRANCH  17  20
ATOM     20  N   UNL     1       3.504  -2.474   4.682  1.00  0.00    -0.254 N 
ATOM     21  C   UNL     1       4.798  -2.173   4.303  1.00  0.00     0.273 C 
ATOM     22  H   UNL     1       3.286  -3.432   4.733  1.00  0.00     0.192 HD
ATOM     23  O   UNL     1       5.568  -3.105   4.056  1.00  0.00    -0.267 OA
BRANCH  21  24
ATOM     24  C   UNL     1       5.305  -0.799   4.098  1.00  0.00     0.077 A 
ATOM     25  C   UNL     1       6.089  -0.566   2.955  1.00  0.00     0.017 A 
ATOM     26  C   UNL     1       5.056   0.257   4.970  1.00  0.00     0.136 A 
ATOM     27  C   UNL     1       6.545   0.720   2.655  1.00  0.00     0.001 A 
ATOM     28  C   UNL     1       5.506   1.544   4.672  1.00  0.00     0.040 A 
ATOM     29  F   UNL     1       4.364   0.071   6.103  1.00  0.00    -0.206 F 
ATOM     30  C   UNL     1       6.241   1.777   3.509  1.00  0.00     0.003 A 
ENDBRANCH  21  24
ENDBRANCH  17  20
ENDBRANCH  10  12
ENDBRANCH   5   6
ENDBRANCH   4   5
ENDBRANCH   2   4
ENDBRANCH   1   2
BRANCH   1  31
ATOM     31  C   UNL     1       4.325  -0.795  -0.277  1.00  0.00     0.274 C 
BRANCH  31  32
ATOM     32  C   UNL     1       4.409  -1.253  -1.736  1.00  0.00     0.275 C 
BRANCH  32  33
ATOM     33  O   UNL     1       3.966  -0.183  -2.589  1.00  0.00    -0.458 OA
BRANCH  33  34
ATOM     34  C   UNL     1       2.696  -0.268  -3.062  1.00  0.00     0.338 C 
ATOM     35  O   UNL     1       1.953  -1.231  -3.014  1.00  0.00    -0.246 OA
BRANCH  34  36
ATOM     36  C   UNL     1       2.270   1.104  -3.421  1.00  0.00     0.060 A 
ATOM     37  C   UNL     1       1.003   1.539  -3.009  1.00  0.00     0.016 A 
ATOM     38  C   UNL     1       3.153   1.996  -4.039  1.00  0.00     0.016 A 
ATOM     39  C   UNL     1       0.627   2.872  -3.193  1.00  0.00     0.010 A 
ATOM     40  C   UNL     1       2.769   3.322  -4.241  1.00  0.00     0.010 A 
ATOM     41  C   UNL     1       1.503   3.765  -3.824  1.00  0.00    -0.014 A 
BRANCH  41  42
ATOM     42  C   UNL     1       1.059   5.128  -4.191  1.00  0.00     0.031 A 
ATOM     43  C   UNL     1       0.420   5.330  -5.535  1.00  0.00     0.074 A 
ATOM     44  C   UNL     1       1.262   6.177  -3.373  1.00  0.00     0.049 A 
ATOM     45  N   UNL     1       0.015   6.437  -6.101  1.00  0.00    -0.248 NA
ATOM     46  C   UNL     1       0.217   4.122  -6.352  1.00  0.00     0.031 C 
ATOM     47  C   UNL     1       1.851   6.115  -2.036  1.00  0.00     0.029 A 
ATOM     48  N   UNL     1       1.007   7.512  -3.567  1.00  0.00    -0.354 N 
ATOM     49  C   UNL     1      -0.496   6.059  -7.335  1.00  0.00     0.074 A 
ATOM     50  C   UNL     1      -0.329   4.627  -7.448  1.00  0.00     0.031 C 
ATOM     51  C   UNL     1       1.933   7.363  -1.539  1.00  0.00     0.029 A 
ATOM     52  C   UNL     1       1.427   8.310  -2.531  1.00  0.00     0.049 A 
ATOM     53  H   UNL     1       0.564   7.864  -4.373  1.00  0.00     0.167 HD
ATOM     54  C   UNL     1      -1.058   6.834  -8.290  1.00  0.00     0.031 A 
ATOM     55  C   UNL     1       1.425   9.652  -2.412  1.00  0.00     0.031 A 
ATOM     56  C   UNL     1      -1.201   8.260  -8.200  1.00  0.00     0.049 A 
ATOM     57  C   UNL     1       0.883  10.499  -3.536  1.00  0.00     0.074 A 
ATOM     58  C   UNL     1      -1.788   9.124  -9.107  1.00  0.00     0.029 A 
ATOM     59  N   UNL     1      -0.732   9.032  -7.151  1.00  0.00    -0.354 N 
ATOM     60  N   UNL     1       0.339  10.124  -4.668  1.00  0.00    -0.248 NA
ATOM     61  C   UNL     1       0.959  11.959  -3.362  1.00  0.00     0.031 C 
ATOM     62  C   UNL     1      -1.623  10.429  -8.632  1.00  0.00     0.029 A 
ATOM     63  C   UNL     1      -0.978  10.369  -7.408  1.00  0.00     0.049 A 
ATOM     64  H   UNL     1      -0.290   8.682  -6.344  1.00  0.00     0.167 HD
ATOM     65  C   UNL     1      -0.012  11.297  -5.327  1.00  0.00     0.074 A 
ATOM     66  C   UNL     1       0.365  12.396  -4.464  1.00  0.00     0.031 C 
ATOM     67  C   UNL     1      -0.595  11.451  -6.541  1.00  0.00     0.031 A 
BRANCH  54  68
ATOM     68  C   UNL     1      -1.536   6.151  -9.536  1.00  0.00    -0.014 A 
ATOM     69  C   UNL     1      -2.723   5.403  -9.539  1.00  0.00     0.009 A 
ATOM     70  C   UNL     1      -0.814   6.295 -10.729  1.00  0.00     0.009 A 
ATOM     71  C   UNL     1      -3.168   4.795 -10.713  1.00  0.00     0.001 A 
ATOM     72  C   UNL     1      -1.272   5.703 -11.906  1.00  0.00     0.001 A 
ATOM     73  C   UNL     1      -2.445   4.949 -11.896  1.00  0.00     0.000 A 
ENDBRANCH  54  68
BRANCH  55  74
ATOM     74  C   UNL     1       1.994  10.306  -1.204  1.00  0.00    -0.014 A 
ATOM     75  C   UNL     1       1.163  10.982  -0.298  1.00  0.00     0.009 A 
ATOM     76  C   UNL     1       3.381  10.315  -0.989  1.00  0.00     0.009 A 
ATOM     77  C   UNL     1       1.712  11.684   0.778  1.00  0.00     0.001 A 
ATOM     78  C   UNL     1       3.925  10.995   0.103  1.00  0.00     0.001 A 
ATOM     79  C   UNL     1       3.092  11.689   0.978  1.00  0.00     0.000 A 
ENDBRANCH  55  74
BRANCH  67  80
ATOM     80  C   UNL     1      -0.878  12.852  -7.001  1.00  0.00    -0.014 A 
ATOM     81  C   UNL     1       0.155  13.690  -7.449  1.00  0.00     0.009 A 
ATOM     82  C   UNL     1      -2.201  13.319  -7.042  1.00  0.00     0.009 A 
ATOM     83  C   UNL     1      -0.131  14.978  -7.905  1.00  0.00     0.001 A 
ATOM     84  C   UNL     1      -2.486  14.598  -7.524  1.00  0.00     0.001 A 
ATOM     85  C   UNL     1      -1.450  15.428  -7.948  1.00  0.00     0.000 A 
ENDBRANCH  67  80
ENDBRANCH  41  42
ENDBRANCH  34  36
ENDBRANCH  33  34
ENDBRANCH  32  33
ENDBRANCH  31  32
ENDBRANCH   1  31
TORSDOF 16
