REMARK SMILES O=C(OCCOC(=O)[C@H]1CC[C@H]2CCCC[C@@H]2[N@H+]1[C@@H]1C[N@H+]2CC[C@@H]1CC2)c1ccc(-c2c3nc(c(-c4ccccc4)c4ccc([nH]4)c(-c4ccccc4)c4nc(c(-c5ccccc5)c5ccc2[nH]5)C=C4)C=C3)cc1
REMARK SMILES IDX 4 1 3 2 2 3 1 4 27 5 28 6 74 7 29 8 73 9 30 10 31 11 32 12
REMARK SMILES IDX 67 13 33 14 72 15 66 16 68 17 34 18 71 19 65 20 64 21 35 23
REMARK SMILES IDX 57 24 42 25 56 26 43 27 46 28 55 29 69 30 44 31 45 32 54 34
REMARK SMILES IDX 70 35 47 36 36 37 37 38 41 39 38 40 40 41 39 42 58 43 59 44
REMARK SMILES IDX 63 45 60 46 62 47 61 48 48 49 49 50 53 51 50 52 52 53 51 54
REMARK SMILES IDX 5 55 6 56 7 57 8 58 9 59 10 60 18 61 11 62 17 63 12 65 16 66
REMARK SMILES IDX 13 67 15 68 14 69 19 70 20 71 24 72 21 73 25 74 23 75 26 76
REMARK SMILES IDX 22 77
REMARK H PARENT 68 22 46 33 18 64 21 78
REMARK Flexibility Score: inf
ROOT
ATOM      1  C   UNL     1       4.331   0.719  -1.282  1.00  0.00     0.275 C 
ENDROOT
BRANCH   1   2
ATOM      2  O   UNL     1       3.360  -0.341  -1.266  1.00  0.00    -0.458 OA
BRANCH   2   3
ATOM      3  C   UNL     1       3.182  -1.387  -0.427  1.00  0.00     0.338 C 
ATOM      4  O   UNL     1       2.201  -2.105  -0.632  1.00  0.00    -0.246 OA
BRANCH   3   5
ATOM      5  C   UNL     1       4.025  -1.720   0.782  1.00  0.00     0.060 A 
ATOM      6  C   UNL     1       5.237  -1.141   1.167  1.00  0.00     0.016 A 
ATOM      7  C   UNL     1       3.470  -2.669   1.671  1.00  0.00     0.016 A 
ATOM      8  C   UNL     1       5.827  -1.434   2.418  1.00  0.00     0.010 A 
ATOM      9  C   UNL     1       4.043  -2.945   2.925  1.00  0.00     0.010 A 
ATOM     10  C   UNL     1       5.228  -2.319   3.325  1.00  0.00    -0.014 A 
BRANCH  10  11
ATOM     11  C   UNL     1       5.928  -2.688   4.593  1.00  0.00     0.031 A 
ATOM     12  C   UNL     1       6.617  -3.999   4.675  1.00  0.00     0.074 A 
ATOM     13  C   UNL     1       5.938  -1.937   5.712  1.00  0.00     0.049 A 
ATOM     14  N   UNL     1       7.364  -4.459   5.641  1.00  0.00    -0.248 NA
ATOM     15  C   UNL     1       6.362  -4.941   3.579  1.00  0.00     0.031 C 
ATOM     16  C   UNL     1       5.066  -0.814   5.921  1.00  0.00     0.029 A 
ATOM     17  N   UNL     1       6.653  -1.993   6.892  1.00  0.00    -0.354 N 
ATOM     18  C   UNL     1       7.661  -5.754   5.277  1.00  0.00     0.074 A 
ATOM     19  C   UNL     1       6.954  -6.027   4.042  1.00  0.00     0.031 C 
ATOM     20  C   UNL     1       5.357  -0.209   7.075  1.00  0.00     0.029 A 
ATOM     21  C   UNL     1       6.458  -0.891   7.704  1.00  0.00     0.049 A 
ATOM     22  H   UNL     1       7.243  -2.744   7.131  1.00  0.00     0.167 HD
ATOM     23  C   UNL     1       8.469  -6.633   5.907  1.00  0.00     0.031 A 
ATOM     24  C   UNL     1       7.080  -0.448   8.816  1.00  0.00     0.031 A 
ATOM     25  C   UNL     1       9.104  -6.395   7.172  1.00  0.00     0.049 A 
ATOM     26  C   UNL     1       8.066  -1.377   9.441  1.00  0.00     0.074 A 
ATOM     27  C   UNL     1       9.919  -7.241   7.900  1.00  0.00     0.029 A 
ATOM     28  N   UNL     1       8.980  -5.225   7.913  1.00  0.00    -0.354 N 
ATOM     29  N   UNL     1       8.426  -2.567   9.028  1.00  0.00    -0.248 NA
ATOM     30  C   UNL     1       8.684  -0.953  10.702  1.00  0.00     0.031 C 
ATOM     31  C   UNL     1      10.269  -6.593   9.092  1.00  0.00     0.029 A 
ATOM     32  C   UNL     1       9.714  -5.324   9.086  1.00  0.00     0.049 A 
ATOM     33  H   UNL     1       8.448  -4.441   7.645  1.00  0.00     0.167 HD
ATOM     34  C   UNL     1       9.286  -3.052   9.993  1.00  0.00     0.074 A 
ATOM     35  C   UNL     1       9.452  -1.997  10.976  1.00  0.00     0.031 C 
ATOM     36  C   UNL     1       9.853  -4.279  10.069  1.00  0.00     0.031 A 
BRANCH  23  37
ATOM     37  C   UNL     1       8.651  -7.928   5.181  1.00  0.00    -0.014 A 
ATOM     38  C   UNL     1       9.349  -7.957   3.959  1.00  0.00     0.009 A 
ATOM     39  C   UNL     1       7.987  -9.078   5.621  1.00  0.00     0.009 A 
ATOM     40  C   UNL     1       9.314  -9.095   3.156  1.00  0.00     0.001 A 
ATOM     41  C   UNL     1       7.985 -10.227   4.830  1.00  0.00     0.001 A 
ATOM     42  C   UNL     1       8.630 -10.228   3.592  1.00  0.00     0.000 A 
ENDBRANCH  23  37
BRANCH  24  43
ATOM     43  C   UNL     1       6.827   0.915   9.389  1.00  0.00    -0.014 A 
ATOM     44  C   UNL     1       7.868   1.864   9.442  1.00  0.00     0.009 A 
ATOM     45  C   UNL     1       5.570   1.298   9.883  1.00  0.00     0.009 A 
ATOM     46  C   UNL     1       7.660   3.139   9.982  1.00  0.00     0.001 A 
ATOM     47  C   UNL     1       5.349   2.592  10.372  1.00  0.00     0.001 A 
ATOM     48  C   UNL     1       6.396   3.508  10.433  1.00  0.00     0.000 A 
ENDBRANCH  24  43
BRANCH  36  49
ATOM     49  C   UNL     1      10.725  -4.513  11.264  1.00  0.00    -0.014 A 
ATOM     50  C   UNL     1      10.179  -4.642  12.552  1.00  0.00     0.009 A 
ATOM     51  C   UNL     1      12.116  -4.548  11.101  1.00  0.00     0.009 A 
ATOM     52  C   UNL     1      11.017  -4.745  13.662  1.00  0.00     0.001 A 
ATOM     53  C   UNL     1      12.950  -4.682  12.209  1.00  0.00     0.001 A 
ATOM     54  C   UNL     1      12.401  -4.764  13.489  1.00  0.00     0.000 A 
ENDBRANCH  36  49
ENDBRANCH  10  11
ENDBRANCH   3   5
ENDBRANCH   2   3
ENDBRANCH   1   2
BRANCH   1  55
ATOM     55  C   UNL     1       3.964   1.891  -0.371  1.00  0.00     0.274 C 
BRANCH  55  56
ATOM     56  O   UNL     1       3.409   1.442   0.871  1.00  0.00    -0.458 OA
BRANCH  56  57
ATOM     57  C   UNL     1       2.247   2.044   1.299  1.00  0.00     0.365 C 
ATOM     58  O   UNL     1       1.642   2.902   0.676  1.00  0.00    -0.245 OA
BRANCH  57  59
ATOM     59  C   UNL     1       1.867   1.558   2.720  1.00  0.00     0.295 C 
ATOM     60  C   UNL     1       2.127   0.054   2.806  1.00  0.00     0.078 C 
ATOM     61  N   UNL     1       2.470   2.369   3.839  1.00  0.00    -0.313 N 
ATOM     62  C   UNL     1       1.764  -0.623   4.104  1.00  0.00     0.016 C 
ATOM     63  C   UNL     1       2.185   1.709   5.153  1.00  0.00     0.188 C 
ATOM     64  H   UNL     1       2.006   3.277   3.887  1.00  0.00     0.349 HD
ATOM     65  C   UNL     1       1.363   0.373   5.163  1.00  0.00     0.048 C 
ATOM     66  C   UNL     1       1.371   2.625   6.093  1.00  0.00     0.065 C 
ATOM     67  C   UNL     1       1.442  -0.282   6.556  1.00  0.00     0.010 C 
ATOM     68  C   UNL     1       1.368   2.065   7.527  1.00  0.00     0.006 C 
ATOM     69  C   UNL     1       0.856   0.627   7.626  1.00  0.00     0.001 C 
BRANCH  61  70
ATOM     70  C   UNL     1       3.900   2.814   3.577  1.00  0.00     0.244 C 
ATOM     71  C   UNL     1       5.020   1.787   3.865  1.00  0.00     0.328 C 
ATOM     72  C   UNL     1       4.455   4.186   4.107  1.00  0.00     0.064 C 
ATOM     73  N   UNL     1       6.017   2.254   4.862  1.00  0.00    -0.330 N 
ATOM     74  C   UNL     1       5.931   4.344   3.574  1.00  0.00     0.071 C 
ATOM     75  C   UNL     1       4.605   4.187   5.620  1.00  0.00     0.071 C 
ATOM     76  C   UNL     1       6.847   3.266   4.194  1.00  0.00     0.262 C 
ATOM     77  C   UNL     1       5.375   2.930   6.019  1.00  0.00     0.262 C 
ATOM     78  H   UNL     1       6.541   1.447   5.200  1.00  0.00     0.348 HD
ENDBRANCH  61  70
ENDBRANCH  57  59
ENDBRANCH  56  57
ENDBRANCH  55  56
ENDBRANCH   1  55
TORSDOF 12
