REMARK SMILES O=C(OCCOC(=O)[C@@H]1C=C[C@H](NS(=O)(=O)c2ccc(Cl)cc2)C1)c1ccc(-c2c3nc(c(-c4ccccc4)c4ccc([nH]4)c(-c4ccccc4)c4nc(c(-c5ccccc5)c5ccc2[nH]5)C=C4)C=C3)cc1
REMARK SMILES IDX 5 1 4 2 3 3 2 4 1 5 25 6 26 7 72 8 27 9 71 10 28 11 29 12
REMARK SMILES IDX 30 13 65 14 31 15 70 16 64 17 66 18 32 19 69 20 63 21 62 22
REMARK SMILES IDX 33 24 55 25 40 26 54 27 41 28 44 29 53 30 67 31 42 32 43 33
REMARK SMILES IDX 52 35 68 36 45 37 34 38 35 39 39 40 36 41 38 42 37 43 56 44
REMARK SMILES IDX 57 45 61 46 58 47 60 48 59 49 46 50 47 51 51 52 48 53 50 54
REMARK SMILES IDX 49 55 6 56 7 57 8 58 9 59 10 60 24 61 11 62 12 63 13 64
REMARK SMILES IDX 14 66 15 67 16 68 17 69 18 70 23 71 19 72 22 73 20 74 21 75
REMARK H PARENT 66 23 44 34 13 65
REMARK Flexibility Score: inf
ROOT
ATOM      1  C   UNL     1       2.775   0.130  -3.905  1.00  0.00     0.274 C 
ENDROOT
BRANCH   1   2
ATOM      2  C   UNL     1       1.795   1.227  -3.516  1.00  0.00     0.275 C 
BRANCH   2   3
ATOM      3  O   UNL     1       2.006   1.733  -2.186  1.00  0.00    -0.458 OA
BRANCH   3   4
ATOM      4  C   UNL     1       1.566   1.289  -0.988  1.00  0.00     0.338 C 
ATOM      5  O   UNL     1       1.916   1.911   0.016  1.00  0.00    -0.246 OA
BRANCH   4   6
ATOM      6  C   UNL     1       0.738   0.055  -0.759  1.00  0.00     0.060 A 
ATOM      7  C   UNL     1      -0.177  -0.529  -1.644  1.00  0.00     0.016 A 
ATOM      8  C   UNL     1       0.860  -0.531   0.517  1.00  0.00     0.016 A 
ATOM      9  C   UNL     1      -0.915  -1.681  -1.288  1.00  0.00     0.010 A 
ATOM     10  C   UNL     1       0.121  -1.667   0.880  1.00  0.00     0.010 A 
ATOM     11  C   UNL     1      -0.785  -2.250  -0.018  1.00  0.00    -0.014 A 
BRANCH  11  12
ATOM     12  C   UNL     1      -1.752  -3.245   0.521  1.00  0.00     0.031 A 
ATOM     13  C   UNL     1      -2.982  -2.719   1.178  1.00  0.00     0.074 A 
ATOM     14  C   UNL     1      -1.538  -4.574   0.529  1.00  0.00     0.049 A 
ATOM     15  N   UNL     1      -3.967  -3.396   1.699  1.00  0.00    -0.248 NA
ATOM     16  C   UNL     1      -3.162  -1.259   1.187  1.00  0.00     0.031 C 
ATOM     17  C   UNL     1      -0.546  -5.245  -0.270  1.00  0.00     0.029 A 
ATOM     18  N   UNL     1      -2.118  -5.608   1.214  1.00  0.00    -0.354 N 
ATOM     19  C   UNL     1      -4.917  -2.451   2.031  1.00  0.00     0.074 A 
ATOM     20  C   UNL     1      -4.369  -1.150   1.717  1.00  0.00     0.031 C 
ATOM     21  C   UNL     1      -0.415  -6.528   0.086  1.00  0.00     0.029 A 
ATOM     22  C   UNL     1      -1.442  -6.803   1.074  1.00  0.00     0.049 A 
ATOM     23  H   UNL     1      -2.936  -5.509   1.752  1.00  0.00     0.167 HD
ATOM     24  C   UNL     1      -6.153  -2.665   2.528  1.00  0.00     0.031 A 
ATOM     25  C   UNL     1      -1.666  -8.014   1.612  1.00  0.00     0.031 A 
ATOM     26  C   UNL     1      -6.644  -3.955   2.916  1.00  0.00     0.049 A 
ATOM     27  C   UNL     1      -2.960  -8.196   2.336  1.00  0.00     0.074 A 
ATOM     28  C   UNL     1      -7.868  -4.283   3.465  1.00  0.00     0.029 A 
ATOM     29  N   UNL     1      -5.908  -5.131   2.835  1.00  0.00    -0.354 N 
ATOM     30  N   UNL     1      -3.902  -7.309   2.542  1.00  0.00    -0.248 NA
ATOM     31  C   UNL     1      -3.270  -9.545   2.818  1.00  0.00     0.031 C 
ATOM     32  C   UNL     1      -7.846  -5.647   3.783  1.00  0.00     0.029 A 
ATOM     33  C   UNL     1      -6.624  -6.176   3.392  1.00  0.00     0.049 A 
ATOM     34  H   UNL     1      -5.010  -5.209   2.439  1.00  0.00     0.167 HD
ATOM     35  C   UNL     1      -4.943  -7.997   3.133  1.00  0.00     0.074 A 
ATOM     36  C   UNL     1      -4.513  -9.380   3.253  1.00  0.00     0.031 C 
ATOM     37  C   UNL     1      -6.152  -7.530   3.527  1.00  0.00     0.031 A 
BRANCH  24  38
ATOM     38  C   UNL     1      -6.994  -1.444   2.712  1.00  0.00    -0.014 A 
ATOM     39  C   UNL     1      -7.594  -0.813   1.609  1.00  0.00     0.009 A 
ATOM     40  C   UNL     1      -7.106  -0.864   3.982  1.00  0.00     0.009 A 
ATOM     41  C   UNL     1      -8.264   0.401   1.774  1.00  0.00     0.001 A 
ATOM     42  C   UNL     1      -7.788   0.342   4.144  1.00  0.00     0.001 A 
ATOM     43  C   UNL     1      -8.357   0.977   3.040  1.00  0.00     0.000 A 
ENDBRANCH  24  38
BRANCH  25  44
ATOM     44  C   UNL     1      -0.720  -9.138   1.379  1.00  0.00    -0.014 A 
ATOM     45  C   UNL     1      -1.037 -10.180   0.495  1.00  0.00     0.009 A 
ATOM     46  C   UNL     1       0.524  -9.163   2.032  1.00  0.00     0.009 A 
ATOM     47  C   UNL     1      -0.143 -11.236   0.292  1.00  0.00     0.001 A 
ATOM     48  C   UNL     1       1.423 -10.213   1.815  1.00  0.00     0.001 A 
ATOM     49  C   UNL     1       1.085 -11.252   0.951  1.00  0.00     0.000 A 
ENDBRANCH  25  44
BRANCH  37  50
ATOM     50  C   UNL     1      -7.066  -8.528   4.166  1.00  0.00    -0.014 A 
ATOM     51  C   UNL     1      -6.814  -8.986   5.468  1.00  0.00     0.009 A 
ATOM     52  C   UNL     1      -8.197  -8.988   3.477  1.00  0.00     0.009 A 
ATOM     53  C   UNL     1      -7.670  -9.912   6.062  1.00  0.00     0.001 A 
ATOM     54  C   UNL     1      -9.064  -9.894   4.085  1.00  0.00     0.001 A 
ATOM     55  C   UNL     1      -8.796 -10.360   5.373  1.00  0.00     0.000 A 
ENDBRANCH  37  50
ENDBRANCH  11  12
ENDBRANCH   4   6
ENDBRANCH   3   4
ENDBRANCH   2   3
ENDBRANCH   1   2
BRANCH   1  56
ATOM     56  O   UNL     1       2.901  -0.831  -2.852  1.00  0.00    -0.462 OA
BRANCH  56  57
ATOM     57  C   UNL     1       4.149  -1.315  -2.606  1.00  0.00     0.312 C 
ATOM     58  O   UNL     1       5.150  -1.022  -3.248  1.00  0.00    -0.252 OA
BRANCH  57  59
ATOM     59  C   UNL     1       4.168  -2.208  -1.370  1.00  0.00     0.123 C 
ATOM     60  C   UNL     1       4.994  -3.444  -1.581  1.00  0.00    -0.015 C 
ATOM     61  C   UNL     1       2.811  -2.792  -0.971  1.00  0.00     0.043 C 
ATOM     62  C   UNL     1       4.258  -4.561  -1.566  1.00  0.00    -0.011 C 
ATOM     63  C   UNL     1       2.840  -4.268  -1.313  1.00  0.00     0.093 C 
BRANCH  63  64
ATOM     64  N   UNL     1       1.893  -4.695  -2.345  1.00  0.00    -0.204 NA
ATOM     65  H   UNL     1       0.993  -4.528  -1.894  1.00  0.00     0.142 HD
BRANCH  64  66
ATOM     66  S   UNL     1       1.567  -4.314  -3.932  1.00  0.00     0.241 S 
ATOM     67  O   UNL     1       0.947  -5.469  -4.524  1.00  0.00    -0.207 OA
ATOM     68  O   UNL     1       0.822  -3.067  -3.825  1.00  0.00    -0.207 OA
BRANCH  66  69
ATOM     69  C   UNL     1       3.034  -3.972  -4.809  1.00  0.00     0.082 A 
ATOM     70  C   UNL     1       4.173  -4.738  -4.606  1.00  0.00     0.023 A 
ATOM     71  C   UNL     1       3.041  -2.892  -5.694  1.00  0.00     0.023 A 
ATOM     72  C   UNL     1       5.381  -4.307  -5.147  1.00  0.00     0.022 A 
ATOM     73  C   UNL     1       4.241  -2.483  -6.265  1.00  0.00     0.022 A 
ATOM     74  C   UNL     1       5.414  -3.167  -5.953  1.00  0.00     0.041 A 
ATOM     75  Cl  UNL     1       6.916  -2.595  -6.559  1.00  0.00    -0.084 Cl
ENDBRANCH  66  69
ENDBRANCH  64  66
ENDBRANCH  63  64
ENDBRANCH  57  59
ENDBRANCH  56  57
ENDBRANCH   1  56
TORSDOF 14
