REMARK SMILES CS(=O)(=O)c1ccc(/C=C(/C(=O)OCCOC(=O)c2ccc(-c3c4nc(c(-c5ccccc5)c5ccc([nH]5)c(-c5ccccc5)c5nc(c(-c6ccccc6)c6ccc3[nH]6)C=C5)C=C4)cc2)c2ccc(-c3ccc(F)cc3F)cc2)cc1
REMARK SMILES IDX 14 1 13 2 11 3 12 4 10 5 9 6 8 7 5 8 6 9 82 10 7 11 81 12
REMARK SMILES IDX 2 13 1 14 3 15 4 16 67 17 68 18 80 19 69 20 79 21 70 22
REMARK SMILES IDX 71 23 72 24 77 25 73 26 76 27 78 28 74 29 75 30 15 31 16 32
REMARK SMILES IDX 17 33 18 34 19 35 20 36 66 37 21 38 65 39 22 40 23 41 24 42
REMARK SMILES IDX 59 43 25 44 64 45 58 46 60 47 26 48 63 49 57 50 56 51 27 53
REMARK SMILES IDX 49 54 34 55 48 56 35 57 38 58 47 59 61 60 36 61 37 62 46 64
REMARK SMILES IDX 62 65 39 66 28 67 29 68 33 69 30 70 32 71 31 72 50 73 51 74
REMARK SMILES IDX 55 75 52 76 54 77 53 78 40 79 41 80 45 81 42 82 44 83 43 84
REMARK H PARENT 60 52 38 63
REMARK Flexibility Score: inf
ROOT
ATOM      1  C   UNL     1       2.954  -1.436  10.509  1.00  0.00     0.275 C 
ENDROOT
BRANCH   1   2
ATOM      2  O   UNL     1       2.321  -1.111   9.255  1.00  0.00    -0.458 OA
BRANCH   2   3
ATOM      3  C   UNL     1       2.711  -1.865   8.195  1.00  0.00     0.338 C 
ATOM      4  O   UNL     1       3.560  -2.746   8.226  1.00  0.00    -0.246 OA
BRANCH   3   5
ATOM      5  C   UNL     1       1.943  -1.536   6.956  1.00  0.00     0.067 C 
ATOM      6  C   UNL     1       1.677  -0.242   6.664  1.00  0.00     0.024 C 
BRANCH   6   7
ATOM      7  C   UNL     1       1.172   0.290   5.377  1.00  0.00    -0.025 A 
ATOM      8  C   UNL     1       0.560   1.192   2.793  1.00  0.00     0.067 A 
ATOM      9  C   UNL     1      -0.129   0.105   3.324  1.00  0.00     0.021 A 
ATOM     10  C   UNL     1       1.474   1.900   3.571  1.00  0.00     0.021 A 
ATOM     11  C   UNL     1       0.159  -0.318   4.622  1.00  0.00     0.009 A 
ATOM     12  C   UNL     1       1.781   1.444   4.858  1.00  0.00     0.009 A 
BRANCH   8  13
ATOM     13  S   UNL     1       0.262   1.654   1.105  1.00  0.00     0.175 S 
ATOM     14  C   UNL     1       1.017   0.338   0.181  1.00  0.00     0.163 C 
ATOM     15  O   UNL     1       1.012   2.868   0.839  1.00  0.00    -0.224 OA
ATOM     16  O   UNL     1      -1.171   1.598   0.893  1.00  0.00    -0.224 OA
ENDBRANCH   8  13
ENDBRANCH   6   7
BRANCH   5  17
ATOM     17  C   UNL     1       1.637  -2.638   6.023  1.00  0.00    -0.011 A 
ATOM     18  C   UNL     1       0.416  -3.312   6.134  1.00  0.00     0.009 A 
ATOM     19  C   UNL     1       2.502  -2.972   4.981  1.00  0.00     0.009 A 
ATOM     20  C   UNL     1       0.045  -4.271   5.186  1.00  0.00     0.009 A 
ATOM     21  C   UNL     1       2.123  -3.930   4.032  1.00  0.00     0.009 A 
ATOM     22  C   UNL     1       0.880  -4.587   4.099  1.00  0.00    -0.015 A 
BRANCH  22  23
ATOM     23  C   UNL     1       0.444  -5.537   3.050  1.00  0.00     0.018 A 
ATOM     24  C   UNL     1      -0.896  -5.554   2.608  1.00  0.00     0.015 A 
ATOM     25  C   UNL     1       1.331  -6.434   2.424  1.00  0.00     0.133 A 
ATOM     26  C   UNL     1      -1.317  -6.418   1.593  1.00  0.00     0.040 A 
ATOM     27  C   UNL     1       0.922  -7.292   1.405  1.00  0.00     0.079 A 
ATOM     28  F   UNL     1       2.619  -6.486   2.797  1.00  0.00    -0.206 F 
ATOM     29  C   UNL     1      -0.401  -7.274   0.998  1.00  0.00     0.126 A 
ATOM     30  F   UNL     1      -0.801  -8.083   0.009  1.00  0.00    -0.207 F 
ENDBRANCH  22  23
ENDBRANCH   5  17
ENDBRANCH   3   5
ENDBRANCH   2   3
ENDBRANCH   1   2
BRANCH   1  31
ATOM     31  C   UNL     1       2.052  -2.317  11.372  1.00  0.00     0.275 C 
BRANCH  31  32
ATOM     32  O   UNL     1       1.857  -3.603  10.756  1.00  0.00    -0.458 OA
BRANCH  32  33
ATOM     33  C   UNL     1       0.636  -3.801  10.211  1.00  0.00     0.338 C 
ATOM     34  O   UNL     1      -0.312  -3.034  10.203  1.00  0.00    -0.246 OA
BRANCH  33  35
ATOM     35  C   UNL     1       0.573  -5.122   9.568  1.00  0.00     0.060 A 
ATOM     36  C   UNL     1       1.338  -5.372   8.433  1.00  0.00     0.016 A 
ATOM     37  C   UNL     1      -0.397  -6.036   9.977  1.00  0.00     0.016 A 
ATOM     38  C   UNL     1       1.044  -6.473   7.630  1.00  0.00     0.010 A 
ATOM     39  C   UNL     1      -0.607  -7.199   9.228  1.00  0.00     0.010 A 
ATOM     40  C   UNL     1       0.074  -7.408   8.015  1.00  0.00    -0.014 A 
BRANCH  40  41
ATOM     41  C   UNL     1      -0.268  -8.576   7.153  1.00  0.00     0.031 A 
ATOM     42  C   UNL     1      -1.702  -8.835   6.760  1.00  0.00     0.074 A 
ATOM     43  C   UNL     1       0.686  -9.430   6.730  1.00  0.00     0.049 A 
ATOM     44  N   UNL     1      -2.249  -9.927   6.288  1.00  0.00    -0.248 NA
ATOM     45  C   UNL     1      -2.649  -7.721   6.937  1.00  0.00     0.031 C 
ATOM     46  C   UNL     1       2.125  -9.285   6.951  1.00  0.00     0.029 A 
ATOM     47  N   UNL     1       0.578 -10.607   6.027  1.00  0.00    -0.354 N 
ATOM     48  C   UNL     1      -3.610  -9.660   6.192  1.00  0.00     0.074 A 
ATOM     49  C   UNL     1      -3.805  -8.296   6.635  1.00  0.00     0.031 C 
ATOM     50  C   UNL     1       2.767 -10.310   6.374  1.00  0.00     0.029 A 
ATOM     51  C   UNL     1       1.782 -11.244   5.844  1.00  0.00     0.049 A 
ATOM     52  H   UNL     1      -0.277 -10.959   5.688  1.00  0.00     0.167 HD
ATOM     53  C   UNL     1      -4.607 -10.485   5.787  1.00  0.00     0.031 A 
ATOM     54  C   UNL     1       2.069 -12.471   5.372  1.00  0.00     0.031 A 
ATOM     55  C   UNL     1      -4.402 -11.823   5.296  1.00  0.00     0.049 A 
ATOM     56  C   UNL     1       0.951 -13.386   4.971  1.00  0.00     0.074 A 
ATOM     57  C   UNL     1      -5.347 -12.736   4.858  1.00  0.00     0.029 A 
ATOM     58  N   UNL     1      -3.164 -12.429   5.154  1.00  0.00    -0.354 N 
ATOM     59  N   UNL     1      -0.340 -13.162   4.979  1.00  0.00    -0.248 NA
ATOM     60  C   UNL     1       1.330 -14.732   4.519  1.00  0.00     0.031 C 
ATOM     61  C   UNL     1      -4.682 -13.908   4.483  1.00  0.00     0.029 A 
ATOM     62  C   UNL     1      -3.321 -13.706   4.642  1.00  0.00     0.049 A 
ATOM     63  H   UNL     1      -2.302 -12.014   5.384  1.00  0.00     0.167 HD
ATOM     64  C   UNL     1      -0.927 -14.332   4.518  1.00  0.00     0.074 A 
ATOM     65  C   UNL     1       0.148 -15.258   4.228  1.00  0.00     0.031 C 
ATOM     66  C   UNL     1      -2.242 -14.612   4.352  1.00  0.00     0.031 A 
BRANCH  53  67
ATOM     67  C   UNL     1      -6.021  -9.988   5.906  1.00  0.00    -0.014 A 
ATOM     68  C   UNL     1      -6.546  -9.030   5.026  1.00  0.00     0.009 A 
ATOM     69  C   UNL     1      -6.860 -10.537   6.891  1.00  0.00     0.009 A 
ATOM     70  C   UNL     1      -7.874  -8.612   5.149  1.00  0.00     0.001 A 
ATOM     71  C   UNL     1      -8.193 -10.137   6.994  1.00  0.00     0.001 A 
ATOM     72  C   UNL     1      -8.697  -9.169   6.128  1.00  0.00     0.000 A 
ENDBRANCH  53  67
BRANCH  54  73
ATOM     73  C   UNL     1       3.483 -12.928   5.329  1.00  0.00    -0.014 A 
ATOM     74  C   UNL     1       4.146 -13.081   4.104  1.00  0.00     0.009 A 
ATOM     75  C   UNL     1       4.184 -13.184   6.519  1.00  0.00     0.009 A 
ATOM     76  C   UNL     1       5.482 -13.489   4.071  1.00  0.00     0.001 A 
ATOM     77  C   UNL     1       5.527 -13.560   6.485  1.00  0.00     0.001 A 
ATOM     78  C   UNL     1       6.173 -13.719   5.260  1.00  0.00     0.000 A 
ENDBRANCH  54  73
BRANCH  66  79
ATOM     79  C   UNL     1      -2.587 -15.956   3.782  1.00  0.00    -0.014 A 
ATOM     80  C   UNL     1      -2.523 -17.118   4.566  1.00  0.00     0.009 A 
ATOM     81  C   UNL     1      -3.019 -16.052   2.450  1.00  0.00     0.009 A 
ATOM     82  C   UNL     1      -2.861 -18.356   4.016  1.00  0.00     0.001 A 
ATOM     83  C   UNL     1      -3.377 -17.287   1.910  1.00  0.00     0.001 A 
ATOM     84  C   UNL     1      -3.291 -18.439   2.691  1.00  0.00     0.000 A 
ENDBRANCH  66  79
ENDBRANCH  40  41
ENDBRANCH  33  35
ENDBRANCH  32  33
ENDBRANCH  31  32
ENDBRANCH   1  31
TORSDOF 15
