REMARK SMILES C[C@H]1[C@@H](C(=O)OCCOC(=O)c2ccc(-c3c4nc(c(-c5ccccc5)c5ccc([nH]5)c(-c5ccccc5)c5nc(c(-c6ccccc6)c6ccc3[nH]6)C=C5)C=C4)cc2)CCN1C(=O)N[C@@H]1CC[N@@H+]2CCCC[C@H]12
REMARK SMILES IDX 7 1 6 2 4 3 5 4 3 5 1 6 2 7 62 8 60 9 61 10 63 11 64 12
REMARK SMILES IDX 65 13 66 15 67 16 74 17 68 18 69 19 73 20 70 21 72 23 71 24
REMARK SMILES IDX 8 25 9 26 10 27 11 28 12 29 13 30 59 31 14 32 58 33 15 34
REMARK SMILES IDX 16 35 17 36 52 37 18 38 57 39 51 40 53 41 19 42 56 43 50 44
REMARK SMILES IDX 49 45 20 47 42 48 27 49 41 50 28 51 31 52 40 53 54 54 29 55
REMARK SMILES IDX 30 56 39 58 55 59 32 60 21 61 22 62 26 63 23 64 25 65 24 66
REMARK SMILES IDX 43 67 44 68 48 69 45 70 47 71 46 72 33 73 34 74 38 75 35 76
REMARK SMILES IDX 37 77 36 78
REMARK H PARENT 65 14 69 22 53 46 31 57
REMARK Flexibility Score: inf
ROOT
ATOM      1  C   UNL     1      -2.007  -4.894  -3.049  1.00  0.00     0.274 C 
ENDROOT
BRANCH   1   2
ATOM      2  O   UNL     1      -1.591  -5.114  -1.682  1.00  0.00    -0.462 OA
BRANCH   2   3
ATOM      3  C   UNL     1      -0.261  -5.357  -1.502  1.00  0.00     0.311 C 
ATOM      4  O   UNL     1       0.559  -5.423  -2.408  1.00  0.00    -0.252 OA
BRANCH   3   5
ATOM      5  C   UNL     1       0.059  -5.550  -0.021  1.00  0.00     0.123 C 
ATOM      6  C   UNL     1       0.114  -3.009   0.246  1.00  0.00     0.032 C 
ATOM      7  C   UNL     1       0.713  -4.337   0.690  1.00  0.00     0.098 C 
ATOM      8  N   UNL     1       2.169  -4.525   0.505  1.00  0.00    -0.321 N 
ATOM      9  C   UNL     1       1.131  -6.626   0.103  1.00  0.00     0.039 C 
ATOM     10  C   UNL     1       2.417  -5.839  -0.092  1.00  0.00     0.122 C 
BRANCH   8  11
ATOM     11  C   UNL     1       3.281  -3.878   0.944  1.00  0.00     0.318 C 
ATOM     12  O   UNL     1       4.410  -4.287   0.644  1.00  0.00    -0.249 OA
ATOM     13  N   UNL     1       3.295  -2.801   1.732  1.00  0.00    -0.329 N 
ATOM     14  H   UNL     1       4.206  -2.619   2.060  1.00  0.00     0.165 HD
BRANCH  13  15
ATOM     15  C   UNL     1       2.357  -1.821   2.245  1.00  0.00     0.147 C 
ATOM     16  C   UNL     1       2.471  -0.525   1.453  1.00  0.00     0.092 C 
ATOM     17  C   UNL     1       2.567  -1.337   3.708  1.00  0.00     0.207 C 
ATOM     18  C   UNL     1       1.859   0.499   2.381  1.00  0.00     0.264 C 
ATOM     19  N   UNL     1       2.350   0.140   3.714  1.00  0.00    -0.331 N 
ATOM     20  C   UNL     1       3.878  -1.769   4.382  1.00  0.00     0.067 C 
ATOM     21  C   UNL     1       3.559   0.895   4.061  1.00  0.00     0.262 C 
ATOM     22  H   UNL     1       1.673   0.386   4.436  1.00  0.00     0.348 HD
ATOM     23  C   UNL     1       4.058  -1.005   5.690  1.00  0.00     0.012 C 
ATOM     24  C   UNL     1       4.069   0.506   5.450  1.00  0.00     0.062 C 
ENDBRANCH  13  15
ENDBRANCH   8  11
ENDBRANCH   3   5
ENDBRANCH   2   3
ENDBRANCH   1   2
BRANCH   1  25
ATOM     25  C   UNL     1      -2.055  -3.400  -3.359  1.00  0.00     0.275 C 
BRANCH  25  26
ATOM     26  O   UNL     1      -0.725  -2.858  -3.306  1.00  0.00    -0.458 OA
BRANCH  26  27
ATOM     27  C   UNL     1      -0.663  -1.517  -3.135  1.00  0.00     0.338 C 
ATOM     28  O   UNL     1      -1.614  -0.754  -3.095  1.00  0.00    -0.246 OA
BRANCH  27  29
ATOM     29  C   UNL     1       0.743  -1.072  -2.963  1.00  0.00     0.060 A 
ATOM     30  C   UNL     1       1.743  -1.925  -2.486  1.00  0.00     0.016 A 
ATOM     31  C   UNL     1       1.045   0.271  -3.202  1.00  0.00     0.016 A 
ATOM     32  C   UNL     1       3.003  -1.417  -2.155  1.00  0.00     0.010 A 
ATOM     33  C   UNL     1       2.336   0.752  -2.967  1.00  0.00     0.010 A 
ATOM     34  C   UNL     1       3.323  -0.074  -2.404  1.00  0.00    -0.014 A 
BRANCH  34  35
ATOM     35  C   UNL     1       4.669   0.488  -2.095  1.00  0.00     0.031 A 
ATOM     36  C   UNL     1       4.819   1.678  -1.178  1.00  0.00     0.074 A 
ATOM     37  C   UNL     1       5.771  -0.035  -2.669  1.00  0.00     0.049 A 
ATOM     38  N   UNL     1       5.888   2.386  -0.906  1.00  0.00    -0.248 NA
ATOM     39  C   UNL     1       3.617   2.119  -0.453  1.00  0.00     0.031 C 
ATOM     40  C   UNL     1       5.808  -1.220  -3.527  1.00  0.00     0.029 A 
ATOM     41  N   UNL     1       7.077   0.396  -2.642  1.00  0.00    -0.354 N 
ATOM     42  C   UNL     1       5.494   3.328   0.037  1.00  0.00     0.074 A 
ATOM     43  C   UNL     1       4.081   3.128   0.270  1.00  0.00     0.031 C 
ATOM     44  C   UNL     1       7.063  -1.412  -3.958  1.00  0.00     0.029 A 
ATOM     45  C   UNL     1       7.898  -0.314  -3.484  1.00  0.00     0.049 A 
ATOM     46  H   UNL     1       7.391   1.137  -2.076  1.00  0.00     0.167 HD
ATOM     47  C   UNL     1       6.236   4.274   0.658  1.00  0.00     0.031 A 
ATOM     48  C   UNL     1       9.155  -0.074  -3.901  1.00  0.00     0.031 A 
ATOM     49  C   UNL     1       7.619   4.540   0.375  1.00  0.00     0.049 A 
ATOM     50  C   UNL     1       9.882   1.141  -3.404  1.00  0.00     0.074 A 
ATOM     51  C   UNL     1       8.448   5.497   0.935  1.00  0.00     0.029 A 
ATOM     52  N   UNL     1       8.366   3.870  -0.579  1.00  0.00    -0.354 N 
ATOM     53  N   UNL     1       9.502   2.016  -2.506  1.00  0.00    -0.248 NA
ATOM     54  C   UNL     1      11.200   1.413  -3.994  1.00  0.00     0.031 C 
ATOM     55  C   UNL     1       9.676   5.455   0.265  1.00  0.00     0.029 A 
ATOM     56  C   UNL     1       9.627   4.434  -0.669  1.00  0.00     0.049 A 
ATOM     57  H   UNL     1       8.048   3.107  -1.113  1.00  0.00     0.167 HD
ATOM     58  C   UNL     1      10.544   2.929  -2.405  1.00  0.00     0.074 A 
ATOM     59  C   UNL     1      11.570   2.503  -3.334  1.00  0.00     0.031 C 
ATOM     60  C   UNL     1      10.640   4.015  -1.601  1.00  0.00     0.031 A 
BRANCH  47  61
ATOM     61  C   UNL     1       5.549   5.129   1.683  1.00  0.00    -0.014 A 
ATOM     62  C   UNL     1       5.289   4.638   2.972  1.00  0.00     0.009 A 
ATOM     63  C   UNL     1       5.204   6.454   1.374  1.00  0.00     0.009 A 
ATOM     64  C   UNL     1       4.677   5.453   3.927  1.00  0.00     0.001 A 
ATOM     65  C   UNL     1       4.607   7.271   2.336  1.00  0.00     0.001 A 
ATOM     66  C   UNL     1       4.340   6.769   3.609  1.00  0.00     0.000 A 
ENDBRANCH  47  61
BRANCH  48  67
ATOM     67  C   UNL     1       9.759  -0.956  -4.933  1.00  0.00    -0.014 A 
ATOM     68  C   UNL     1      10.815  -1.820  -4.616  1.00  0.00     0.009 A 
ATOM     69  C   UNL     1       9.250  -0.954  -6.244  1.00  0.00     0.009 A 
ATOM     70  C   UNL     1      11.351  -2.663  -5.593  1.00  0.00     0.001 A 
ATOM     71  C   UNL     1       9.767  -1.818  -7.209  1.00  0.00     0.001 A 
ATOM     72  C   UNL     1      10.821  -2.668  -6.884  1.00  0.00     0.000 A 
ENDBRANCH  48  67
BRANCH  60  73
ATOM     73  C   UNL     1      11.909   4.811  -1.663  1.00  0.00    -0.014 A 
ATOM     74  C   UNL     1      12.165   5.687  -2.728  1.00  0.00     0.009 A 
ATOM     75  C   UNL     1      12.834   4.724  -0.611  1.00  0.00     0.009 A 
ATOM     76  C   UNL     1      13.335   6.450  -2.745  1.00  0.00     0.001 A 
ATOM     77  C   UNL     1      13.990   5.504  -0.619  1.00  0.00     0.001 A 
ATOM     78  C   UNL     1      14.242   6.362  -1.689  1.00  0.00     0.000 A 
ENDBRANCH  60  73
ENDBRANCH  34  35
ENDBRANCH  27  29
ENDBRANCH  26  27
ENDBRANCH  25  26
ENDBRANCH   1  25
TORSDOF 13
