REMARK SMILES C[C@@H]1[NH2+]CC[C@H]1C(=O)NCc1cccc(C(=O)OCCOC(=O)c2ccc(-c3c4nc(c(-c5ccccc5)c5ccc([nH]5)c(-c5ccccc5)c5nc(c(-c6ccccc6)c6ccc3[nH]6)C=C5)C=C4)cc2)c1
REMARK SMILES IDX 19 1 18 2 16 3 17 4 15 5 11 6 12 7 72 8 13 9 14 10 10 11
REMARK SMILES IDX 9 12 7 13 8 14 6 16 1 17 2 18 3 19 4 20 5 23 20 24 21 25
REMARK SMILES IDX 22 26 23 27 24 28 25 29 71 30 26 31 70 32 27 33 28 34 29 35
REMARK SMILES IDX 64 36 30 37 69 38 63 39 65 40 31 41 68 42 62 43 61 44 32 46
REMARK SMILES IDX 54 47 39 48 53 49 40 50 43 51 52 52 66 53 41 54 42 55 51 57
REMARK SMILES IDX 67 58 44 59 33 60 34 61 38 62 35 63 37 64 36 65 55 66 56 67
REMARK SMILES IDX 60 68 57 69 59 70 58 71 45 72 46 73 50 74 47 75 49 76 48 77
REMARK H PARENT 9 15 3 21 3 22 65 45 43 56
REMARK Flexibility Score: inf
ROOT
ATOM      1  C   UNL     1       2.782   3.071   7.469  1.00  0.00     0.275 C 
ENDROOT
BRANCH   1   2
ATOM      2  O   UNL     1       2.050   2.300   6.497  1.00  0.00    -0.458 OA
BRANCH   2   3
ATOM      3  C   UNL     1       2.590   1.109   6.140  1.00  0.00     0.338 C 
ATOM      4  O   UNL     1       3.643   0.640   6.545  1.00  0.00    -0.246 OA
BRANCH   3   5
ATOM      5  C   UNL     1       1.657   0.358   5.259  1.00  0.00     0.060 A 
ATOM      6  C   UNL     1      -0.273   0.233   3.780  1.00  0.00    -0.028 A 
ATOM      7  C   UNL     1      -0.171  -1.167   3.798  1.00  0.00     0.005 A 
ATOM      8  C   UNL     1       0.625   0.987   4.555  1.00  0.00     0.021 A 
ATOM      9  C   UNL     1       0.874  -1.796   4.472  1.00  0.00     0.001 A 
ATOM     10  C   UNL     1       1.806  -1.033   5.171  1.00  0.00     0.016 A 
BRANCH   6  11
ATOM     11  C   UNL     1      -1.345   0.895   2.951  1.00  0.00     0.151 C 
BRANCH  11  12
ATOM     12  N   UNL     1      -0.871   2.100   2.296  1.00  0.00    -0.352 N 
ATOM     13  C   UNL     1      -0.316   2.326   1.079  1.00  0.00     0.229 C 
ATOM     14  O   UNL     1       0.090   3.473   0.863  1.00  0.00    -0.275 OA
ATOM     15  H   UNL     1      -0.973   2.913   2.841  1.00  0.00     0.163 HD
BRANCH  13  16
ATOM     16  C   UNL     1      -0.191   1.268  -0.007  1.00  0.00     0.142 C 
ATOM     17  C   UNL     1       1.961   0.028  -0.534  1.00  0.00     0.076 C 
ATOM     18  C   UNL     1       0.713   0.088   0.350  1.00  0.00     0.192 C 
ATOM     19  N   UNL     1      -0.083  -1.135   0.137  1.00  0.00    -0.343 N 
ATOM     20  C   UNL     1      -1.180  -0.778  -0.762  1.00  0.00     0.261 C 
ATOM     21  H   UNL     1      -0.454  -1.471   1.026  1.00  0.00     0.346 HD
ATOM     22  H   UNL     1       0.489  -1.879  -0.263  1.00  0.00     0.346 HD
ATOM     23  C   UNL     1      -1.513   0.670  -0.463  1.00  0.00     0.081 C 
ENDBRANCH  13  16
ENDBRANCH  11  12
ENDBRANCH   6  11
ENDBRANCH   3   5
ENDBRANCH   2   3
ENDBRANCH   1   2
BRANCH   1  24
ATOM     24  C   UNL     1       2.104   2.998   8.838  1.00  0.00     0.275 C 
BRANCH  24  25
ATOM     25  O   UNL     1       2.222   1.671   9.385  1.00  0.00    -0.458 OA
BRANCH  25  26
ATOM     26  C   UNL     1       1.076   0.957   9.450  1.00  0.00     0.338 C 
ATOM     27  O   UNL     1      -0.052   1.319   9.162  1.00  0.00    -0.246 OA
BRANCH  26  28
ATOM     28  C   UNL     1       1.395  -0.426   9.831  1.00  0.00     0.060 A 
ATOM     29  C   UNL     1       1.582  -1.351   8.807  1.00  0.00     0.016 A 
ATOM     30  C   UNL     1       1.397  -0.837  11.162  1.00  0.00     0.016 A 
ATOM     31  C   UNL     1       1.752  -2.701   9.097  1.00  0.00     0.010 A 
ATOM     32  C   UNL     1       1.593  -2.193  11.459  1.00  0.00     0.010 A 
ATOM     33  C   UNL     1       1.750  -3.140  10.427  1.00  0.00    -0.014 A 
BRANCH  33  34
ATOM     34  C   UNL     1       1.827  -4.596  10.718  1.00  0.00     0.031 A 
ATOM     35  C   UNL     1       0.630  -5.312  11.283  1.00  0.00     0.074 A 
ATOM     36  C   UNL     1       2.941  -5.295  10.427  1.00  0.00     0.049 A 
ATOM     37  N   UNL     1       0.519  -6.556  11.677  1.00  0.00    -0.248 NA
ATOM     38  C   UNL     1      -0.605  -4.524  11.423  1.00  0.00     0.031 C 
ATOM     39  C   UNL     1       4.153  -4.745   9.818  1.00  0.00     0.029 A 
ATOM     40  N   UNL     1       3.226  -6.628  10.591  1.00  0.00    -0.354 N 
ATOM     41  C   UNL     1      -0.779  -6.687  12.154  1.00  0.00     0.074 A 
ATOM     42  C   UNL     1      -1.418  -5.397  12.001  1.00  0.00     0.031 C 
ATOM     43  C   UNL     1       5.038  -5.738   9.632  1.00  0.00     0.029 A 
ATOM     44  C   UNL     1       4.482  -6.979  10.162  1.00  0.00     0.049 A 
ATOM     45  H   UNL     1       2.589  -7.271  10.980  1.00  0.00     0.167 HD
ATOM     46  C   UNL     1      -1.386  -7.781  12.674  1.00  0.00     0.031 A 
ATOM     47  C   UNL     1       5.126  -8.162  10.211  1.00  0.00     0.031 A 
ATOM     48  C   UNL     1      -0.769  -9.074  12.799  1.00  0.00     0.049 A 
ATOM     49  C   UNL     1       4.444  -9.352  10.825  1.00  0.00     0.074 A 
ATOM     50  C   UNL     1      -1.308 -10.241  13.316  1.00  0.00     0.029 A 
ATOM     51  N   UNL     1       0.520  -9.375  12.391  1.00  0.00    -0.354 N 
ATOM     52  N   UNL     1       3.232  -9.448  11.314  1.00  0.00    -0.248 NA
ATOM     53  C   UNL     1       5.226 -10.595  10.903  1.00  0.00     0.031 C 
ATOM     54  C   UNL     1      -0.331 -11.241  13.250  1.00  0.00     0.029 A 
ATOM     55  C   UNL     1       0.799 -10.706  12.653  1.00  0.00     0.049 A 
ATOM     56  H   UNL     1       1.145  -8.738  11.976  1.00  0.00     0.167 HD
ATOM     57  C   UNL     1       3.103 -10.761  11.747  1.00  0.00     0.074 A 
ATOM     58  C   UNL     1       4.351 -11.430  11.444  1.00  0.00     0.031 C 
ATOM     59  C   UNL     1       2.044 -11.358  12.347  1.00  0.00     0.031 A 
BRANCH  46  60
ATOM     60  C   UNL     1      -2.786  -7.611  13.189  1.00  0.00    -0.014 A 
ATOM     61  C   UNL     1      -3.880  -7.498  12.318  1.00  0.00     0.009 A 
ATOM     62  C   UNL     1      -3.013  -7.591  14.574  1.00  0.00     0.009 A 
ATOM     63  C   UNL     1      -5.171  -7.338  12.825  1.00  0.00     0.001 A 
ATOM     64  C   UNL     1      -4.307  -7.455  15.078  1.00  0.00     0.001 A 
ATOM     65  C   UNL     1      -5.384  -7.320  14.204  1.00  0.00     0.000 A 
ENDBRANCH  46  60
BRANCH  47  66
ATOM     66  C   UNL     1       6.513  -8.273   9.691  1.00  0.00    -0.014 A 
ATOM     67  C   UNL     1       6.780  -8.992   8.516  1.00  0.00     0.009 A 
ATOM     68  C   UNL     1       7.579  -7.666  10.373  1.00  0.00     0.009 A 
ATOM     69  C   UNL     1       8.090  -9.114   8.045  1.00  0.00     0.001 A 
ATOM     70  C   UNL     1       8.882  -7.767   9.886  1.00  0.00     0.001 A 
ATOM     71  C   UNL     1       9.138  -8.497   8.727  1.00  0.00     0.000 A 
ENDBRANCH  47  66
BRANCH  59  72
ATOM     72  C   UNL     1       2.182 -12.813  12.688  1.00  0.00    -0.014 A 
ATOM     73  C   UNL     1       2.954 -13.231  13.783  1.00  0.00     0.009 A 
ATOM     74  C   UNL     1       1.501 -13.774  11.925  1.00  0.00     0.009 A 
ATOM     75  C   UNL     1       3.065 -14.589  14.089  1.00  0.00     0.001 A 
ATOM     76  C   UNL     1       1.597 -15.129  12.247  1.00  0.00     0.001 A 
ATOM     77  C   UNL     1       2.384 -15.536  13.323  1.00  0.00     0.000 A 
ENDBRANCH  59  72
ENDBRANCH  33  34
ENDBRANCH  26  28
ENDBRANCH  25  26
ENDBRANCH  24  25
ENDBRANCH   1  24
TORSDOF 14
