REMARK SMILES Cc1c(CC(=O)OCCOC(=O)c2ccc(-c3c4nc(c(-c5ccccc5)c5ccc([nH]5)c(-c5ccccc5)c5nc(c(-c6ccccc6)c6ccc3[nH]6)C=C5)C=C4)cc2)cc(-c2ccc(S(C)(=O)=O)cc2)n1-c1cccc(F)c1
REMARK SMILES IDX 8 1 7 2 5 3 6 4 4 5 3 6 1 7 2 8 73 9 61 10 62 11 74 12 75 13
REMARK SMILES IDX 80 14 76 15 78 16 77 17 79 18 63 19 64 20 72 21 65 22 71 23
REMARK SMILES IDX 66 24 67 25 68 26 69 27 70 28 9 29 10 30 11 31 12 32 13 33
REMARK SMILES IDX 14 34 60 35 15 36 59 37 16 38 17 39 18 40 53 41 19 42 58 43
REMARK SMILES IDX 52 44 54 45 20 46 57 47 51 48 50 49 21 51 43 52 28 53 42 54
REMARK SMILES IDX 29 55 32 56 41 57 55 58 30 59 31 60 40 62 56 63 33 64 22 65
REMARK SMILES IDX 23 66 27 67 24 68 26 69 25 70 44 71 45 72 49 73 46 74 48 75
REMARK SMILES IDX 47 76 34 77 35 78 39 79 36 80 38 81 37 82
REMARK H PARENT 54 50 32 61
REMARK Flexibility Score: inf
ROOT
ATOM      1  C   UNL     1       2.259  -2.702  -2.229  1.00  0.00     0.274 C 
ENDROOT
BRANCH   1   2
ATOM      2  O   UNL     1       1.393  -1.547  -2.055  1.00  0.00    -0.462 OA
BRANCH   2   3
ATOM      3  C   UNL     1       0.206  -1.557  -2.720  1.00  0.00     0.310 C 
ATOM      4  O   UNL     1      -0.171  -2.495  -3.419  1.00  0.00    -0.252 OA
BRANCH   3   5
ATOM      5  C   UNL     1      -0.678  -0.334  -2.501  1.00  0.00     0.160 C 
BRANCH   5   6
ATOM      6  C   UNL     1      -0.072   0.915  -1.914  1.00  0.00    -0.015 A 
ATOM      7  C   UNL     1       0.650   0.048   0.422  1.00  0.00     0.065 C 
ATOM      8  C   UNL     1       0.508   1.067  -0.663  1.00  0.00     0.024 A 
ATOM      9  N   UNL     1       0.890   2.393  -0.504  1.00  0.00    -0.313 N 
ATOM     10  C   UNL     1      -0.137   2.227  -2.477  1.00  0.00     0.033 A 
ATOM     11  C   UNL     1       0.423   3.133  -1.588  1.00  0.00     0.053 A 
BRANCH   9  12
ATOM     12  C   UNL     1       1.623   2.901   0.599  1.00  0.00     0.049 A 
ATOM     13  C   UNL     1       1.130   3.986   1.336  1.00  0.00     0.027 A 
ATOM     14  C   UNL     1       2.861   2.332   0.908  1.00  0.00     0.065 A 
ATOM     15  C   UNL     1       1.884   4.503   2.390  1.00  0.00     0.005 A 
ATOM     16  C   UNL     1       3.607   2.875   1.945  1.00  0.00     0.125 A 
ATOM     17  C   UNL     1       3.130   3.951   2.689  1.00  0.00     0.039 A 
ATOM     18  F   UNL     1       4.815   2.367   2.222  1.00  0.00    -0.207 F 
ENDBRANCH   9  12
BRANCH  11  19
ATOM     19  C   UNL     1       0.591   4.587  -1.743  1.00  0.00    -0.001 A 
ATOM     20  C   UNL     1       1.870   5.166  -1.762  1.00  0.00     0.011 A 
ATOM     21  C   UNL     1      -0.532   5.421  -1.829  1.00  0.00     0.011 A 
ATOM     22  C   UNL     1       2.027   6.554  -1.821  1.00  0.00     0.021 A 
ATOM     23  C   UNL     1      -0.384   6.812  -1.888  1.00  0.00     0.021 A 
ATOM     24  C   UNL     1       0.895   7.372  -1.867  1.00  0.00     0.067 A 
BRANCH  24  25
ATOM     25  S   UNL     1       1.112   9.135  -1.953  1.00  0.00     0.175 S 
ATOM     26  C   UNL     1       1.832   9.568  -0.390  1.00  0.00     0.163 C 
ATOM     27  O   UNL     1       2.074   9.398  -2.989  1.00  0.00    -0.224 OA
ATOM     28  O   UNL     1      -0.220   9.738  -1.991  1.00  0.00    -0.224 OA
ENDBRANCH  24  25
ENDBRANCH  11  19
ENDBRANCH   5   6
ENDBRANCH   3   5
ENDBRANCH   2   3
ENDBRANCH   1   2
BRANCH   1  29
ATOM     29  C   UNL     1       3.254  -2.825  -1.046  1.00  0.00     0.275 C 
BRANCH  29  30
ATOM     30  O   UNL     1       3.162  -3.980  -0.141  1.00  0.00    -0.458 OA
BRANCH  30  31
ATOM     31  C   UNL     1       2.247  -3.940   0.868  1.00  0.00     0.338 C 
ATOM     32  O   UNL     1       1.300  -3.165   0.889  1.00  0.00    -0.246 OA
BRANCH  31  33
ATOM     33  C   UNL     1       2.462  -4.992   1.958  1.00  0.00     0.060 A 
ATOM     34  C   UNL     1       1.364  -5.734   2.361  1.00  0.00     0.016 A 
ATOM     35  C   UNL     1       3.631  -5.192   2.724  1.00  0.00     0.016 A 
ATOM     36  C   UNL     1       1.455  -6.662   3.442  1.00  0.00     0.010 A 
ATOM     37  C   UNL     1       3.691  -6.092   3.890  1.00  0.00     0.010 A 
ATOM     38  C   UNL     1       2.594  -6.868   4.303  1.00  0.00    -0.014 A 
BRANCH  38  39
ATOM     39  C   UNL     1       2.317  -7.622   5.710  1.00  0.00     0.031 A 
ATOM     40  C   UNL     1       0.967  -7.131   6.109  1.00  0.00     0.074 A 
ATOM     41  C   UNL     1       2.884  -8.419   6.707  1.00  0.00     0.049 A 
ATOM     42  N   UNL     1       0.777  -5.857   6.295  1.00  0.00    -0.248 NA
ATOM     43  C   UNL     1      -0.252  -7.924   5.937  1.00  0.00     0.031 C 
ATOM     44  C   UNL     1       4.270  -8.900   6.820  1.00  0.00     0.029 A 
ATOM     45  N   UNL     1       2.331  -9.015   7.892  1.00  0.00    -0.354 N 
ATOM     46  C   UNL     1      -0.571  -5.697   6.498  1.00  0.00     0.074 A 
ATOM     47  C   UNL     1      -1.164  -6.954   6.061  1.00  0.00     0.031 C 
ATOM     48  C   UNL     1       4.419  -9.783   7.852  1.00  0.00     0.029 A 
ATOM     49  C   UNL     1       3.167  -9.959   8.586  1.00  0.00     0.049 A 
ATOM     50  H   UNL     1       1.428  -8.789   8.213  1.00  0.00     0.167 HD
ATOM     51  C   UNL     1      -0.946  -4.908   7.544  1.00  0.00     0.031 A 
ATOM     52  C   UNL     1       2.921 -10.772   9.688  1.00  0.00     0.031 A 
ATOM     53  C   UNL     1      -1.369  -5.697   8.669  1.00  0.00     0.049 A 
ATOM     54  C   UNL     1       1.810 -10.173  10.439  1.00  0.00     0.074 A 
ATOM     55  C   UNL     1      -2.211  -6.785   8.791  1.00  0.00     0.029 A 
ATOM     56  N   UNL     1      -0.530  -5.718   9.764  1.00  0.00    -0.354 N 
ATOM     57  N   UNL     1       2.010  -9.180  11.251  1.00  0.00    -0.248 NA
ATOM     58  C   UNL     1       0.464 -10.733  10.452  1.00  0.00     0.031 C 
ATOM     59  C   UNL     1      -1.521  -7.678   9.641  1.00  0.00     0.029 A 
ATOM     60  C   UNL     1      -0.507  -6.992  10.297  1.00  0.00     0.049 A 
ATOM     61  H   UNL     1      -0.027  -4.946  10.111  1.00  0.00     0.167 HD
ATOM     62  C   UNL     1       0.758  -8.676  11.425  1.00  0.00     0.074 A 
ATOM     63  C   UNL     1      -0.138  -9.789  11.180  1.00  0.00     0.031 C 
ATOM     64  C   UNL     1       0.595  -7.357  11.155  1.00  0.00     0.031 A 
BRANCH  51  65
ATOM     65  C   UNL     1      -0.198  -3.609   7.663  1.00  0.00    -0.014 A 
ATOM     66  C   UNL     1      -0.891  -2.406   7.487  1.00  0.00     0.009 A 
ATOM     67  C   UNL     1       1.203  -3.554   7.815  1.00  0.00     0.009 A 
ATOM     68  C   UNL     1      -0.193  -1.196   7.385  1.00  0.00     0.001 A 
ATOM     69  C   UNL     1       1.900  -2.356   7.671  1.00  0.00     0.001 A 
ATOM     70  C   UNL     1       1.201  -1.177   7.446  1.00  0.00     0.000 A 
ENDBRANCH  51  65
BRANCH  52  71
ATOM     71  C   UNL     1       3.477 -11.948  10.526  1.00  0.00    -0.014 A 
ATOM     72  C   UNL     1       3.265 -11.966  11.947  1.00  0.00     0.009 A 
ATOM     73  C   UNL     1       3.792 -13.194   9.971  1.00  0.00     0.009 A 
ATOM     74  C   UNL     1       3.237 -13.140  12.725  1.00  0.00     0.001 A 
ATOM     75  C   UNL     1       3.802 -14.377  10.762  1.00  0.00     0.001 A 
ATOM     76  C   UNL     1       3.489 -14.358  12.123  1.00  0.00     0.000 A 
ENDBRANCH  52  71
BRANCH  64  77
ATOM     77  C   UNL     1       1.715  -6.415  11.572  1.00  0.00    -0.014 A 
ATOM     78  C   UNL     1       3.094  -6.631  11.349  1.00  0.00     0.009 A 
ATOM     79  C   UNL     1       1.361  -5.261  12.284  1.00  0.00     0.009 A 
ATOM     80  C   UNL     1       4.070  -5.777  11.875  1.00  0.00     0.001 A 
ATOM     81  C   UNL     1       2.333  -4.377  12.767  1.00  0.00     0.001 A 
ATOM     82  C   UNL     1       3.687  -4.645  12.581  1.00  0.00     0.000 A 
ENDBRANCH  64  77
ENDBRANCH  38  39
ENDBRANCH  31  33
ENDBRANCH  30  31
ENDBRANCH  29  30
ENDBRANCH   1  29
TORSDOF 15
