REMARK SMILES CC[C@H](Oc1ccc(C)nc1C[NH3+])C(=O)OCCOC(=O)c1ccc(-c2c3nc(c(-c4ccccc4)c4ccc([nH]4)c(-c4ccccc4)c4nc(c(-c5ccccc5)c5ccc2[nH]5)C=C4)C=C3)cc1
REMARK SMILES IDX 17 1 16 2 14 3 15 4 3 5 2 6 1 7 4 8 5 9 6 10 11 11 7 12
REMARK SMILES IDX 10 13 8 14 9 15 12 16 13 17 18 21 19 22 20 23 21 24 22 25
REMARK SMILES IDX 23 26 69 27 24 28 68 29 25 30 26 31 27 32 62 33 28 34 67 35
REMARK SMILES IDX 61 36 63 37 29 38 66 39 60 40 59 41 30 43 52 44 37 45 51 46
REMARK SMILES IDX 38 47 41 48 50 49 64 50 39 51 40 52 49 54 65 55 42 56 31 57
REMARK SMILES IDX 32 58 36 59 33 60 35 61 34 62 53 63 54 64 58 65 55 66 57 67
REMARK SMILES IDX 56 68 43 69 44 70 48 71 45 72 47 73 46 74
REMARK H PARENT 13 18 13 19 13 20 63 42 41 53
REMARK Flexibility Score: inf
ROOT
ATOM      1  C   UNL     1      -1.193  -0.180   5.080  1.00  0.00     0.274 C 
ENDROOT
BRANCH   1   2
ATOM      2  O   UNL     1      -0.779   0.154   3.741  1.00  0.00    -0.459 OA
BRANCH   2   3
ATOM      3  C   UNL     1       0.228   1.062   3.640  1.00  0.00     0.347 C 
ATOM      4  O   UNL     1       0.736   1.649   4.593  1.00  0.00    -0.248 OA
BRANCH   3   5
ATOM      5  C   UNL     1       0.685   1.310   2.196  1.00  0.00     0.282 C 
BRANCH   5   6
ATOM      6  C   UNL     1      -0.030   2.548   1.630  1.00  0.00     0.054 C 
ATOM      7  C   UNL     1      -1.060   2.270   0.545  1.00  0.00     0.008 C 
ENDBRANCH   5   6
BRANCH   5   8
ATOM      8  O   UNL     1       0.534   0.153   1.381  1.00  0.00    -0.477 OA
BRANCH   8   9
ATOM      9  C   UNL     1       1.378  -0.063   0.326  1.00  0.00     0.147 A 
ATOM     10  C   UNL     1       2.512   0.695   0.032  1.00  0.00     0.050 A 
ATOM     11  C   UNL     1       1.079  -1.132  -0.533  1.00  0.00     0.136 A 
ATOM     12  C   UNL     1       3.296   0.387  -1.079  1.00  0.00     0.027 A 
ATOM     13  N   UNL     1       1.846  -1.437  -1.621  1.00  0.00    -0.248 NA
ATOM     14  C   UNL     1       2.930  -0.679  -1.886  1.00  0.00     0.038 A 
ATOM     15  C   UNL     1       3.707  -1.022  -3.119  1.00  0.00     0.067 C 
BRANCH  11  16
ATOM     16  C   UNL     1      -0.144  -2.009  -0.320  1.00  0.00     0.320 C 
BRANCH  16  17
ATOM     17  N   UNL     1      -1.150  -1.861  -1.385  1.00  0.00    -0.352 N 
ATOM     18  H   UNL     1      -1.487  -0.898  -1.402  1.00  0.00     0.344 HD
ATOM     19  H   UNL     1      -1.931  -2.491  -1.204  1.00  0.00     0.344 HD
ATOM     20  H   UNL     1      -0.728  -2.090  -2.285  1.00  0.00     0.344 HD
ENDBRANCH  16  17
ENDBRANCH  11  16
ENDBRANCH   8   9
ENDBRANCH   5   8
ENDBRANCH   3   5
ENDBRANCH   2   3
ENDBRANCH   1   2
BRANCH   1  21
ATOM     21  C   UNL     1      -0.640  -1.540   5.519  1.00  0.00     0.275 C 
BRANCH  21  22
ATOM     22  O   UNL     1       0.798  -1.537   5.586  1.00  0.00    -0.458 OA
BRANCH  22  23
ATOM     23  C   UNL     1       1.420  -1.982   4.469  1.00  0.00     0.338 C 
ATOM     24  O   UNL     1       0.903  -2.399   3.448  1.00  0.00    -0.246 OA
BRANCH  23  25
ATOM     25  C   UNL     1       2.871  -1.778   4.601  1.00  0.00     0.060 A 
ATOM     26  C   UNL     1       3.491  -0.904   3.704  1.00  0.00     0.016 A 
ATOM     27  C   UNL     1       3.627  -2.497   5.528  1.00  0.00     0.016 A 
ATOM     28  C   UNL     1       4.874  -0.745   3.725  1.00  0.00     0.010 A 
ATOM     29  C   UNL     1       5.018  -2.343   5.544  1.00  0.00     0.010 A 
ATOM     30  C   UNL     1       5.649  -1.476   4.634  1.00  0.00    -0.014 A 
BRANCH  30  31
ATOM     31  C   UNL     1       7.126  -1.379   4.576  1.00  0.00     0.031 A 
ATOM     32  C   UNL     1       7.921  -2.473   3.924  1.00  0.00     0.074 A 
ATOM     33  C   UNL     1       7.751  -0.296   5.074  1.00  0.00     0.049 A 
ATOM     34  N   UNL     1       9.220  -2.596   3.812  1.00  0.00    -0.248 NA
ATOM     35  C   UNL     1       7.154  -3.570   3.315  1.00  0.00     0.031 C 
ATOM     36  C   UNL     1       7.088   0.856   5.685  1.00  0.00     0.029 A 
ATOM     37  N   UNL     1       9.087   0.009   5.140  1.00  0.00    -0.354 N 
ATOM     38  C   UNL     1       9.427  -3.790   3.134  1.00  0.00     0.074 A 
ATOM     39  C   UNL     1       8.122  -4.361   2.873  1.00  0.00     0.031 C 
ATOM     40  C   UNL     1       8.022   1.745   6.063  1.00  0.00     0.029 A 
ATOM     41  C   UNL     1       9.345   1.207   5.757  1.00  0.00     0.049 A 
ATOM     42  H   UNL     1       9.792  -0.576   4.779  1.00  0.00     0.167 HD
ATOM     43  C   UNL     1      10.598  -4.360   2.761  1.00  0.00     0.031 A 
ATOM     44  C   UNL     1      10.517   1.795   6.062  1.00  0.00     0.031 A 
ATOM     45  C   UNL     1      11.896  -3.798   3.023  1.00  0.00     0.049 A 
ATOM     46  C   UNL     1      11.805   1.111   5.697  1.00  0.00     0.074 A 
ATOM     47  C   UNL     1      13.139  -4.304   2.686  1.00  0.00     0.029 A 
ATOM     48  N   UNL     1      12.116  -2.602   3.687  1.00  0.00    -0.354 N 
ATOM     49  N   UNL     1      11.987  -0.023   5.064  1.00  0.00    -0.248 NA
ATOM     50  C   UNL     1      13.049   1.788   6.092  1.00  0.00     0.031 C 
ATOM     51  C   UNL     1      14.115  -3.432   3.183  1.00  0.00     0.029 A 
ATOM     52  C   UNL     1      13.476  -2.362   3.788  1.00  0.00     0.049 A 
ATOM     53  H   UNL     1      11.411  -2.011   4.036  1.00  0.00     0.167 HD
ATOM     54  C   UNL     1      13.362  -0.188   4.971  1.00  0.00     0.074 A 
ATOM     55  C   UNL     1      13.968   0.970   5.596  1.00  0.00     0.031 C 
ATOM     56  C   UNL     1      14.062  -1.208   4.417  1.00  0.00     0.031 A 
BRANCH  43  57
ATOM     57  C   UNL     1      10.523  -5.684   2.057  1.00  0.00    -0.014 A 
ATOM     58  C   UNL     1      10.114  -5.775   0.718  1.00  0.00     0.009 A 
ATOM     59  C   UNL     1      10.893  -6.854   2.738  1.00  0.00     0.009 A 
ATOM     60  C   UNL     1      10.048  -7.018   0.084  1.00  0.00     0.001 A 
ATOM     61  C   UNL     1      10.847  -8.092   2.095  1.00  0.00     0.001 A 
ATOM     62  C   UNL     1      10.418  -8.174   0.771  1.00  0.00     0.000 A 
ENDBRANCH  43  57
BRANCH  44  63
ATOM     63  C   UNL     1      10.529   3.093   6.783  1.00  0.00    -0.014 A 
ATOM     64  C   UNL     1      10.916   4.272   6.130  1.00  0.00     0.009 A 
ATOM     65  C   UNL     1      10.156   3.155   8.135  1.00  0.00     0.009 A 
ATOM     66  C   UNL     1      10.947   5.485   6.822  1.00  0.00     0.001 A 
ATOM     67  C   UNL     1      10.164   4.373   8.818  1.00  0.00     0.001 A 
ATOM     68  C   UNL     1      10.567   5.535   8.163  1.00  0.00     0.000 A 
ENDBRANCH  44  63
BRANCH  56  69
ATOM     69  C   UNL     1      15.559  -1.103   4.443  1.00  0.00    -0.014 A 
ATOM     70  C   UNL     1      16.282  -1.331   5.624  1.00  0.00     0.009 A 
ATOM     71  C   UNL     1      16.257  -0.807   3.261  1.00  0.00     0.009 A 
ATOM     72  C   UNL     1      17.675  -1.237   5.626  1.00  0.00     0.001 A 
ATOM     73  C   UNL     1      17.650  -0.736   3.262  1.00  0.00     0.001 A 
ATOM     74  C   UNL     1      18.357  -0.943   4.446  1.00  0.00     0.000 A 
ENDBRANCH  56  69
ENDBRANCH  30  31
ENDBRANCH  23  25
ENDBRANCH  22  23
ENDBRANCH  21  22
ENDBRANCH   1  21
TORSDOF 16
