REMARK SMILES Cc1ccc2c(c1)OCCN2c1sc(C(=O)OCCOC(=O)c2ccc(-c3c4nc(c(-c5ccccc5)c5ccc([nH]5)c(-c5ccccc5)c5nc(c(-c6ccccc6)c6ccc3[nH]6)C=C5)C=C4)cc2)cc1C
REMARK SMILES IDX 19 1 18 2 17 3 15 4 16 5 14 6 12 7 13 8 72 9 71 10 73 11
REMARK SMILES IDX 11 12 1 13 2 14 3 15 7 16 4 17 6 18 5 19 8 20 9 21 10 22
REMARK SMILES IDX 20 23 21 24 22 25 23 26 24 27 70 28 25 29 69 30 26 31 27 32
REMARK SMILES IDX 28 33 63 34 29 35 68 36 62 37 64 38 30 39 67 40 61 41 60 42
REMARK SMILES IDX 31 44 53 45 38 46 52 47 39 48 42 49 51 50 65 51 40 52 41 53
REMARK SMILES IDX 50 55 66 56 43 57 32 58 33 59 37 60 34 61 36 62 35 63 54 64
REMARK SMILES IDX 55 65 59 66 56 67 58 68 57 69 44 70 45 71 49 72 46 73 48 74
REMARK SMILES IDX 47 75
REMARK H PARENT 64 43 42 54
REMARK Flexibility Score: inf
ROOT
ATOM      1  C   UNL     1       3.062 -11.468   1.220  1.00  0.00     0.275 C 
ENDROOT
BRANCH   1   2
ATOM      2  C   UNL     1       3.416 -10.017   1.552  1.00  0.00     0.275 C 
BRANCH   2   3
ATOM      3  O   UNL     1       2.531  -9.095   0.886  1.00  0.00    -0.458 OA
BRANCH   3   4
ATOM      4  C   UNL     1       3.005  -8.559  -0.274  1.00  0.00     0.348 C 
ATOM      5  O   UNL     1       4.125  -8.778  -0.725  1.00  0.00    -0.245 OA
BRANCH   4   6
ATOM      6  C   UNL     1       2.002  -7.780  -0.976  1.00  0.00     0.114 A 
ATOM      7  C   UNL     1       0.225  -6.201  -1.667  1.00  0.00     0.099 A 
ATOM      8  S   UNL     1       0.658  -7.054  -0.223  1.00  0.00    -0.110 S 
ATOM      9  C   UNL     1       0.882  -6.737  -2.764  1.00  0.00    -0.015 A 
ATOM     10  C   UNL     1       2.000  -7.510  -2.330  1.00  0.00     0.033 A 
ATOM     11  C   UNL     1       0.614  -6.474  -4.208  1.00  0.00     0.047 C 
BRANCH   7  12
ATOM     12  N   UNL     1      -0.626  -5.135  -1.659  1.00  0.00    -0.327 N 
ATOM     13  C   UNL     1       0.885   0.177  -0.003  1.00  0.00     0.044 C 
ATOM     14  C   UNL     1       0.500  -1.196  -0.461  1.00  0.00    -0.047 A 
ATOM     15  C   UNL     1       1.260  -2.299  -0.073  1.00  0.00     0.006 A 
ATOM     16  C   UNL     1      -0.642  -1.407  -1.238  1.00  0.00     0.052 A 
ATOM     17  C   UNL     1       0.897  -3.587  -0.475  1.00  0.00     0.030 A 
ATOM     18  C   UNL     1      -1.001  -2.699  -1.641  1.00  0.00     0.143 A 
ATOM     19  C   UNL     1      -0.249  -3.827  -1.252  1.00  0.00     0.085 A 
ATOM     20  O   UNL     1      -2.119  -2.777  -2.443  1.00  0.00    -0.490 OA
ATOM     21  C   UNL     1      -2.139  -3.991  -3.203  1.00  0.00     0.251 C 
ATOM     22  C   UNL     1      -1.935  -5.210  -2.307  1.00  0.00     0.165 C 
ENDBRANCH   7  12
ENDBRANCH   4   6
ENDBRANCH   3   4
ENDBRANCH   2   3
ENDBRANCH   1   2
BRANCH   1  23
ATOM     23  O   UNL     1       3.332 -11.766  -0.164  1.00  0.00    -0.458 OA
BRANCH  23  24
ATOM     24  C   UNL     1       2.246 -11.884  -0.962  1.00  0.00     0.338 C 
ATOM     25  O   UNL     1       1.073 -11.786  -0.647  1.00  0.00    -0.246 OA
BRANCH  24  26
ATOM     26  C   UNL     1       2.685 -12.055  -2.354  1.00  0.00     0.060 A 
ATOM     27  C   UNL     1       2.785 -13.310  -2.943  1.00  0.00     0.016 A 
ATOM     28  C   UNL     1       2.890 -10.909  -3.117  1.00  0.00     0.016 A 
ATOM     29  C   UNL     1       3.124 -13.401  -4.300  1.00  0.00     0.010 A 
ATOM     30  C   UNL     1       3.158 -10.993  -4.479  1.00  0.00     0.010 A 
ATOM     31  C   UNL     1       3.300 -12.243  -5.086  1.00  0.00    -0.014 A 
BRANCH  31  32
ATOM     32  C   UNL     1       3.598 -12.325  -6.542  1.00  0.00     0.031 A 
ATOM     33  C   UNL     1       4.875 -11.757  -7.107  1.00  0.00     0.074 A 
ATOM     34  C   UNL     1       2.688 -12.870  -7.373  1.00  0.00     0.049 A 
ATOM     35  N   UNL     1       5.306 -11.776  -8.345  1.00  0.00    -0.248 NA
ATOM     36  C   UNL     1       5.773 -11.053  -6.176  1.00  0.00     0.031 C 
ATOM     37  C   UNL     1       1.375 -13.377  -6.969  1.00  0.00     0.029 A 
ATOM     38  N   UNL     1       2.731 -13.101  -8.726  1.00  0.00    -0.354 N 
ATOM     39  C   UNL     1       6.511 -11.084  -8.339  1.00  0.00     0.074 A 
ATOM     40  C   UNL     1       6.716 -10.603  -6.991  1.00  0.00     0.031 C 
ATOM     41  C   UNL     1       0.767 -13.920  -8.035  1.00  0.00     0.029 A 
ATOM     42  C   UNL     1       1.627 -13.766  -9.205  1.00  0.00     0.049 A 
ATOM     43  H   UNL     1       3.480 -12.818  -9.298  1.00  0.00     0.167 HD
ATOM     44  C   UNL     1       7.385 -10.893  -9.355  1.00  0.00     0.031 A 
ATOM     45  C   UNL     1       1.341 -14.220 -10.441  1.00  0.00     0.031 A 
ATOM     46  C   UNL     1       7.196 -11.398 -10.689  1.00  0.00     0.049 A 
ATOM     47  C   UNL     1       2.339 -14.026 -11.548  1.00  0.00     0.074 A 
ATOM     48  C   UNL     1       8.065 -11.327 -11.764  1.00  0.00     0.029 A 
ATOM     49  N   UNL     1       6.066 -12.069 -11.128  1.00  0.00    -0.354 N 
ATOM     50  N   UNL     1       3.515 -13.450 -11.502  1.00  0.00    -0.248 NA
ATOM     51  C   UNL     1       1.978 -14.554 -12.872  1.00  0.00     0.031 C 
ATOM     52  C   UNL     1       7.439 -11.907 -12.869  1.00  0.00     0.029 A 
ATOM     53  C   UNL     1       6.207 -12.397 -12.466  1.00  0.00     0.049 A 
ATOM     54  H   UNL     1       5.282 -12.281 -10.572  1.00  0.00     0.167 HD
ATOM     55  C   UNL     1       4.043 -13.560 -12.782  1.00  0.00     0.074 A 
ATOM     56  C   UNL     1       3.067 -14.274 -13.579  1.00  0.00     0.031 C 
ATOM     57  C   UNL     1       5.230 -13.107 -13.250  1.00  0.00     0.031 A 
BRANCH  44  58
ATOM     58  C   UNL     1       8.653 -10.133  -9.070  1.00  0.00    -0.014 A 
ATOM     59  C   UNL     1       8.885  -8.894  -9.688  1.00  0.00     0.009 A 
ATOM     60  C   UNL     1       9.663 -10.689  -8.269  1.00  0.00     0.009 A 
ATOM     61  C   UNL     1      10.104  -8.233  -9.519  1.00  0.00     0.001 A 
ATOM     62  C   UNL     1      10.869 -10.012  -8.076  1.00  0.00     0.001 A 
ATOM     63  C   UNL     1      11.092  -8.790  -8.709  1.00  0.00     0.000 A 
ENDBRANCH  44  58
BRANCH  45  64
ATOM     64  C   UNL     1       0.073 -14.964 -10.666  1.00  0.00    -0.014 A 
ATOM     65  C   UNL     1      -1.166 -14.306 -10.615  1.00  0.00     0.009 A 
ATOM     66  C   UNL     1       0.095 -16.352 -10.868  1.00  0.00     0.009 A 
ATOM     67  C   UNL     1      -2.357 -15.026 -10.735  1.00  0.00     0.001 A 
ATOM     68  C   UNL     1      -1.097 -17.066 -11.016  1.00  0.00     0.001 A 
ATOM     69  C   UNL     1      -2.321 -16.404 -10.938  1.00  0.00     0.000 A 
ENDBRANCH  45  64
BRANCH  57  70
ATOM     70  C   UNL     1       5.567 -13.364 -14.692  1.00  0.00    -0.014 A 
ATOM     71  C   UNL     1       6.607 -14.251 -15.017  1.00  0.00     0.009 A 
ATOM     72  C   UNL     1       4.949 -12.634 -15.718  1.00  0.00     0.009 A 
ATOM     73  C   UNL     1       7.036 -14.386 -16.338  1.00  0.00     0.001 A 
ATOM     74  C   UNL     1       5.362 -12.792 -17.043  1.00  0.00     0.001 A 
ATOM     75  C   UNL     1       6.412 -13.658 -17.349  1.00  0.00     0.000 A 
ENDBRANCH  57  70
ENDBRANCH  31  32
ENDBRANCH  24  26
ENDBRANCH  23  24
ENDBRANCH   1  23
TORSDOF 12
