REMARK SMILES O=C(OCCOC(=O)c1ccc(-c2c3nc(c(-c4ccccc4)c4ccc([nH]4)c(-c4ccccc4)c4nc(c(-c5ccccc5)c5ccc2[nH]5)C=C4)C=C3)cc1)c1ccc(/[NH+]=C2\S[C@@H](Cc3ccc(F)cc3)C(=O)N2Cc2ccccc2)cc1
REMARK SMILES IDX 4 1 3 2 2 3 1 4 57 5 58 6 84 7 59 8 83 9 60 10 61 11 62 12
REMARK SMILES IDX 63 14 75 15 64 16 73 17 74 18 76 19 77 20 78 21 82 22 79 23
REMARK SMILES IDX 81 24 80 25 65 26 66 27 67 28 72 29 68 30 71 31 69 32 70 33
REMARK SMILES IDX 5 34 6 35 7 36 8 37 9 38 10 39 56 40 11 41 55 42 12 43 13 44
REMARK SMILES IDX 14 45 49 46 15 47 54 48 48 49 50 50 16 51 53 52 47 53 46 54
REMARK SMILES IDX 17 56 39 57 24 58 38 59 25 60 28 61 37 62 51 63 26 64 27 65
REMARK SMILES IDX 36 67 52 68 29 69 18 70 19 71 23 72 20 73 22 74 21 75 40 76
REMARK SMILES IDX 41 77 45 78 42 79 44 80 43 81 30 82 31 83 35 84 32 85 34 86
REMARK SMILES IDX 33 87
REMARK H PARENT 61 13 50 55 28 66
REMARK Flexibility Score: inf
ROOT
ATOM      1  C   UNL     1       4.151   1.383  -0.655  1.00  0.00     0.275 C 
ENDROOT
BRANCH   1   2
ATOM      2  O   UNL     1       2.959   0.653  -1.007  1.00  0.00    -0.458 OA
BRANCH   2   3
ATOM      3  C   UNL     1       2.678  -0.671  -0.950  1.00  0.00     0.338 C 
ATOM      4  O   UNL     1       1.690  -1.087  -1.554  1.00  0.00    -0.246 OA
BRANCH   3   5
ATOM      5  C   UNL     1       3.417  -1.651  -0.090  1.00  0.00     0.060 A 
ATOM      6  C   UNL     1       4.706  -1.484   0.411  1.00  0.00     0.020 A 
ATOM      7  C   UNL     1       2.728  -2.830   0.269  1.00  0.00     0.020 A 
ATOM      8  C   UNL     1       5.240  -2.388   1.322  1.00  0.00     0.052 A 
ATOM      9  C   UNL     1       3.285  -3.765   1.151  1.00  0.00     0.052 A 
ATOM     10  C   UNL     1       4.537  -3.528   1.700  1.00  0.00     0.125 A 
BRANCH  10  11
ATOM     11  N   UNL     1       5.160  -4.381   2.613  1.00  0.00    -0.235 N 
ATOM     12  C   UNL     1       5.985  -5.258   2.151  1.00  0.00     0.320 C 
ATOM     13  H   UNL     1       4.974  -4.316   3.578  1.00  0.00     0.313 HD
ATOM     14  S   UNL     1       6.112  -5.763   0.487  1.00  0.00    -0.022 SA
ATOM     15  N   UNL     1       6.928  -5.869   2.928  1.00  0.00    -0.186 N 
ATOM     16  C   UNL     1       7.219  -7.126   0.906  1.00  0.00     0.178 C 
ATOM     17  C   UNL     1       7.748  -6.780   2.292  1.00  0.00     0.324 C 
ATOM     18  O   UNL     1       8.739  -7.293   2.798  1.00  0.00    -0.245 OA
BRANCH  15  19
ATOM     19  C   UNL     1       7.153  -5.494   4.322  1.00  0.00     0.283 C 
BRANCH  19  20
ATOM     20  C   UNL     1       7.928  -4.198   4.497  1.00  0.00    -0.006 A 
ATOM     21  C   UNL     1       9.314  -4.207   4.708  1.00  0.00     0.008 A 
ATOM     22  C   UNL     1       7.267  -2.959   4.479  1.00  0.00     0.008 A 
ATOM     23  C   UNL     1      10.013  -3.009   4.894  1.00  0.00     0.000 A 
ATOM     24  C   UNL     1       7.969  -1.762   4.635  1.00  0.00     0.000 A 
ATOM     25  C   UNL     1       9.343  -1.787   4.849  1.00  0.00     0.000 A 
ENDBRANCH  19  20
ENDBRANCH  15  19
BRANCH  16  26
ATOM     26  C   UNL     1       8.269  -7.255  -0.192  1.00  0.00     0.063 C 
BRANCH  26  27
ATOM     27  C   UNL     1       9.081  -8.522  -0.088  1.00  0.00    -0.046 A 
ATOM     28  C   UNL     1      10.468  -8.445   0.094  1.00  0.00     0.007 A 
ATOM     29  C   UNL     1       8.463  -9.781  -0.164  1.00  0.00     0.007 A 
ATOM     30  C   UNL     1      11.223  -9.608   0.233  1.00  0.00     0.039 A 
ATOM     31  C   UNL     1       9.220 -10.942  -0.015  1.00  0.00     0.039 A 
ATOM     32  C   UNL     1      10.591 -10.844   0.186  1.00  0.00     0.123 A 
ATOM     33  F   UNL     1      11.315 -11.960   0.338  1.00  0.00    -0.207 F 
ENDBRANCH  26  27
ENDBRANCH  16  26
ENDBRANCH  10  11
ENDBRANCH   3   5
ENDBRANCH   2   3
ENDBRANCH   1   2
BRANCH   1  34
ATOM     34  C   UNL     1       4.160   1.915   0.784  1.00  0.00     0.275 C 
BRANCH  34  35
ATOM     35  O   UNL     1       3.812   0.917   1.759  1.00  0.00    -0.458 OA
BRANCH  35  36
ATOM     36  C   UNL     1       2.496   0.882   2.093  1.00  0.00     0.338 C 
ATOM     37  O   UNL     1       1.642   1.672   1.725  1.00  0.00    -0.246 OA
BRANCH  36  38
ATOM     38  C   UNL     1       2.173  -0.328   2.892  1.00  0.00     0.060 A 
ATOM     39  C   UNL     1       0.906  -0.896   2.712  1.00  0.00     0.016 A 
ATOM     40  C   UNL     1       3.058  -0.890   3.818  1.00  0.00     0.016 A 
ATOM     41  C   UNL     1       0.498  -1.980   3.494  1.00  0.00     0.010 A 
ATOM     42  C   UNL     1       2.652  -1.990   4.591  1.00  0.00     0.010 A 
ATOM     43  C   UNL     1       1.352  -2.514   4.470  1.00  0.00    -0.014 A 
BRANCH  43  44
ATOM     44  C   UNL     1       0.804  -3.485   5.460  1.00  0.00     0.031 A 
ATOM     45  C   UNL     1       0.435  -2.995   6.836  1.00  0.00     0.074 A 
ATOM     46  C   UNL     1       0.555  -4.770   5.141  1.00  0.00     0.049 A 
ATOM     47  N   UNL     1      -0.192  -3.625   7.799  1.00  0.00    -0.248 NA
ATOM     48  C   UNL     1       0.818  -1.615   7.170  1.00  0.00     0.031 C 
ATOM     49  C   UNL     1       0.833  -5.391   3.851  1.00  0.00     0.029 A 
ATOM     50  N   UNL     1      -0.009  -5.782   5.882  1.00  0.00    -0.354 N 
ATOM     51  C   UNL     1      -0.291  -2.714   8.843  1.00  0.00     0.074 A 
ATOM     52  C   UNL     1       0.391  -1.511   8.419  1.00  0.00     0.031 C 
ATOM     53  C   UNL     1       0.437  -6.675   3.883  1.00  0.00     0.029 A 
ATOM     54  C   UNL     1      -0.129  -6.969   5.198  1.00  0.00     0.049 A 
ATOM     55  H   UNL     1      -0.300  -5.668   6.816  1.00  0.00     0.167 HD
ATOM     56  C   UNL     1      -0.913  -2.848  10.038  1.00  0.00     0.031 A 
ATOM     57  C   UNL     1      -0.652  -8.152   5.576  1.00  0.00     0.031 A 
ATOM     58  C   UNL     1      -1.584  -4.038  10.487  1.00  0.00     0.049 A 
ATOM     59  C   UNL     1      -1.280  -8.297   6.938  1.00  0.00     0.074 A 
ATOM     60  C   UNL     1      -2.269  -4.245  11.672  1.00  0.00     0.029 A 
ATOM     61  N   UNL     1      -1.642  -5.226   9.779  1.00  0.00    -0.354 N 
ATOM     62  N   UNL     1      -1.442  -7.399   7.878  1.00  0.00    -0.248 NA
ATOM     63  C   UNL     1      -1.828  -9.621   7.275  1.00  0.00     0.031 C 
ATOM     64  C   UNL     1      -2.691  -5.577  11.708  1.00  0.00     0.029 A 
ATOM     65  C   UNL     1      -2.325  -6.180  10.516  1.00  0.00     0.049 A 
ATOM     66  H   UNL     1      -1.256  -5.372   8.885  1.00  0.00     0.167 HD
ATOM     67  C   UNL     1      -2.152  -8.033   8.892  1.00  0.00     0.074 A 
ATOM     68  C   UNL     1      -2.394  -9.390   8.451  1.00  0.00     0.031 C 
ATOM     69  C   UNL     1      -2.575  -7.528  10.076  1.00  0.00     0.031 A 
BRANCH  56  70
ATOM     70  C   UNL     1      -0.879  -1.662  10.960  1.00  0.00    -0.014 A 
ATOM     71  C   UNL     1      -1.621  -0.503  10.681  1.00  0.00     0.009 A 
ATOM     72  C   UNL     1      -0.111  -1.713  12.133  1.00  0.00     0.009 A 
ATOM     73  C   UNL     1      -1.564   0.596  11.540  1.00  0.00     0.001 A 
ATOM     74  C   UNL     1      -0.079  -0.624  13.005  1.00  0.00     0.001 A 
ATOM     75  C   UNL     1      -0.796   0.532  12.702  1.00  0.00     0.000 A 
ENDBRANCH  56  70
BRANCH  57  76
ATOM     76  C   UNL     1      -0.643  -9.311   4.643  1.00  0.00    -0.014 A 
ATOM     77  C   UNL     1      -1.839  -9.789   4.086  1.00  0.00     0.009 A 
ATOM     78  C   UNL     1       0.555  -9.982   4.356  1.00  0.00     0.009 A 
ATOM     79  C   UNL     1      -1.841 -10.938   3.292  1.00  0.00     0.001 A 
ATOM     80  C   UNL     1       0.554 -11.115   3.538  1.00  0.00     0.001 A 
ATOM     81  C   UNL     1      -0.645 -11.599   3.018  1.00  0.00     0.000 A 
ENDBRANCH  57  76
BRANCH  69  82
ATOM     82  C   UNL     1      -3.398  -8.424  10.964  1.00  0.00    -0.014 A 
ATOM     83  C   UNL     1      -2.837  -9.529  11.623  1.00  0.00     0.009 A 
ATOM     84  C   UNL     1      -4.756  -8.131  11.171  1.00  0.00     0.009 A 
ATOM     85  C   UNL     1      -3.629 -10.344  12.436  1.00  0.00     0.001 A 
ATOM     86  C   UNL     1      -5.537  -8.928  12.010  1.00  0.00     0.001 A 
ATOM     87  C   UNL     1      -4.975 -10.040  12.633  1.00  0.00     0.000 A 
ENDBRANCH  69  82
ENDBRANCH  43  44
ENDBRANCH  36  38
ENDBRANCH  35  36
ENDBRANCH  34  35
ENDBRANCH   1  34
TORSDOF 16
