REMARK SMILES CCOCCC(=O)N1[C@@H](C(=O)OCCOC(=O)c2ccc(-c3c4nc(c(-c5ccccc5)c5ccc([nH]5)c(-c5ccccc5)c5nc(c(-c6ccccc6)c6ccc3[nH]6)C=C5)C=C4)cc2)CC[C@H]2CCCC[C@@H]21
REMARK SMILES IDX 12 1 10 2 11 3 9 4 8 5 73 6 66 7 68 8 72 9 67 10 69 11 71 12
REMARK SMILES IDX 70 13 6 14 7 15 5 16 4 17 3 18 2 19 1 20 13 21 14 22 15 23
REMARK SMILES IDX 16 24 17 25 18 26 19 27 65 28 20 29 64 30 21 31 22 32 23 33
REMARK SMILES IDX 58 34 24 35 63 36 57 37 59 38 25 39 62 40 56 41 55 42 26 44
REMARK SMILES IDX 48 45 33 46 47 47 34 48 37 49 46 50 60 51 35 52 36 53 45 55
REMARK SMILES IDX 61 56 38 57 27 58 28 59 32 60 29 61 31 62 30 63 49 64 50 65
REMARK SMILES IDX 54 66 51 67 53 68 52 69 39 70 40 71 44 72 41 73 43 74 42 75
REMARK H PARENT 59 43 37 54
REMARK Flexibility Score: inf
ROOT
ATOM      1  O   UNL     1       1.983   4.484  -1.411  1.00  0.00    -0.461 OA
ENDROOT
BRANCH   1   2
ATOM      2  C   UNL     1       1.069   4.133  -2.357  1.00  0.00     0.328 C 
ATOM      3  O   UNL     1       1.060   4.616  -3.486  1.00  0.00    -0.250 OA
BRANCH   2   4
ATOM      4  C   UNL     1       0.000   3.126  -1.829  1.00  0.00     0.195 C 
ATOM      5  N   UNL     1       0.334   1.675  -1.753  1.00  0.00    -0.326 N 
ATOM      6  C   UNL     1      -0.780   0.752  -1.449  1.00  0.00     0.089 C 
ATOM      7  C   UNL     1      -1.231   3.334  -2.793  1.00  0.00     0.037 C 
ATOM      8  C   UNL     1      -2.168   1.302  -1.810  1.00  0.00     0.012 C 
ATOM      9  C   UNL     1      -0.872   0.328   0.029  1.00  0.00     0.025 C 
ATOM     10  C   UNL     1      -2.062   2.085  -3.093  1.00  0.00     0.008 C 
ATOM     11  C   UNL     1      -3.165   0.144  -1.836  1.00  0.00     0.006 C 
ATOM     12  C   UNL     1      -1.905  -0.797   0.187  1.00  0.00     0.002 C 
ATOM     13  C   UNL     1      -3.268  -0.467  -0.434  1.00  0.00     0.000 C 
BRANCH   5  14
ATOM     14  C   UNL     1       1.619   1.248  -1.389  1.00  0.00     0.225 C 
ATOM     15  O   UNL     1       2.370   1.927  -0.699  1.00  0.00    -0.275 OA
BRANCH  14  16
ATOM     16  C   UNL     1       2.078  -0.051  -2.053  1.00  0.00     0.128 C 
BRANCH  16  17
ATOM     17  C   UNL     1       3.215  -0.779  -1.351  1.00  0.00     0.170 C 
BRANCH  17  18
ATOM     18  O   UNL     1       2.880  -2.145  -1.071  1.00  0.00    -0.381 OA
BRANCH  18  19
ATOM     19  C   UNL     1       1.868  -2.342  -0.089  1.00  0.00     0.156 C 
ATOM     20  C   UNL     1       2.261  -1.813   1.278  1.00  0.00     0.035 C 
ENDBRANCH  18  19
ENDBRANCH  17  18
ENDBRANCH  16  17
ENDBRANCH  14  16
ENDBRANCH   5  14
ENDBRANCH   2   4
ENDBRANCH   1   2
BRANCH   1  21
ATOM     21  C   UNL     1       2.956   5.456  -1.844  1.00  0.00     0.274 C 
BRANCH  21  22
ATOM     22  C   UNL     1       4.169   4.825  -2.532  1.00  0.00     0.275 C 
BRANCH  22  23
ATOM     23  O   UNL     1       3.766   3.996  -3.638  1.00  0.00    -0.458 OA
BRANCH  23  24
ATOM     24  C   UNL     1       4.278   2.747  -3.631  1.00  0.00     0.338 C 
ATOM     25  O   UNL     1       5.111   2.299  -2.861  1.00  0.00    -0.246 OA
BRANCH  24  26
ATOM     26  C   UNL     1       3.696   1.903  -4.698  1.00  0.00     0.060 A 
ATOM     27  C   UNL     1       2.325   1.895  -4.975  1.00  0.00     0.016 A 
ATOM     28  C   UNL     1       4.524   0.932  -5.267  1.00  0.00     0.016 A 
ATOM     29  C   UNL     1       1.772   0.853  -5.724  1.00  0.00     0.010 A 
ATOM     30  C   UNL     1       3.983  -0.063  -6.080  1.00  0.00     0.010 A 
ATOM     31  C   UNL     1       2.598  -0.133  -6.286  1.00  0.00    -0.014 A 
BRANCH  31  32
ATOM     32  C   UNL     1       2.047  -1.202  -7.152  1.00  0.00     0.031 A 
ATOM     33  C   UNL     1       2.148  -2.652  -6.765  1.00  0.00     0.074 A 
ATOM     34  C   UNL     1       1.518  -0.855  -8.339  1.00  0.00     0.049 A 
ATOM     35  N   UNL     1       1.913  -3.714  -7.495  1.00  0.00    -0.248 NA
ATOM     36  C   UNL     1       2.560  -2.949  -5.384  1.00  0.00     0.031 C 
ATOM     37  C   UNL     1       1.332   0.518  -8.813  1.00  0.00     0.029 A 
ATOM     38  N   UNL     1       1.065  -1.632  -9.374  1.00  0.00    -0.354 N 
ATOM     39  C   UNL     1       2.173  -4.806  -6.675  1.00  0.00     0.074 A 
ATOM     40  C   UNL     1       2.583  -4.277  -5.390  1.00  0.00     0.031 C 
ATOM     41  C   UNL     1       0.804   0.488 -10.043  1.00  0.00     0.029 A 
ATOM     42  C   UNL     1       0.692  -0.899 -10.473  1.00  0.00     0.049 A 
ATOM     43  H   UNL     1       1.012  -2.614  -9.333  1.00  0.00     0.167 HD
ATOM     44  C   UNL     1       2.082  -6.125  -6.974  1.00  0.00     0.031 A 
ATOM     45  C   UNL     1       0.354  -1.291 -11.713  1.00  0.00     0.031 A 
ATOM     46  C   UNL     1       1.683  -6.643  -8.259  1.00  0.00     0.049 A 
ATOM     47  C   UNL     1       0.357  -2.749 -12.048  1.00  0.00     0.074 A 
ATOM     48  C   UNL     1       1.551  -7.963  -8.655  1.00  0.00     0.029 A 
ATOM     49  N   UNL     1       1.357  -5.864  -9.359  1.00  0.00    -0.354 N 
ATOM     50  N   UNL     1       0.634  -3.770 -11.275  1.00  0.00    -0.248 NA
ATOM     51  C   UNL     1       0.015  -3.107 -13.430  1.00  0.00     0.031 C 
ATOM     52  C   UNL     1       1.188  -7.983 -10.007  1.00  0.00     0.029 A 
ATOM     53  C   UNL     1       1.047  -6.674 -10.439  1.00  0.00     0.049 A 
ATOM     54  H   UNL     1       1.347  -4.879  -9.370  1.00  0.00     0.167 HD
ATOM     55  C   UNL     1       0.486  -4.895 -12.071  1.00  0.00     0.074 A 
ATOM     56  C   UNL     1       0.083  -4.431 -13.384  1.00  0.00     0.031 C 
ATOM     57  C   UNL     1       0.665  -6.197 -11.742  1.00  0.00     0.031 A 
BRANCH  44  58
ATOM     58  C   UNL     1       2.453  -7.115  -5.905  1.00  0.00    -0.014 A 
ATOM     59  C   UNL     1       1.593  -7.382  -4.829  1.00  0.00     0.009 A 
ATOM     60  C   UNL     1       3.646  -7.847  -6.018  1.00  0.00     0.009 A 
ATOM     61  C   UNL     1       1.930  -8.350  -3.878  1.00  0.00     0.001 A 
ATOM     62  C   UNL     1       3.970  -8.827  -5.078  1.00  0.00     0.001 A 
ATOM     63  C   UNL     1       3.115  -9.075  -4.006  1.00  0.00     0.000 A 
ENDBRANCH  44  58
BRANCH  45  64
ATOM     64  C   UNL     1       0.034  -0.264 -12.733  1.00  0.00    -0.014 A 
ATOM     65  C   UNL     1      -1.292  -0.053 -13.135  1.00  0.00     0.009 A 
ATOM     66  C   UNL     1       1.048   0.552 -13.262  1.00  0.00     0.009 A 
ATOM     67  C   UNL     1      -1.596   0.955 -14.052  1.00  0.00     0.001 A 
ATOM     68  C   UNL     1       0.737   1.575 -14.157  1.00  0.00     0.001 A 
ATOM     69  C   UNL     1      -0.584   1.773 -14.554  1.00  0.00     0.000 A 
ENDBRANCH  45  64
BRANCH  57  70
ATOM     70  C   UNL     1       0.397  -7.205 -12.820  1.00  0.00    -0.014 A 
ATOM     71  C   UNL     1       1.310  -7.406 -13.867  1.00  0.00     0.009 A 
ATOM     72  C   UNL     1      -0.785  -7.960 -12.788  1.00  0.00     0.009 A 
ATOM     73  C   UNL     1       1.025  -8.322 -14.882  1.00  0.00     0.001 A 
ATOM     74  C   UNL     1      -1.055  -8.891 -13.791  1.00  0.00     0.001 A 
ATOM     75  C   UNL     1      -0.155  -9.064 -14.842  1.00  0.00     0.000 A 
ENDBRANCH  57  70
ENDBRANCH  31  32
ENDBRANCH  24  26
ENDBRANCH  23  24
ENDBRANCH  22  23
ENDBRANCH  21  22
ENDBRANCH   1  21
TORSDOF 16
