REMARK SMILES CCN(CC(C)(C)O)C(=O)N[C@@H](C(=O)OCCOC(=O)c1ccc(-c2c3nc(c(-c4ccccc4)c4ccc([nH]4)c(-c4ccccc4)c4nc(c(-c5ccccc5)c5ccc2[nH]5)C=C4)C=C3)cc1)C(C)(C)C
REMARK SMILES IDX 15 1 13 2 14 3 12 4 11 5 9 6 10 7 3 9 2 10 1 11 4 12 5 13
REMARK SMILES IDX 6 14 7 15 8 16 69 18 70 19 71 20 72 21 16 22 17 23 18 24
REMARK SMILES IDX 19 25 20 26 21 27 22 28 68 29 23 30 67 31 24 32 25 33 26 34
REMARK SMILES IDX 61 35 27 36 66 37 60 38 62 39 28 40 65 41 59 42 58 43 29 45
REMARK SMILES IDX 51 46 36 47 50 48 37 49 40 50 49 51 63 52 38 53 39 54 48 56
REMARK SMILES IDX 64 57 41 58 30 59 31 60 35 61 32 62 34 63 33 64 52 65 53 66
REMARK SMILES IDX 57 67 54 68 56 69 55 70 42 71 43 72 47 73 44 74 46 75 45 76
REMARK H PARENT 11 8 8 17 62 44 40 55
REMARK Flexibility Score: inf
ROOT
ATOM      1  O   UNL     1       2.957   4.968   3.735  1.00  0.00    -0.461 OA
ENDROOT
BRANCH   1   2
ATOM      2  C   UNL     1       2.114   5.572   2.847  1.00  0.00     0.329 C 
ATOM      3  O   UNL     1       1.530   6.630   3.058  1.00  0.00    -0.250 OA
BRANCH   2   4
ATOM      4  C   UNL     1       1.858   4.713   1.586  1.00  0.00     0.199 C 
BRANCH   4   5
ATOM      5  N   UNL     1       2.474   3.393   1.727  1.00  0.00    -0.324 N 
ATOM      6  C   UNL     1       2.079   2.117   1.810  1.00  0.00     0.318 C 
ATOM      7  O   UNL     1       3.009   1.310   1.920  1.00  0.00    -0.249 OA
ATOM      8  H   UNL     1       3.454   3.463   1.773  1.00  0.00     0.166 HD
BRANCH   6   9
ATOM      9  N   UNL     1       0.776   1.702   1.761  1.00  0.00    -0.322 N 
BRANCH   9  10
ATOM     10  C   UNL     1       0.578   0.251   1.653  1.00  0.00     0.118 C 
ATOM     11  C   UNL     1       0.724  -0.214   0.210  1.00  0.00     0.027 C 
ENDBRANCH   9  10
BRANCH   9  12
ATOM     12  C   UNL     1      -0.465   2.491   1.725  1.00  0.00     0.155 C 
BRANCH  12  13
ATOM     13  C   UNL     1      -1.048   2.886   3.116  1.00  0.00     0.077 C 
ATOM     14  C   UNL     1      -0.038   3.249   4.206  1.00  0.00     0.043 C 
ATOM     15  C   UNL     1      -2.025   4.055   2.939  1.00  0.00     0.043 C 
BRANCH  13  16
ATOM     16  O   UNL     1      -1.813   1.778   3.618  1.00  0.00    -0.389 OA
ATOM     17  H   UNL     1      -1.230   1.013   3.744  1.00  0.00     0.211 HD
ENDBRANCH  13  16
ENDBRANCH  12  13
ENDBRANCH   9  12
ENDBRANCH   6   9
ENDBRANCH   4   5
BRANCH   4  18
ATOM     18  C   UNL     1       2.220   5.367   0.214  1.00  0.00    -0.007 C 
ATOM     19  C   UNL     1       1.856   4.414  -0.950  1.00  0.00     0.013 C 
ATOM     20  C   UNL     1       1.397   6.652  -0.007  1.00  0.00     0.013 C 
ATOM     21  C   UNL     1       3.723   5.675   0.107  1.00  0.00     0.013 C 
ENDBRANCH   4  18
ENDBRANCH   2   4
ENDBRANCH   1   2
BRANCH   1  22
ATOM     22  C   UNL     1       2.923   5.475   5.088  1.00  0.00     0.274 C 
BRANCH  22  23
ATOM     23  C   UNL     1       4.181   6.268   5.418  1.00  0.00     0.275 C 
BRANCH  23  24
ATOM     24  O   UNL     1       4.257   7.386   4.525  1.00  0.00    -0.458 OA
BRANCH  24  25
ATOM     25  C   UNL     1       5.446   7.577   3.910  1.00  0.00     0.338 C 
ATOM     26  O   UNL     1       6.500   7.021   4.159  1.00  0.00    -0.246 OA
BRANCH  25  27
ATOM     27  C   UNL     1       5.275   8.543   2.802  1.00  0.00     0.060 A 
ATOM     28  C   UNL     1       4.072   8.612   2.100  1.00  0.00     0.016 A 
ATOM     29  C   UNL     1       6.366   9.293   2.370  1.00  0.00     0.016 A 
ATOM     30  C   UNL     1       3.984   9.326   0.910  1.00  0.00     0.010 A 
ATOM     31  C   UNL     1       6.239  10.103   1.239  1.00  0.00     0.010 A 
ATOM     32  C   UNL     1       5.058  10.100   0.473  1.00  0.00    -0.014 A 
BRANCH  32  33
ATOM     33  C   UNL     1       4.999  10.865  -0.800  1.00  0.00     0.031 A 
ATOM     34  C   UNL     1       6.099  10.682  -1.805  1.00  0.00     0.074 A 
ATOM     35  C   UNL     1       4.005  11.735  -1.068  1.00  0.00     0.049 A 
ATOM     36  N   UNL     1       6.524  11.507  -2.724  1.00  0.00    -0.248 NA
ATOM     37  C   UNL     1       6.836   9.409  -1.744  1.00  0.00     0.031 C 
ATOM     38  C   UNL     1       2.794  11.940  -0.272  1.00  0.00     0.029 A 
ATOM     39  N   UNL     1       3.875  12.632  -2.100  1.00  0.00    -0.354 N 
ATOM     40  C   UNL     1       7.645  10.901  -3.276  1.00  0.00     0.074 A 
ATOM     41  C   UNL     1       7.806   9.620  -2.622  1.00  0.00     0.031 C 
ATOM     42  C   UNL     1       2.036  12.881  -0.854  1.00  0.00     0.029 A 
ATOM     43  C   UNL     1       2.771  13.440  -1.980  1.00  0.00     0.049 A 
ATOM     44  H   UNL     1       4.510  12.691  -2.851  1.00  0.00     0.167 HD
ATOM     45  C   UNL     1       8.480  11.399  -4.217  1.00  0.00     0.031 A 
ATOM     46  C   UNL     1       2.431  14.566  -2.635  1.00  0.00     0.031 A 
ATOM     47  C   UNL     1       8.262  12.650  -4.892  1.00  0.00     0.049 A 
ATOM     48  C   UNL     1       3.385  15.135  -3.644  1.00  0.00     0.074 A 
ATOM     49  C   UNL     1       9.057  13.280  -5.833  1.00  0.00     0.029 A 
ATOM     50  N   UNL     1       7.139  13.443  -4.718  1.00  0.00    -0.354 N 
ATOM     51  N   UNL     1       4.542  14.663  -4.041  1.00  0.00    -0.248 NA
ATOM     52  C   UNL     1       3.008  16.414  -4.260  1.00  0.00     0.031 C 
ATOM     53  C   UNL     1       8.419  14.466  -6.217  1.00  0.00     0.029 A 
ATOM     54  C   UNL     1       7.212  14.552  -5.540  1.00  0.00     0.049 A 
ATOM     55  H   UNL     1       6.398  13.246  -4.100  1.00  0.00     0.167 HD
ATOM     56  C   UNL     1       5.031  15.585  -4.955  1.00  0.00     0.074 A 
ATOM     57  C   UNL     1       4.038  16.634  -5.067  1.00  0.00     0.031 C 
ATOM     58  C   UNL     1       6.202  15.571  -5.636  1.00  0.00     0.031 A 
BRANCH  45  59
ATOM     59  C   UNL     1       9.736  10.632  -4.507  1.00  0.00    -0.014 A 
ATOM     60  C   UNL     1       9.728   9.456  -5.271  1.00  0.00     0.009 A 
ATOM     61  C   UNL     1      10.960  11.117  -4.017  1.00  0.00     0.009 A 
ATOM     62  C   UNL     1      10.919   8.768  -5.515  1.00  0.00     0.001 A 
ATOM     63  C   UNL     1      12.151  10.440  -4.282  1.00  0.00     0.001 A 
ATOM     64  C   UNL     1      12.129   9.262  -5.024  1.00  0.00     0.000 A 
ENDBRANCH  45  59
BRANCH  46  65
ATOM     65  C   UNL     1       1.184  15.284  -2.266  1.00  0.00    -0.014 A 
ATOM     66  C   UNL     1       0.084  15.294  -3.136  1.00  0.00     0.009 A 
ATOM     67  C   UNL     1       1.076  15.934  -1.025  1.00  0.00     0.009 A 
ATOM     68  C   UNL     1      -1.098  15.944  -2.770  1.00  0.00     0.001 A 
ATOM     69  C   UNL     1      -0.116  16.556  -0.650  1.00  0.00     0.001 A 
ATOM     70  C   UNL     1      -1.200  16.565  -1.525  1.00  0.00     0.000 A 
ENDBRANCH  46  65
BRANCH  58  71
ATOM     71  C   UNL     1       6.445  16.698  -6.592  1.00  0.00    -0.014 A 
ATOM     72  C   UNL     1       6.889  17.948  -6.138  1.00  0.00     0.009 A 
ATOM     73  C   UNL     1       6.270  16.487  -7.968  1.00  0.00     0.009 A 
ATOM     74  C   UNL     1       7.137  18.976  -7.049  1.00  0.00     0.001 A 
ATOM     75  C   UNL     1       6.534  17.511  -8.876  1.00  0.00     0.001 A 
ATOM     76  C   UNL     1       6.962  18.756  -8.416  1.00  0.00     0.000 A 
ENDBRANCH  58  71
ENDBRANCH  32  33
ENDBRANCH  25  27
ENDBRANCH  24  25
ENDBRANCH  23  24
ENDBRANCH  22  23
ENDBRANCH   1  22
TORSDOF 18
