REMARK SMILES CCC[C@@]1(C(=O)OCCOC(=O)c2ccc(-c3c4nc(c(-c5ccccc5)c5ccc([nH]5)c(-c5ccccc5)c5nc(c(-c6ccccc6)c6ccc3[nH]6)C=C5)C=C4)cc2)CCCN(C(=O)C[C@H]2CCCCO2)C1
REMARK SMILES IDX 8 1 7 2 5 3 6 4 4 5 61 6 74 7 62 8 64 9 63 10 3 11 2 12 1 13
REMARK SMILES IDX 65 14 66 15 67 16 68 17 69 18 73 19 70 20 72 21 71 22 9 23
REMARK SMILES IDX 10 24 11 25 12 26 13 27 14 28 60 29 15 30 59 31 16 32 17 33
REMARK SMILES IDX 18 34 53 35 19 36 58 37 52 38 54 39 20 40 57 41 51 42 50 43
REMARK SMILES IDX 21 45 43 46 28 47 42 48 29 49 32 50 41 51 55 52 30 53 31 54
REMARK SMILES IDX 40 56 56 57 33 58 22 59 23 60 27 61 24 62 26 63 25 64 44 65
REMARK SMILES IDX 45 66 49 67 46 68 48 69 47 70 34 71 35 72 39 73 36 74 38 75
REMARK SMILES IDX 37 76
REMARK H PARENT 54 44 32 55
REMARK Flexibility Score: inf
ROOT
ATOM      1  C   UNL     1       4.071  -4.267  -3.627  1.00  0.00     0.274 C 
ENDROOT
BRANCH   1   2
ATOM      2  O   UNL     1       4.888  -4.026  -4.795  1.00  0.00    -0.462 OA
BRANCH   2   3
ATOM      3  C   UNL     1       4.825  -2.776  -5.348  1.00  0.00     0.314 C 
ATOM      4  O   UNL     1       4.389  -1.794  -4.761  1.00  0.00    -0.252 OA
BRANCH   3   5
ATOM      5  C   UNL     1       5.376  -2.755  -6.791  1.00  0.00     0.086 C 
ATOM      6  C   UNL     1       5.013  -1.461  -7.577  1.00  0.00     0.022 C 
ATOM      7  C   UNL     1       4.757  -3.981  -7.536  1.00  0.00     0.138 C 
ATOM      8  C   UNL     1       3.561  -1.360  -8.012  1.00  0.00     0.023 C 
ATOM      9  N   UNL     1       3.333  -3.750  -7.839  1.00  0.00    -0.341 N 
ATOM     10  C   UNL     1       3.105  -2.619  -8.723  1.00  0.00     0.119 C 
BRANCH   5  11
ATOM     11  C   UNL     1       6.923  -2.862  -6.752  1.00  0.00     0.020 C 
BRANCH  11  12
ATOM     12  C   UNL     1       7.743  -1.587  -6.431  1.00  0.00    -0.002 C 
ATOM     13  C   UNL     1       7.329  -0.709  -5.254  1.00  0.00     0.004 C 
ENDBRANCH  11  12
ENDBRANCH   5  11
BRANCH   9  14
ATOM     14  C   UNL     1       2.344  -4.428  -7.143  1.00  0.00     0.225 C 
ATOM     15  O   UNL     1       2.618  -5.356  -6.374  1.00  0.00    -0.275 OA
BRANCH  14  16
ATOM     16  C   UNL     1       0.877  -4.019  -7.296  1.00  0.00     0.132 C 
BRANCH  16  17
ATOM     17  C   UNL     1       0.423  -2.800  -6.468  1.00  0.00     0.127 C 
ATOM     18  C   UNL     1       1.048  -2.745  -5.072  1.00  0.00     0.033 C 
ATOM     19  O   UNL     1       0.683  -1.604  -7.211  1.00  0.00    -0.378 OA
ATOM     20  C   UNL     1       0.707  -1.462  -4.326  1.00  0.00     0.005 C 
ATOM     21  C   UNL     1       0.308  -0.399  -6.545  1.00  0.00     0.160 C 
ATOM     22  C   UNL     1       1.001  -0.252  -5.198  1.00  0.00     0.029 C 
ENDBRANCH  16  17
ENDBRANCH  14  16
ENDBRANCH   9  14
ENDBRANCH   3   5
ENDBRANCH   2   3
ENDBRANCH   1   2
BRANCH   1  23
ATOM     23  C   UNL     1       4.528  -5.524  -2.885  1.00  0.00     0.275 C 
BRANCH  23  24
ATOM     24  O   UNL     1       5.772  -5.238  -2.226  1.00  0.00    -0.458 OA
BRANCH  24  25
ATOM     25  C   UNL     1       6.869  -5.635  -2.901  1.00  0.00     0.338 C 
ATOM     26  O   UNL     1       6.948  -6.410  -3.841  1.00  0.00    -0.246 OA
BRANCH  25  27
ATOM     27  C   UNL     1       7.962  -4.745  -2.509  1.00  0.00     0.060 A 
ATOM     28  C   UNL     1       8.170  -3.642  -3.330  1.00  0.00     0.016 A 
ATOM     29  C   UNL     1       8.805  -5.001  -1.435  1.00  0.00     0.016 A 
ATOM     30  C   UNL     1       9.262  -2.813  -3.142  1.00  0.00     0.010 A 
ATOM     31  C   UNL     1       9.887  -4.142  -1.216  1.00  0.00     0.010 A 
ATOM     32  C   UNL     1      10.135  -3.060  -2.085  1.00  0.00    -0.014 A 
BRANCH  32  33
ATOM     33  C   UNL     1      11.380  -2.272  -1.985  1.00  0.00     0.031 A 
ATOM     34  C   UNL     1      12.674  -2.940  -2.338  1.00  0.00     0.074 A 
ATOM     35  C   UNL     1      11.360  -0.966  -1.664  1.00  0.00     0.049 A 
ATOM     36  N   UNL     1      13.898  -2.548  -2.109  1.00  0.00    -0.248 NA
ATOM     37  C   UNL     1      12.569  -4.223  -3.055  1.00  0.00     0.031 C 
ATOM     38  C   UNL     1      10.160  -0.150  -1.476  1.00  0.00     0.029 A 
ATOM     39  N   UNL     1      12.396  -0.096  -1.439  1.00  0.00    -0.354 N 
ATOM     40  C   UNL     1      14.709  -3.560  -2.603  1.00  0.00     0.074 A 
ATOM     41  C   UNL     1      13.842  -4.574  -3.161  1.00  0.00     0.031 C 
ATOM     42  C   UNL     1      10.530   1.101  -1.155  1.00  0.00     0.029 A 
ATOM     43  C   UNL     1      11.983   1.148  -1.029  1.00  0.00     0.049 A 
ATOM     44  H   UNL     1      13.342  -0.339  -1.559  1.00  0.00     0.167 HD
ATOM     45  C   UNL     1      16.059  -3.640  -2.569  1.00  0.00     0.031 A 
ATOM     46  C   UNL     1      12.698   2.181  -0.544  1.00  0.00     0.031 A 
ATOM     47  C   UNL     1      16.903  -2.621  -2.010  1.00  0.00     0.049 A 
ATOM     48  C   UNL     1      14.186   2.017  -0.381  1.00  0.00     0.074 A 
ATOM     49  C   UNL     1      18.277  -2.625  -1.850  1.00  0.00     0.029 A 
ATOM     50  N   UNL     1      16.444  -1.404  -1.529  1.00  0.00    -0.354 N 
ATOM     51  N   UNL     1      14.950   1.009  -0.727  1.00  0.00    -0.248 NA
ATOM     52  C   UNL     1      14.906   3.124   0.265  1.00  0.00     0.031 C 
ATOM     53  C   UNL     1      18.644  -1.424  -1.233  1.00  0.00     0.029 A 
ATOM     54  C   UNL     1      17.505  -0.652  -1.060  1.00  0.00     0.049 A 
ATOM     55  H   UNL     1      15.502  -1.118  -1.523  1.00  0.00     0.167 HD
ATOM     56  C   UNL     1      16.242   1.371  -0.366  1.00  0.00     0.074 A 
ATOM     57  C   UNL     1      16.159   2.694   0.217  1.00  0.00     0.031 C 
ATOM     58  C   UNL     1      17.395   0.670  -0.502  1.00  0.00     0.031 A 
BRANCH  45  59
ATOM     59  C   UNL     1      16.681  -4.910  -3.069  1.00  0.00    -0.014 A 
ATOM     60  C   UNL     1      16.755  -5.207  -4.438  1.00  0.00     0.009 A 
ATOM     61  C   UNL     1      17.193  -5.832  -2.142  1.00  0.00     0.009 A 
ATOM     62  C   UNL     1      17.300  -6.419  -4.866  1.00  0.00     0.001 A 
ATOM     63  C   UNL     1      17.760  -7.031  -2.574  1.00  0.00     0.001 A 
ATOM     64  C   UNL     1      17.804  -7.328  -3.935  1.00  0.00     0.000 A 
ENDBRANCH  45  59
BRANCH  46  65
ATOM     65  C   UNL     1      12.017   3.421  -0.088  1.00  0.00    -0.014 A 
ATOM     66  C   UNL     1      12.229   4.641  -0.747  1.00  0.00     0.009 A 
ATOM     67  C   UNL     1      11.174   3.399   1.036  1.00  0.00     0.009 A 
ATOM     68  C   UNL     1      11.632   5.814  -0.277  1.00  0.00     0.001 A 
ATOM     69  C   UNL     1      10.553   4.566   1.485  1.00  0.00     0.001 A 
ATOM     70  C   UNL     1      10.792   5.775   0.835  1.00  0.00     0.000 A 
ENDBRANCH  46  65
BRANCH  58  71
ATOM     71  C   UNL     1      18.664   1.345  -0.070  1.00  0.00    -0.014 A 
ATOM     72  C   UNL     1      18.992   1.485   1.286  1.00  0.00     0.009 A 
ATOM     73  C   UNL     1      19.571   1.791  -1.044  1.00  0.00     0.009 A 
ATOM     74  C   UNL     1      20.198   2.083   1.659  1.00  0.00     0.001 A 
ATOM     75  C   UNL     1      20.786   2.364  -0.669  1.00  0.00     0.001 A 
ATOM     76  C   UNL     1      21.095   2.515   0.682  1.00  0.00     0.000 A 
ENDBRANCH  58  71
ENDBRANCH  32  33
ENDBRANCH  25  27
ENDBRANCH  24  25
ENDBRANCH  23  24
ENDBRANCH   1  23
TORSDOF 16
