REMARK SMILES C[C@]12CCC(=O)N1[C@H](C(=O)N1CCC[C@@H]1C(=O)OCCOC(=O)c1ccc(-c3c4nc(c(-c5ccccc5)c5ccc([nH]5)c(-c5ccccc5)c5nc(c(-c6ccccc6)c6ccc3[nH]6)C=C5)C=C4)cc1)CS2
REMARK SMILES IDX 19 1 18 2 16 3 17 4 15 5 11 6 12 7 13 8 14 9 9 10 10 11 8 12
REMARK SMILES IDX 1 13 2 14 3 15 7 16 73 17 4 18 5 19 72 20 6 21 20 22 21 23
REMARK SMILES IDX 22 24 23 25 24 26 25 27 71 28 26 29 70 30 27 31 28 32 29 33
REMARK SMILES IDX 64 34 30 35 69 36 63 37 65 38 31 39 68 40 62 41 61 42 32 44
REMARK SMILES IDX 54 45 39 46 53 47 40 48 43 49 52 50 66 51 41 52 42 53 51 55
REMARK SMILES IDX 67 56 44 57 33 58 34 59 38 60 35 61 37 62 36 63 55 64 56 65
REMARK SMILES IDX 60 66 57 67 59 68 58 69 45 70 46 71 50 72 47 73 49 74 48 75
REMARK H PARENT 65 43 43 54
REMARK Flexibility Score: inf
ROOT
ATOM      1  C   UNL     1       4.033   2.364   3.103  1.00  0.00     0.274 C 
ENDROOT
BRANCH   1   2
ATOM      2  O   UNL     1       3.783   3.238   1.980  1.00  0.00    -0.461 OA
BRANCH   2   3
ATOM      3  C   UNL     1       3.674   4.569   2.247  1.00  0.00     0.328 C 
ATOM      4  O   UNL     1       3.932   5.085   3.330  1.00  0.00    -0.250 OA
BRANCH   3   5
ATOM      5  C   UNL     1       3.058   5.373   1.077  1.00  0.00     0.195 C 
ATOM      6  N   UNL     1       2.795   4.607  -0.140  1.00  0.00    -0.327 N 
ATOM      7  C   UNL     1       3.733   4.970  -1.196  1.00  0.00     0.120 C 
ATOM      8  C   UNL     1       4.785   5.835  -0.524  1.00  0.00     0.024 C 
ATOM      9  C   UNL     1       4.013   6.480   0.620  1.00  0.00     0.039 C 
BRANCH   6  10
ATOM     10  C   UNL     1       1.767   3.732  -0.425  1.00  0.00     0.247 C 
ATOM     11  O   UNL     1       1.812   3.088  -1.482  1.00  0.00    -0.272 OA
BRANCH  10  12
ATOM     12  C   UNL     1       0.471   3.710   0.437  1.00  0.00     0.186 C 
ATOM     13  C   UNL     1       1.049   0.541   0.092  1.00  0.00     0.047 C 
ATOM     14  C   UNL     1      -0.118   1.331   0.682  1.00  0.00     0.087 C 
ATOM     15  C   UNL     1      -1.427   0.556   0.569  1.00  0.00     0.049 C 
ATOM     16  N   UNL     1      -0.394   2.594   0.045  1.00  0.00    -0.315 N 
ATOM     17  S   UNL     1       0.320   1.824   2.389  1.00  0.00    -0.131 SA
ATOM     18  C   UNL     1      -2.502   1.616   0.385  1.00  0.00     0.103 C 
ATOM     19  C   UNL     1      -1.752   2.811  -0.142  1.00  0.00     0.224 C 
ATOM     20  C   UNL     1       0.500   3.595   1.962  1.00  0.00     0.107 C 
ATOM     21  O   UNL     1      -2.269   3.858  -0.497  1.00  0.00    -0.275 OA
ENDBRANCH  10  12
ENDBRANCH   6  10
ENDBRANCH   3   5
ENDBRANCH   2   3
ENDBRANCH   1   2
BRANCH   1  22
ATOM     22  C   UNL     1       5.449   1.798   3.092  1.00  0.00     0.275 C 
BRANCH  22  23
ATOM     23  O   UNL     1       6.395   2.844   3.358  1.00  0.00    -0.458 OA
BRANCH  23  24
ATOM     24  C   UNL     1       7.056   3.299   2.273  1.00  0.00     0.338 C 
ATOM     25  O   UNL     1       6.993   2.894   1.127  1.00  0.00    -0.246 OA
BRANCH  24  26
ATOM     26  C   UNL     1       7.839   4.477   2.651  1.00  0.00     0.060 A 
ATOM     27  C   UNL     1       7.185   5.705   2.717  1.00  0.00     0.016 A 
ATOM     28  C   UNL     1       9.224   4.399   2.763  1.00  0.00     0.016 A 
ATOM     29  C   UNL     1       7.918   6.879   2.801  1.00  0.00     0.010 A 
ATOM     30  C   UNL     1       9.958   5.577   2.921  1.00  0.00     0.010 A 
ATOM     31  C   UNL     1       9.314   6.829   2.893  1.00  0.00    -0.014 A 
BRANCH  31  32
ATOM     32  C   UNL     1      10.102   8.085   2.850  1.00  0.00     0.031 A 
ATOM     33  C   UNL     1      11.045   8.327   1.703  1.00  0.00     0.074 A 
ATOM     34  C   UNL     1       9.946   9.027   3.799  1.00  0.00     0.049 A 
ATOM     35  N   UNL     1      11.959   9.252   1.566  1.00  0.00    -0.248 NA
ATOM     36  C   UNL     1      10.956   7.395   0.566  1.00  0.00     0.031 C 
ATOM     37  C   UNL     1       9.008   8.959   4.921  1.00  0.00     0.029 A 
ATOM     38  N   UNL     1      10.567  10.239   3.957  1.00  0.00    -0.354 N 
ATOM     39  C   UNL     1      12.603   8.969   0.368  1.00  0.00     0.074 A 
ATOM     40  C   UNL     1      11.965   7.798  -0.193  1.00  0.00     0.031 C 
ATOM     41  C   UNL     1       9.087  10.098   5.628  1.00  0.00     0.029 A 
ATOM     42  C   UNL     1      10.137  10.935   5.060  1.00  0.00     0.049 A 
ATOM     43  H   UNL     1      11.255  10.578   3.340  1.00  0.00     0.167 HD
ATOM     44  C   UNL     1      13.643   9.621  -0.204  1.00  0.00     0.031 A 
ATOM     45  C   UNL     1      10.568  12.099   5.579  1.00  0.00     0.031 A 
ATOM     46  C   UNL     1      14.236  10.816   0.331  1.00  0.00     0.049 A 
ATOM     47  C   UNL     1      11.722  12.806   4.929  1.00  0.00     0.074 A 
ATOM     48  C   UNL     1      15.308  11.543  -0.156  1.00  0.00     0.029 A 
ATOM     49  N   UNL     1      13.784  11.476   1.462  1.00  0.00    -0.354 N 
ATOM     50  N   UNL     1      12.396  12.469   3.857  1.00  0.00    -0.248 NA
ATOM     51  C   UNL     1      12.188  14.040   5.575  1.00  0.00     0.031 C 
ATOM     52  C   UNL     1      15.515  12.637   0.693  1.00  0.00     0.029 A 
ATOM     53  C   UNL     1      14.550  12.606   1.687  1.00  0.00     0.049 A 
ATOM     54  H   UNL     1      13.029  11.184   2.023  1.00  0.00     0.167 HD
ATOM     55  C   UNL     1      13.367  13.447   3.699  1.00  0.00     0.074 A 
ATOM     56  C   UNL     1      13.177  14.405   4.770  1.00  0.00     0.031 C 
ATOM     57  C   UNL     1      14.339  13.541   2.759  1.00  0.00     0.031 A 
BRANCH  44  58
ATOM     58  C   UNL     1      14.235   9.018  -1.444  1.00  0.00    -0.014 A 
ATOM     59  C   UNL     1      13.600   9.121  -2.690  1.00  0.00     0.009 A 
ATOM     60  C   UNL     1      15.467   8.349  -1.360  1.00  0.00     0.009 A 
ATOM     61  C   UNL     1      14.174   8.539  -3.823  1.00  0.00     0.001 A 
ATOM     62  C   UNL     1      16.049   7.789  -2.498  1.00  0.00     0.001 A 
ATOM     63  C   UNL     1      15.398   7.878  -3.727  1.00  0.00     0.000 A 
ENDBRANCH  44  58
BRANCH  45  64
ATOM     64  C   UNL     1       9.937  12.637   6.810  1.00  0.00    -0.014 A 
ATOM     65  C   UNL     1       9.113  13.770   6.752  1.00  0.00     0.009 A 
ATOM     66  C   UNL     1      10.141  12.006   8.048  1.00  0.00     0.009 A 
ATOM     67  C   UNL     1       8.513  14.266   7.912  1.00  0.00     0.001 A 
ATOM     68  C   UNL     1       9.519  12.489   9.200  1.00  0.00     0.001 A 
ATOM     69  C   UNL     1       8.710  13.621   9.133  1.00  0.00     0.000 A 
ENDBRANCH  45  64
BRANCH  57  70
ATOM     70  C   UNL     1      15.245  14.731   2.842  1.00  0.00    -0.014 A 
ATOM     71  C   UNL     1      16.284  14.782   3.784  1.00  0.00     0.009 A 
ATOM     72  C   UNL     1      15.071  15.802   1.952  1.00  0.00     0.009 A 
ATOM     73  C   UNL     1      17.115  15.901   3.852  1.00  0.00     0.001 A 
ATOM     74  C   UNL     1      15.915  16.910   2.012  1.00  0.00     0.001 A 
ATOM     75  C   UNL     1      16.931  16.963   2.966  1.00  0.00     0.000 A 
ENDBRANCH  57  70
ENDBRANCH  31  32
ENDBRANCH  24  26
ENDBRANCH  23  24
ENDBRANCH  22  23
ENDBRANCH   1  22
TORSDOF 13
