REMARK SMILES COc1ccc(NC(=O)[C@@H]2[C@@H](C(=O)OCCOC(=O)c3ccc(-c4c5nc(c(-c6ccccc6)c6ccc([nH]6)c(-c6ccccc6)c6nc(c(-c7ccccc7)c7ccc4[nH]7)C=C6)C=C5)cc3)[C@H]3C=C[C@@H]2C3)cc1O
REMARK SMILES IDX 15 1 14 2 12 3 13 4 11 5 10 6 71 7 68 8 70 9 72 10 69 11
REMARK SMILES IDX 8 12 7 13 9 15 6 16 3 17 4 18 74 19 5 20 73 21 2 22 1 23
REMARK SMILES IDX 75 24 16 26 17 27 18 28 19 29 20 30 21 31 67 32 22 33 66 34
REMARK SMILES IDX 23 35 24 36 25 37 60 38 26 39 65 40 59 41 61 42 27 43 64 44
REMARK SMILES IDX 58 45 57 46 28 48 50 49 35 50 49 51 36 52 39 53 48 54 62 55
REMARK SMILES IDX 37 56 38 57 47 59 63 60 40 61 29 62 30 63 34 64 31 65 33 66
REMARK SMILES IDX 32 67 51 68 52 69 56 70 53 71 55 72 54 73 41 74 42 75 46 76
REMARK SMILES IDX 43 77 45 78 44 79
REMARK H PARENT 7 14 75 25 61 47 39 58
REMARK Flexibility Score: inf
ROOT
ATOM      1  C   UNL     1      -3.435  -2.544   5.053  1.00  0.00     0.274 C 
ENDROOT
BRANCH   1   2
ATOM      2  O   UNL     1      -2.002  -2.656   4.941  1.00  0.00    -0.462 OA
BRANCH   2   3
ATOM      3  C   UNL     1      -1.434  -3.818   5.380  1.00  0.00     0.310 C 
ATOM      4  O   UNL     1      -2.042  -4.752   5.881  1.00  0.00    -0.252 OA
BRANCH   3   5
ATOM      5  C   UNL     1       0.055  -3.792   5.066  1.00  0.00     0.119 C 
ATOM      6  C   UNL     1       0.771  -5.160   5.127  1.00  0.00     0.100 C 
ATOM      7  C   UNL     1       1.800  -4.972   6.276  1.00  0.00     0.025 C 
ATOM      8  C   UNL     1       0.873  -2.948   6.078  1.00  0.00     0.027 C 
ATOM      9  C   UNL     1       1.073  -4.678   7.571  1.00  0.00    -0.027 C 
ATOM     10  C   UNL     1       2.284  -3.555   5.978  1.00  0.00     0.017 C 
ATOM     11  C   UNL     1       0.550  -3.446   7.468  1.00  0.00    -0.027 C 
BRANCH   6  12
ATOM     12  C   UNL     1       1.501  -5.742   3.908  1.00  0.00     0.228 C 
ATOM     13  N   UNL     1       1.676  -5.237   2.663  1.00  0.00    -0.326 N 
ATOM     14  H   UNL     1       2.027  -5.939   2.069  1.00  0.00     0.169 HD
ATOM     15  O   UNL     1       1.930  -6.904   4.033  1.00  0.00    -0.274 OA
BRANCH  13  16
ATOM     16  C   UNL     1       1.522  -4.039   1.941  1.00  0.00     0.045 A 
ATOM     17  C   UNL     1       0.948  -1.805   0.319  1.00  0.00     0.160 A 
ATOM     18  C   UNL     1       1.224  -1.628   1.666  1.00  0.00     0.052 A 
ATOM     19  C   UNL     1       1.049  -3.077  -0.233  1.00  0.00     0.159 A 
ATOM     20  C   UNL     1       1.557  -2.742   2.454  1.00  0.00     0.030 A 
ATOM     21  C   UNL     1       1.349  -4.182   0.557  1.00  0.00     0.076 A 
BRANCH  17  22
ATOM     22  O   UNL     1       0.490  -0.804  -0.489  1.00  0.00    -0.493 OA
ATOM     23  C   UNL     1       1.427   0.253  -0.665  1.00  0.00     0.278 C 
ENDBRANCH  17  22
BRANCH  19  24
ATOM     24  O   UNL     1       0.841  -3.261  -1.571  1.00  0.00    -0.504 OA
ATOM     25  H   UNL     1       0.638  -2.528  -2.119  1.00  0.00     0.293 HD
ENDBRANCH  19  24
ENDBRANCH  13  16
ENDBRANCH   6  12
ENDBRANCH   3   5
ENDBRANCH   2   3
ENDBRANCH   1   2
BRANCH   1  26
ATOM     26  C   UNL     1      -4.121  -2.841   3.717  1.00  0.00     0.275 C 
BRANCH  26  27
ATOM     27  O   UNL     1      -4.045  -4.246   3.412  1.00  0.00    -0.458 OA
BRANCH  27  28
ATOM     28  C   UNL     1      -3.241  -4.581   2.377  1.00  0.00     0.338 C 
ATOM     29  O   UNL     1      -2.636  -3.834   1.630  1.00  0.00    -0.246 OA
BRANCH  28  30
ATOM     30  C   UNL     1      -3.036  -6.037   2.389  1.00  0.00     0.060 A 
ATOM     31  C   UNL     1      -1.849  -6.496   2.954  1.00  0.00     0.016 A 
ATOM     32  C   UNL     1      -3.928  -6.930   1.801  1.00  0.00     0.016 A 
ATOM     33  C   UNL     1      -1.533  -7.849   2.944  1.00  0.00     0.010 A 
ATOM     34  C   UNL     1      -3.617  -8.298   1.797  1.00  0.00     0.010 A 
ATOM     35  C   UNL     1      -2.414  -8.766   2.361  1.00  0.00    -0.014 A 
BRANCH  35  36
ATOM     36  C   UNL     1      -2.026 -10.197   2.285  1.00  0.00     0.031 A 
ATOM     37  C   UNL     1      -1.647 -10.799   0.962  1.00  0.00     0.074 A 
ATOM     38  C   UNL     1      -1.953 -10.945   3.403  1.00  0.00     0.049 A 
ATOM     39  N   UNL     1      -1.364 -12.043   0.669  1.00  0.00    -0.248 NA
ATOM     40  C   UNL     1      -1.576  -9.878  -0.182  1.00  0.00     0.031 C 
ATOM     41  C   UNL     1      -2.210 -10.466   4.762  1.00  0.00     0.029 A 
ATOM     42  N   UNL     1      -1.626 -12.268   3.570  1.00  0.00    -0.354 N 
ATOM     43  C   UNL     1      -1.115 -12.061  -0.697  1.00  0.00     0.074 A 
ATOM     44  C   UNL     1      -1.286 -10.706  -1.176  1.00  0.00     0.031 C 
ATOM     45  C   UNL     1      -2.014 -11.476   5.625  1.00  0.00     0.029 A 
ATOM     46  C   UNL     1      -1.678 -12.685   4.878  1.00  0.00     0.049 A 
ATOM     47  H   UNL     1      -1.378 -12.861   2.825  1.00  0.00     0.167 HD
ATOM     48  C   UNL     1      -0.780 -13.112  -1.483  1.00  0.00     0.031 A 
ATOM     49  C   UNL     1      -1.508 -13.910   5.413  1.00  0.00     0.031 A 
ATOM     50  C   UNL     1      -0.592 -14.457  -1.008  1.00  0.00     0.049 A 
ATOM     51  C   UNL     1      -1.206 -15.074   4.511  1.00  0.00     0.074 A 
ATOM     52  C   UNL     1      -0.260 -15.590  -1.731  1.00  0.00     0.029 A 
ATOM     53  N   UNL     1      -0.715 -14.850   0.316  1.00  0.00    -0.354 N 
ATOM     54  N   UNL     1      -1.020 -15.088   3.213  1.00  0.00    -0.248 NA
ATOM     55  C   UNL     1      -1.104 -16.395   5.147  1.00  0.00     0.031 C 
ATOM     56  C   UNL     1      -0.226 -16.677  -0.851  1.00  0.00     0.029 A 
ATOM     57  C   UNL     1      -0.488 -16.212   0.427  1.00  0.00     0.049 A 
ATOM     58  H   UNL     1      -0.931 -14.250   1.066  1.00  0.00     0.167 HD
ATOM     59  C   UNL     1      -0.768 -16.413   2.880  1.00  0.00     0.074 A 
ATOM     60  C   UNL     1      -0.804 -17.170   4.114  1.00  0.00     0.031 C 
ATOM     61  C   UNL     1      -0.534 -16.953   1.660  1.00  0.00     0.031 A 
BRANCH  48  62
ATOM     62  C   UNL     1      -0.651 -12.853  -2.957  1.00  0.00    -0.014 A 
ATOM     63  C   UNL     1       0.450 -12.167  -3.490  1.00  0.00     0.009 A 
ATOM     64  C   UNL     1      -1.649 -13.321  -3.826  1.00  0.00     0.009 A 
ATOM     65  C   UNL     1       0.531 -11.925  -4.864  1.00  0.00     0.001 A 
ATOM     66  C   UNL     1      -1.552 -13.101  -5.201  1.00  0.00     0.001 A 
ATOM     67  C   UNL     1      -0.467 -12.395  -5.717  1.00  0.00     0.000 A 
ENDBRANCH  48  62
BRANCH  49  68
ATOM     68  C   UNL     1      -1.675 -14.111   6.876  1.00  0.00    -0.014 A 
ATOM     69  C   UNL     1      -0.577 -14.429   7.689  1.00  0.00     0.009 A 
ATOM     70  C   UNL     1      -2.944 -13.996   7.465  1.00  0.00     0.009 A 
ATOM     71  C   UNL     1      -0.751 -14.646   9.058  1.00  0.00     0.001 A 
ATOM     72  C   UNL     1      -3.111 -14.184   8.838  1.00  0.00     0.001 A 
ATOM     73  C   UNL     1      -2.015 -14.517   9.632  1.00  0.00     0.000 A 
ENDBRANCH  49  68
BRANCH  61  74
ATOM     74  C   UNL     1      -0.277 -18.432   1.604  1.00  0.00    -0.014 A 
ATOM     75  C   UNL     1      -1.320 -19.356   1.766  1.00  0.00     0.009 A 
ATOM     76  C   UNL     1       1.020 -18.905   1.351  1.00  0.00     0.009 A 
ATOM     77  C   UNL     1      -1.064 -20.728   1.706  1.00  0.00     0.001 A 
ATOM     78  C   UNL     1       1.269 -20.276   1.267  1.00  0.00     0.001 A 
ATOM     79  C   UNL     1       0.229 -21.186   1.453  1.00  0.00     0.000 A 
ENDBRANCH  61  74
ENDBRANCH  35  36
ENDBRANCH  28  30
ENDBRANCH  27  28
ENDBRANCH  26  27
ENDBRANCH   1  26
TORSDOF 15
