REMARK SMILES COCC1CC[NH+]([C@@H]2CCC[C@@]([NH3+])(C(=O)OCCOC(=O)c3ccc(-c4c5nc(c(-c6ccccc6)c6ccc([nH]6)c(-c6ccccc6)c6nc(c(-c7ccccc7)c7ccc4[nH]7)C=C6)C=C5)cc3)C2)CC1
REMARK SMILES IDX 17 1 16 2 14 3 15 4 12 5 8 6 9 7 70 8 10 9 11 10 7 11 4 12
REMARK SMILES IDX 5 13 72 14 6 15 71 16 3 18 2 19 1 20 13 21 18 25 19 26 20 27
REMARK SMILES IDX 21 28 22 29 23 30 69 31 24 32 68 33 25 34 26 35 27 36 62 37
REMARK SMILES IDX 28 38 67 39 61 40 63 41 29 42 66 43 60 44 59 45 30 47 52 48
REMARK SMILES IDX 37 49 51 50 38 51 41 52 50 53 64 54 39 55 40 56 49 58 65 59
REMARK SMILES IDX 42 60 31 61 32 62 36 63 33 64 35 65 34 66 53 67 54 68 58 69
REMARK SMILES IDX 55 70 57 71 56 72 43 73 44 74 48 75 45 76 47 77 46 78
REMARK H PARENT 7 17 13 22 13 23 13 24 63 46 41 57
REMARK Flexibility Score: inf
ROOT
ATOM      1  C   UNL     1      -4.427   6.654  -7.277  1.00  0.00     0.274 C 
ENDROOT
BRANCH   1   2
ATOM      2  O   UNL     1      -3.003   6.445  -7.340  1.00  0.00    -0.457 OA
BRANCH   2   3
ATOM      3  C   UNL     1      -2.286   6.939  -6.297  1.00  0.00     0.368 C 
ATOM      4  O   UNL     1      -2.777   7.479  -5.308  1.00  0.00    -0.245 OA
BRANCH   3   5
ATOM      5  C   UNL     1      -0.747   6.837  -6.508  1.00  0.00     0.198 C 
ATOM      6  C   UNL     1      -0.308   4.696  -5.132  1.00  0.00     0.190 C 
ATOM      7  C   UNL     1       0.247   4.009  -6.390  1.00  0.00     0.065 C 
ATOM      8  C   UNL     1      -0.106   6.227  -5.243  1.00  0.00     0.145 C 
ATOM      9  C   UNL     1      -0.436   4.556  -7.644  1.00  0.00     0.013 C 
ATOM     10  C   UNL     1      -0.295   6.073  -7.765  1.00  0.00     0.081 C 
BRANCH   6  11
ATOM     11  N   UNL     1       0.167   4.155  -3.840  1.00  0.00    -0.332 N 
ATOM     12  C   UNL     1       1.524   2.720  -1.645  1.00  0.00     0.026 C 
ATOM     13  C   UNL     1       0.226   2.219  -2.284  1.00  0.00     0.067 C 
ATOM     14  C   UNL     1       1.699   4.212  -1.929  1.00  0.00     0.067 C 
ATOM     15  C   UNL     1       0.006   2.697  -3.720  1.00  0.00     0.262 C 
ATOM     16  C   UNL     1       1.500   4.569  -3.403  1.00  0.00     0.262 C 
ATOM     17  H   UNL     1      -0.471   4.608  -3.185  1.00  0.00     0.348 HD
BRANCH  12  18
ATOM     18  C   UNL     1       2.740   1.909  -2.115  1.00  0.00     0.163 C 
BRANCH  18  19
ATOM     19  O   UNL     1       2.784   0.601  -1.539  1.00  0.00    -0.384 OA
ATOM     20  C   UNL     1       3.053   0.619  -0.139  1.00  0.00     0.194 C 
ENDBRANCH  18  19
ENDBRANCH  12  18
ENDBRANCH   6  11
BRANCH   5  21
ATOM     21  N   UNL     1      -0.267   8.243  -6.654  1.00  0.00    -0.343 N 
ATOM     22  H   UNL     1      -0.683   8.660  -7.487  1.00  0.00     0.345 HD
ATOM     23  H   UNL     1       0.749   8.248  -6.742  1.00  0.00     0.345 HD
ATOM     24  H   UNL     1      -0.539   8.783  -5.832  1.00  0.00     0.345 HD
ENDBRANCH   5  21
ENDBRANCH   3   5
ENDBRANCH   2   3
ENDBRANCH   1   2
BRANCH   1  25
ATOM     25  C   UNL     1      -5.126   5.409  -6.742  1.00  0.00     0.275 C 
BRANCH  25  26
ATOM     26  O   UNL     1      -4.767   5.207  -5.364  1.00  0.00    -0.458 OA
BRANCH  26  27
ATOM     27  C   UNL     1      -4.653   3.921  -4.976  1.00  0.00     0.338 C 
ATOM     28  O   UNL     1      -4.845   2.926  -5.670  1.00  0.00    -0.246 OA
BRANCH  27  29
ATOM     29  C   UNL     1      -4.261   3.832  -3.556  1.00  0.00     0.060 A 
ATOM     30  C   UNL     1      -3.255   4.643  -3.040  1.00  0.00     0.016 A 
ATOM     31  C   UNL     1      -4.812   2.823  -2.760  1.00  0.00     0.016 A 
ATOM     32  C   UNL     1      -2.711   4.351  -1.789  1.00  0.00     0.010 A 
ATOM     33  C   UNL     1      -4.332   2.605  -1.460  1.00  0.00     0.010 A 
ATOM     34  C   UNL     1      -3.225   3.317  -0.980  1.00  0.00    -0.014 A 
BRANCH  34  35
ATOM     35  C   UNL     1      -2.531   2.957   0.301  1.00  0.00     0.031 A 
ATOM     36  C   UNL     1      -1.951   1.570   0.526  1.00  0.00     0.074 A 
ATOM     37  C   UNL     1      -2.292   3.912   1.225  1.00  0.00     0.049 A 
ATOM     38  N   UNL     1      -1.201   1.141   1.516  1.00  0.00    -0.248 NA
ATOM     39  C   UNL     1      -2.210   0.542  -0.497  1.00  0.00     0.031 C 
ATOM     40  C   UNL     1      -2.750   5.301   1.145  1.00  0.00     0.029 A 
ATOM     41  N   UNL     1      -1.571   3.871   2.396  1.00  0.00    -0.354 N 
ATOM     42  C   UNL     1      -0.880  -0.179   1.215  1.00  0.00     0.074 A 
ATOM     43  C   UNL     1      -1.551  -0.505  -0.021  1.00  0.00     0.031 C 
ATOM     44  C   UNL     1      -2.251   5.991   2.180  1.00  0.00     0.029 A 
ATOM     45  C   UNL     1      -1.507   5.082   3.045  1.00  0.00     0.049 A 
ATOM     46  H   UNL     1      -1.142   3.054   2.736  1.00  0.00     0.167 HD
ATOM     47  C   UNL     1      -0.069  -1.039   1.879  1.00  0.00     0.031 A 
ATOM     48  C   UNL     1      -0.946   5.430   4.219  1.00  0.00     0.031 A 
ATOM     49  C   UNL     1       0.613  -0.742   3.110  1.00  0.00     0.049 A 
ATOM     50  C   UNL     1      -0.232   4.394   5.035  1.00  0.00     0.074 A 
ATOM     51  C   UNL     1       1.494  -1.540   3.823  1.00  0.00     0.029 A 
ATOM     52  N   UNL     1       0.476   0.435   3.823  1.00  0.00    -0.354 N 
ATOM     53  N   UNL     1       0.087   3.166   4.711  1.00  0.00    -0.248 NA
ATOM     54  C   UNL     1       0.174   4.787   6.393  1.00  0.00     0.031 C 
ATOM     55  C   UNL     1       1.843  -0.867   4.999  1.00  0.00     0.029 A 
ATOM     56  C   UNL     1       1.208   0.363   4.997  1.00  0.00     0.049 A 
ATOM     57  H   UNL     1      -0.062   1.209   3.538  1.00  0.00     0.167 HD
ATOM     58  C   UNL     1       0.729   2.639   5.823  1.00  0.00     0.074 A 
ATOM     59  C   UNL     1       0.780   3.687   6.820  1.00  0.00     0.031 C 
ATOM     60  C   UNL     1       1.227   1.392   6.000  1.00  0.00     0.031 A 
BRANCH  47  61
ATOM     61  C   UNL     1       0.152  -2.401   1.282  1.00  0.00    -0.014 A 
ATOM     62  C   UNL     1       1.090  -2.589   0.256  1.00  0.00     0.009 A 
ATOM     63  C   UNL     1      -0.504  -3.521   1.814  1.00  0.00     0.009 A 
ATOM     64  C   UNL     1       1.382  -3.869  -0.216  1.00  0.00     0.001 A 
ATOM     65  C   UNL     1      -0.211  -4.803   1.339  1.00  0.00     0.001 A 
ATOM     66  C   UNL     1       0.736  -4.976   0.330  1.00  0.00     0.000 A 
ENDBRANCH  47  61
BRANCH  48  67
ATOM     67  C   UNL     1      -1.120   6.812   4.742  1.00  0.00    -0.014 A 
ATOM     68  C   UNL     1      -0.026   7.675   4.895  1.00  0.00     0.009 A 
ATOM     69  C   UNL     1      -2.398   7.264   5.110  1.00  0.00     0.009 A 
ATOM     70  C   UNL     1      -0.210   8.960   5.414  1.00  0.00     0.001 A 
ATOM     71  C   UNL     1      -2.584   8.558   5.596  1.00  0.00     0.001 A 
ATOM     72  C   UNL     1      -1.488   9.402   5.755  1.00  0.00     0.000 A 
ENDBRANCH  48  67
BRANCH  60  73
ATOM     73  C   UNL     1       1.853   1.096   7.330  1.00  0.00    -0.014 A 
ATOM     74  C   UNL     1       1.051   0.884   8.463  1.00  0.00     0.009 A 
ATOM     75  C   UNL     1       3.248   1.037   7.460  1.00  0.00     0.009 A 
ATOM     76  C   UNL     1       1.637   0.652   9.709  1.00  0.00     0.001 A 
ATOM     77  C   UNL     1       3.830   0.783   8.703  1.00  0.00     0.001 A 
ATOM     78  C   UNL     1       3.026   0.601   9.827  1.00  0.00     0.000 A 
ENDBRANCH  60  73
ENDBRANCH  34  35
ENDBRANCH  27  29
ENDBRANCH  26  27
ENDBRANCH  25  26
ENDBRANCH   1  25
TORSDOF 15
