REMARK SMILES COc1ccc(Cl)c2c1N[C@@H](c1ccc(C(=O)OCCOC(=O)c3ccc(-c4c5nc(c(-c6ccccc6)c6ccc([nH]6)c(-c6ccccc6)c6nc(c(-c7ccccc7)c7ccc4[nH]7)C=C6)C=C5)cc3)cc1)[C@@H]1CC=C[C@H]21
REMARK SMILES IDX 19 1 18 2 16 3 17 4 15 5 12 6 13 7 73 8 14 9 72 10 11 11
REMARK SMILES IDX 3 12 4 13 9 14 5 15 8 16 10 17 6 18 78 19 7 21 74 22 77 23
REMARK SMILES IDX 75 24 76 25 2 26 1 27 20 28 21 29 22 30 23 31 24 32 25 33
REMARK SMILES IDX 71 34 26 35 70 36 27 37 28 38 29 39 64 40 30 41 69 42 63 43
REMARK SMILES IDX 65 44 31 45 68 46 62 47 61 48 32 50 54 51 39 52 53 53 40 54
REMARK SMILES IDX 43 55 52 56 66 57 41 58 42 59 51 61 67 62 44 63 33 64 34 65
REMARK SMILES IDX 38 66 35 67 37 68 36 69 55 70 56 71 60 72 57 73 59 74 58 75
REMARK SMILES IDX 45 76 46 77 50 78 47 79 49 80 48 81
REMARK H PARENT 10 20 65 49 43 60
REMARK Flexibility Score: inf
ROOT
ATOM      1  C   UNL     1      10.258  -1.561  -2.852  1.00  0.00     0.275 C 
ENDROOT
BRANCH   1   2
ATOM      2  O   UNL     1       9.383  -1.093  -1.809  1.00  0.00    -0.458 OA
BRANCH   2   3
ATOM      3  C   UNL     1       8.818   0.124  -2.004  1.00  0.00     0.338 C 
ATOM      4  O   UNL     1       9.049   0.884  -2.928  1.00  0.00    -0.246 OA
BRANCH   3   5
ATOM      5  C   UNL     1       7.771   0.394  -0.981  1.00  0.00     0.060 A 
ATOM      6  C   UNL     1       5.661   0.936   0.812  1.00  0.00    -0.025 A 
ATOM      7  C   UNL     1       5.885   1.765  -0.298  1.00  0.00     0.007 A 
ATOM      8  C   UNL     1       6.509  -0.168   1.009  1.00  0.00     0.007 A 
ATOM      9  C   UNL     1       6.936   1.503  -1.177  1.00  0.00     0.016 A 
ATOM     10  C   UNL     1       7.556  -0.438   0.122  1.00  0.00     0.016 A 
BRANCH   6  11
ATOM     11  C   UNL     1       4.570   1.258   1.826  1.00  0.00     0.114 C 
ATOM     12  C   UNL     1       0.969   2.064   1.227  1.00  0.00     0.142 A 
ATOM     13  C   UNL     1      -0.123   2.687   1.830  1.00  0.00     0.050 A 
ATOM     14  C   UNL     1       2.257   2.113   1.796  1.00  0.00     0.083 A 
ATOM     15  C   UNL     1       0.052   3.345   3.041  1.00  0.00     0.025 A 
ATOM     16  C   UNL     1       2.433   2.778   3.025  1.00  0.00     0.005 A 
ATOM     17  N   UNL     1       3.336   1.557   1.123  1.00  0.00    -0.375 N 
ATOM     18  C   UNL     1       1.316   3.390   3.635  1.00  0.00     0.047 A 
ATOM     19  C   UNL     1       3.813   2.891   3.626  1.00  0.00     0.051 C 
ATOM     20  H   UNL     1       3.264   1.364   0.161  1.00  0.00     0.161 HD
ATOM     21  Cl  UNL     1       1.446   4.268   5.122  1.00  0.00    -0.084 Cl
ATOM     22  C   UNL     1       4.978   2.455   2.709  1.00  0.00     0.031 C 
ATOM     23  C   UNL     1       4.060   2.037   4.844  1.00  0.00    -0.023 C 
ATOM     24  C   UNL     1       6.098   2.085   3.700  1.00  0.00     0.034 C 
ATOM     25  C   UNL     1       5.328   1.610   4.890  1.00  0.00    -0.030 C 
BRANCH  12  26
ATOM     26  O   UNL     1       0.752   1.449   0.016  1.00  0.00    -0.495 OA
ATOM     27  C   UNL     1       0.606   0.038   0.188  1.00  0.00     0.278 C 
ENDBRANCH  12  26
ENDBRANCH   6  11
ENDBRANCH   3   5
ENDBRANCH   2   3
ENDBRANCH   1   2
BRANCH   1  28
ATOM     28  C   UNL     1       9.563  -2.633  -3.693  1.00  0.00     0.275 C 
BRANCH  28  29
ATOM     29  O   UNL     1       8.503  -2.062  -4.485  1.00  0.00    -0.458 OA
BRANCH  29  30
ATOM     30  C   UNL     1       7.257  -2.207  -3.981  1.00  0.00     0.338 C 
ATOM     31  O   UNL     1       6.925  -2.800  -2.967  1.00  0.00    -0.246 OA
BRANCH  30  32
ATOM     32  C   UNL     1       6.310  -1.441  -4.801  1.00  0.00     0.060 A 
ATOM     33  C   UNL     1       5.899  -0.193  -4.335  1.00  0.00     0.016 A 
ATOM     34  C   UNL     1       5.749  -1.986  -5.957  1.00  0.00     0.016 A 
ATOM     35  C   UNL     1       4.907   0.516  -5.005  1.00  0.00     0.010 A 
ATOM     36  C   UNL     1       4.759  -1.268  -6.638  1.00  0.00     0.010 A 
ATOM     37  C   UNL     1       4.320  -0.022  -6.155  1.00  0.00    -0.014 A 
BRANCH  37  38
ATOM     38  C   UNL     1       3.199   0.694  -6.806  1.00  0.00     0.031 A 
ATOM     39  C   UNL     1       1.790   0.219  -6.595  1.00  0.00     0.074 A 
ATOM     40  C   UNL     1       3.434   1.804  -7.529  1.00  0.00     0.049 A 
ATOM     41  N   UNL     1       0.683   0.661  -7.135  1.00  0.00    -0.248 NA
ATOM     42  C   UNL     1       1.597  -0.887  -5.643  1.00  0.00     0.031 C 
ATOM     43  C   UNL     1       4.744   2.427  -7.720  1.00  0.00     0.029 A 
ATOM     44  N   UNL     1       2.571   2.614  -8.224  1.00  0.00    -0.354 N 
ATOM     45  C   UNL     1      -0.335  -0.113  -6.593  1.00  0.00     0.074 A 
ATOM     46  C   UNL     1       0.283  -1.063  -5.694  1.00  0.00     0.031 C 
ATOM     47  C   UNL     1       4.594   3.534  -8.467  1.00  0.00     0.029 A 
ATOM     48  C   UNL     1       3.191   3.666  -8.851  1.00  0.00     0.049 A 
ATOM     49  H   UNL     1       1.600   2.455  -8.268  1.00  0.00     0.167 HD
ATOM     50  C   UNL     1      -1.665  -0.034  -6.825  1.00  0.00     0.031 A 
ATOM     51  C   UNL     1       2.690   4.616  -9.663  1.00  0.00     0.031 A 
ATOM     52  C   UNL     1      -2.281   0.907  -7.719  1.00  0.00     0.049 A 
ATOM     53  C   UNL     1       1.226   4.603 -10.002  1.00  0.00     0.074 A 
ATOM     54  C   UNL     1      -3.619   1.027  -8.051  1.00  0.00     0.029 A 
ATOM     55  N   UNL     1      -1.603   1.894  -8.414  1.00  0.00    -0.354 N 
ATOM     56  N   UNL     1       0.284   3.813  -9.550  1.00  0.00    -0.248 NA
ATOM     57  C   UNL     1       0.759   5.602 -10.976  1.00  0.00     0.031 C 
ATOM     58  C   UNL     1      -3.747   2.067  -8.975  1.00  0.00     0.029 A 
ATOM     59  C   UNL     1      -2.494   2.620  -9.184  1.00  0.00     0.049 A 
ATOM     60  H   UNL     1      -0.633   2.054  -8.368  1.00  0.00     0.167 HD
ATOM     61  C   UNL     1      -0.888   4.229 -10.166  1.00  0.00     0.074 A 
ATOM     62  C   UNL     1      -0.542   5.343 -11.023  1.00  0.00     0.031 C 
ATOM     63  C   UNL     1      -2.139   3.728 -10.029  1.00  0.00     0.031 A 
BRANCH  50  64
ATOM     64  C   UNL     1      -2.559  -1.007  -6.117  1.00  0.00    -0.014 A 
ATOM     65  C   UNL     1      -2.930  -0.801  -4.780  1.00  0.00     0.009 A 
ATOM     66  C   UNL     1      -3.115  -2.084  -6.824  1.00  0.00     0.009 A 
ATOM     67  C   UNL     1      -3.842  -1.661  -4.164  1.00  0.00     0.001 A 
ATOM     68  C   UNL     1      -4.038  -2.931  -6.210  1.00  0.00     0.001 A 
ATOM     69  C   UNL     1      -4.401  -2.719  -4.881  1.00  0.00     0.000 A 
ENDBRANCH  50  64
BRANCH  51  70
ATOM     70  C   UNL     1       3.592   5.649 -10.229  1.00  0.00    -0.014 A 
ATOM     71  C   UNL     1       3.542   6.970  -9.760  1.00  0.00     0.009 A 
ATOM     72  C   UNL     1       4.525   5.314 -11.224  1.00  0.00     0.009 A 
ATOM     73  C   UNL     1       4.408   7.936 -10.278  1.00  0.00     0.001 A 
ATOM     74  C   UNL     1       5.403   6.277 -11.725  1.00  0.00     0.001 A 
ATOM     75  C   UNL     1       5.341   7.588 -11.254  1.00  0.00     0.000 A 
ENDBRANCH  51  70
BRANCH  63  76
ATOM     76  C   UNL     1      -3.246   4.386 -10.798  1.00  0.00    -0.014 A 
ATOM     77  C   UNL     1      -3.436   4.117 -12.161  1.00  0.00     0.009 A 
ATOM     78  C   UNL     1      -4.175   5.193 -10.122  1.00  0.00     0.009 A 
ATOM     79  C   UNL     1      -4.535   4.652 -12.836  1.00  0.00     0.001 A 
ATOM     80  C   UNL     1      -5.283   5.710 -10.795  1.00  0.00     0.001 A 
ATOM     81  C   UNL     1      -5.461   5.439 -12.151  1.00  0.00     0.000 A 
ENDBRANCH  63  76
ENDBRANCH  37  38
ENDBRANCH  30  32
ENDBRANCH  29  30
ENDBRANCH  28  29
ENDBRANCH   1  28
TORSDOF 13
