REMARK SMILES CCc1sc(NC(=O)[C@H]2CC(C)=C(C)C[C@H]2C(=O)OCCOC(=O)c2ccc(-c3c4nc(c(-c5ccccc5)c5ccc([nH]5)c(-c5ccccc5)c5nc(c(-c6ccccc6)c6ccc3[nH]6)C=C5)C=C4)cc2)nc1-c1ccccc1
REMARK SMILES IDX 20 1 19 2 17 3 18 4 16 5 9 6 10 7 11 8 15 9 12 10 13 11
REMARK SMILES IDX 14 12 7 13 6 14 8 16 5 17 3 18 4 19 74 20 73 21 2 22 1 23
REMARK SMILES IDX 75 24 76 25 80 26 77 27 79 28 78 29 21 30 22 31 23 32 24 33
REMARK SMILES IDX 25 34 26 35 72 36 27 37 71 38 28 39 29 40 30 41 65 42 31 43
REMARK SMILES IDX 70 44 64 45 66 46 32 47 69 48 63 49 62 50 33 52 55 53 40 54
REMARK SMILES IDX 54 55 41 56 44 57 53 58 67 59 42 60 43 61 52 63 68 64 45 65
REMARK SMILES IDX 34 66 35 67 39 68 36 69 38 70 37 71 56 72 57 73 61 74 58 75
REMARK SMILES IDX 60 76 59 77 46 78 47 79 51 80 48 81 50 82 49 83
REMARK H PARENT 6 15 66 51 44 62
REMARK Flexibility Score: inf
ROOT
ATOM      1  C   UNL     1       3.056   5.049   1.114  1.00  0.00     0.274 C 
ENDROOT
BRANCH   1   2
ATOM      2  O   UNL     1       3.317   4.068   2.140  1.00  0.00    -0.462 OA
BRANCH   2   3
ATOM      3  C   UNL     1       4.604   3.808   2.433  1.00  0.00     0.310 C 
ATOM      4  O   UNL     1       5.557   4.333   1.866  1.00  0.00    -0.252 OA
BRANCH   3   5
ATOM      5  C   UNL     1       4.800   2.689   3.444  1.00  0.00     0.116 C 
ATOM      6  C   UNL     1       3.963   2.603   4.739  1.00  0.00     0.097 C 
ATOM      7  C   UNL     1       3.764   1.202   5.344  1.00  0.00     0.045 C 
ATOM      8  C   UNL     1       3.917   0.015   4.421  1.00  0.00    -0.074 C 
ATOM      9  C   UNL     1       5.010   1.400   2.643  1.00  0.00     0.046 C 
ATOM     10  C   UNL     1       3.312  -1.256   4.966  1.00  0.00     0.039 C 
ATOM     11  C   UNL     1       4.487   0.110   3.204  1.00  0.00    -0.073 C 
ATOM     12  C   UNL     1       4.649  -1.055   2.259  1.00  0.00     0.039 C 
BRANCH   6  13
ATOM     13  C   UNL     1       2.803   3.570   5.056  1.00  0.00     0.230 C 
ATOM     14  N   UNL     1       1.671   3.769   4.343  1.00  0.00    -0.302 N 
ATOM     15  H   UNL     1       1.212   4.613   4.560  1.00  0.00     0.172 HD
ATOM     16  O   UNL     1       2.928   4.265   6.079  1.00  0.00    -0.274 OA
BRANCH  14  17
ATOM     17  C   UNL     1       1.036   3.036   3.382  1.00  0.00     0.190 A 
ATOM     18  C   UNL     1       0.279   1.293   1.891  1.00  0.00     0.034 A 
ATOM     19  S   UNL     1       1.230   1.363   3.299  1.00  0.00    -0.101 S 
ATOM     20  C   UNL     1      -0.249   2.551   1.656  1.00  0.00     0.087 A 
ATOM     21  N   UNL     1       0.170   3.545   2.533  1.00  0.00    -0.220 NA
BRANCH  18  22
ATOM     22  C   UNL     1       0.158   0.006   1.140  1.00  0.00     0.046 C 
ATOM     23  C   UNL     1       1.047   0.000  -0.096  1.00  0.00     0.010 C 
ENDBRANCH  18  22
BRANCH  20  24
ATOM     24  C   UNL     1      -1.124   2.820   0.532  1.00  0.00     0.001 A 
ATOM     25  C   UNL     1      -2.413   2.275   0.502  1.00  0.00     0.010 A 
ATOM     26  C   UNL     1      -0.646   3.524  -0.578  1.00  0.00     0.010 A 
ATOM     27  C   UNL     1      -3.200   2.398  -0.644  1.00  0.00     0.001 A 
ATOM     28  C   UNL     1      -1.435   3.647  -1.723  1.00  0.00     0.001 A 
ATOM     29  C   UNL     1      -2.707   3.075  -1.758  1.00  0.00     0.000 A 
ENDBRANCH  20  24
ENDBRANCH  14  17
ENDBRANCH   6  13
ENDBRANCH   3   5
ENDBRANCH   2   3
ENDBRANCH   1   2
BRANCH   1  30
ATOM     30  C   UNL     1       2.774   6.425   1.711  1.00  0.00     0.275 C 
BRANCH  30  31
ATOM     31  O   UNL     1       3.956   6.923   2.359  1.00  0.00    -0.458 OA
BRANCH  31  32
ATOM     32  C   UNL     1       3.905   6.967   3.710  1.00  0.00     0.338 C 
ATOM     33  O   UNL     1       2.948   6.741   4.424  1.00  0.00    -0.246 OA
BRANCH  32  34
ATOM     34  C   UNL     1       5.251   7.288   4.208  1.00  0.00     0.060 A 
ATOM     35  C   UNL     1       6.162   6.254   4.435  1.00  0.00     0.016 A 
ATOM     36  C   UNL     1       5.595   8.610   4.479  1.00  0.00     0.016 A 
ATOM     37  C   UNL     1       7.436   6.535   4.916  1.00  0.00     0.010 A 
ATOM     38  C   UNL     1       6.876   8.895   4.957  1.00  0.00     0.010 A 
ATOM     39  C   UNL     1       7.802   7.859   5.176  1.00  0.00    -0.014 A 
BRANCH  39  40
ATOM     40  C   UNL     1       9.147   8.167   5.708  1.00  0.00     0.031 A 
ATOM     41  C   UNL     1       9.300   8.579   7.141  1.00  0.00     0.074 A 
ATOM     42  C   UNL     1      10.218   8.090   4.899  1.00  0.00     0.049 A 
ATOM     43  N   UNL     1      10.356   9.039   7.759  1.00  0.00    -0.248 NA
ATOM     44  C   UNL     1       8.103   8.461   7.988  1.00  0.00     0.031 C 
ATOM     45  C   UNL     1      10.197   7.641   3.506  1.00  0.00     0.029 A 
ATOM     46  N   UNL     1      11.533   8.399   5.133  1.00  0.00    -0.354 N 
ATOM     47  C   UNL     1       9.944   9.299   9.060  1.00  0.00     0.074 A 
ATOM     48  C   UNL     1       8.542   8.947   9.140  1.00  0.00     0.031 C 
ATOM     49  C   UNL     1      11.442   7.707   3.007  1.00  0.00     0.029 A 
ATOM     50  C   UNL     1      12.332   8.256   4.026  1.00  0.00     0.049 A 
ATOM     51  H   UNL     1      11.872   8.694   6.009  1.00  0.00     0.167 HD
ATOM     52  C   UNL     1      10.671   9.795  10.088  1.00  0.00     0.031 A 
ATOM     53  C   UNL     1      13.627   8.570   3.842  1.00  0.00     0.031 A 
ATOM     54  C   UNL     1      12.064  10.145   9.995  1.00  0.00     0.049 A 
ATOM     55  C   UNL     1      14.397   9.179   4.979  1.00  0.00     0.074 A 
ATOM     56  C   UNL     1      12.894  10.661  10.974  1.00  0.00     0.029 A 
ATOM     57  N   UNL     1      12.833  10.010   8.848  1.00  0.00    -0.354 N 
ATOM     58  N   UNL     1      13.992   9.452   6.196  1.00  0.00    -0.248 NA
ATOM     59  C   UNL     1      15.799   9.530   4.715  1.00  0.00     0.031 C 
ATOM     60  C   UNL     1      14.156  10.876  10.408  1.00  0.00     0.029 A 
ATOM     61  C   UNL     1      14.123  10.448   9.089  1.00  0.00     0.049 A 
ATOM     62  H   UNL     1      12.508   9.655   7.989  1.00  0.00     0.167 HD
ATOM     63  C   UNL     1      15.092   9.991   6.849  1.00  0.00     0.074 A 
ATOM     64  C   UNL     1      16.185   9.992   5.896  1.00  0.00     0.031 C 
ATOM     65  C   UNL     1      15.191  10.444   8.123  1.00  0.00     0.031 A 
BRANCH  52  66
ATOM     66  C   UNL     1       9.952  10.036  11.384  1.00  0.00    -0.014 A 
ATOM     67  C   UNL     1       9.561   8.975  12.215  1.00  0.00     0.009 A 
ATOM     68  C   UNL     1       9.670  11.352  11.785  1.00  0.00     0.009 A 
ATOM     69  C   UNL     1       8.871   9.226  13.403  1.00  0.00     0.001 A 
ATOM     70  C   UNL     1       9.002  11.601  12.985  1.00  0.00     0.001 A 
ATOM     71  C   UNL     1       8.595  10.537  13.789  1.00  0.00     0.000 A 
ENDBRANCH  52  66
BRANCH  53  72
ATOM     72  C   UNL     1      14.262   8.347   2.518  1.00  0.00    -0.014 A 
ATOM     73  C   UNL     1      15.207   7.325   2.344  1.00  0.00     0.009 A 
ATOM     74  C   UNL     1      13.910   9.143   1.417  1.00  0.00     0.009 A 
ATOM     75  C   UNL     1      15.796   7.114   1.095  1.00  0.00     0.001 A 
ATOM     76  C   UNL     1      14.481   8.913   0.164  1.00  0.00     0.001 A 
ATOM     77  C   UNL     1      15.428   7.902   0.005  1.00  0.00     0.000 A 
ENDBRANCH  53  72
BRANCH  65  78
ATOM     78  C   UNL     1      16.535  10.946   8.561  1.00  0.00    -0.014 A 
ATOM     79  C   UNL     1      17.016  12.195   8.141  1.00  0.00     0.009 A 
ATOM     80  C   UNL     1      17.317  10.168   9.428  1.00  0.00     0.009 A 
ATOM     81  C   UNL     1      18.272  12.642   8.558  1.00  0.00     0.001 A 
ATOM     82  C   UNL     1      18.561  10.627   9.862  1.00  0.00     0.001 A 
ATOM     83  C   UNL     1      19.040  11.859   9.420  1.00  0.00     0.000 A 
ENDBRANCH  65  78
ENDBRANCH  39  40
ENDBRANCH  32  34
ENDBRANCH  31  32
ENDBRANCH  30  31
ENDBRANCH   1  30
TORSDOF 15
