REMARK SMILES CS(=O)(=O)c1ccc(/C=C(/C(=O)OCCOC(=O)c2ccc(-c3c4nc(c(-c5ccccc5)c5ccc([nH]5)c(-c5ccccc5)c5nc(c(-c6ccccc6)c6ccc3[nH]6)C=C5)C=C4)cc2)c2ccc(F)cc2)cc1
REMARK SMILES IDX 14 1 13 2 11 3 12 4 10 5 9 6 8 7 5 8 6 9 75 10 7 11 74 12
REMARK SMILES IDX 2 13 1 14 3 15 4 16 67 17 68 18 73 19 69 20 72 21 70 22
REMARK SMILES IDX 71 23 15 24 16 25 17 26 18 27 19 28 20 29 66 30 21 31 65 32
REMARK SMILES IDX 22 33 23 34 24 35 59 36 25 37 64 38 58 39 60 40 26 41 63 42
REMARK SMILES IDX 57 43 56 44 27 46 49 47 34 48 48 49 35 50 38 51 47 52 61 53
REMARK SMILES IDX 36 54 37 55 46 57 62 58 39 59 28 60 29 61 33 62 30 63 32 64
REMARK SMILES IDX 31 65 50 66 51 67 55 68 52 69 54 70 53 71 40 72 41 73 45 74
REMARK SMILES IDX 42 75 44 76 43 77
REMARK H PARENT 60 45 38 56
REMARK Flexibility Score: inf
ROOT
ATOM      1  C   UNL     1       2.857  -7.905  -7.026  1.00  0.00     0.275 C 
ENDROOT
BRANCH   1   2
ATOM      2  O   UNL     1       2.741  -7.163  -5.794  1.00  0.00    -0.458 OA
BRANCH   2   3
ATOM      3  C   UNL     1       1.508  -7.182  -5.225  1.00  0.00     0.338 C 
ATOM      4  O   UNL     1       0.524  -7.746  -5.684  1.00  0.00    -0.246 OA
BRANCH   3   5
ATOM      5  C   UNL     1       1.473  -6.448  -3.923  1.00  0.00     0.067 C 
ATOM      6  C   UNL     1       2.154  -5.284  -3.801  1.00  0.00     0.024 C 
BRANCH   6   7
ATOM      7  C   UNL     1       1.972  -4.284  -2.727  1.00  0.00    -0.025 A 
ATOM      8  C   UNL     1       1.156  -2.373  -0.844  1.00  0.00     0.067 A 
ATOM      9  C   UNL     1       1.470  -3.666  -0.429  1.00  0.00     0.021 A 
ATOM     10  C   UNL     1       1.345  -1.994  -2.173  1.00  0.00     0.021 A 
ATOM     11  C   UNL     1       1.909  -4.604  -1.365  1.00  0.00     0.009 A 
ATOM     12  C   UNL     1       1.753  -2.951  -3.108  1.00  0.00     0.009 A 
BRANCH   8  13
ATOM     13  S   UNL     1       0.446  -1.252   0.337  1.00  0.00     0.175 S 
ATOM     14  C   UNL     1       1.131   0.340  -0.018  1.00  0.00     0.163 C 
ATOM     15  O   UNL     1       0.934  -1.641   1.645  1.00  0.00    -0.224 OA
ATOM     16  O   UNL     1      -0.976  -1.203   0.049  1.00  0.00    -0.224 OA
ENDBRANCH   8  13
ENDBRANCH   6   7
BRANCH   5  17
ATOM     17  C   UNL     1       0.549  -6.943  -2.881  1.00  0.00    -0.011 A 
ATOM     18  C   UNL     1       1.041  -7.790  -1.872  1.00  0.00     0.012 A 
ATOM     19  C   UNL     1      -0.792  -6.541  -2.848  1.00  0.00     0.012 A 
ATOM     20  C   UNL     1       0.212  -8.193  -0.824  1.00  0.00     0.040 A 
ATOM     21  C   UNL     1      -1.623  -6.960  -1.807  1.00  0.00     0.040 A 
ATOM     22  C   UNL     1      -1.112  -7.774  -0.802  1.00  0.00     0.123 A 
ATOM     23  F   UNL     1      -1.909  -8.167   0.200  1.00  0.00    -0.207 F 
ENDBRANCH   5  17
ENDBRANCH   3   5
ENDBRANCH   2   3
ENDBRANCH   1   2
BRANCH   1  24
ATOM     24  C   UNL     1       3.451  -9.290  -6.778  1.00  0.00     0.275 C 
BRANCH  24  25
ATOM     25  O   UNL     1       2.569 -10.070  -5.949  1.00  0.00    -0.458 OA
BRANCH  25  26
ATOM     26  C   UNL     1       3.082 -10.464  -4.762  1.00  0.00     0.338 C 
ATOM     27  O   UNL     1       4.210 -10.266  -4.343  1.00  0.00    -0.246 OA
BRANCH  26  28
ATOM     28  C   UNL     1       2.069 -11.175  -3.957  1.00  0.00     0.060 A 
ATOM     29  C   UNL     1       0.847 -10.573  -3.681  1.00  0.00     0.016 A 
ATOM     30  C   UNL     1       2.427 -12.351  -3.297  1.00  0.00     0.016 A 
ATOM     31  C   UNL     1       0.065 -11.053  -2.628  1.00  0.00     0.010 A 
ATOM     32  C   UNL     1       1.583 -12.888  -2.315  1.00  0.00     0.010 A 
ATOM     33  C   UNL     1       0.431 -12.198  -1.901  1.00  0.00    -0.014 A 
BRANCH  33  34
ATOM     34  C   UNL     1      -0.303 -12.591  -0.653  1.00  0.00     0.031 A 
ATOM     35  C   UNL     1       0.453 -12.817   0.643  1.00  0.00     0.074 A 
ATOM     36  C   UNL     1      -1.648 -12.694  -0.621  1.00  0.00     0.049 A 
ATOM     37  N   UNL     1       0.035 -13.350   1.767  1.00  0.00    -0.248 NA
ATOM     38  C   UNL     1       1.867 -12.408   0.676  1.00  0.00     0.031 C 
ATOM     39  C   UNL     1      -2.553 -12.449  -1.744  1.00  0.00     0.029 A 
ATOM     40  N   UNL     1      -2.495 -13.001   0.419  1.00  0.00    -0.354 N 
ATOM     41  C   UNL     1       1.152 -13.431   2.593  1.00  0.00     0.074 A 
ATOM     42  C   UNL     1       2.263 -12.877   1.851  1.00  0.00     0.031 C 
ATOM     43  C   UNL     1      -3.821 -12.521  -1.313  1.00  0.00     0.029 A 
ATOM     44  C   UNL     1      -3.826 -12.931   0.087  1.00  0.00     0.049 A 
ATOM     45  H   UNL     1      -2.177 -13.247   1.318  1.00  0.00     0.167 HD
ATOM     46  C   UNL     1       1.251 -13.928   3.851  1.00  0.00     0.031 A 
ATOM     47  C   UNL     1      -4.934 -13.197   0.804  1.00  0.00     0.031 A 
ATOM     48  C   UNL     1       0.139 -14.388   4.641  1.00  0.00     0.049 A 
ATOM     49  C   UNL     1      -4.809 -13.719   2.206  1.00  0.00     0.074 A 
ATOM     50  C   UNL     1       0.149 -14.914   5.923  1.00  0.00     0.029 A 
ATOM     51  N   UNL     1      -1.186 -14.332   4.244  1.00  0.00    -0.354 N 
ATOM     52  N   UNL     1      -3.729 -13.925   2.918  1.00  0.00    -0.248 NA
ATOM     53  C   UNL     1      -6.061 -14.075   2.892  1.00  0.00     0.031 C 
ATOM     54  C   UNL     1      -1.171 -15.194   6.295  1.00  0.00     0.029 A 
ATOM     55  C   UNL     1      -2.002 -14.805   5.258  1.00  0.00     0.049 A 
ATOM     56  H   UNL     1      -1.501 -14.004   3.371  1.00  0.00     0.167 HD
ATOM     57  C   UNL     1      -4.170 -14.438   4.131  1.00  0.00     0.074 A 
ATOM     58  C   UNL     1      -5.616 -14.481   4.072  1.00  0.00     0.031 C 
ATOM     59  C   UNL     1      -3.438 -14.851   5.192  1.00  0.00     0.031 A 
BRANCH  46  60
ATOM     60  C   UNL     1       2.627 -14.047   4.447  1.00  0.00    -0.014 A 
ATOM     61  C   UNL     1       3.327 -12.932   4.928  1.00  0.00     0.009 A 
ATOM     62  C   UNL     1       3.207 -15.321   4.573  1.00  0.00     0.009 A 
ATOM     63  C   UNL     1       4.595 -13.088   5.497  1.00  0.00     0.001 A 
ATOM     64  C   UNL     1       4.461 -15.476   5.165  1.00  0.00     0.001 A 
ATOM     65  C   UNL     1       5.158 -14.358   5.619  1.00  0.00     0.000 A 
ENDBRANCH  46  60
BRANCH  47  66
ATOM     66  C   UNL     1      -6.275 -13.026   0.185  1.00  0.00    -0.014 A 
ATOM     67  C   UNL     1      -7.127 -11.995   0.608  1.00  0.00     0.009 A 
ATOM     68  C   UNL     1      -6.707 -13.892  -0.832  1.00  0.00     0.009 A 
ATOM     69  C   UNL     1      -8.390 -11.842   0.031  1.00  0.00     0.001 A 
ATOM     70  C   UNL     1      -7.956 -13.717  -1.428  1.00  0.00     0.001 A 
ATOM     71  C   UNL     1      -8.799 -12.698  -0.991  1.00  0.00     0.000 A 
ENDBRANCH  47  66
BRANCH  59  72
ATOM     72  C   UNL     1      -4.192 -15.366   6.383  1.00  0.00    -0.014 A 
ATOM     73  C   UNL     1      -4.786 -16.638   6.368  1.00  0.00     0.009 A 
ATOM     74  C   UNL     1      -4.300 -14.576   7.537  1.00  0.00     0.009 A 
ATOM     75  C   UNL     1      -5.505 -17.093   7.475  1.00  0.00     0.001 A 
ATOM     76  C   UNL     1      -5.002 -15.042   8.649  1.00  0.00     0.001 A 
ATOM     77  C   UNL     1      -5.612 -16.296   8.614  1.00  0.00     0.000 A 
ENDBRANCH  59  72
ENDBRANCH  33  34
ENDBRANCH  26  28
ENDBRANCH  25  26
ENDBRANCH  24  25
ENDBRANCH   1  24
TORSDOF 14
