REMARK SMILES O=C(CSc1nnnn1-c1ccc(C(=O)OCCOC(=O)c2ccc(-c3c4nc(c(-c5ccccc5)c5ccc([nH]5)c(-c5ccccc5)c5nc(c(-c6ccccc6)c6ccc3[nH]6)C=C5)C=C4)cc2)cc1)Nc1nc(-c2ccccc2)cs1
REMARK SMILES IDX 14 1 15 2 13 3 10 4 11 5 71 6 12 7 70 8 9 9 5 10 6 11 7 12
REMARK SMILES IDX 8 13 4 14 3 15 2 16 1 17 72 18 73 20 74 21 83 22 75 23 82 24
REMARK SMILES IDX 76 25 77 26 81 27 78 28 80 29 79 30 16 31 17 32 18 33 19 34
REMARK SMILES IDX 20 35 21 36 22 37 23 38 69 39 24 40 68 41 25 42 26 43 27 44
REMARK SMILES IDX 62 45 28 46 67 47 61 48 63 49 29 50 66 51 60 52 59 53 30 55
REMARK SMILES IDX 52 56 37 57 51 58 38 59 41 60 50 61 64 62 39 63 40 64 49 66
REMARK SMILES IDX 65 67 42 68 31 69 32 70 36 71 33 72 35 73 34 74 53 75 54 76
REMARK SMILES IDX 58 77 55 78 57 79 56 80 43 81 44 82 48 83 45 84 47 85 46 86
REMARK H PARENT 72 19 63 54 41 65
REMARK Flexibility Score: inf
ROOT
ATOM      1  C   UNL     1       7.041   6.521  -2.291  1.00  0.00     0.338 C 
ATOM      2  O   UNL     1       8.127   6.837  -1.826  1.00  0.00    -0.246 OA
ENDROOT
BRANCH   1   3
ATOM      3  C   UNL     1       5.903   6.066  -1.456  1.00  0.00     0.060 A 
ATOM      4  C   UNL     1       3.937   5.028   0.204  1.00  0.00     0.069 A 
ATOM      5  C   UNL     1       4.904   5.873   0.754  1.00  0.00     0.029 A 
ATOM      6  C   UNL     1       3.874   4.798  -1.177  1.00  0.00     0.029 A 
ATOM      7  C   UNL     1       5.908   6.366  -0.082  1.00  0.00     0.018 A 
ATOM      8  C   UNL     1       4.850   5.333  -2.010  1.00  0.00     0.018 A 
BRANCH   4   9
ATOM      9  N   UNL     1       3.116   4.269   1.056  1.00  0.00    -0.187 N 
ATOM     10  C   UNL     1       2.925   2.900   1.050  1.00  0.00     0.214 A 
ATOM     11  N   UNL     1       2.059   2.586   1.984  1.00  0.00    -0.101 NA
ATOM     12  N   UNL     1       1.769   3.769   2.628  1.00  0.00    -0.022 NA
ATOM     13  N   UNL     1       2.476   4.778   2.128  1.00  0.00    -0.039 NA
BRANCH  10  14
ATOM     14  S   UNL     1       4.003   1.793   0.253  1.00  0.00    -0.074 SA
BRANCH  14  15
ATOM     15  C   UNL     1       2.857   0.833  -0.759  1.00  0.00     0.178 C 
BRANCH  15  16
ATOM     16  C   UNL     1       2.021  -0.160   0.026  1.00  0.00     0.236 C 
ATOM     17  O   UNL     1       0.908  -0.462  -0.397  1.00  0.00    -0.274 OA
ATOM     18  N   UNL     1       2.659  -0.694   1.122  1.00  0.00    -0.301 N 
ATOM     19  H   UNL     1       3.546  -0.347   1.373  1.00  0.00     0.172 HD
BRANCH  18  20
ATOM     20  C   UNL     1       2.104  -1.688   1.871  1.00  0.00     0.189 A 
ATOM     21  N   UNL     1       1.062  -2.424   1.604  1.00  0.00    -0.220 NA
ATOM     22  S   UNL     1       2.908  -1.999   3.343  1.00  0.00    -0.105 S 
ATOM     23  C   UNL     1       0.807  -3.254   2.674  1.00  0.00     0.084 A 
ATOM     24  C   UNL     1       1.698  -3.159   3.727  1.00  0.00     0.097 A 
BRANCH  23  25
ATOM     25  C   UNL     1      -0.319  -4.161   2.650  1.00  0.00     0.001 A 
ATOM     26  C   UNL     1      -0.388  -5.146   1.657  1.00  0.00     0.010 A 
ATOM     27  C   UNL     1      -1.363  -4.030   3.572  1.00  0.00     0.010 A 
ATOM     28  C   UNL     1      -1.484  -6.007   1.600  1.00  0.00     0.001 A 
ATOM     29  C   UNL     1      -2.463  -4.886   3.505  1.00  0.00     0.001 A 
ATOM     30  C   UNL     1      -2.521  -5.876   2.523  1.00  0.00     0.000 A 
ENDBRANCH  23  25
ENDBRANCH  18  20
ENDBRANCH  15  16
ENDBRANCH  14  15
ENDBRANCH  10  14
ENDBRANCH   4   9
ENDBRANCH   1   3
BRANCH   1  31
ATOM     31  O   UNL     1       6.662   6.607  -3.591  1.00  0.00    -0.458 OA
BRANCH  31  32
ATOM     32  C   UNL     1       7.563   7.306  -4.465  1.00  0.00     0.275 C 
BRANCH  32  33
ATOM     33  C   UNL     1       7.266   8.798  -4.478  1.00  0.00     0.275 C 
BRANCH  33  34
ATOM     34  O   UNL     1       7.623   9.409  -3.239  1.00  0.00    -0.458 OA
BRANCH  34  35
ATOM     35  C   UNL     1       6.618   9.517  -2.342  1.00  0.00     0.338 C 
ATOM     36  O   UNL     1       5.537   8.953  -2.362  1.00  0.00    -0.246 OA
BRANCH  35  37
ATOM     37  C   UNL     1       6.915  10.620  -1.426  1.00  0.00     0.060 A 
ATOM     38  C   UNL     1       6.045  10.816  -0.347  1.00  0.00     0.016 A 
ATOM     39  C   UNL     1       7.835  11.597  -1.827  1.00  0.00     0.016 A 
ATOM     40  C   UNL     1       5.978  12.068   0.226  1.00  0.00     0.010 A 
ATOM     41  C   UNL     1       7.753  12.847  -1.270  1.00  0.00     0.010 A 
ATOM     42  C   UNL     1       6.776  13.085  -0.302  1.00  0.00    -0.014 A 
BRANCH  42  43
ATOM     43  C   UNL     1       6.651  14.424   0.234  1.00  0.00     0.031 A 
ATOM     44  C   UNL     1       7.255  14.597   1.577  1.00  0.00     0.074 A 
ATOM     45  C   UNL     1       6.217  15.439  -0.538  1.00  0.00     0.049 A 
ATOM     46  N   UNL     1       6.717  15.112   2.631  1.00  0.00    -0.248 NA
ATOM     47  C   UNL     1       8.600  14.033   1.799  1.00  0.00     0.031 C 
ATOM     48  C   UNL     1       5.881  15.396  -1.966  1.00  0.00     0.029 A 
ATOM     49  N   UNL     1       6.149  16.765  -0.244  1.00  0.00    -0.354 N 
ATOM     50  C   UNL     1       7.707  15.088   3.608  1.00  0.00     0.074 A 
ATOM     51  C   UNL     1       8.787  14.291   3.090  1.00  0.00     0.031 C 
ATOM     52  C   UNL     1       5.901  16.653  -2.460  1.00  0.00     0.029 A 
ATOM     53  C   UNL     1       6.142  17.581  -1.368  1.00  0.00     0.049 A 
ATOM     54  H   UNL     1       6.108  17.112   0.676  1.00  0.00     0.167 HD
ATOM     55  C   UNL     1       7.674  15.921   4.681  1.00  0.00     0.031 A 
ATOM     56  C   UNL     1       6.416  18.908  -1.405  1.00  0.00     0.031 A 
ATOM     57  C   UNL     1       6.357  16.447   4.916  1.00  0.00     0.049 A 
ATOM     58  C   UNL     1       6.316  19.431  -0.022  1.00  0.00     0.074 A 
ATOM     59  C   UNL     1       5.128  15.879   5.186  1.00  0.00     0.029 A 
ATOM     60  N   UNL     1       6.101  17.734   4.508  1.00  0.00    -0.354 N 
ATOM     61  N   UNL     1       5.192  19.535   0.627  1.00  0.00    -0.248 NA
ATOM     62  C   UNL     1       7.513  19.429   0.806  1.00  0.00     0.031 C 
ATOM     63  C   UNL     1       4.190  16.681   4.475  1.00  0.00     0.029 A 
ATOM     64  C   UNL     1       4.892  17.720   3.862  1.00  0.00     0.049 A 
ATOM     65  H   UNL     1       6.678  18.518   4.653  1.00  0.00     0.167 HD
ATOM     66  C   UNL     1       5.501  19.161   1.927  1.00  0.00     0.074 A 
ATOM     67  C   UNL     1       6.958  19.225   2.005  1.00  0.00     0.031 C 
ATOM     68  C   UNL     1       4.573  18.552   2.724  1.00  0.00     0.031 A 
BRANCH  55  69
ATOM     69  C   UNL     1       8.915  16.562   5.243  1.00  0.00    -0.014 A 
ATOM     70  C   UNL     1       8.802  17.365   6.389  1.00  0.00     0.009 A 
ATOM     71  C   UNL     1      10.127  16.641   4.528  1.00  0.00     0.009 A 
ATOM     72  C   UNL     1       9.819  18.255   6.753  1.00  0.00     0.001 A 
ATOM     73  C   UNL     1      11.161  17.495   4.913  1.00  0.00     0.001 A 
ATOM     74  C   UNL     1      10.994  18.325   6.010  1.00  0.00     0.000 A 
ENDBRANCH  55  69
BRANCH  56  75
ATOM     75  C   UNL     1       7.004  19.695  -2.511  1.00  0.00    -0.014 A 
ATOM     76  C   UNL     1       6.926  21.096  -2.517  1.00  0.00     0.009 A 
ATOM     77  C   UNL     1       7.854  19.085  -3.453  1.00  0.00     0.009 A 
ATOM     78  C   UNL     1       7.691  21.856  -3.414  1.00  0.00     0.001 A 
ATOM     79  C   UNL     1       8.609  19.842  -4.354  1.00  0.00     0.001 A 
ATOM     80  C   UNL     1       8.539  21.229  -4.324  1.00  0.00     0.000 A 
ENDBRANCH  56  75
BRANCH  68  81
ATOM     81  C   UNL     1       3.148  18.489   2.228  1.00  0.00    -0.014 A 
ATOM     82  C   UNL     1       2.788  17.851   1.027  1.00  0.00     0.009 A 
ATOM     83  C   UNL     1       2.123  18.938   3.072  1.00  0.00     0.009 A 
ATOM     84  C   UNL     1       1.446  17.700   0.666  1.00  0.00     0.001 A 
ATOM     85  C   UNL     1       0.781  18.766   2.724  1.00  0.00     0.001 A 
ATOM     86  C   UNL     1       0.443  18.153   1.519  1.00  0.00     0.000 A 
ENDBRANCH  68  81
ENDBRANCH  42  43
ENDBRANCH  35  37
ENDBRANCH  34  35
ENDBRANCH  33  34
ENDBRANCH  32  33
ENDBRANCH  31  32
ENDBRANCH   1  31
TORSDOF 17
