REMARK SMILES O=C(OCCOC(=O)c1ccccc1[C@@H]1SCC(=O)N1NC(=S)Nc1ccccc1)c1ccc(-c2c3nc(c(-c4ccccc4)c4ccc([nH]4)c(-c4ccccc4)c4nc(c(-c5ccccc5)c5ccc2[nH]5)C=C4)C=C3)cc1
REMARK SMILES IDX 6 1 5 2 4 3 3 4 2 5 1 6 31 7 32 8 78 9 33 10 77 11 34 12
REMARK SMILES IDX 35 13 36 14 71 15 37 16 76 17 70 18 72 19 38 20 75 21 69 22
REMARK SMILES IDX 68 23 39 25 61 26 46 27 60 28 47 29 50 30 59 31 73 32 48 33
REMARK SMILES IDX 49 34 58 36 74 37 51 38 40 39 41 40 45 41 42 42 44 43 43 44
REMARK SMILES IDX 62 45 63 46 67 47 64 48 66 49 65 50 52 51 53 52 57 53 54 54
REMARK SMILES IDX 56 55 55 56 7 57 8 58 9 59 10 60 14 61 11 62 13 63 12 64
REMARK SMILES IDX 15 65 16 66 20 67 17 68 18 69 19 70 21 71 22 73 23 74 24 75
REMARK SMILES IDX 25 77 26 78 30 79 27 80 29 81 28 82
REMARK H PARENT 72 24 50 35 21 72 24 76
REMARK Flexibility Score: inf
ROOT
ATOM      1  O   UNL     1       3.395   1.178  -0.889  1.00  0.00    -0.458 OA
ENDROOT
BRANCH   1   2
ATOM      2  C   UNL     1       3.559   0.069  -1.785  1.00  0.00     0.275 C 
BRANCH   2   3
ATOM      3  C   UNL     1       3.792  -1.183  -0.955  1.00  0.00     0.275 C 
BRANCH   3   4
ATOM      4  O   UNL     1       2.664  -1.506  -0.100  1.00  0.00    -0.458 OA
BRANCH   4   5
ATOM      5  C   UNL     1       2.112  -0.869   0.961  1.00  0.00     0.338 C 
ATOM      6  O   UNL     1       0.928  -1.095   1.214  1.00  0.00    -0.246 OA
BRANCH   5   7
ATOM      7  C   UNL     1       2.839   0.056   1.900  1.00  0.00     0.060 A 
ATOM      8  C   UNL     1       4.201   0.308   1.885  1.00  0.00     0.016 A 
ATOM      9  C   UNL     1       2.086   0.700   2.913  1.00  0.00     0.016 A 
ATOM     10  C   UNL     1       4.773   1.194   2.807  1.00  0.00     0.010 A 
ATOM     11  C   UNL     1       2.661   1.616   3.824  1.00  0.00     0.010 A 
ATOM     12  C   UNL     1       4.025   1.889   3.767  1.00  0.00    -0.014 A 
BRANCH  12  13
ATOM     13  C   UNL     1       4.780   2.707   4.770  1.00  0.00     0.031 A 
ATOM     14  C   UNL     1       5.475   1.975   5.864  1.00  0.00     0.074 A 
ATOM     15  C   UNL     1       5.064   4.016   4.599  1.00  0.00     0.049 A 
ATOM     16  N   UNL     1       6.419   2.395   6.658  1.00  0.00    -0.248 NA
ATOM     17  C   UNL     1       5.060   0.580   6.069  1.00  0.00     0.031 C 
ATOM     18  C   UNL     1       4.496   4.817   3.543  1.00  0.00     0.029 A 
ATOM     19  N   UNL     1       5.958   4.878   5.196  1.00  0.00    -0.354 N 
ATOM     20  C   UNL     1       6.734   1.308   7.450  1.00  0.00     0.074 A 
ATOM     21  C   UNL     1       5.869   0.216   7.049  1.00  0.00     0.031 C 
ATOM     22  C   UNL     1       5.141   5.990   3.440  1.00  0.00     0.029 A 
ATOM     23  C   UNL     1       6.136   6.064   4.501  1.00  0.00     0.049 A 
ATOM     24  H   UNL     1       6.426   4.672   6.037  1.00  0.00     0.167 HD
ATOM     25  C   UNL     1       7.647   1.233   8.443  1.00  0.00     0.031 A 
ATOM     26  C   UNL     1       7.011   7.079   4.680  1.00  0.00     0.031 A 
ATOM     27  C   UNL     1       8.445   2.336   8.897  1.00  0.00     0.049 A 
ATOM     28  C   UNL     1       7.933   7.006   5.869  1.00  0.00     0.074 A 
ATOM     29  C   UNL     1       9.284   2.393   9.994  1.00  0.00     0.029 A 
ATOM     30  N   UNL     1       8.492   3.582   8.288  1.00  0.00    -0.354 N 
ATOM     31  N   UNL     1       8.176   5.990   6.659  1.00  0.00    -0.248 NA
ATOM     32  C   UNL     1       8.666   8.232   6.221  1.00  0.00     0.031 C 
ATOM     33  C   UNL     1       9.783   3.696  10.092  1.00  0.00     0.029 A 
ATOM     34  C   UNL     1       9.315   4.429   9.013  1.00  0.00     0.049 A 
ATOM     35  H   UNL     1       8.013   3.828   7.464  1.00  0.00     0.167 HD
ATOM     36  C   UNL     1       9.086   6.450   7.600  1.00  0.00     0.074 A 
ATOM     37  C   UNL     1       9.389   7.824   7.255  1.00  0.00     0.031 C 
ATOM     38  C   UNL     1       9.604   5.798   8.668  1.00  0.00     0.031 A 
BRANCH  25  39
ATOM     39  C   UNL     1       7.694  -0.070   9.174  1.00  0.00    -0.014 A 
ATOM     40  C   UNL     1       8.263  -1.215   8.597  1.00  0.00     0.009 A 
ATOM     41  C   UNL     1       7.066  -0.166  10.424  1.00  0.00     0.009 A 
ATOM     42  C   UNL     1       8.161  -2.447   9.244  1.00  0.00     0.001 A 
ATOM     43  C   UNL     1       6.990  -1.392  11.080  1.00  0.00     0.001 A 
ATOM     44  C   UNL     1       7.525  -2.533  10.484  1.00  0.00     0.000 A 
ENDBRANCH  25  39
BRANCH  26  45
ATOM     45  C   UNL     1       7.054   8.280   3.783  1.00  0.00    -0.014 A 
ATOM     46  C   UNL     1       8.247   8.669   3.145  1.00  0.00     0.009 A 
ATOM     47  C   UNL     1       5.931   9.111   3.639  1.00  0.00     0.009 A 
ATOM     48  C   UNL     1       8.322   9.870   2.428  1.00  0.00     0.001 A 
ATOM     49  C   UNL     1       5.995  10.288   2.884  1.00  0.00     0.001 A 
ATOM     50  C   UNL     1       7.194  10.676   2.294  1.00  0.00     0.000 A 
ENDBRANCH  26  45
BRANCH  38  51
ATOM     51  C   UNL     1      10.563   6.560   9.540  1.00  0.00    -0.014 A 
ATOM     52  C   UNL     1      10.130   7.620  10.352  1.00  0.00     0.009 A 
ATOM     53  C   UNL     1      11.913   6.180   9.581  1.00  0.00     0.009 A 
ATOM     54  C   UNL     1      11.038   8.307  11.161  1.00  0.00     0.001 A 
ATOM     55  C   UNL     1      12.811   6.845  10.415  1.00  0.00     0.001 A 
ATOM     56  C   UNL     1      12.375   7.915  11.197  1.00  0.00     0.000 A 
ENDBRANCH  38  51
ENDBRANCH  12  13
ENDBRANCH   5   7
ENDBRANCH   4   5
ENDBRANCH   3   4
ENDBRANCH   2   3
ENDBRANCH   1   2
BRANCH   1  57
ATOM     57  C   UNL     1       2.449   2.069  -1.221  1.00  0.00     0.338 C 
ATOM     58  O   UNL     1       1.765   2.079  -2.225  1.00  0.00    -0.246 OA
BRANCH  57  59
ATOM     59  C   UNL     1       2.209   2.955  -0.071  1.00  0.00     0.066 A 
ATOM     60  C   UNL     1       0.940   2.735   0.516  1.00  0.00     0.016 A 
ATOM     61  C   UNL     1       3.033   4.027   0.330  1.00  0.00     0.001 A 
ATOM     62  C   UNL     1       0.434   3.601   1.475  1.00  0.00     0.001 A 
ATOM     63  C   UNL     1       2.385   4.986   1.149  1.00  0.00     0.008 A 
ATOM     64  C   UNL     1       1.140   4.757   1.755  1.00  0.00     0.000 A 
BRANCH  61  65
ATOM     65  C   UNL     1       4.500   4.313  -0.055  1.00  0.00     0.197 C 
ATOM     66  S   UNL     1       4.638   4.755  -1.797  1.00  0.00    -0.120 SA
ATOM     67  N   UNL     1       5.497   3.256   0.186  1.00  0.00    -0.236 N 
ATOM     68  C   UNL     1       5.517   3.236  -2.214  1.00  0.00     0.174 C 
ATOM     69  C   UNL     1       5.776   2.473  -0.926  1.00  0.00     0.252 C 
ATOM     70  O   UNL     1       6.125   1.297  -0.900  1.00  0.00    -0.272 OA
BRANCH  67  71
ATOM     71  N   UNL     1       6.489   3.490   1.247  1.00  0.00    -0.270 N 
ATOM     72  H   UNL     1       6.319   4.294   1.788  1.00  0.00     0.191 HD
BRANCH  71  73
ATOM     73  C   UNL     1       7.612   2.784   1.617  1.00  0.00     0.189 C 
ATOM     74  S   UNL     1       8.279   2.998   3.139  1.00  0.00    -0.039 S 
BRANCH  73  75
ATOM     75  N   UNL     1       8.206   1.877   0.816  1.00  0.00    -0.331 N 
ATOM     76  H   UNL     1       8.277   0.954   1.151  1.00  0.00     0.169 HD
BRANCH  75  77
ATOM     77  C   UNL     1       8.731   2.145  -0.456  1.00  0.00     0.040 A 
ATOM     78  C   UNL     1       8.941   1.071  -1.321  1.00  0.00     0.026 A 
ATOM     79  C   UNL     1       8.933   3.456  -0.887  1.00  0.00     0.026 A 
ATOM     80  C   UNL     1       9.171   1.325  -2.671  1.00  0.00     0.002 A 
ATOM     81  C   UNL     1       9.219   3.703  -2.223  1.00  0.00     0.002 A 
ATOM     82  C   UNL     1       9.290   2.640  -3.122  1.00  0.00     0.000 A 
ENDBRANCH  75  77
ENDBRANCH  73  75
ENDBRANCH  71  73
ENDBRANCH  67  71
ENDBRANCH  61  65
ENDBRANCH  57  59
ENDBRANCH   1  57
TORSDOF 16
