REMARK SMILES CC1(C)Cc2c(c(N3CCOCC3)nc3sc(C(=O)OCCOC(=O)c4ccc(-c5c6nc(c(-c7ccccc7)c7ccc([nH]7)c(-c7ccccc7)c7nc(c(-c8ccccc8)c8ccc5[nH]8)C=C7)C=C6)cc4)c(N)c23)CS1
REMARK SMILES IDX 22 1 21 2 20 3 18 4 19 5 17 6 1 7 2 8 3 9 4 10 78 11 5 12
REMARK SMILES IDX 77 13 6 14 76 15 7 16 15 17 74 18 14 19 16 20 8 21 9 22
REMARK SMILES IDX 13 23 10 24 12 25 11 26 75 27 23 30 24 31 25 32 26 33 27 34
REMARK SMILES IDX 73 35 28 36 72 37 29 38 30 39 31 40 66 41 32 42 71 43 65 44
REMARK SMILES IDX 67 45 33 46 70 47 64 48 63 49 34 51 56 52 41 53 55 54 42 55
REMARK SMILES IDX 45 56 54 57 68 58 43 59 44 60 53 62 69 63 46 64 35 65 36 66
REMARK SMILES IDX 40 67 37 68 39 69 38 70 57 71 58 72 62 73 59 74 61 75 60 76
REMARK SMILES IDX 47 77 48 78 52 79 49 80 51 81 50 82
REMARK H PARENT 75 28 75 29 67 50 45 61
REMARK Flexibility Score: inf
ROOT
ATOM      1  C   UNL     1       3.186  -8.588  -5.469  1.00  0.00     0.275 C 
ENDROOT
BRANCH   1   2
ATOM      2  C   UNL     1       4.104  -8.762  -4.265  1.00  0.00     0.275 C 
BRANCH   2   3
ATOM      3  O   UNL     1       3.512  -8.217  -3.074  1.00  0.00    -0.458 OA
BRANCH   3   4
ATOM      4  C   UNL     1       3.756  -6.894  -2.829  1.00  0.00     0.350 C 
ATOM      5  O   UNL     1       4.567  -6.223  -3.468  1.00  0.00    -0.245 OA
BRANCH   4   6
ATOM      6  C   UNL     1       2.883  -6.362  -1.797  1.00  0.00     0.138 A 
ATOM      7  C   UNL     1       1.094   0.221  -0.228  1.00  0.00     0.023 C 
ATOM      8  C   UNL     1       0.534  -1.127   0.253  1.00  0.00     0.015 C 
ATOM      9  C   UNL     1      -0.944  -1.220  -0.161  1.00  0.00     0.023 C 
ATOM     10  C   UNL     1       1.378  -2.282  -0.319  1.00  0.00     0.054 C 
ATOM     11  S   UNL     1       0.721  -1.148   2.064  1.00  0.00    -0.150 SA
ATOM     12  C   UNL     1       1.151  -3.682   0.223  1.00  0.00    -0.027 A 
ATOM     13  C   UNL     1       0.034  -2.782   2.366  1.00  0.00     0.109 C 
ATOM     14  C   UNL     1       0.456  -3.903   1.441  1.00  0.00     0.009 A 
ATOM     15  C   UNL     1       1.703  -4.833  -0.421  1.00  0.00     0.039 A 
ATOM     16  C   UNL     1       0.187  -5.223   1.863  1.00  0.00     0.134 A 
ATOM     17  C   UNL     1       1.374  -6.070   0.122  1.00  0.00     0.128 A 
ATOM     18  C   UNL     1       2.606  -5.029  -1.537  1.00  0.00     0.067 A 
ATOM     19  N   UNL     1       0.626  -6.305   1.212  1.00  0.00    -0.220 NA
ATOM     20  S   UNL     1       2.041  -7.385  -0.722  1.00  0.00    -0.106 S 
BRANCH  16  21
ATOM     21  N   UNL     1      -0.464  -5.444   3.052  1.00  0.00    -0.352 N 
ATOM     22  C   UNL     1      -1.887  -5.183   3.249  1.00  0.00     0.146 C 
ATOM     23  C   UNL     1       0.129  -6.336   4.042  1.00  0.00     0.146 C 
ATOM     24  C   UNL     1      -2.063  -4.588   4.660  1.00  0.00     0.181 C 
ATOM     25  C   UNL     1      -0.087  -5.679   5.416  1.00  0.00     0.181 C 
ATOM     26  O   UNL     1      -1.486  -5.435   5.674  1.00  0.00    -0.378 OA
ENDBRANCH  16  21
BRANCH  18  27
ATOM     27  N   UNL     1       3.174  -4.031  -2.256  1.00  0.00    -0.397 N 
ATOM     28  H   UNL     1       3.779  -4.246  -3.002  1.00  0.00     0.156 HD
ATOM     29  H   UNL     1       2.981  -3.092  -2.033  1.00  0.00     0.156 HD
ENDBRANCH  18  27
ENDBRANCH   4   6
ENDBRANCH   3   4
ENDBRANCH   2   3
ENDBRANCH   1   2
BRANCH   1  30
ATOM     30  O   UNL     1       3.132  -7.227  -5.899  1.00  0.00    -0.458 OA
BRANCH  30  31
ATOM     31  C   UNL     1       2.101  -6.505  -5.404  1.00  0.00     0.338 C 
ATOM     32  O   UNL     1       1.373  -6.805  -4.473  1.00  0.00    -0.246 OA
BRANCH  31  33
ATOM     33  C   UNL     1       1.844  -5.361  -6.287  1.00  0.00     0.060 A 
ATOM     34  C   UNL     1       0.871  -4.442  -5.885  1.00  0.00     0.016 A 
ATOM     35  C   UNL     1       2.371  -5.352  -7.588  1.00  0.00     0.016 A 
ATOM     36  C   UNL     1       0.312  -3.614  -6.838  1.00  0.00     0.010 A 
ATOM     37  C   UNL     1       1.807  -4.530  -8.539  1.00  0.00     0.010 A 
ATOM     38  C   UNL     1       0.737  -3.722  -8.169  1.00  0.00    -0.014 A 
BRANCH  38  39
ATOM     39  C   UNL     1       0.057  -2.922  -9.163  1.00  0.00     0.031 A 
ATOM     40  C   UNL     1       0.318  -1.470  -9.062  1.00  0.00     0.074 A 
ATOM     41  C   UNL     1      -0.692  -3.446 -10.150  1.00  0.00     0.049 A 
ATOM     42  N   UNL     1      -0.517  -0.547  -8.723  1.00  0.00    -0.248 NA
ATOM     43  C   UNL     1       1.699  -1.005  -9.243  1.00  0.00     0.031 C 
ATOM     44  C   UNL     1      -0.827  -4.844 -10.565  1.00  0.00     0.029 A 
ATOM     45  N   UNL     1      -1.433  -2.777 -11.071  1.00  0.00    -0.354 N 
ATOM     46  C   UNL     1       0.185   0.649  -8.796  1.00  0.00     0.074 A 
ATOM     47  C   UNL     1       1.570   0.297  -8.989  1.00  0.00     0.031 C 
ATOM     48  C   UNL     1      -1.412  -4.887 -11.786  1.00  0.00     0.029 A 
ATOM     49  C   UNL     1      -1.818  -3.542 -12.159  1.00  0.00     0.049 A 
ATOM     50  H   UNL     1      -1.677  -1.829 -10.973  1.00  0.00     0.167 HD
ATOM     51  C   UNL     1      -0.457   1.845  -8.895  1.00  0.00     0.031 A 
ATOM     52  C   UNL     1      -2.368  -3.071 -13.306  1.00  0.00     0.031 A 
ATOM     53  C   UNL     1      -1.847   1.741  -8.537  1.00  0.00     0.049 A 
ATOM     54  C   UNL     1      -2.952  -1.741 -13.005  1.00  0.00     0.074 A 
ATOM     55  C   UNL     1      -2.531   1.377  -7.394  1.00  0.00     0.029 A 
ATOM     56  N   UNL     1      -2.763   1.669  -9.560  1.00  0.00    -0.354 N 
ATOM     57  N   UNL     1      -3.986  -1.574 -12.229  1.00  0.00    -0.248 NA
ATOM     58  C   UNL     1      -2.122  -0.561 -13.199  1.00  0.00     0.031 C 
ATOM     59  C   UNL     1      -3.656   0.637  -7.861  1.00  0.00     0.029 A 
ATOM     60  C   UNL     1      -3.620   0.643  -9.257  1.00  0.00     0.049 A 
ATOM     61  H   UNL     1      -2.797   2.245 -10.358  1.00  0.00     0.167 HD
ATOM     62  C   UNL     1      -3.701  -0.428 -11.501  1.00  0.00     0.074 A 
ATOM     63  C   UNL     1      -2.590   0.206 -12.210  1.00  0.00     0.031 C 
ATOM     64  C   UNL     1      -4.195  -0.247 -10.240  1.00  0.00     0.031 A 
BRANCH  51  65
ATOM     65  C   UNL     1       0.076   3.008  -9.688  1.00  0.00    -0.014 A 
ATOM     66  C   UNL     1      -0.665   4.203  -9.711  1.00  0.00     0.009 A 
ATOM     67  C   UNL     1       1.111   2.886 -10.635  1.00  0.00     0.009 A 
ATOM     68  C   UNL     1      -0.439   5.181 -10.686  1.00  0.00     0.001 A 
ATOM     69  C   UNL     1       1.368   3.879 -11.582  1.00  0.00     0.001 A 
ATOM     70  C   UNL     1       0.571   5.013 -11.628  1.00  0.00     0.000 A 
ENDBRANCH  51  65
BRANCH  52  71
ATOM     71  C   UNL     1      -2.133  -3.541 -14.688  1.00  0.00    -0.014 A 
ATOM     72  C   UNL     1      -2.955  -3.111 -15.741  1.00  0.00     0.009 A 
ATOM     73  C   UNL     1      -0.931  -4.193 -15.021  1.00  0.00     0.009 A 
ATOM     74  C   UNL     1      -2.565  -3.286 -17.076  1.00  0.00     0.001 A 
ATOM     75  C   UNL     1      -0.544  -4.372 -16.353  1.00  0.00     0.001 A 
ATOM     76  C   UNL     1      -1.354  -3.903 -17.381  1.00  0.00     0.000 A 
ENDBRANCH  52  71
BRANCH  64  77
ATOM     77  C   UNL     1      -5.214  -1.235  -9.724  1.00  0.00    -0.014 A 
ATOM     78  C   UNL     1      -4.930  -2.603  -9.562  1.00  0.00     0.009 A 
ATOM     79  C   UNL     1      -6.421  -0.741  -9.209  1.00  0.00     0.009 A 
ATOM     80  C   UNL     1      -5.837  -3.453  -8.919  1.00  0.00     0.001 A 
ATOM     81  C   UNL     1      -7.317  -1.586  -8.549  1.00  0.00     0.001 A 
ATOM     82  C   UNL     1      -7.026  -2.941  -8.406  1.00  0.00     0.000 A 
ENDBRANCH  64  77
ENDBRANCH  38  39
ENDBRANCH  31  33
ENDBRANCH  30  31
ENDBRANCH   1  30
TORSDOF 13
