REMARK SMILES O=C(Nc1cccc(C(=O)OCCOC(=O)c2ccc(-c3c4nc(c(-c5ccccc5)c5ccc([nH]5)c(-c5ccccc5)c5nc(c(-c6ccccc6)c6ccc3[nH]6)C=C5)C=C4)cc2)c1)Nc1cc(Cl)c(Cl)cc1Cl
REMARK SMILES IDX 12 1 11 2 9 3 10 4 8 5 4 6 5 7 65 8 6 9 7 10 3 11 1 12 2 13
REMARK SMILES IDX 66 14 67 17 68 18 74 19 69 20 73 21 75 22 70 23 71 24 72 25
REMARK SMILES IDX 13 26 14 27 15 28 16 29 17 30 18 31 64 32 19 33 63 34 20 35
REMARK SMILES IDX 21 36 22 37 57 38 23 39 62 40 56 41 58 42 24 43 61 44 55 45
REMARK SMILES IDX 54 46 25 48 47 49 32 50 46 51 33 52 36 53 45 54 59 55 34 56
REMARK SMILES IDX 35 57 44 59 60 60 37 61 26 62 27 63 31 64 28 65 30 66 29 67
REMARK SMILES IDX 48 68 49 69 53 70 50 71 52 72 51 73 38 74 39 75 43 76 40 77
REMARK SMILES IDX 42 78 41 79
REMARK H PARENT 3 15 66 16 58 47 36 58
REMARK Flexibility Score: inf
ROOT
ATOM      1  C   UNL     1       7.206   1.253  -3.682  1.00  0.00     0.275 C 
ENDROOT
BRANCH   1   2
ATOM      2  O   UNL     1       6.482   1.173  -2.436  1.00  0.00    -0.458 OA
BRANCH   2   3
ATOM      3  C   UNL     1       7.003   0.373  -1.475  1.00  0.00     0.338 C 
ATOM      4  O   UNL     1       8.010  -0.312  -1.561  1.00  0.00    -0.246 OA
BRANCH   3   5
ATOM      5  C   UNL     1       6.222   0.498  -0.219  1.00  0.00     0.062 A 
ATOM      6  C   UNL     1       4.112   0.675   0.942  1.00  0.00     0.043 A 
ATOM      7  C   UNL     1       4.780   0.764   2.165  1.00  0.00     0.026 A 
ATOM      8  C   UNL     1       4.838   0.639  -0.253  1.00  0.00     0.041 A 
ATOM      9  C   UNL     1       6.162   0.613   2.206  1.00  0.00     0.003 A 
ATOM     10  C   UNL     1       6.868   0.409   1.022  1.00  0.00     0.016 A 
BRANCH   6  11
ATOM     11  N   UNL     1       2.716   0.556   0.972  1.00  0.00    -0.308 N 
ATOM     12  O   UNL     1       0.675  -0.023   0.237  1.00  0.00    -0.248 OA
ATOM     13  C   UNL     1       1.891  -0.118   0.105  1.00  0.00     0.323 C 
ATOM     14  N   UNL     1       2.518  -0.992  -0.751  1.00  0.00    -0.306 N 
ATOM     15  H   UNL     1       2.265   1.018   1.715  1.00  0.00     0.171 HD
ATOM     16  H   UNL     1       3.468  -1.181  -0.576  1.00  0.00     0.171 HD
BRANCH  14  17
ATOM     17  C   UNL     1       1.933  -1.644  -1.855  1.00  0.00     0.063 A 
ATOM     18  C   UNL     1       2.415  -2.932  -2.134  1.00  0.00     0.049 A 
ATOM     19  C   UNL     1       0.944  -1.094  -2.687  1.00  0.00     0.066 A 
ATOM     20  C   UNL     1       1.844  -3.703  -3.151  1.00  0.00     0.061 A 
ATOM     21  C   UNL     1       0.366  -1.871  -3.696  1.00  0.00     0.044 A 
ATOM     22  Cl  UNL     1       0.518   0.584  -2.678  1.00  0.00    -0.082 Cl
ATOM     23  Cl  UNL     1       2.471  -5.293  -3.402  1.00  0.00    -0.083 Cl
ATOM     24  C   UNL     1       0.799  -3.180  -3.916  1.00  0.00     0.061 A 
ATOM     25  Cl  UNL     1       0.021  -4.085  -5.164  1.00  0.00    -0.083 Cl
ENDBRANCH  14  17
ENDBRANCH   6  11
ENDBRANCH   3   5
ENDBRANCH   2   3
ENDBRANCH   1   2
BRANCH   1  26
ATOM     26  C   UNL     1       7.947   2.586  -3.808  1.00  0.00     0.275 C 
BRANCH  26  27
ATOM     27  O   UNL     1       9.037   2.653  -2.869  1.00  0.00    -0.458 OA
BRANCH  27  28
ATOM     28  C   UNL     1       8.790   3.384  -1.760  1.00  0.00     0.338 C 
ATOM     29  O   UNL     1       7.785   4.019  -1.491  1.00  0.00    -0.246 OA
BRANCH  28  30
ATOM     30  C   UNL     1       9.880   3.203  -0.793  1.00  0.00     0.060 A 
ATOM     31  C   UNL     1       9.785   2.119   0.069  1.00  0.00     0.016 A 
ATOM     32  C   UNL     1      10.868   4.161  -0.600  1.00  0.00     0.016 A 
ATOM     33  C   UNL     1      10.582   2.037   1.200  1.00  0.00     0.010 A 
ATOM     34  C   UNL     1      11.757   4.013   0.474  1.00  0.00     0.010 A 
ATOM     35  C   UNL     1      11.599   2.972   1.412  1.00  0.00    -0.014 A 
BRANCH  35  36
ATOM     36  C   UNL     1      12.460   2.872   2.624  1.00  0.00     0.031 A 
ATOM     37  C   UNL     1      12.548   4.026   3.590  1.00  0.00     0.074 A 
ATOM     38  C   UNL     1      13.146   1.739   2.882  1.00  0.00     0.049 A 
ATOM     39  N   UNL     1      13.354   4.194   4.608  1.00  0.00    -0.248 NA
ATOM     40  C   UNL     1      11.616   5.143   3.374  1.00  0.00     0.031 C 
ATOM     41  C   UNL     1      13.102   0.513   2.080  1.00  0.00     0.029 A 
ATOM     42  N   UNL     1      14.009   1.429   3.905  1.00  0.00    -0.354 N 
ATOM     43  C   UNL     1      13.067   5.456   5.115  1.00  0.00     0.074 A 
ATOM     44  C   UNL     1      12.023   6.016   4.284  1.00  0.00     0.031 C 
ATOM     45  C   UNL     1      13.862  -0.425   2.663  1.00  0.00     0.029 A 
ATOM     46  C   UNL     1      14.531   0.160   3.817  1.00  0.00     0.049 A 
ATOM     47  H   UNL     1      14.232   2.055   4.631  1.00  0.00     0.167 HD
ATOM     48  C   UNL     1      13.623   6.093   6.175  1.00  0.00     0.031 A 
ATOM     49  C   UNL     1      15.480  -0.454   4.549  1.00  0.00     0.031 A 
ATOM     50  C   UNL     1      14.646   5.523   7.014  1.00  0.00     0.049 A 
ATOM     51  C   UNL     1      16.146   0.304   5.660  1.00  0.00     0.074 A 
ATOM     52  C   UNL     1      15.271   6.082   8.115  1.00  0.00     0.029 A 
ATOM     53  N   UNL     1      15.192   4.258   6.846  1.00  0.00    -0.354 N 
ATOM     54  N   UNL     1      15.895   1.512   6.103  1.00  0.00    -0.248 NA
ATOM     55  C   UNL     1      17.237  -0.384   6.364  1.00  0.00     0.031 C 
ATOM     56  C   UNL     1      16.236   5.181   8.576  1.00  0.00     0.029 A 
ATOM     57  C   UNL     1      16.164   4.031   7.806  1.00  0.00     0.049 A 
ATOM     58  H   UNL     1      14.927   3.617   6.147  1.00  0.00     0.167 HD
ATOM     59  C   UNL     1      16.778   1.720   7.154  1.00  0.00     0.074 A 
ATOM     60  C   UNL     1      17.556   0.505   7.293  1.00  0.00     0.031 C 
ATOM     61  C   UNL     1      16.930   2.817   7.934  1.00  0.00     0.031 A 
BRANCH  48  62
ATOM     62  C   UNL     1      13.175   7.504   6.450  1.00  0.00    -0.014 A 
ATOM     63  C   UNL     1      11.883   7.794   6.917  1.00  0.00     0.009 A 
ATOM     64  C   UNL     1      14.073   8.565   6.247  1.00  0.00     0.009 A 
ATOM     65  C   UNL     1      11.487   9.118   7.128  1.00  0.00     0.001 A 
ATOM     66  C   UNL     1      13.686   9.884   6.492  1.00  0.00     0.001 A 
ATOM     67  C   UNL     1      12.389  10.160   6.918  1.00  0.00     0.000 A 
ENDBRANCH  48  62
BRANCH  49  68
ATOM     68  C   UNL     1      15.893  -1.846   4.222  1.00  0.00    -0.014 A 
ATOM     69  C   UNL     1      15.637  -2.894   5.118  1.00  0.00     0.009 A 
ATOM     70  C   UNL     1      16.551  -2.134   3.015  1.00  0.00     0.009 A 
ATOM     71  C   UNL     1      16.049  -4.196   4.822  1.00  0.00     0.001 A 
ATOM     72  C   UNL     1      16.930  -3.441   2.705  1.00  0.00     0.001 A 
ATOM     73  C   UNL     1      16.688  -4.469   3.614  1.00  0.00     0.000 A 
ENDBRANCH  49  68
BRANCH  61  74
ATOM     74  C   UNL     1      17.943   2.734   9.042  1.00  0.00    -0.014 A 
ATOM     75  C   UNL     1      19.321   2.721   8.778  1.00  0.00     0.009 A 
ATOM     76  C   UNL     1      17.506   2.694  10.375  1.00  0.00     0.009 A 
ATOM     77  C   UNL     1      20.239   2.630   9.826  1.00  0.00     0.001 A 
ATOM     78  C   UNL     1      18.426   2.638  11.422  1.00  0.00     0.001 A 
ATOM     79  C   UNL     1      19.791   2.595  11.147  1.00  0.00     0.000 A 
ENDBRANCH  61  74
ENDBRANCH  35  36
ENDBRANCH  28  30
ENDBRANCH  27  28
ENDBRANCH  26  27
ENDBRANCH   1  26
TORSDOF 13
