REMARK SMILES CC(=O)Nc1cccc(-c2ccc(F)c(C(=O)OCCOC(=O)c3ccc(-c4c5nc(c(-c6ccccc6)c6ccc([nH]6)c(-c6ccccc6)c6nc(c(-c7ccccc7)c7ccc4[nH]7)C=C6)C=C5)cc3)c2)c1
REMARK SMILES IDX 19 1 18 2 16 3 17 4 15 5 10 6 11 7 72 8 12 9 13 10 14 11
REMARK SMILES IDX 9 12 5 13 6 14 73 15 7 16 8 17 4 18 1 19 2 20 3 21 20 23
REMARK SMILES IDX 21 24 22 25 23 26 24 27 25 28 71 29 26 30 70 31 27 32 28 33
REMARK SMILES IDX 29 34 64 35 30 36 69 37 63 38 65 39 31 40 68 41 62 42 61 43
REMARK SMILES IDX 32 45 54 46 39 47 53 48 40 49 43 50 52 51 66 52 41 53 42 54
REMARK SMILES IDX 51 56 67 57 44 58 33 59 34 60 38 61 35 62 37 63 36 64 55 65
REMARK SMILES IDX 56 66 60 67 57 68 59 69 58 70 45 71 46 72 50 73 47 74 49 75
REMARK SMILES IDX 48 76
REMARK H PARENT 4 22 65 44 43 55
REMARK Flexibility Score: inf
ROOT
ATOM      1  C   UNL     1       8.534   0.731   2.372  1.00  0.00     0.275 C 
ENDROOT
BRANCH   1   2
ATOM      2  O   UNL     1       7.585  -0.220   1.848  1.00  0.00    -0.458 OA
BRANCH   2   3
ATOM      3  C   UNL     1       7.349  -0.182   0.511  1.00  0.00     0.341 C 
ATOM      4  O   UNL     1       7.829   0.605  -0.286  1.00  0.00    -0.246 OA
BRANCH   3   5
ATOM      5  C   UNL     1       6.468  -1.313   0.138  1.00  0.00     0.096 A 
ATOM      6  C   UNL     1       4.602  -2.797   0.637  1.00  0.00    -0.017 A 
ATOM      7  C   UNL     1       4.816  -3.462  -0.578  1.00  0.00     0.012 A 
ATOM      8  C   UNL     1       5.477  -1.761   1.013  1.00  0.00     0.027 A 
ATOM      9  C   UNL     1       5.806  -3.020  -1.453  1.00  0.00     0.041 A 
ATOM     10  C   UNL     1       6.586  -1.918  -1.113  1.00  0.00     0.137 A 
ATOM     11  F   UNL     1       7.451  -1.466  -2.031  1.00  0.00    -0.206 F 
BRANCH   6  12
ATOM     12  C   UNL     1       3.382  -3.026   1.414  1.00  0.00    -0.016 A 
ATOM     13  C   UNL     1       1.279  -2.079   2.229  1.00  0.00     0.041 A 
ATOM     14  C   UNL     1       1.002  -3.288   2.868  1.00  0.00     0.026 A 
ATOM     15  C   UNL     1       2.477  -1.955   1.536  1.00  0.00     0.034 A 
ATOM     16  C   UNL     1       1.879  -4.372   2.743  1.00  0.00     0.003 A 
ATOM     17  C   UNL     1       3.061  -4.247   2.008  1.00  0.00     0.009 A 
BRANCH  13  18
ATOM     18  N   UNL     1       0.369  -1.019   2.368  1.00  0.00    -0.326 N 
ATOM     19  C   UNL     1       0.715   0.181   0.202  1.00  0.00     0.114 C 
ATOM     20  C   UNL     1       0.168   0.099   1.605  1.00  0.00     0.221 C 
ATOM     21  O   UNL     1      -0.525   1.013   2.058  1.00  0.00    -0.275 OA
ATOM     22  H   UNL     1      -0.227  -1.093   3.148  1.00  0.00     0.169 HD
ENDBRANCH  13  18
ENDBRANCH   6  12
ENDBRANCH   3   5
ENDBRANCH   2   3
ENDBRANCH   1   2
BRANCH   1  23
ATOM     23  C   UNL     1       9.791   0.008   2.855  1.00  0.00     0.275 C 
BRANCH  23  24
ATOM     24  O   UNL     1      10.487  -0.552   1.728  1.00  0.00    -0.458 OA
BRANCH  24  25
ATOM     25  C   UNL     1      10.448  -1.900   1.617  1.00  0.00     0.338 C 
ATOM     26  O   UNL     1       9.979  -2.707   2.399  1.00  0.00    -0.246 OA
BRANCH  25  27
ATOM     27  C   UNL     1      10.984  -2.274   0.301  1.00  0.00     0.060 A 
ATOM     28  C   UNL     1      10.164  -2.091  -0.805  1.00  0.00     0.016 A 
ATOM     29  C   UNL     1      12.226  -2.882   0.158  1.00  0.00     0.016 A 
ATOM     30  C   UNL     1      10.538  -2.566  -2.056  1.00  0.00     0.010 A 
ATOM     31  C   UNL     1      12.646  -3.279  -1.119  1.00  0.00     0.010 A 
ATOM     32  C   UNL     1      11.799  -3.141  -2.238  1.00  0.00    -0.014 A 
BRANCH  32  33
ATOM     33  C   UNL     1      12.222  -3.600  -3.589  1.00  0.00     0.031 A 
ATOM     34  C   UNL     1      12.575  -5.044  -3.821  1.00  0.00     0.074 A 
ATOM     35  C   UNL     1      12.281  -2.730  -4.617  1.00  0.00     0.049 A 
ATOM     36  N   UNL     1      13.127  -5.603  -4.868  1.00  0.00    -0.248 NA
ATOM     37  C   UNL     1      12.274  -5.981  -2.727  1.00  0.00     0.031 C 
ATOM     38  C   UNL     1      11.892  -1.318  -4.563  1.00  0.00     0.029 A 
ATOM     39  N   UNL     1      12.686  -2.909  -5.917  1.00  0.00    -0.354 N 
ATOM     40  C   UNL     1      13.294  -6.942  -4.537  1.00  0.00     0.074 A 
ATOM     41  C   UNL     1      12.783  -7.113  -3.194  1.00  0.00     0.031 C 
ATOM     42  C   UNL     1      12.040  -0.773  -5.779  1.00  0.00     0.029 A 
ATOM     43  C   UNL     1      12.626  -1.763  -6.674  1.00  0.00     0.049 A 
ATOM     44  H   UNL     1      12.990  -3.775  -6.273  1.00  0.00     0.167 HD
ATOM     45  C   UNL     1      13.835  -7.936  -5.283  1.00  0.00     0.031 A 
ATOM     46  C   UNL     1      13.041  -1.517  -7.931  1.00  0.00     0.031 A 
ATOM     47  C   UNL     1      14.314  -7.769  -6.630  1.00  0.00     0.049 A 
ATOM     48  C   UNL     1      13.717  -2.612  -8.704  1.00  0.00     0.074 A 
ATOM     49  C   UNL     1      14.857  -8.721  -7.476  1.00  0.00     0.029 A 
ATOM     50  N   UNL     1      14.302  -6.573  -7.330  1.00  0.00    -0.354 N 
ATOM     51  N   UNL     1      13.911  -3.863  -8.367  1.00  0.00    -0.248 NA
ATOM     52  C   UNL     1      14.256  -2.251 -10.024  1.00  0.00     0.031 C 
ATOM     53  C   UNL     1      15.228  -8.087  -8.667  1.00  0.00     0.029 A 
ATOM     54  C   UNL     1      14.861  -6.754  -8.584  1.00  0.00     0.049 A 
ATOM     55  H   UNL     1      13.949  -5.721  -6.986  1.00  0.00     0.167 HD
ATOM     56  C   UNL     1      14.579  -4.444  -9.436  1.00  0.00     0.074 A 
ATOM     57  C   UNL     1      14.741  -3.413 -10.441  1.00  0.00     0.031 C 
ATOM     58  C   UNL     1      15.021  -5.718  -9.571  1.00  0.00     0.031 A 
BRANCH  45  59
ATOM     59  C   UNL     1      13.997  -9.282  -4.631  1.00  0.00    -0.014 A 
ATOM     60  C   UNL     1      12.900 -10.114  -4.361  1.00  0.00     0.009 A 
ATOM     61  C   UNL     1      15.287  -9.732  -4.303  1.00  0.00     0.009 A 
ATOM     62  C   UNL     1      13.089 -11.352  -3.741  1.00  0.00     0.001 A 
ATOM     63  C   UNL     1      15.476 -10.981  -3.711  1.00  0.00     0.001 A 
ATOM     64  C   UNL     1      14.376 -11.786  -3.420  1.00  0.00     0.000 A 
ENDBRANCH  45  59
BRANCH  46  65
ATOM     65  C   UNL     1      12.881  -0.160  -8.516  1.00  0.00    -0.014 A 
ATOM     66  C   UNL     1      11.993   0.058  -9.580  1.00  0.00     0.009 A 
ATOM     67  C   UNL     1      13.615   0.928  -8.014  1.00  0.00     0.009 A 
ATOM     68  C   UNL     1      11.852   1.332 -10.135  1.00  0.00     0.001 A 
ATOM     69  C   UNL     1      13.448   2.206  -8.549  1.00  0.00     0.001 A 
ATOM     70  C   UNL     1      12.573   2.406  -9.615  1.00  0.00     0.000 A 
ENDBRANCH  46  65
BRANCH  58  71
ATOM     71  C   UNL     1      15.694  -6.074 -10.866  1.00  0.00    -0.014 A 
ATOM     72  C   UNL     1      16.993  -5.632 -11.156  1.00  0.00     0.009 A 
ATOM     73  C   UNL     1      15.030  -6.895 -11.791  1.00  0.00     0.009 A 
ATOM     74  C   UNL     1      17.604  -5.983 -12.361  1.00  0.00     0.001 A 
ATOM     75  C   UNL     1      15.653  -7.267 -12.982  1.00  0.00     0.001 A 
ATOM     76  C   UNL     1      16.936  -6.804 -13.270  1.00  0.00     0.000 A 
ENDBRANCH  58  71
ENDBRANCH  32  33
ENDBRANCH  25  27
ENDBRANCH  24  25
ENDBRANCH  23  24
ENDBRANCH   1  23
TORSDOF 13
