REMARK SMILES COc1cc(Nc2cn[nH]c(=O)n2)c(C(=O)OCCOC(=O)c2ccc(-c3c4nc(c(-c5ccccc5)c5ccc([nH]5)c(-c5ccccc5)c5nc(c(-c6ccccc6)c6ccc3[nH]6)C=C5)C=C4)cc2)cc1OC
REMARK SMILES IDX 18 1 17 2 15 3 16 4 14 5 3 6 4 7 72 8 5 9 71 10 2 11 1 12
REMARK SMILES IDX 73 13 74 14 6 15 7 17 8 18 13 19 9 20 11 21 10 22 12 23
REMARK SMILES IDX 19 25 20 26 21 27 22 28 23 29 24 30 70 31 25 32 69 33 26 34
REMARK SMILES IDX 27 35 28 36 63 37 29 38 68 39 62 40 64 41 30 42 67 43 61 44
REMARK SMILES IDX 60 45 31 47 53 48 38 49 52 50 39 51 42 52 51 53 65 54 40 55
REMARK SMILES IDX 41 56 50 58 66 59 43 60 32 61 33 62 37 63 34 64 36 65 35 66
REMARK SMILES IDX 54 67 55 68 59 69 56 70 58 71 57 72 44 73 45 74 49 75 46 76
REMARK SMILES IDX 48 77 47 78
REMARK H PARENT 6 16 10 24 64 46 42 57
REMARK Flexibility Score: inf
ROOT
ATOM      1  C   UNL     1       3.471  -0.430   7.632  1.00  0.00     0.275 C 
ENDROOT
BRANCH   1   2
ATOM      2  O   UNL     1       3.174   0.036   6.297  1.00  0.00    -0.458 OA
BRANCH   2   3
ATOM      3  C   UNL     1       1.967  -0.325   5.798  1.00  0.00     0.340 C 
ATOM      4  O   UNL     1       1.091  -0.926   6.396  1.00  0.00    -0.246 OA
BRANCH   3   5
ATOM      5  C   UNL     1       1.837   0.085   4.381  1.00  0.00     0.087 A 
ATOM      6  C   UNL     1       1.504   0.407   1.625  1.00  0.00     0.162 A 
ATOM      7  C   UNL     1       0.506   0.826   2.514  1.00  0.00     0.077 A 
ATOM      8  C   UNL     1       2.710  -0.108   2.114  1.00  0.00     0.161 A 
ATOM      9  C   UNL     1       0.679   0.727   3.902  1.00  0.00     0.058 A 
ATOM     10  C   UNL     1       2.849  -0.302   3.493  1.00  0.00     0.068 A 
BRANCH   6  11
ATOM     11  O   UNL     1       1.306   0.604   0.285  1.00  0.00    -0.493 OA
ATOM     12  C   UNL     1       0.203  -0.157  -0.213  1.00  0.00     0.278 C 
ENDBRANCH   6  11
BRANCH   8  13
ATOM     13  O   UNL     1       3.817  -0.496   1.413  1.00  0.00    -0.493 OA
ATOM     14  C   UNL     1       3.831  -0.286   0.008  1.00  0.00     0.278 C 
ENDBRANCH   8  13
BRANCH   9  15
ATOM     15  N   UNL     1      -0.251   1.330   4.773  1.00  0.00    -0.338 N 
ATOM     16  H   UNL     1       0.061   1.539   5.684  1.00  0.00     0.168 HD
BRANCH  15  17
ATOM     17  C   UNL     1      -1.556   1.654   4.469  1.00  0.00     0.156 A 
ATOM     18  C   UNL     1      -1.966   3.083   4.726  1.00  0.00     0.180 A 
ATOM     19  N   UNL     1      -2.427   0.807   4.018  1.00  0.00    -0.173 NA
ATOM     20  N   UNL     1      -3.182   3.486   4.582  1.00  0.00    -0.176 NA
ATOM     21  C   UNL     1      -3.731   1.213   3.876  1.00  0.00     0.363 A 
ATOM     22  N   UNL     1      -4.054   2.520   4.183  1.00  0.00    -0.227 N 
ATOM     23  O   UNL     1      -4.617   0.448   3.500  1.00  0.00    -0.244 OA
ATOM     24  H   UNL     1      -5.002   2.776   4.107  1.00  0.00     0.195 HD
ENDBRANCH  15  17
ENDBRANCH   9  15
ENDBRANCH   3   5
ENDBRANCH   2   3
ENDBRANCH   1   2
BRANCH   1  25
ATOM     25  C   UNL     1       3.377   0.697   8.661  1.00  0.00     0.275 C 
BRANCH  25  26
ATOM     26  O   UNL     1       2.004   1.002   8.972  1.00  0.00    -0.458 OA
BRANCH  26  27
ATOM     27  C   UNL     1       1.485   2.059   8.318  1.00  0.00     0.338 C 
ATOM     28  O   UNL     1       2.035   2.786   7.505  1.00  0.00    -0.246 OA
BRANCH  27  29
ATOM     29  C   UNL     1       0.045   2.178   8.578  1.00  0.00     0.060 A 
ATOM     30  C   UNL     1      -0.793   1.291   7.919  1.00  0.00     0.016 A 
ATOM     31  C   UNL     1      -0.483   3.312   9.194  1.00  0.00     0.016 A 
ATOM     32  C   UNL     1      -2.127   1.627   7.724  1.00  0.00     0.010 A 
ATOM     33  C   UNL     1      -1.861   3.569   9.110  1.00  0.00     0.010 A 
ATOM     34  C   UNL     1      -2.695   2.772   8.306  1.00  0.00    -0.014 A 
BRANCH  34  35
ATOM     35  C   UNL     1      -4.113   3.152   7.988  1.00  0.00     0.031 A 
ATOM     36  C   UNL     1      -4.464   4.552   7.521  1.00  0.00     0.074 A 
ATOM     37  C   UNL     1      -5.099   2.229   8.013  1.00  0.00     0.049 A 
ATOM     38  N   UNL     1      -5.647   5.095   7.352  1.00  0.00    -0.248 NA
ATOM     39  C   UNL     1      -3.350   5.465   7.214  1.00  0.00     0.031 C 
ATOM     40  C   UNL     1      -4.938   0.816   8.364  1.00  0.00     0.029 A 
ATOM     41  N   UNL     1      -6.433   2.330   7.692  1.00  0.00    -0.354 N 
ATOM     42  C   UNL     1      -5.415   6.419   6.989  1.00  0.00     0.074 A 
ATOM     43  C   UNL     1      -3.982   6.599   6.950  1.00  0.00     0.031 C 
ATOM     44  C   UNL     1      -6.085   0.166   8.128  1.00  0.00     0.029 A 
ATOM     45  C   UNL     1      -7.109   1.136   7.769  1.00  0.00     0.049 A 
ATOM     46  H   UNL     1      -6.862   3.177   7.431  1.00  0.00     0.167 HD
ATOM     47  C   UNL     1      -6.312   7.400   6.722  1.00  0.00     0.031 A 
ATOM     48  C   UNL     1      -8.417   0.842   7.638  1.00  0.00     0.031 A 
ATOM     49  C   UNL     1      -7.739   7.217   6.695  1.00  0.00     0.049 A 
ATOM     50  C   UNL     1      -9.397   1.952   7.409  1.00  0.00     0.074 A 
ATOM     51  C   UNL     1      -8.726   8.160   6.454  1.00  0.00     0.029 A 
ATOM     52  N   UNL     1      -8.383   6.007   6.888  1.00  0.00    -0.354 N 
ATOM     53  N   UNL     1      -9.168   3.225   7.207  1.00  0.00    -0.248 NA
ATOM     54  C   UNL     1     -10.821   1.589   7.439  1.00  0.00     0.031 C 
ATOM     55  C   UNL     1      -9.970   7.526   6.543  1.00  0.00     0.029 A 
ATOM     56  C   UNL     1      -9.754   6.181   6.788  1.00  0.00     0.049 A 
ATOM     57  H   UNL     1      -7.933   5.150   7.070  1.00  0.00     0.167 HD
ATOM     58  C   UNL     1     -10.417   3.818   7.097  1.00  0.00     0.074 A 
ATOM     59  C   UNL     1     -11.399   2.761   7.219  1.00  0.00     0.031 C 
ATOM     60  C   UNL     1     -10.722   5.127   6.926  1.00  0.00     0.031 A 
BRANCH  47  61
ATOM     61  C   UNL     1      -5.781   8.789   6.495  1.00  0.00    -0.014 A 
ATOM     62  C   UNL     1      -5.161   9.162   5.294  1.00  0.00     0.009 A 
ATOM     63  C   UNL     1      -5.961   9.759   7.496  1.00  0.00     0.009 A 
ATOM     64  C   UNL     1      -4.710  10.473   5.111  1.00  0.00     0.001 A 
ATOM     65  C   UNL     1      -5.533  11.073   7.301  1.00  0.00     0.001 A 
ATOM     66  C   UNL     1      -4.902  11.427   6.111  1.00  0.00     0.000 A 
ENDBRANCH  47  61
BRANCH  48  67
ATOM     67  C   UNL     1      -8.883  -0.557   7.836  1.00  0.00    -0.014 A 
ATOM     68  C   UNL     1      -9.416  -1.296   6.771  1.00  0.00     0.009 A 
ATOM     69  C   UNL     1      -8.780  -1.165   9.099  1.00  0.00     0.009 A 
ATOM     70  C   UNL     1      -9.837  -2.614   6.968  1.00  0.00     0.001 A 
ATOM     71  C   UNL     1      -9.164  -2.493   9.284  1.00  0.00     0.001 A 
ATOM     72  C   UNL     1      -9.700  -3.214   8.220  1.00  0.00     0.000 A 
ENDBRANCH  48  67
BRANCH  60  73
ATOM     73  C   UNL     1     -12.177   5.480   6.847  1.00  0.00    -0.014 A 
ATOM     74  C   UNL     1     -12.982   5.489   7.996  1.00  0.00     0.009 A 
ATOM     75  C   UNL     1     -12.746   5.823   5.611  1.00  0.00     0.009 A 
ATOM     76  C   UNL     1     -14.339   5.802   7.903  1.00  0.00     0.001 A 
ATOM     77  C   UNL     1     -14.098   6.159   5.525  1.00  0.00     0.001 A 
ATOM     78  C   UNL     1     -14.895   6.139   6.669  1.00  0.00     0.000 A 
ENDBRANCH  60  73
ENDBRANCH  34  35
ENDBRANCH  27  29
ENDBRANCH  26  27
ENDBRANCH  25  26
ENDBRANCH   1  25
TORSDOF 15
