REMARK SMILES CC[C@@H](C)CN(CC)S(=O)(=O)c1cc(C(=O)OCCOC(=O)c2ccc(-c3c4nc(c(-c5ccccc5)c5ccc([nH]5)c(-c5ccccc5)c5nc(c(-c6ccccc6)c6ccc3[nH]6)C=C5)C=C4)cc2)n(C)c1
REMARK SMILES IDX 17 1 15 2 16 3 14 4 12 5 13 6 73 7 71 8 72 9 9 10 10 11
REMARK SMILES IDX 11 12 6 13 5 14 3 15 4 16 2 17 1 18 7 19 8 20 18 21 19 22
REMARK SMILES IDX 20 23 21 24 22 25 23 26 24 27 70 28 25 29 69 30 26 31 27 32
REMARK SMILES IDX 28 33 63 34 29 35 68 36 62 37 64 38 30 39 67 40 61 41 60 42
REMARK SMILES IDX 31 44 53 45 38 46 52 47 39 48 42 49 51 50 65 51 40 52 41 53
REMARK SMILES IDX 50 55 66 56 43 57 32 58 33 59 37 60 34 61 36 62 35 63 54 64
REMARK SMILES IDX 55 65 59 66 56 67 58 68 57 69 44 70 45 71 49 72 46 73 48 74
REMARK SMILES IDX 47 75
REMARK H PARENT 64 43 42 54
REMARK Flexibility Score: inf
ROOT
ATOM      1  O   UNL     1       1.486  -9.209  -3.437  1.00  0.00    -0.457 OA
ENDROOT
BRANCH   1   2
ATOM      2  C   UNL     1       0.418  -8.532  -2.941  1.00  0.00     0.355 C 
ATOM      3  O   UNL     1      -0.677  -9.035  -2.708  1.00  0.00    -0.244 OA
BRANCH   2   4
ATOM      4  C   UNL     1       0.779  -7.171  -2.589  1.00  0.00     0.128 A 
ATOM      5  C   UNL     1       0.779  -5.133  -1.547  1.00  0.00     0.101 A 
ATOM      6  C   UNL     1       0.113  -6.375  -1.654  1.00  0.00     0.057 A 
ATOM      7  C   UNL     1       1.840  -5.183  -2.429  1.00  0.00     0.107 A 
ATOM      8  N   UNL     1       1.775  -6.372  -3.122  1.00  0.00    -0.344 N 
ATOM      9  C   UNL     1       2.506  -6.578  -4.356  1.00  0.00     0.150 C 
BRANCH   5  10
ATOM     10  S   UNL     1       0.239  -3.736  -0.662  1.00  0.00     0.244 S 
ATOM     11  O   UNL     1      -1.207  -3.875  -0.654  1.00  0.00    -0.207 OA
ATOM     12  O   UNL     1       0.872  -2.665  -1.384  1.00  0.00    -0.207 OA
BRANCH  10  13
ATOM     13  N   UNL     1       0.783  -3.730   0.975  1.00  0.00    -0.198 NA
BRANCH  13  14
ATOM     14  C   UNL     1       0.295  -2.562   1.807  1.00  0.00     0.105 C 
BRANCH  14  15
ATOM     15  C   UNL     1       1.104  -1.249   1.753  1.00  0.00     0.001 C 
ATOM     16  C   UNL     1       0.758  -0.445   3.021  1.00  0.00     0.009 C 
BRANCH  15  17
ATOM     17  C   UNL     1       0.804  -0.436   0.480  1.00  0.00     0.001 C 
ATOM     18  C   UNL     1       1.105   1.053   0.515  1.00  0.00     0.004 C 
ENDBRANCH  15  17
ENDBRANCH  14  15
ENDBRANCH  13  14
BRANCH  13  19
ATOM     19  C   UNL     1       0.523  -5.010   1.725  1.00  0.00     0.099 C 
ATOM     20  C   UNL     1      -0.942  -5.215   2.104  1.00  0.00     0.022 C 
ENDBRANCH  13  19
ENDBRANCH  10  13
ENDBRANCH   5  10
ENDBRANCH   2   4
ENDBRANCH   1   2
BRANCH   1  21
ATOM     21  C   UNL     1       1.323 -10.628  -3.634  1.00  0.00     0.275 C 
BRANCH  21  22
ATOM     22  C   UNL     1       2.068 -11.398  -2.546  1.00  0.00     0.275 C 
BRANCH  22  23
ATOM     23  O   UNL     1       1.450 -11.149  -1.270  1.00  0.00    -0.458 OA
BRANCH  23  24
ATOM     24  C   UNL     1       2.209 -10.496  -0.362  1.00  0.00     0.338 C 
ATOM     25  O   UNL     1       3.373 -10.152  -0.466  1.00  0.00    -0.246 OA
BRANCH  24  26
ATOM     26  C   UNL     1       1.385 -10.176   0.814  1.00  0.00     0.060 A 
ATOM     27  C   UNL     1       0.421  -9.185   0.693  1.00  0.00     0.016 A 
ATOM     28  C   UNL     1       1.646 -10.744   2.058  1.00  0.00     0.016 A 
ATOM     29  C   UNL     1      -0.219  -8.695   1.826  1.00  0.00     0.010 A 
ATOM     30  C   UNL     1       0.941 -10.297   3.188  1.00  0.00     0.010 A 
ATOM     31  C   UNL     1       0.037  -9.222   3.101  1.00  0.00    -0.014 A 
BRANCH  31  32
ATOM     32  C   UNL     1      -0.571  -8.592   4.320  1.00  0.00     0.031 A 
ATOM     33  C   UNL     1       0.306  -8.107   5.457  1.00  0.00     0.074 A 
ATOM     34  C   UNL     1      -1.899  -8.357   4.403  1.00  0.00     0.049 A 
ATOM     35  N   UNL     1      -0.042  -7.644   6.635  1.00  0.00    -0.248 NA
ATOM     36  C   UNL     1       1.762  -8.154   5.248  1.00  0.00     0.031 C 
ATOM     37  C   UNL     1      -2.889  -8.680   3.374  1.00  0.00     0.029 A 
ATOM     38  N   UNL     1      -2.642  -7.745   5.388  1.00  0.00    -0.354 N 
ATOM     39  C   UNL     1       1.145  -7.426   7.329  1.00  0.00     0.074 A 
ATOM     40  C   UNL     1       2.223  -7.796   6.438  1.00  0.00     0.031 C 
ATOM     41  C   UNL     1      -4.083  -8.191   3.739  1.00  0.00     0.029 A 
ATOM     42  C   UNL     1      -3.977  -7.625   5.079  1.00  0.00     0.049 A 
ATOM     43  H   UNL     1      -2.254  -7.424   6.233  1.00  0.00     0.167 HD
ATOM     44  C   UNL     1       1.327  -6.966   8.592  1.00  0.00     0.031 A 
ATOM     45  C   UNL     1      -5.016  -7.154   5.796  1.00  0.00     0.031 A 
ATOM     46  C   UNL     1       0.272  -6.533   9.471  1.00  0.00     0.049 A 
ATOM     47  C   UNL     1      -4.796  -6.682   7.205  1.00  0.00     0.074 A 
ATOM     48  C   UNL     1       0.372  -6.051  10.767  1.00  0.00     0.029 A 
ATOM     49  N   UNL     1      -1.072  -6.503   9.141  1.00  0.00    -0.354 N 
ATOM     50  N   UNL     1      -3.675  -6.569   7.874  1.00  0.00    -0.248 NA
ATOM     51  C   UNL     1      -5.994  -6.296   7.966  1.00  0.00     0.031 C 
ATOM     52  C   UNL     1      -0.916  -5.772  11.235  1.00  0.00     0.029 A 
ATOM     53  C   UNL     1      -1.812  -6.025  10.211  1.00  0.00     0.049 A 
ATOM     54  H   UNL     1      -1.447  -6.780   8.274  1.00  0.00     0.167 HD
ATOM     55  C   UNL     1      -4.033  -6.095   9.131  1.00  0.00     0.074 A 
ATOM     56  C   UNL     1      -5.468  -5.909   9.119  1.00  0.00     0.031 C 
ATOM     57  C   UNL     1      -3.240  -5.848  10.201  1.00  0.00     0.031 A 
BRANCH  44  58
ATOM     58  C   UNL     1       2.733  -6.958   9.133  1.00  0.00    -0.014 A 
ATOM     59  C   UNL     1       3.688  -6.024   8.707  1.00  0.00     0.009 A 
ATOM     60  C   UNL     1       3.087  -7.884  10.129  1.00  0.00     0.009 A 
ATOM     61  C   UNL     1       4.979  -6.041   9.242  1.00  0.00     0.001 A 
ATOM     62  C   UNL     1       4.368  -7.879  10.684  1.00  0.00     0.001 A 
ATOM     63  C   UNL     1       5.316  -6.963  10.233  1.00  0.00     0.000 A 
ENDBRANCH  44  58
BRANCH  45  64
ATOM     64  C   UNL     1      -6.389  -7.169   5.220  1.00  0.00    -0.014 A 
ATOM     65  C   UNL     1      -7.065  -5.970   4.945  1.00  0.00     0.009 A 
ATOM     66  C   UNL     1      -7.039  -8.387   4.962  1.00  0.00     0.009 A 
ATOM     67  C   UNL     1      -8.368  -5.993   4.441  1.00  0.00     0.001 A 
ATOM     68  C   UNL     1      -8.326  -8.406   4.423  1.00  0.00     0.001 A 
ATOM     69  C   UNL     1      -8.993  -7.210   4.172  1.00  0.00     0.000 A 
ENDBRANCH  45  64
BRANCH  57  70
ATOM     70  C   UNL     1      -3.908  -5.321  11.441  1.00  0.00    -0.014 A 
ATOM     71  C   UNL     1      -4.728  -6.140  12.233  1.00  0.00     0.009 A 
ATOM     72  C   UNL     1      -3.709  -3.986  11.825  1.00  0.00     0.009 A 
ATOM     73  C   UNL     1      -5.369  -5.621  13.360  1.00  0.00     0.001 A 
ATOM     74  C   UNL     1      -4.328  -3.477  12.969  1.00  0.00     0.001 A 
ATOM     75  C   UNL     1      -5.167  -4.291  13.728  1.00  0.00     0.000 A 
ENDBRANCH  57  70
ENDBRANCH  31  32
ENDBRANCH  24  26
ENDBRANCH  23  24
ENDBRANCH  22  23
ENDBRANCH  21  22
ENDBRANCH   1  21
TORSDOF 17
