REMARK SMILES Cc1ccccc1-c1nc(CC(=O)OCCOC(=O)c2ccc(-c3c4nc(c(-c5ccccc5)c5ccc([nH]5)c(-c5ccccc5)c5nc(c(-c6ccccc6)c6ccc3[nH]6)C=C5)C=C4)cc2)cs1
REMARK SMILES IDX 15 1 14 2 12 3 13 4 11 5 10 6 8 7 9 8 69 9 68 10 7 11 1 12
REMARK SMILES IDX 2 13 3 14 4 15 6 16 5 17 16 18 17 19 18 20 19 21 20 22 21 23
REMARK SMILES IDX 67 24 22 25 66 26 23 27 24 28 25 29 60 30 26 31 65 32 59 33
REMARK SMILES IDX 61 34 27 35 64 36 58 37 57 38 28 40 50 41 35 42 49 43 36 44
REMARK SMILES IDX 39 45 48 46 62 47 37 48 38 49 47 51 63 52 40 53 29 54 30 55
REMARK SMILES IDX 34 56 31 57 33 58 32 59 51 60 52 61 56 62 53 63 55 64 54 65
REMARK SMILES IDX 41 66 42 67 46 68 43 69 45 70 44 71
REMARK H PARENT 61 39 39 50
REMARK Flexibility Score: inf
ROOT
ATOM      1  C   UNL     1      -0.427   6.697  -2.086  1.00  0.00     0.274 C 
ENDROOT
BRANCH   1   2
ATOM      2  O   UNL     1       0.442   5.669  -1.630  1.00  0.00    -0.462 OA
BRANCH   2   3
ATOM      3  C   UNL     1       0.796   4.746  -2.572  1.00  0.00     0.312 C 
ATOM      4  O   UNL     1       0.346   4.702  -3.694  1.00  0.00    -0.252 OA
BRANCH   3   5
ATOM      5  C   UNL     1       1.889   3.845  -2.038  1.00  0.00     0.179 C 
BRANCH   5   6
ATOM      6  C   UNL     1       1.525   3.361  -0.694  1.00  0.00     0.063 A 
ATOM      7  C   UNL     1       0.507   1.847   0.513  1.00  0.00     0.123 A 
ATOM      8  N   UNL     1       0.885   2.163  -0.697  1.00  0.00    -0.240 NA
ATOM      9  S   UNL     1       0.883   2.969   1.738  1.00  0.00    -0.122 S 
ATOM     10  C   UNL     1       1.659   3.954   0.550  1.00  0.00     0.091 A 
BRANCH   7  11
ATOM     11  C   UNL     1      -0.131   0.566   0.718  1.00  0.00     0.013 A 
ATOM     12  C   UNL     1       2.138  -0.586   0.428  1.00  0.00     0.045 C 
ATOM     13  C   UNL     1       0.632  -0.606   0.529  1.00  0.00    -0.041 A 
ATOM     14  C   UNL     1      -0.040  -1.812   0.301  1.00  0.00     0.004 A 
ATOM     15  C   UNL     1      -1.436  -1.848   0.255  1.00  0.00     0.000 A 
ATOM     16  C   UNL     1      -1.533   0.515   0.712  1.00  0.00     0.011 A 
ATOM     17  C   UNL     1      -2.182  -0.691   0.473  1.00  0.00     0.001 A 
ENDBRANCH   7  11
ENDBRANCH   5   6
ENDBRANCH   3   5
ENDBRANCH   2   3
ENDBRANCH   1   2
BRANCH   1  18
ATOM     18  C   UNL     1      -0.360   7.903  -1.139  1.00  0.00     0.275 C 
BRANCH  18  19
ATOM     19  O   UNL     1       0.732   7.973  -0.160  1.00  0.00    -0.458 OA
BRANCH  19  20
ATOM     20  C   UNL     1       2.077   7.819  -0.286  1.00  0.00     0.338 C 
ATOM     21  O   UNL     1       2.816   7.736   0.687  1.00  0.00    -0.246 OA
BRANCH  20  22
ATOM     22  C   UNL     1       2.636   7.649  -1.633  1.00  0.00     0.060 A 
ATOM     23  C   UNL     1       3.643   6.695  -1.864  1.00  0.00     0.016 A 
ATOM     24  C   UNL     1       2.065   8.344  -2.683  1.00  0.00     0.016 A 
ATOM     25  C   UNL     1       3.972   6.338  -3.171  1.00  0.00     0.010 A 
ATOM     26  C   UNL     1       2.235   7.855  -3.950  1.00  0.00     0.010 A 
ATOM     27  C   UNL     1       3.223   6.891  -4.204  1.00  0.00    -0.014 A 
BRANCH  27  28
ATOM     28  C   UNL     1       3.585   6.815  -5.609  1.00  0.00     0.031 A 
ATOM     29  C   UNL     1       3.341   5.641  -6.455  1.00  0.00     0.074 A 
ATOM     30  C   UNL     1       4.030   8.010  -6.058  1.00  0.00     0.049 A 
ATOM     31  N   UNL     1       3.893   5.479  -7.605  1.00  0.00    -0.248 NA
ATOM     32  C   UNL     1       2.470   4.527  -6.097  1.00  0.00     0.031 C 
ATOM     33  C   UNL     1       4.257   8.538  -7.388  1.00  0.00     0.029 A 
ATOM     34  N   UNL     1       4.557   9.004  -5.215  1.00  0.00    -0.354 N 
ATOM     35  C   UNL     1       3.207   4.476  -8.257  1.00  0.00     0.074 A 
ATOM     36  C   UNL     1       2.407   3.839  -7.245  1.00  0.00     0.031 C 
ATOM     37  C   UNL     1       5.152   9.546  -7.282  1.00  0.00     0.029 A 
ATOM     38  C   UNL     1       5.636   9.551  -5.900  1.00  0.00     0.049 A 
ATOM     39  H   UNL     1       4.229   9.261  -4.322  1.00  0.00     0.167 HD
ATOM     40  C   UNL     1       3.284   4.425  -9.615  1.00  0.00     0.031 A 
ATOM     41  C   UNL     1       6.882   9.173  -5.476  1.00  0.00     0.031 A 
ATOM     42  C   UNL     1       4.238   5.418 -10.104  1.00  0.00     0.049 A 
ATOM     43  C   UNL     1       7.612   8.364  -6.530  1.00  0.00     0.074 A 
ATOM     44  C   UNL     1       4.104   6.697 -10.616  1.00  0.00     0.029 A 
ATOM     45  N   UNL     1       5.556   5.300  -9.696  1.00  0.00    -0.354 N 
ATOM     46  N   UNL     1       7.029   7.736  -7.515  1.00  0.00    -0.248 NA
ATOM     47  C   UNL     1       9.056   8.163  -6.523  1.00  0.00     0.031 C 
ATOM     48  C   UNL     1       5.358   7.363 -10.461  1.00  0.00     0.029 A 
ATOM     49  C   UNL     1       6.249   6.480  -9.879  1.00  0.00     0.049 A 
ATOM     50  H   UNL     1       5.949   4.478  -9.323  1.00  0.00     0.167 HD
ATOM     51  C   UNL     1       7.968   7.145  -8.311  1.00  0.00     0.074 A 
ATOM     52  C   UNL     1       9.218   7.380  -7.604  1.00  0.00     0.031 C 
ATOM     53  C   UNL     1       7.650   6.519  -9.485  1.00  0.00     0.031 A 
BRANCH  40  54
ATOM     54  C   UNL     1       2.320   3.683 -10.505  1.00  0.00    -0.014 A 
ATOM     55  C   UNL     1       2.070   4.184 -11.798  1.00  0.00     0.009 A 
ATOM     56  C   UNL     1       1.604   2.531 -10.140  1.00  0.00     0.009 A 
ATOM     57  C   UNL     1       1.120   3.613 -12.653  1.00  0.00     0.001 A 
ATOM     58  C   UNL     1       0.636   1.963 -10.986  1.00  0.00     0.001 A 
ATOM     59  C   UNL     1       0.389   2.509 -12.240  1.00  0.00     0.000 A 
ENDBRANCH  40  54
BRANCH  41  60
ATOM     60  C   UNL     1       7.008   8.947  -3.984  1.00  0.00    -0.014 A 
ATOM     61  C   UNL     1       6.482   9.912  -3.088  1.00  0.00     0.009 A 
ATOM     62  C   UNL     1       7.401   7.717  -3.436  1.00  0.00     0.009 A 
ATOM     63  C   UNL     1       6.253   9.621  -1.737  1.00  0.00     0.001 A 
ATOM     64  C   UNL     1       7.206   7.440  -2.070  1.00  0.00     0.001 A 
ATOM     65  C   UNL     1       6.607   8.378  -1.229  1.00  0.00     0.000 A 
ENDBRANCH  41  60
BRANCH  53  66
ATOM     66  C   UNL     1       8.644   5.824 -10.377  1.00  0.00    -0.014 A 
ATOM     67  C   UNL     1       9.977   6.218 -10.508  1.00  0.00     0.009 A 
ATOM     68  C   UNL     1       8.217   4.754 -11.197  1.00  0.00     0.009 A 
ATOM     69  C   UNL     1      10.868   5.498 -11.312  1.00  0.00     0.001 A 
ATOM     70  C   UNL     1       9.091   4.050 -12.021  1.00  0.00     0.001 A 
ATOM     71  C   UNL     1      10.428   4.406 -12.056  1.00  0.00     0.000 A 
ENDBRANCH  53  66
ENDBRANCH  27  28
ENDBRANCH  20  22
ENDBRANCH  19  20
ENDBRANCH  18  19
ENDBRANCH   1  18
TORSDOF 13
