REMARK SMILES COCCS(=O)(=O)N1C[C@@H](C(=O)OCCOC(=O)c2ccc(-c3c4nc(c(-c5ccccc5)c5ccc([nH]5)c(-c5ccccc5)c5nc(c(-c6ccccc6)c6ccc3[nH]6)C=C5)C=C4)cc2)c2ccccc21
REMARK SMILES IDX 14 1 13 2 11 3 12 4 10 5 8 6 9 7 72 8 67 9 71 10 68 11 70 12
REMARK SMILES IDX 69 13 5 14 6 15 7 16 4 17 3 18 2 19 1 20 15 21 16 22 17 23
REMARK SMILES IDX 18 24 19 25 20 26 66 27 21 28 65 29 22 30 23 31 24 32 59 33
REMARK SMILES IDX 25 34 64 35 58 36 60 37 26 38 63 39 57 40 56 41 27 43 49 44
REMARK SMILES IDX 34 45 48 46 35 47 38 48 47 49 61 50 36 51 37 52 46 54 62 55
REMARK SMILES IDX 39 56 28 57 29 58 33 59 30 60 32 61 31 62 50 63 51 64 55 65
REMARK SMILES IDX 52 66 54 67 53 68 40 69 41 70 45 71 42 72 44 73 43 74
REMARK H PARENT 60 42 38 53
REMARK Flexibility Score: inf
ROOT
ATOM      1  C   UNL     1      -2.831  -4.971  -1.592  1.00  0.00     0.274 C 
ENDROOT
BRANCH   1   2
ATOM      2  O   UNL     1      -2.048  -3.830  -1.194  1.00  0.00    -0.462 OA
BRANCH   2   3
ATOM      3  C   UNL     1      -0.791  -4.086  -0.742  1.00  0.00     0.315 C 
ATOM      4  O   UNL     1      -0.287  -5.202  -0.676  1.00  0.00    -0.251 OA
BRANCH   3   5
ATOM      5  C   UNL     1      -0.083  -2.859  -0.235  1.00  0.00     0.152 C 
ATOM      6  N   UNL     1      -0.601  -1.172   1.477  1.00  0.00    -0.269 N 
ATOM      7  C   UNL     1      -0.469  -2.673   1.242  1.00  0.00     0.155 C 
ATOM      8  C   UNL     1      -0.769  -0.618   0.163  1.00  0.00     0.056 A 
ATOM      9  C   UNL     1      -0.468  -1.540  -0.835  1.00  0.00    -0.008 A 
ATOM     10  C   UNL     1      -1.270   0.631  -0.159  1.00  0.00     0.027 A 
ATOM     11  C   UNL     1      -0.522  -1.179  -2.175  1.00  0.00     0.007 A 
ATOM     12  C   UNL     1      -1.361   0.994  -1.506  1.00  0.00     0.002 A 
ATOM     13  C   UNL     1      -0.969   0.101  -2.508  1.00  0.00     0.000 A 
BRANCH   6  14
ATOM     14  S   UNL     1       0.687  -0.626   2.458  1.00  0.00     0.237 S 
ATOM     15  O   UNL     1       1.928  -1.034   1.829  1.00  0.00    -0.206 OA
ATOM     16  O   UNL     1       0.391  -1.121   3.791  1.00  0.00    -0.206 OA
BRANCH  14  17
ATOM     17  C   UNL     1       0.598   1.162   2.533  1.00  0.00     0.188 C 
BRANCH  17  18
ATOM     18  C   UNL     1       1.719   1.840   1.766  1.00  0.00     0.178 C 
BRANCH  18  19
ATOM     19  O   UNL     1       1.446   1.921   0.370  1.00  0.00    -0.384 OA
ATOM     20  C   UNL     1       2.382   1.201  -0.428  1.00  0.00     0.194 C 
ENDBRANCH  18  19
ENDBRANCH  17  18
ENDBRANCH  14  17
ENDBRANCH   6  14
ENDBRANCH   3   5
ENDBRANCH   2   3
ENDBRANCH   1   2
BRANCH   1  21
ATOM     21  C   UNL     1      -2.798  -5.166  -3.106  1.00  0.00     0.275 C 
BRANCH  21  22
ATOM     22  O   UNL     1      -1.458  -5.444  -3.546  1.00  0.00    -0.458 OA
BRANCH  22  23
ATOM     23  C   UNL     1      -0.874  -4.474  -4.283  1.00  0.00     0.338 C 
ATOM     24  O   UNL     1      -1.356  -3.423  -4.664  1.00  0.00    -0.246 OA
BRANCH  23  25
ATOM     25  C   UNL     1       0.519  -4.848  -4.552  1.00  0.00     0.060 A 
ATOM     26  C   UNL     1       1.519  -4.461  -3.656  1.00  0.00     0.016 A 
ATOM     27  C   UNL     1       0.838  -5.486  -5.750  1.00  0.00     0.016 A 
ATOM     28  C   UNL     1       2.857  -4.700  -3.968  1.00  0.00     0.010 A 
ATOM     29  C   UNL     1       2.176  -5.746  -6.048  1.00  0.00     0.010 A 
ATOM     30  C   UNL     1       3.195  -5.341  -5.168  1.00  0.00    -0.014 A 
BRANCH  30  31
ATOM     31  C   UNL     1       4.614  -5.564  -5.531  1.00  0.00     0.031 A 
ATOM     32  C   UNL     1       5.238  -4.770  -6.643  1.00  0.00     0.074 A 
ATOM     33  C   UNL     1       5.335  -6.497  -4.883  1.00  0.00     0.049 A 
ATOM     34  N   UNL     1       6.410  -4.916  -7.206  1.00  0.00    -0.248 NA
ATOM     35  C   UNL     1       4.434  -3.669  -7.197  1.00  0.00     0.031 C 
ATOM     36  C   UNL     1       4.858  -7.308  -3.762  1.00  0.00     0.029 A 
ATOM     37  N   UNL     1       6.620  -6.929  -5.088  1.00  0.00    -0.354 N 
ATOM     38  C   UNL     1       6.479  -3.941  -8.193  1.00  0.00     0.074 A 
ATOM     39  C   UNL     1       5.224  -3.218  -8.162  1.00  0.00     0.031 C 
ATOM     40  C   UNL     1       5.836  -8.147  -3.384  1.00  0.00     0.029 A 
ATOM     41  C   UNL     1       6.986  -7.966  -4.266  1.00  0.00     0.049 A 
ATOM     42  H   UNL     1       7.222  -6.534  -5.760  1.00  0.00     0.167 HD
ATOM     43  C   UNL     1       7.494  -3.673  -9.047  1.00  0.00     0.031 A 
ATOM     44  C   UNL     1       8.105  -8.713  -4.249  1.00  0.00     0.031 A 
ATOM     45  C   UNL     1       8.739  -4.393  -9.082  1.00  0.00     0.049 A 
ATOM     46  C   UNL     1       9.193  -8.436  -5.247  1.00  0.00     0.074 A 
ATOM     47  C   UNL     1       9.826  -4.199  -9.917  1.00  0.00     0.029 A 
ATOM     48  N   UNL     1       9.063  -5.446  -8.241  1.00  0.00    -0.354 N 
ATOM     49  N   UNL     1       9.237  -7.525  -6.188  1.00  0.00    -0.248 NA
ATOM     50  C   UNL     1      10.384  -9.296  -5.182  1.00  0.00     0.031 C 
ATOM     51  C   UNL     1      10.796  -5.159  -9.604  1.00  0.00     0.029 A 
ATOM     52  C   UNL     1      10.328  -5.920  -8.545  1.00  0.00     0.049 A 
ATOM     53  H   UNL     1       8.481  -5.803  -7.532  1.00  0.00     0.167 HD
ATOM     54  C   UNL     1      10.464  -7.691  -6.817  1.00  0.00     0.074 A 
ATOM     55  C   UNL     1      11.141  -8.778  -6.139  1.00  0.00     0.031 C 
ATOM     56  C   UNL     1      10.983  -7.005  -7.864  1.00  0.00     0.031 A 
BRANCH  43  57
ATOM     57  C   UNL     1       7.286  -2.566 -10.039  1.00  0.00    -0.014 A 
ATOM     58  C   UNL     1       7.337  -1.219  -9.646  1.00  0.00     0.009 A 
ATOM     59  C   UNL     1       7.072  -2.873 -11.392  1.00  0.00     0.009 A 
ATOM     60  C   UNL     1       7.151  -0.203 -10.586  1.00  0.00     0.001 A 
ATOM     61  C   UNL     1       6.908  -1.854 -12.332  1.00  0.00     0.001 A 
ATOM     62  C   UNL     1       6.941  -0.521 -11.927  1.00  0.00     0.000 A 
ENDBRANCH  43  57
BRANCH  44  63
ATOM     63  C   UNL     1       8.235  -9.827  -3.276  1.00  0.00    -0.014 A 
ATOM     64  C   UNL     1       9.119  -9.732  -2.192  1.00  0.00     0.009 A 
ATOM     65  C   UNL     1       7.472 -10.996  -3.433  1.00  0.00     0.009 A 
ATOM     66  C   UNL     1       9.251 -10.794  -1.295  1.00  0.00     0.001 A 
ATOM     67  C   UNL     1       7.588 -12.045  -2.521  1.00  0.00     0.001 A 
ATOM     68  C   UNL     1       8.483 -11.947  -1.457  1.00  0.00     0.000 A 
ENDBRANCH  44  63
BRANCH  56  69
ATOM     69  C   UNL     1      12.359  -7.395  -8.319  1.00  0.00    -0.014 A 
ATOM     70  C   UNL     1      12.572  -8.564  -9.065  1.00  0.00     0.009 A 
ATOM     71  C   UNL     1      13.451  -6.564  -8.024  1.00  0.00     0.009 A 
ATOM     72  C   UNL     1      13.859  -8.909  -9.482  1.00  0.00     0.001 A 
ATOM     73  C   UNL     1      14.733  -6.900  -8.462  1.00  0.00     0.001 A 
ATOM     74  C   UNL     1      14.937  -8.076  -9.183  1.00  0.00     0.000 A 
ENDBRANCH  56  69
ENDBRANCH  30  31
ENDBRANCH  23  25
ENDBRANCH  22  23
ENDBRANCH  21  22
ENDBRANCH   1  21
TORSDOF 15
