REMARK SMILES Cc1csc(CSCC[C@H]([NH3+])C(=O)OCCOC(=O)c2ccc(-c3c4nc(c(-c5ccccc5)c5ccc([nH]5)c(-c5ccccc5)c5nc(c(-c6ccccc6)c6ccc3[nH]6)C=C5)C=C4)cc2)n1
REMARK SMILES IDX 14 1 12 2 13 3 10 4 9 5 8 6 7 7 6 8 5 9 1 10 2 11 3 12 68 13
REMARK SMILES IDX 4 14 11 15 15 19 16 20 17 21 18 22 19 23 20 24 21 25 67 26
REMARK SMILES IDX 22 27 66 28 23 29 24 30 25 31 60 32 26 33 65 34 59 35 61 36
REMARK SMILES IDX 27 37 64 38 58 39 57 40 28 42 50 43 35 44 49 45 36 46 39 47
REMARK SMILES IDX 48 48 62 49 37 50 38 51 47 53 63 54 40 55 29 56 30 57 34 58
REMARK SMILES IDX 31 59 33 60 32 61 51 62 52 63 56 64 53 65 55 66 54 67 41 68
REMARK SMILES IDX 42 69 46 70 43 71 45 72 44 73
REMARK H PARENT 11 16 11 17 11 18 61 41 39 52
REMARK Flexibility Score: inf
ROOT
ATOM      1  O   UNL     1       5.503   0.969  -2.194  1.00  0.00    -0.458 OA
ENDROOT
BRANCH   1   2
ATOM      2  C   UNL     1       4.585   0.798  -1.202  1.00  0.00     0.364 C 
ATOM      3  O   UNL     1       4.862   0.494  -0.048  1.00  0.00    -0.245 OA
BRANCH   2   4
ATOM      4  C   UNL     1       3.146   1.021  -1.701  1.00  0.00     0.292 C 
BRANCH   4   5
ATOM      5  C   UNL     1       2.224  -0.190  -1.490  1.00  0.00     0.088 C 
BRANCH   5   6
ATOM      6  C   UNL     1       2.349  -1.393  -2.431  1.00  0.00     0.077 C 
BRANCH   6   7
ATOM      7  S   UNL     1       3.302  -2.839  -1.849  1.00  0.00    -0.154 SA
BRANCH   7   8
ATOM      8  C   UNL     1       5.036  -2.400  -2.148  1.00  0.00     0.137 C 
BRANCH   8   9
ATOM      9  C   UNL     1       5.496  -2.272  -3.575  1.00  0.00     0.103 A 
ATOM     10  C   UNL     1       7.727  -3.397  -6.175  1.00  0.00     0.067 C 
ATOM     11  C   UNL     1       6.759  -2.610  -5.377  1.00  0.00     0.049 A 
ATOM     12  C   UNL     1       6.169  -1.423  -5.753  1.00  0.00     0.090 A 
ATOM     13  N   UNL     1       6.385  -3.076  -4.127  1.00  0.00    -0.246 NA
ATOM     14  S   UNL     1       5.049  -0.939  -4.571  1.00  0.00    -0.126 S 
ENDBRANCH   8   9
ENDBRANCH   7   8
ENDBRANCH   6   7
ENDBRANCH   5   6
ENDBRANCH   4   5
BRANCH   4  15
ATOM     15  N   UNL     1       3.074   1.575  -3.072  1.00  0.00    -0.346 N 
ATOM     16  H   UNL     1       3.436   0.890  -3.735  1.00  0.00     0.345 HD
ATOM     17  H   UNL     1       3.633   2.427  -3.124  1.00  0.00     0.345 HD
ATOM     18  H   UNL     1       2.104   1.791  -3.301  1.00  0.00     0.345 HD
ENDBRANCH   4  15
ENDBRANCH   2   4
ENDBRANCH   1   2
BRANCH   1  19
ATOM     19  C   UNL     1       6.905   0.791  -1.890  1.00  0.00     0.274 C 
BRANCH  19  20
ATOM     20  C   UNL     1       7.697   2.010  -2.368  1.00  0.00     0.275 C 
BRANCH  20  21
ATOM     21  O   UNL     1       7.449   3.109  -1.479  1.00  0.00    -0.458 OA
BRANCH  21  22
ATOM     22  C   UNL     1       6.287   3.763  -1.709  1.00  0.00     0.338 C 
ATOM     23  O   UNL     1       5.585   3.703  -2.708  1.00  0.00    -0.246 OA
BRANCH  22  24
ATOM     24  C   UNL     1       5.839   4.354  -0.440  1.00  0.00     0.060 A 
ATOM     25  C   UNL     1       4.491   4.193  -0.109  1.00  0.00     0.016 A 
ATOM     26  C   UNL     1       6.711   5.025   0.421  1.00  0.00     0.016 A 
ATOM     27  C   UNL     1       3.999   4.709   1.079  1.00  0.00     0.010 A 
ATOM     28  C   UNL     1       6.214   5.562   1.608  1.00  0.00     0.010 A 
ATOM     29  C   UNL     1       4.851   5.425   1.925  1.00  0.00    -0.014 A 
BRANCH  29  30
ATOM     30  C   UNL     1       4.254   6.163   3.054  1.00  0.00     0.031 A 
ATOM     31  C   UNL     1       4.013   7.636   2.895  1.00  0.00     0.074 A 
ATOM     32  C   UNL     1       3.857   5.503   4.154  1.00  0.00     0.049 A 
ATOM     33  N   UNL     1       3.471   8.481   3.732  1.00  0.00    -0.248 NA
ATOM     34  C   UNL     1       4.438   8.239   1.619  1.00  0.00     0.031 C 
ATOM     35  C   UNL     1       3.988   4.060   4.370  1.00  0.00     0.029 A 
ATOM     36  N   UNL     1       3.241   5.959   5.289  1.00  0.00    -0.354 N 
ATOM     37  C   UNL     1       3.509   9.714   3.094  1.00  0.00     0.074 A 
ATOM     38  C   UNL     1       4.146   9.516   1.812  1.00  0.00     0.031 C 
ATOM     39  C   UNL     1       3.448   3.748   5.561  1.00  0.00     0.029 A 
ATOM     40  C   UNL     1       2.974   4.970   6.203  1.00  0.00     0.049 A 
ATOM     41  H   UNL     1       3.012   6.905   5.435  1.00  0.00     0.167 HD
ATOM     42  C   UNL     1       3.050  10.905   3.543  1.00  0.00     0.031 A 
ATOM     43  C   UNL     1       2.418   5.055   7.425  1.00  0.00     0.031 A 
ATOM     44  C   UNL     1       2.417  11.084   4.822  1.00  0.00     0.049 A 
ATOM     45  C   UNL     1       1.979   6.407   7.921  1.00  0.00     0.074 A 
ATOM     46  C   UNL     1       1.902  12.242   5.375  1.00  0.00     0.029 A 
ATOM     47  N   UNL     1       2.219  10.072   5.749  1.00  0.00    -0.354 N 
ATOM     48  N   UNL     1       2.005   7.566   7.306  1.00  0.00    -0.248 NA
ATOM     49  C   UNL     1       1.425   6.457   9.280  1.00  0.00     0.031 C 
ATOM     50  C   UNL     1       1.452  11.943   6.665  1.00  0.00     0.029 A 
ATOM     51  C   UNL     1       1.619  10.584   6.886  1.00  0.00     0.049 A 
ATOM     52  H   UNL     1       2.469   9.128   5.617  1.00  0.00     0.167 HD
ATOM     53  C   UNL     1       1.442   8.477   8.191  1.00  0.00     0.074 A 
ATOM     54  C   UNL     1       1.059   7.727   9.370  1.00  0.00     0.031 C 
ATOM     55  C   UNL     1       1.258   9.813   8.048  1.00  0.00     0.031 A 
BRANCH  42  56
ATOM     56  C   UNL     1       3.269  12.110   2.669  1.00  0.00    -0.014 A 
ATOM     57  C   UNL     1       2.567  12.290   1.467  1.00  0.00     0.009 A 
ATOM     58  C   UNL     1       4.181  13.097   3.076  1.00  0.00     0.009 A 
ATOM     59  C   UNL     1       2.797  13.419   0.677  1.00  0.00     0.001 A 
ATOM     60  C   UNL     1       4.386  14.239   2.300  1.00  0.00     0.001 A 
ATOM     61  C   UNL     1       3.700  14.395   1.097  1.00  0.00     0.000 A 
ENDBRANCH  42  56
BRANCH  43  62
ATOM     62  C   UNL     1       2.261   3.843   8.274  1.00  0.00    -0.014 A 
ATOM     63  C   UNL     1       0.987   3.374   8.628  1.00  0.00     0.009 A 
ATOM     64  C   UNL     1       3.389   3.173   8.774  1.00  0.00     0.009 A 
ATOM     65  C   UNL     1       0.847   2.287   9.495  1.00  0.00     0.001 A 
ATOM     66  C   UNL     1       3.247   2.065   9.611  1.00  0.00     0.001 A 
ATOM     67  C   UNL     1       1.976   1.632   9.983  1.00  0.00     0.000 A 
ENDBRANCH  43  62
BRANCH  55  68
ATOM     68  C   UNL     1       0.578  10.526   9.184  1.00  0.00    -0.014 A 
ATOM     69  C   UNL     1       1.206  10.689  10.429  1.00  0.00     0.009 A 
ATOM     70  C   UNL     1      -0.716  11.040   9.002  1.00  0.00     0.009 A 
ATOM     71  C   UNL     1       0.528  11.299  11.486  1.00  0.00     0.001 A 
ATOM     72  C   UNL     1      -1.375  11.685  10.048  1.00  0.00     0.001 A 
ATOM     73  C   UNL     1      -0.760  11.798  11.294  1.00  0.00     0.000 A 
ENDBRANCH  55  68
ENDBRANCH  29  30
ENDBRANCH  22  24
ENDBRANCH  21  22
ENDBRANCH  20  21
ENDBRANCH  19  20
ENDBRANCH   1  19
TORSDOF 17
