REMARK SMILES Cc1ccc(OCC(=O)NNC(=O)[C@H]2CCCC[C@@H]2C(=O)OCCOC(=O)c2ccc(-c3c4nc(c(-c5ccccc5)c5ccc([nH]5)c(-c5ccccc5)c5nc(c(-c6ccccc6)c6ccc3[nH]6)C=C5)C=C4)cc2)cc1
REMARK SMILES IDX 22 1 20 2 21 3 19 4 14 5 15 6 16 7 18 8 17 9 12 10 11 11
REMARK SMILES IDX 13 13 10 14 8 15 9 16 7 18 6 19 5 20 1 21 2 22 3 23 77 24
REMARK SMILES IDX 4 25 76 26 23 27 24 28 25 29 26 30 27 31 28 32 29 33 75 34
REMARK SMILES IDX 30 35 74 36 31 37 32 38 33 39 68 40 34 41 73 42 67 43 69 44
REMARK SMILES IDX 35 45 72 46 66 47 65 48 36 50 58 51 43 52 57 53 44 54 47 55
REMARK SMILES IDX 56 56 70 57 45 58 46 59 55 61 71 62 48 63 37 64 38 65 42 66
REMARK SMILES IDX 39 67 41 68 40 69 59 70 60 71 64 72 61 73 63 74 62 75 49 76
REMARK SMILES IDX 50 77 54 78 51 79 53 80 52 81
REMARK H PARENT 11 12 10 17 69 49 47 60
REMARK Flexibility Score: inf
ROOT
ATOM      1  O   UNL     1      -4.807   4.249   4.494  1.00  0.00    -0.462 OA
ENDROOT
BRANCH   1   2
ATOM      2  C   UNL     1      -4.988   3.275   5.433  1.00  0.00     0.309 C 
ATOM      3  O   UNL     1      -6.083   2.979   5.899  1.00  0.00    -0.252 OA
BRANCH   2   4
ATOM      4  C   UNL     1      -3.677   2.663   5.909  1.00  0.00     0.111 C 
ATOM      5  C   UNL     1      -3.689   1.122   5.849  1.00  0.00     0.094 C 
ATOM      6  C   UNL     1      -4.645   0.493   6.883  1.00  0.00     0.014 C 
ATOM      7  C   UNL     1      -4.506   1.056   8.299  1.00  0.00     0.001 C 
ATOM      8  C   UNL     1      -3.427   3.167   7.337  1.00  0.00     0.016 C 
ATOM      9  C   UNL     1      -4.398   2.575   8.363  1.00  0.00     0.001 C 
BRANCH   5  10
ATOM     10  C   UNL     1      -2.279   0.557   6.061  1.00  0.00     0.242 C 
ATOM     11  N   UNL     1      -1.422   0.409   5.009  1.00  0.00    -0.267 N 
ATOM     12  H   UNL     1      -0.560  -0.027   5.199  1.00  0.00     0.191 HD
ATOM     13  O   UNL     1      -1.861   0.224   7.171  1.00  0.00    -0.273 OA
BRANCH  11  14
ATOM     14  N   UNL     1      -1.640   0.808   3.703  1.00  0.00    -0.265 N 
ATOM     15  C   UNL     1      -0.620   1.227   2.876  1.00  0.00     0.276 C 
ATOM     16  O   UNL     1      -0.857   1.476   1.693  1.00  0.00    -0.269 OA
ATOM     17  H   UNL     1      -2.559   0.793   3.350  1.00  0.00     0.191 HD
BRANCH  15  18
ATOM     18  C   UNL     1       0.807   1.290   3.439  1.00  0.00     0.331 C 
BRANCH  18  19
ATOM     19  O   UNL     1       0.951   1.886   4.718  1.00  0.00    -0.484 OA
BRANCH  19  20
ATOM     20  C   UNL     1       0.829   3.245   4.806  1.00  0.00     0.120 A 
ATOM     21  C   UNL     1       0.585   7.493   5.517  1.00  0.00     0.044 C 
ATOM     22  C   UNL     1       0.648   6.016   5.268  1.00  0.00    -0.051 A 
ATOM     23  C   UNL     1       0.848   5.132   6.333  1.00  0.00     0.007 A 
ATOM     24  C   UNL     1       0.533   5.500   3.974  1.00  0.00     0.007 A 
ATOM     25  C   UNL     1       0.936   3.757   6.101  1.00  0.00     0.047 A 
ATOM     26  C   UNL     1       0.622   4.123   3.743  1.00  0.00     0.047 A 
ENDBRANCH  19  20
ENDBRANCH  18  19
ENDBRANCH  15  18
ENDBRANCH  11  14
ENDBRANCH   5  10
ENDBRANCH   2   4
ENDBRANCH   1   2
BRANCH   1  27
ATOM     27  C   UNL     1      -6.013   4.966   4.183  1.00  0.00     0.274 C 
BRANCH  27  28
ATOM     28  C   UNL     1      -6.023   5.566   2.774  1.00  0.00     0.275 C 
BRANCH  28  29
ATOM     29  O   UNL     1      -5.333   4.841   1.723  1.00  0.00    -0.458 OA
BRANCH  29  30
ATOM     30  C   UNL     1      -5.520   3.564   1.318  1.00  0.00     0.338 C 
ATOM     31  O   UNL     1      -4.855   3.044   0.432  1.00  0.00    -0.246 OA
BRANCH  30  32
ATOM     32  C   UNL     1      -6.488   2.759   2.063  1.00  0.00     0.060 A 
ATOM     33  C   UNL     1      -6.011   1.641   2.757  1.00  0.00     0.016 A 
ATOM     34  C   UNL     1      -7.828   3.138   2.126  1.00  0.00     0.016 A 
ATOM     35  C   UNL     1      -6.856   0.969   3.631  1.00  0.00     0.010 A 
ATOM     36  C   UNL     1      -8.662   2.484   3.016  1.00  0.00     0.010 A 
ATOM     37  C   UNL     1      -8.170   1.422   3.789  1.00  0.00    -0.014 A 
BRANCH  37  38
ATOM     38  C   UNL     1      -9.150   0.654   4.547  1.00  0.00     0.031 A 
ATOM     39  C   UNL     1      -9.182   0.610   6.024  1.00  0.00     0.074 A 
ATOM     40  C   UNL     1      -9.911  -0.181   3.809  1.00  0.00     0.049 A 
ATOM     41  N   UNL     1      -9.428  -0.467   6.699  1.00  0.00    -0.248 NA
ATOM     42  C   UNL     1      -8.884   1.764   6.871  1.00  0.00     0.031 C 
ATOM     43  C   UNL     1     -11.016  -1.025   4.232  1.00  0.00     0.029 A 
ATOM     44  N   UNL     1      -9.599  -0.631   2.521  1.00  0.00    -0.354 N 
ATOM     45  C   UNL     1      -9.576  -0.096   8.017  1.00  0.00     0.074 A 
ATOM     46  C   UNL     1      -9.118   1.271   8.096  1.00  0.00     0.031 C 
ATOM     47  C   UNL     1     -11.094  -2.061   3.376  1.00  0.00     0.029 A 
ATOM     48  C   UNL     1      -9.928  -1.982   2.499  1.00  0.00     0.049 A 
ATOM     49  H   UNL     1      -9.223  -0.100   1.782  1.00  0.00     0.167 HD
ATOM     50  C   UNL     1     -10.243  -0.897   8.891  1.00  0.00     0.031 A 
ATOM     51  C   UNL     1      -9.018  -2.974   2.292  1.00  0.00     0.031 A 
ATOM     52  C   UNL     1     -10.795  -2.070   8.236  1.00  0.00     0.049 A 
ATOM     53  C   UNL     1      -9.130  -4.062   3.323  1.00  0.00     0.074 A 
ATOM     54  C   UNL     1     -12.036  -2.291   7.663  1.00  0.00     0.029 A 
ATOM     55  N   UNL     1      -9.964  -3.090   7.803  1.00  0.00    -0.354 N 
ATOM     56  N   UNL     1      -9.460  -3.857   4.566  1.00  0.00    -0.248 NA
ATOM     57  C   UNL     1      -8.826  -5.454   3.034  1.00  0.00     0.031 C 
ATOM     58  C   UNL     1     -11.952  -3.457   6.870  1.00  0.00     0.029 A 
ATOM     59  C   UNL     1     -10.667  -3.954   6.984  1.00  0.00     0.049 A 
ATOM     60  H   UNL     1      -9.014  -3.186   8.042  1.00  0.00     0.167 HD
ATOM     61  C   UNL     1      -9.547  -5.069   5.207  1.00  0.00     0.074 A 
ATOM     62  C   UNL     1      -9.062  -6.025   4.227  1.00  0.00     0.031 C 
ATOM     63  C   UNL     1     -10.047  -5.168   6.475  1.00  0.00     0.031 A 
BRANCH  50  64
ATOM     64  C   UNL     1     -10.705  -0.412  10.239  1.00  0.00    -0.014 A 
ATOM     65  C   UNL     1     -12.020  -0.687  10.661  1.00  0.00     0.009 A 
ATOM     66  C   UNL     1      -9.903   0.338  11.114  1.00  0.00     0.009 A 
ATOM     67  C   UNL     1     -12.542  -0.169  11.851  1.00  0.00     0.001 A 
ATOM     68  C   UNL     1     -10.427   0.873  12.303  1.00  0.00     0.001 A 
ATOM     69  C   UNL     1     -11.751   0.631  12.663  1.00  0.00     0.000 A 
ENDBRANCH  50  64
BRANCH  51  70
ATOM     70  C   UNL     1      -7.713  -2.606   1.664  1.00  0.00    -0.014 A 
ATOM     71  C   UNL     1      -7.684  -1.992   0.397  1.00  0.00     0.009 A 
ATOM     72  C   UNL     1      -6.517  -2.660   2.397  1.00  0.00     0.009 A 
ATOM     73  C   UNL     1      -6.515  -1.398  -0.091  1.00  0.00     0.001 A 
ATOM     74  C   UNL     1      -5.342  -2.082   1.898  1.00  0.00     0.001 A 
ATOM     75  C   UNL     1      -5.346  -1.435   0.664  1.00  0.00     0.000 A 
ENDBRANCH  51  70
BRANCH  63  76
ATOM     76  C   UNL     1     -10.129  -6.392   7.364  1.00  0.00    -0.014 A 
ATOM     77  C   UNL     1      -9.875  -7.709   6.974  1.00  0.00     0.009 A 
ATOM     78  C   UNL     1     -10.505  -6.211   8.719  1.00  0.00     0.009 A 
ATOM     79  C   UNL     1      -9.942  -8.772   7.889  1.00  0.00     0.001 A 
ATOM     80  C   UNL     1     -10.582  -7.263   9.633  1.00  0.00     0.001 A 
ATOM     81  C   UNL     1     -10.287  -8.549   9.217  1.00  0.00     0.000 A 
ENDBRANCH  63  76
ENDBRANCH  37  38
ENDBRANCH  30  32
ENDBRANCH  29  30
ENDBRANCH  28  29
ENDBRANCH  27  28
ENDBRANCH   1  27
TORSDOF 16
