REMARK SMILES O=C(OCCOC(=O)[C@H]1Cc2c([nH]c3ccccc23)[C@H](c2c[nH]c3ccccc23)[NH2+]1)c1ccc(-c2c3nc(c(-c4ccccc4)c4ccc([nH]4)c(-c4ccccc4)c4nc(c(-c5ccccc5)c5ccc2[nH]5)C=C4)C=C3)cc1
REMARK SMILES IDX 4 1 3 2 2 3 1 4 31 5 32 6 78 7 33 8 77 9 34 10 35 11 36 12
REMARK SMILES IDX 71 13 37 14 76 15 70 16 72 17 38 18 75 19 69 20 68 21 39 23
REMARK SMILES IDX 61 24 46 25 60 26 47 27 50 28 59 29 73 30 48 31 49 32 58 34
REMARK SMILES IDX 74 35 51 36 40 37 41 38 45 39 42 40 44 41 43 42 62 43 63 44
REMARK SMILES IDX 67 45 64 46 66 47 65 48 52 49 53 50 57 51 54 52 56 53 55 54
REMARK SMILES IDX 5 55 6 56 7 57 8 58 9 59 10 60 30 61 11 62 20 63 12 66 19 67
REMARK SMILES IDX 13 68 14 69 18 70 15 72 17 73 16 74 21 75 22 76 29 77 23 78
REMARK SMILES IDX 24 79 28 80 25 82 27 83 26 84
REMARK H PARENT 72 22 50 33 30 64 30 65 13 71 23 81
REMARK Flexibility Score: inf
ROOT
ATOM      1  C   UNL     1       3.747   1.489  -0.873  1.00  0.00     0.275 C 
ENDROOT
BRANCH   1   2
ATOM      2  O   UNL     1       2.849   0.469  -1.343  1.00  0.00    -0.458 OA
BRANCH   2   3
ATOM      3  C   UNL     1       3.013  -0.877  -1.341  1.00  0.00     0.338 C 
ATOM      4  O   UNL     1       2.197  -1.587  -1.924  1.00  0.00    -0.246 OA
BRANCH   3   5
ATOM      5  C   UNL     1       4.048  -1.543  -0.499  1.00  0.00     0.060 A 
ATOM      6  C   UNL     1       5.372  -1.127  -0.331  1.00  0.00     0.016 A 
ATOM      7  C   UNL     1       3.624  -2.674   0.198  1.00  0.00     0.016 A 
ATOM      8  C   UNL     1       6.164  -1.642   0.713  1.00  0.00     0.010 A 
ATOM      9  C   UNL     1       4.396  -3.175   1.245  1.00  0.00     0.010 A 
ATOM     10  C   UNL     1       5.617  -2.562   1.621  1.00  0.00    -0.014 A 
BRANCH  10  11
ATOM     11  C   UNL     1       6.232  -2.922   3.216  1.00  0.00     0.031 A 
ATOM     12  C   UNL     1       6.729  -4.642   2.676  1.00  0.00     0.074 A 
ATOM     13  C   UNL     1       6.219  -2.095   4.904  1.00  0.00     0.049 A 
ATOM     14  N   UNL     1       7.228  -5.616   3.425  1.00  0.00    -0.248 NA
ATOM     15  C   UNL     1       6.559  -5.154   1.291  1.00  0.00     0.031 C 
ATOM     16  C   UNL     1       5.814  -0.612   5.611  1.00  0.00     0.029 A 
ATOM     17  N   UNL     1       6.564  -2.581   6.333  1.00  0.00    -0.354 N 
ATOM     18  C   UNL     1       7.503  -6.712   2.681  1.00  0.00     0.074 A 
ATOM     19  C   UNL     1       6.938  -6.433   1.387  1.00  0.00     0.031 C 
ATOM     20  C   UNL     1       6.084  -0.535   6.931  1.00  0.00     0.029 A 
ATOM     21  C   UNL     1       6.675  -1.752   7.382  1.00  0.00     0.049 A 
ATOM     22  H   UNL     1       6.710  -3.543   6.479  1.00  0.00     0.167 HD
ATOM     23  C   UNL     1       8.231  -7.772   3.108  1.00  0.00     0.031 A 
ATOM     24  C   UNL     1       7.248  -2.096   8.549  1.00  0.00     0.031 A 
ATOM     25  C   UNL     1       8.858  -7.845   4.428  1.00  0.00     0.049 A 
ATOM     26  C   UNL     1       8.065  -3.403   8.619  1.00  0.00     0.074 A 
ATOM     27  C   UNL     1       9.789  -8.757   4.888  1.00  0.00     0.029 A 
ATOM     28  N   UNL     1       8.631  -6.965   5.502  1.00  0.00    -0.354 N 
ATOM     29  N   UNL     1       8.167  -4.415   7.767  1.00  0.00    -0.248 NA
ATOM     30  C   UNL     1       8.924  -3.539   9.795  1.00  0.00     0.031 C 
ATOM     31  C   UNL     1      10.144  -8.398   6.199  1.00  0.00     0.029 A 
ATOM     32  C   UNL     1       9.487  -7.221   6.569  1.00  0.00     0.049 A 
ATOM     33  H   UNL     1       7.950  -6.255   5.498  1.00  0.00     0.167 HD
ATOM     34  C   UNL     1       9.144  -5.285   8.269  1.00  0.00     0.074 A 
ATOM     35  C   UNL     1       9.582  -4.657   9.518  1.00  0.00     0.031 C 
ATOM     36  C   UNL     1       9.691  -6.459   7.811  1.00  0.00     0.031 A 
BRANCH  23  37
ATOM     37  C   UNL     1       8.431  -8.866   2.102  1.00  0.00    -0.014 A 
ATOM     38  C   UNL     1       9.112  -8.633   0.894  1.00  0.00     0.009 A 
ATOM     39  C   UNL     1       7.885 -10.136   2.332  1.00  0.00     0.009 A 
ATOM     40  C   UNL     1       9.166  -9.617  -0.095  1.00  0.00     0.001 A 
ATOM     41  C   UNL     1       7.969 -11.131   1.354  1.00  0.00     0.001 A 
ATOM     42  C   UNL     1       8.589 -10.863   0.134  1.00  0.00     0.000 A 
ENDBRANCH  23  37
BRANCH  24  43
ATOM     43  C   UNL     1       7.176  -1.115   9.652  1.00  0.00    -0.014 A 
ATOM     44  C   UNL     1       8.256  -0.280   9.966  1.00  0.00     0.009 A 
ATOM     45  C   UNL     1       5.951  -0.923  10.314  1.00  0.00     0.009 A 
ATOM     46  C   UNL     1       8.113   0.725  10.927  1.00  0.00     0.001 A 
ATOM     47  C   UNL     1       5.805   0.094  11.258  1.00  0.00     0.001 A 
ATOM     48  C   UNL     1       6.886   0.917  11.563  1.00  0.00     0.000 A 
ENDBRANCH  24  43
BRANCH  36  49
ATOM     49  C   UNL     1      10.735  -7.057   8.751  1.00  0.00    -0.014 A 
ATOM     50  C   UNL     1      10.351  -7.680   9.952  1.00  0.00     0.009 A 
ATOM     51  C   UNL     1      12.102  -7.008   8.424  1.00  0.00     0.009 A 
ATOM     52  C   UNL     1      11.313  -8.199  10.822  1.00  0.00     0.001 A 
ATOM     53  C   UNL     1      13.058  -7.564   9.278  1.00  0.00     0.001 A 
ATOM     54  C   UNL     1      12.664  -8.147  10.482  1.00  0.00     0.000 A 
ENDBRANCH  36  49
ENDBRANCH  10  11
ENDBRANCH   3   5
ENDBRANCH   2   3
ENDBRANCH   1   2
BRANCH   1  55
ATOM     55  C   UNL     1       3.670   1.815   0.618  1.00  0.00     0.274 C 
BRANCH  55  56
ATOM     56  O   UNL     1       3.188   0.735   1.430  1.00  0.00    -0.458 OA
BRANCH  56  57
ATOM     57  C   UNL     1       1.973   0.929   2.033  1.00  0.00     0.365 C 
ATOM     58  O   UNL     1       1.267   1.913   1.840  1.00  0.00    -0.245 OA
BRANCH  57  59
ATOM     59  C   UNL     1       1.687  -0.155   3.095  1.00  0.00     0.298 C 
ATOM     60  C   UNL     1       0.211  -0.042   3.522  1.00  0.00     0.115 C 
ATOM     61  N   UNL     1       2.012  -1.511   2.583  1.00  0.00    -0.323 N 
ATOM     62  C   UNL     1      -0.130  -1.188   4.404  1.00  0.00    -0.006 A 
ATOM     63  C   UNL     1       1.781  -2.645   3.508  1.00  0.00     0.264 C 
ATOM     64  H   UNL     1       2.999  -1.517   2.327  1.00  0.00     0.347 HD
ATOM     65  H   UNL     1       1.370  -1.665   1.805  1.00  0.00     0.347 HD
ATOM     66  C   UNL     1       0.616  -2.351   4.387  1.00  0.00     0.083 A 
ATOM     67  C   UNL     1      -1.197  -1.360   5.316  1.00  0.00     0.003 A 
ATOM     68  N   UNL     1       0.014  -3.240   5.233  1.00  0.00    -0.353 N 
ATOM     69  C   UNL     1      -1.090  -2.659   5.816  1.00  0.00     0.046 A 
ATOM     70  C   UNL     1      -2.257  -0.545   5.750  1.00  0.00     0.010 A 
ATOM     71  H   UNL     1       0.324  -4.159   5.400  1.00  0.00     0.166 HD
ATOM     72  C   UNL     1      -2.003  -3.188   6.734  1.00  0.00     0.026 A 
ATOM     73  C   UNL     1      -3.169  -1.054   6.679  1.00  0.00     0.001 A 
ATOM     74  C   UNL     1      -3.043  -2.356   7.160  1.00  0.00     0.002 A 
BRANCH  63  75
ATOM     75  C   UNL     1       3.047  -3.177   4.199  1.00  0.00     0.041 A 
ATOM     76  C   UNL     1       3.183  -4.436   4.814  1.00  0.00     0.093 A 
ATOM     77  C   UNL     1       4.370  -2.642   4.141  1.00  0.00     0.009 A 
ATOM     78  N   UNL     1       4.470  -4.846   5.192  1.00  0.00    -0.361 N 
ATOM     79  C   UNL     1       5.438  -3.977   4.767  1.00  0.00     0.046 A 
ATOM     80  C   UNL     1       5.164  -1.131   3.415  1.00  0.00     0.011 A 
ATOM     81  H   UNL     1       4.656  -5.666   5.705  1.00  0.00     0.166 HD
ATOM     82  C   UNL     1       7.326  -3.776   4.710  1.00  0.00     0.026 A 
ATOM     83  C   UNL     1       7.007  -0.954   3.346  1.00  0.00     0.001 A 
ATOM     84  C   UNL     1       8.077  -2.267   3.978  1.00  0.00     0.002 A 
ENDBRANCH  63  75
ENDBRANCH  57  59
ENDBRANCH  56  57
ENDBRANCH  55  56
ENDBRANCH   1  55
TORSDOF 12
