REMARK SMILES CC(C)n1ncnc1C[C@@H](C(=O)OCCOC(=O)c1ccc(-c2c3nc(c(-c4ccccc4)c4ccc([nH]4)c(-c4ccccc4)c4nc(c(-c5ccccc5)c5ccc2[nH]5)C=C4)C=C3)cc1)c1cccc(Br)c1
REMARK SMILES IDX 14 1 13 2 11 3 12 4 10 5 9 6 8 7 4 8 5 9 6 10 7 11 2 12 1 13
REMARK SMILES IDX 3 14 67 15 68 16 73 17 69 18 71 19 70 20 72 21 15 22 16 23
REMARK SMILES IDX 17 24 18 25 19 26 20 27 66 28 21 29 65 30 22 31 23 32 24 33
REMARK SMILES IDX 59 34 25 35 64 36 58 37 60 38 26 39 63 40 57 41 56 42 27 44
REMARK SMILES IDX 49 45 34 46 48 47 35 48 38 49 47 50 61 51 36 52 37 53 46 55
REMARK SMILES IDX 62 56 39 57 28 58 29 59 33 60 30 61 32 62 31 63 50 64 51 65
REMARK SMILES IDX 55 66 52 67 54 68 53 69 40 70 41 71 45 72 42 73 44 74 43 75
REMARK H PARENT 60 43 38 54
REMARK Flexibility Score: inf
ROOT
ATOM      1  C   UNL     1      -5.100   3.070  -1.134  1.00  0.00     0.274 C 
ENDROOT
BRANCH   1   2
ATOM      2  O   UNL     1      -3.688   3.161  -0.873  1.00  0.00    -0.462 OA
BRANCH   2   3
ATOM      3  C   UNL     1      -3.019   4.253  -1.299  1.00  0.00     0.313 C 
ATOM      4  O   UNL     1      -3.512   5.039  -2.100  1.00  0.00    -0.252 OA
BRANCH   3   5
ATOM      5  C   UNL     1      -1.559   4.327  -0.764  1.00  0.00     0.137 C 
BRANCH   5   6
ATOM      6  C   UNL     1      -1.300   3.578   0.583  1.00  0.00     0.097 C 
BRANCH   6   7
ATOM      7  C   UNL     1      -1.542   2.093   0.631  1.00  0.00     0.128 A 
ATOM      8  N   UNL     1      -0.629   1.054   0.586  1.00  0.00    -0.248 N 
ATOM      9  N   UNL     1      -1.266  -0.129   0.788  1.00  0.00    -0.159 NA
ATOM     10  C   UNL     1      -2.524   0.243   0.977  1.00  0.00     0.246 A 
ATOM     11  N   UNL     1      -2.727   1.572   0.899  1.00  0.00    -0.220 NA
BRANCH   8  12
ATOM     12  C   UNL     1       0.830   0.996   0.531  1.00  0.00     0.103 C 
ATOM     13  C   UNL     1       1.311  -0.252  -0.235  1.00  0.00     0.033 C 
ATOM     14  C   UNL     1       1.550   2.211  -0.046  1.00  0.00     0.033 C 
ENDBRANCH   8  12
ENDBRANCH   6   7
ENDBRANCH   5   6
BRANCH   5  15
ATOM     15  C   UNL     1      -0.998   5.787  -0.657  1.00  0.00    -0.032 A 
ATOM     16  C   UNL     1       0.334   5.991  -0.239  1.00  0.00     0.005 A 
ATOM     17  C   UNL     1      -1.731   6.949  -0.971  1.00  0.00     0.020 A 
ATOM     18  C   UNL     1       0.884   7.272  -0.093  1.00  0.00     0.001 A 
ATOM     19  C   UNL     1      -1.166   8.229  -0.868  1.00  0.00     0.018 A 
ATOM     20  C   UNL     1       0.134   8.397  -0.413  1.00  0.00     0.016 A 
ATOM     21  Br  UNL     1      -2.180   9.748  -1.365  1.00  0.00    -0.051 Br
ENDBRANCH   5  15
ENDBRANCH   3   5
ENDBRANCH   2   3
ENDBRANCH   1   2
BRANCH   1  22
ATOM     22  C   UNL     1      -5.886   3.356   0.140  1.00  0.00     0.275 C 
BRANCH  22  23
ATOM     23  O   UNL     1      -5.619   4.681   0.622  1.00  0.00    -0.458 OA
BRANCH  23  24
ATOM     24  C   UNL     1      -4.726   4.721   1.631  1.00  0.00     0.338 C 
ATOM     25  O   UNL     1      -4.079   3.795   2.099  1.00  0.00    -0.246 OA
BRANCH  24  26
ATOM     26  C   UNL     1      -4.694   6.029   2.271  1.00  0.00     0.060 A 
ATOM     27  C   UNL     1      -3.501   6.429   2.889  1.00  0.00     0.016 A 
ATOM     28  C   UNL     1      -5.911   6.663   2.529  1.00  0.00     0.016 A 
ATOM     29  C   UNL     1      -3.548   7.401   3.869  1.00  0.00     0.010 A 
ATOM     30  C   UNL     1      -5.959   7.618   3.522  1.00  0.00     0.010 A 
ATOM     31  C   UNL     1      -4.788   7.937   4.221  1.00  0.00    -0.014 A 
BRANCH  31  32
ATOM     32  C   UNL     1      -4.848   8.855   5.347  1.00  0.00     0.031 A 
ATOM     33  C   UNL     1      -4.489  10.264   5.058  1.00  0.00     0.074 A 
ATOM     34  C   UNL     1      -5.396   8.491   6.522  1.00  0.00     0.049 A 
ATOM     35  N   UNL     1      -3.655  11.024   5.688  1.00  0.00    -0.248 NA
ATOM     36  C   UNL     1      -5.122  10.895   3.888  1.00  0.00     0.031 C 
ATOM     37  C   UNL     1      -6.088   7.232   6.817  1.00  0.00     0.029 A 
ATOM     38  N   UNL     1      -5.591   9.232   7.652  1.00  0.00    -0.354 N 
ATOM     39  C   UNL     1      -3.786  12.282   5.110  1.00  0.00     0.074 A 
ATOM     40  C   UNL     1      -4.601  12.118   3.933  1.00  0.00     0.031 C 
ATOM     41  C   UNL     1      -6.825   7.391   7.938  1.00  0.00     0.029 A 
ATOM     42  C   UNL     1      -6.576   8.717   8.482  1.00  0.00     0.049 A 
ATOM     43  H   UNL     1      -5.084  10.051   7.856  1.00  0.00     0.167 HD
ATOM     44  C   UNL     1      -3.438  13.419   5.768  1.00  0.00     0.031 A 
ATOM     45  C   UNL     1      -7.217   9.361   9.487  1.00  0.00     0.031 A 
ATOM     46  C   UNL     1      -2.507  13.183   6.837  1.00  0.00     0.049 A 
ATOM     47  C   UNL     1      -6.441  10.571   9.839  1.00  0.00     0.074 A 
ATOM     48  C   UNL     1      -1.269  12.577   6.940  1.00  0.00     0.029 A 
ATOM     49  N   UNL     1      -2.952  13.335   8.127  1.00  0.00    -0.354 N 
ATOM     50  N   UNL     1      -5.306  10.556  10.474  1.00  0.00    -0.248 NA
ATOM     51  C   UNL     1      -6.765  11.822   9.171  1.00  0.00     0.031 C 
ATOM     52  C   UNL     1      -1.251  11.979   8.234  1.00  0.00     0.029 A 
ATOM     53  C   UNL     1      -2.471  12.271   8.843  1.00  0.00     0.049 A 
ATOM     54  H   UNL     1      -3.510  14.069   8.471  1.00  0.00     0.167 HD
ATOM     55  C   UNL     1      -4.590  11.618   9.942  1.00  0.00     0.074 A 
ATOM     56  C   UNL     1      -5.582  12.435   9.252  1.00  0.00     0.031 C 
ATOM     57  C   UNL     1      -3.226  11.581   9.863  1.00  0.00     0.031 A 
BRANCH  44  58
ATOM     58  C   UNL     1      -4.279  14.671   5.691  1.00  0.00    -0.014 A 
ATOM     59  C   UNL     1      -3.817  15.843   6.313  1.00  0.00     0.009 A 
ATOM     60  C   UNL     1      -5.632  14.656   5.292  1.00  0.00     0.009 A 
ATOM     61  C   UNL     1      -4.682  16.909   6.586  1.00  0.00     0.001 A 
ATOM     62  C   UNL     1      -6.484  15.738   5.516  1.00  0.00     0.001 A 
ATOM     63  C   UNL     1      -6.016  16.854   6.191  1.00  0.00     0.000 A 
ENDBRANCH  44  58
BRANCH  45  64
ATOM     64  C   UNL     1      -8.574   9.117  10.021  1.00  0.00    -0.014 A 
ATOM     65  C   UNL     1      -8.956   9.633  11.268  1.00  0.00     0.009 A 
ATOM     66  C   UNL     1      -9.580   8.560   9.210  1.00  0.00     0.009 A 
ATOM     67  C   UNL     1     -10.296   9.609  11.678  1.00  0.00     0.001 A 
ATOM     68  C   UNL     1     -10.915   8.521   9.624  1.00  0.00     0.001 A 
ATOM     69  C   UNL     1     -11.274   9.057  10.854  1.00  0.00     0.000 A 
ENDBRANCH  45  64
BRANCH  57  70
ATOM     70  C   UNL     1      -2.495  10.523  10.648  1.00  0.00    -0.014 A 
ATOM     71  C   UNL     1      -2.734   9.149  10.478  1.00  0.00     0.009 A 
ATOM     72  C   UNL     1      -1.440  10.917  11.485  1.00  0.00     0.009 A 
ATOM     73  C   UNL     1      -1.973   8.199  11.164  1.00  0.00     0.001 A 
ATOM     74  C   UNL     1      -0.663   9.967  12.152  1.00  0.00     0.001 A 
ATOM     75  C   UNL     1      -0.936   8.609  11.999  1.00  0.00     0.000 A 
ENDBRANCH  57  70
ENDBRANCH  31  32
ENDBRANCH  24  26
ENDBRANCH  23  24
ENDBRANCH  22  23
ENDBRANCH   1  22
TORSDOF 15
