REMARK SMILES COCCNC(=O)NC(=O)C[N@H+]1CC[C@H](C(=O)OCCOC(=O)c2ccc(-c3c4nc(c(-c5ccccc5)c5ccc([nH]5)c(-c5ccccc5)c5nc(c(-c6ccccc6)c6ccc3[nH]6)C=C5)C=C4)cc2)[C@@H]1C
REMARK SMILES IDX 18 1 16 2 17 3 15 4 12 5 13 6 72 7 14 9 73 10 11 11 9 12
REMARK SMILES IDX 5 13 6 14 7 16 8 17 10 19 4 20 3 21 2 22 1 23 19 24 20 25
REMARK SMILES IDX 21 26 22 27 23 28 24 29 25 30 71 31 26 32 70 33 27 34 28 35
REMARK SMILES IDX 29 36 64 37 30 38 69 39 63 40 65 41 31 42 68 43 62 44 61 45
REMARK SMILES IDX 32 47 54 48 39 49 53 50 40 51 43 52 52 53 66 54 41 55 42 56
REMARK SMILES IDX 51 58 67 59 44 60 33 61 34 62 38 63 35 64 37 65 36 66 55 67
REMARK SMILES IDX 56 68 60 69 57 70 59 71 58 72 45 73 46 74 50 75 47 76 49 77
REMARK SMILES IDX 48 78
REMARK H PARENT 12 8 5 15 8 18 65 46 43 57
REMARK Flexibility Score: inf
ROOT
ATOM      1  O   UNL     1       2.632   1.324   1.221  1.00  0.00    -0.462 OA
ENDROOT
BRANCH   1   2
ATOM      2  C   UNL     1       2.635   0.100   0.640  1.00  0.00     0.315 C 
ATOM      3  O   UNL     1       3.297  -0.801   1.164  1.00  0.00    -0.252 OA
BRANCH   2   4
ATOM      4  C   UNL     1       1.691  -0.081  -0.894  1.00  0.00     0.162 C 
ATOM      5  N   UNL     1       1.339  -2.897  -2.493  1.00  0.00    -0.324 N 
ATOM      6  C   UNL     1       3.143  -2.376  -2.532  1.00  0.00     0.264 C 
ATOM      7  C   UNL     1       0.322  -1.679  -1.369  1.00  0.00     0.195 C 
ATOM      8  H   UNL     1       1.278  -3.826  -2.077  1.00  0.00     0.348 HD
ATOM      9  C   UNL     1       3.372  -0.573  -1.829  1.00  0.00     0.083 C 
ATOM     10  C   UNL     1      -0.293  -2.979  -0.431  1.00  0.00     0.076 C 
BRANCH   5  11
ATOM     11  C   UNL     1       0.750  -3.050  -3.896  1.00  0.00     0.364 C 
BRANCH  11  12
ATOM     12  C   UNL     1       1.476  -2.398  -5.138  1.00  0.00     0.283 C 
ATOM     13  N   UNL     1       1.497   0.384  -3.406  1.00  0.00    -0.335 N 
ATOM     14  C   UNL     1       1.452   0.289  -4.800  1.00  0.00     0.321 C 
ATOM     15  H   UNL     1       1.511   1.254  -2.946  1.00  0.00     0.165 HD
ATOM     16  O   UNL     1       1.415   1.302  -5.491  1.00  0.00    -0.248 OA
ATOM     17  N   UNL     1       1.514  -0.999  -5.407  1.00  0.00    -0.273 N 
ATOM     18  H   UNL     1       1.627  -0.875  -6.377  1.00  0.00     0.175 HD
ATOM     19  O   UNL     1       2.057  -3.129  -5.952  1.00  0.00    -0.268 OA
BRANCH  13  20
ATOM     20  C   UNL     1       1.523  -0.885  -2.665  1.00  0.00     0.146 C 
BRANCH  20  21
ATOM     21  C   UNL     1       2.051  -1.881  -0.792  1.00  0.00     0.181 C 
BRANCH  21  22
ATOM     22  O   UNL     1       1.008  -1.408   0.635  1.00  0.00    -0.383 OA
ATOM     23  C   UNL     1      -0.067  -0.277   0.608  1.00  0.00     0.194 C 
ENDBRANCH  21  22
ENDBRANCH  20  21
ENDBRANCH  13  20
ENDBRANCH  11  12
ENDBRANCH   5  11
ENDBRANCH   2   4
ENDBRANCH   1   2
BRANCH   1  24
ATOM     24  C   UNL     1       3.292   1.249   2.526  1.00  0.00     0.274 C 
BRANCH  24  25
ATOM     25  C   UNL     1       2.271   1.376   3.653  1.00  0.00     0.275 C 
BRANCH  25  26
ATOM     26  O   UNL     1       1.166   0.434   3.587  1.00  0.00    -0.458 OA
BRANCH  26  27
ATOM     27  C   UNL     1      -0.035   1.014   3.869  1.00  0.00     0.338 C 
ATOM     28  O   UNL     1      -0.186   2.214   4.073  1.00  0.00    -0.246 OA
BRANCH  27  29
ATOM     29  C   UNL     1      -1.252   0.150   3.819  1.00  0.00     0.060 A 
ATOM     30  C   UNL     1      -1.361  -1.002   3.058  1.00  0.00     0.016 A 
ATOM     31  C   UNL     1      -2.427   0.690   4.354  1.00  0.00     0.016 A 
ATOM     32  C   UNL     1      -2.626  -1.373   2.565  1.00  0.00     0.010 A 
ATOM     33  C   UNL     1      -3.683   0.151   4.054  1.00  0.00     0.010 A 
ATOM     34  C   UNL     1      -3.814  -0.856   3.095  1.00  0.00    -0.014 A 
BRANCH  34  35
ATOM     35  C   UNL     1      -5.155  -1.427   2.748  1.00  0.00     0.031 A 
ATOM     36  C   UNL     1      -6.346  -0.538   2.465  1.00  0.00     0.074 A 
ATOM     37  C   UNL     1      -5.333  -2.766   2.801  1.00  0.00     0.049 A 
ATOM     38  N   UNL     1      -7.623  -0.837   2.470  1.00  0.00    -0.248 NA
ATOM     39  C   UNL     1      -6.070   0.874   2.153  1.00  0.00     0.031 C 
ATOM     40  C   UNL     1      -4.277  -3.764   3.005  1.00  0.00     0.029 A 
ATOM     41  N   UNL     1      -6.476  -3.526   2.726  1.00  0.00    -0.354 N 
ATOM     42  C   UNL     1      -8.301   0.355   2.230  1.00  0.00     0.074 A 
ATOM     43  C   UNL     1      -7.293   1.384   2.088  1.00  0.00     0.031 C 
ATOM     44  C   UNL     1      -4.808  -4.988   3.023  1.00  0.00     0.029 A 
ATOM     45  C   UNL     1      -6.251  -4.862   2.970  1.00  0.00     0.049 A 
ATOM     46  H   UNL     1      -7.364  -3.154   2.519  1.00  0.00     0.167 HD
ATOM     47  C   UNL     1      -9.640   0.569   2.153  1.00  0.00     0.031 A 
ATOM     48  C   UNL     1      -7.095  -5.879   3.217  1.00  0.00     0.031 A 
ATOM     49  C   UNL     1     -10.630  -0.469   2.306  1.00  0.00     0.049 A 
ATOM     50  C   UNL     1      -8.564  -5.601   3.228  1.00  0.00     0.074 A 
ATOM     51  C   UNL     1     -12.010  -0.367   2.233  1.00  0.00     0.029 A 
ATOM     52  N   UNL     1     -10.345  -1.801   2.572  1.00  0.00    -0.354 N 
ATOM     53  N   UNL     1      -9.190  -4.468   3.021  1.00  0.00    -0.248 NA
ATOM     54  C   UNL     1      -9.444  -6.741   3.504  1.00  0.00     0.031 C 
ATOM     55  C   UNL     1     -12.557  -1.616   2.543  1.00  0.00     0.029 A 
ATOM     56  C   UNL     1     -11.521  -2.520   2.709  1.00  0.00     0.049 A 
ATOM     57  H   UNL     1      -9.439  -2.179   2.653  1.00  0.00     0.167 HD
ATOM     58  C   UNL     1     -10.541  -4.766   3.105  1.00  0.00     0.074 A 
ATOM     59  C   UNL     1     -10.640  -6.188   3.365  1.00  0.00     0.031 C 
ATOM     60  C   UNL     1     -11.604  -3.935   2.974  1.00  0.00     0.031 A 
BRANCH  47  61
ATOM     61  C   UNL     1     -10.116   1.991   1.971  1.00  0.00    -0.014 A 
ATOM     62  C   UNL     1      -9.873   2.715   0.793  1.00  0.00     0.009 A 
ATOM     63  C   UNL     1     -10.843   2.613   3.001  1.00  0.00     0.009 A 
ATOM     64  C   UNL     1     -10.292   4.045   0.676  1.00  0.00     0.001 A 
ATOM     65  C   UNL     1     -11.295   3.928   2.867  1.00  0.00     0.001 A 
ATOM     66  C   UNL     1     -11.004   4.649   1.712  1.00  0.00     0.000 A 
ENDBRANCH  47  61
BRANCH  48  67
ATOM     67  C   UNL     1      -6.558  -7.231   3.533  1.00  0.00    -0.014 A 
ATOM     68  C   UNL     1      -6.765  -8.304   2.655  1.00  0.00     0.009 A 
ATOM     69  C   UNL     1      -5.818  -7.453   4.709  1.00  0.00     0.009 A 
ATOM     70  C   UNL     1      -6.274  -9.575   2.963  1.00  0.00     0.001 A 
ATOM     71  C   UNL     1      -5.291  -8.714   4.992  1.00  0.00     0.001 A 
ATOM     72  C   UNL     1      -5.533  -9.778   4.127  1.00  0.00     0.000 A 
ENDBRANCH  48  67
BRANCH  60  73
ATOM     73  C   UNL     1     -12.970  -4.560   3.053  1.00  0.00    -0.014 A 
ATOM     74  C   UNL     1     -13.470  -5.097   4.249  1.00  0.00     0.009 A 
ATOM     75  C   UNL     1     -13.780  -4.584   1.906  1.00  0.00     0.009 A 
ATOM     76  C   UNL     1     -14.737  -5.683   4.283  1.00  0.00     0.001 A 
ATOM     77  C   UNL     1     -15.062  -5.129   1.954  1.00  0.00     0.001 A 
ATOM     78  C   UNL     1     -15.534  -5.690   3.139  1.00  0.00     0.000 A 
ENDBRANCH  60  73
ENDBRANCH  34  35
ENDBRANCH  27  29
ENDBRANCH  26  27
ENDBRANCH  25  26
ENDBRANCH  24  25
ENDBRANCH   1  24
TORSDOF 16
