REMARK SMILES COc1ccc2c(c1)c(CC(=O)OCCOC(=O)c1ccc(-c3c4nc(c(-c5ccccc5)c5ccc([nH]5)c(-c5ccccc5)c5nc(c(-c6ccccc6)c6ccc3[nH]6)C=C5)C=C4)cc1)c(C)n2Cc1ccc(Br)cc1
REMARK SMILES IDX 14 1 13 2 11 3 12 4 10 5 9 6 3 7 4 8 8 9 5 10 7 11 6 12
REMARK SMILES IDX 69 13 67 14 68 15 2 16 1 17 70 18 71 19 72 20 77 21 73 22
REMARK SMILES IDX 76 23 74 24 75 25 15 26 16 27 17 28 18 29 19 30 20 31 66 32
REMARK SMILES IDX 21 33 65 34 22 35 23 36 24 37 59 38 25 39 64 40 58 41 60 42
REMARK SMILES IDX 26 43 63 44 57 45 56 46 27 48 49 49 34 50 48 51 35 52 38 53
REMARK SMILES IDX 47 54 61 55 36 56 37 57 46 59 62 60 39 61 28 62 29 63 33 64
REMARK SMILES IDX 30 65 32 66 31 67 50 68 51 69 55 70 52 71 54 72 53 73 40 74
REMARK SMILES IDX 41 75 45 76 42 77 44 78 43 79
REMARK H PARENT 60 47 38 58
REMARK Flexibility Score: inf
ROOT
ATOM      1  C   UNL     1      -1.967  -6.866  -1.045  1.00  0.00     0.274 C 
ENDROOT
BRANCH   1   2
ATOM      2  O   UNL     1      -1.399  -6.101  -2.132  1.00  0.00    -0.462 OA
BRANCH   2   3
ATOM      3  C   UNL     1      -2.276  -5.715  -3.087  1.00  0.00     0.310 C 
ATOM      4  O   UNL     1      -3.476  -5.987  -3.071  1.00  0.00    -0.252 OA
BRANCH   3   5
ATOM      5  C   UNL     1      -1.680  -5.021  -4.273  1.00  0.00     0.160 C 
BRANCH   5   6
ATOM      6  C   UNL     1      -0.270  -4.512  -4.309  1.00  0.00    -0.008 A 
ATOM      7  C   UNL     1       1.386  -2.354  -1.573  1.00  0.00     0.119 A 
ATOM      8  C   UNL     1       2.632  -2.272  -2.175  1.00  0.00     0.048 A 
ATOM      9  C   UNL     1       0.391  -3.180  -2.118  1.00  0.00     0.057 A 
ATOM     10  C   UNL     1       2.879  -2.941  -3.377  1.00  0.00     0.031 A 
ATOM     11  C   UNL     1       0.559  -3.775  -3.390  1.00  0.00     0.007 A 
ATOM     12  C   UNL     1       1.818  -3.631  -3.995  1.00  0.00     0.049 A 
ATOM     13  N   UNL     1       1.749  -4.299  -5.202  1.00  0.00    -0.340 N 
ATOM     14  C   UNL     1       0.424  -4.490  -5.516  1.00  0.00     0.020 A 
ATOM     15  C   UNL     1      -0.117  -4.699  -6.891  1.00  0.00     0.065 C 
BRANCH   7  16
ATOM     16  O   UNL     1       1.089  -1.698  -0.405  1.00  0.00    -0.497 OA
ATOM     17  C   UNL     1       1.357  -0.294  -0.460  1.00  0.00     0.278 C 
ENDBRANCH   7  16
BRANCH  13  18
ATOM     18  C   UNL     1       2.883  -4.720  -6.019  1.00  0.00     0.157 C 
BRANCH  18  19
ATOM     19  C   UNL     1       3.100  -6.218  -5.921  1.00  0.00    -0.028 A 
ATOM     20  C   UNL     1       2.228  -7.124  -6.548  1.00  0.00     0.007 A 
ATOM     21  C   UNL     1       4.165  -6.737  -5.172  1.00  0.00     0.007 A 
ATOM     22  C   UNL     1       2.377  -8.503  -6.397  1.00  0.00     0.016 A 
ATOM     23  C   UNL     1       4.339  -8.121  -5.046  1.00  0.00     0.016 A 
ATOM     24  C   UNL     1       3.437  -8.996  -5.648  1.00  0.00     0.017 A 
ATOM     25  Br  UNL     1       3.652 -10.863  -5.452  1.00  0.00    -0.051 Br
ENDBRANCH  18  19
ENDBRANCH  13  18
ENDBRANCH   5   6
ENDBRANCH   3   5
ENDBRANCH   2   3
ENDBRANCH   1   2
BRANCH   1  26
ATOM     26  C   UNL     1      -2.211  -5.973   0.174  1.00  0.00     0.275 C 
BRANCH  26  27
ATOM     27  O   UNL     1      -3.295  -5.079  -0.121  1.00  0.00    -0.458 OA
BRANCH  27  28
ATOM     28  C   UNL     1      -3.007  -3.756  -0.179  1.00  0.00     0.338 C 
ATOM     29  O   UNL     1      -2.075  -3.173   0.345  1.00  0.00    -0.246 OA
BRANCH  28  30
ATOM     30  C   UNL     1      -3.830  -3.221  -1.280  1.00  0.00     0.060 A 
ATOM     31  C   UNL     1      -5.171  -3.587  -1.399  1.00  0.00     0.016 A 
ATOM     32  C   UNL     1      -3.173  -2.565  -2.327  1.00  0.00     0.016 A 
ATOM     33  C   UNL     1      -5.802  -3.431  -2.626  1.00  0.00     0.010 A 
ATOM     34  C   UNL     1      -3.791  -2.450  -3.562  1.00  0.00     0.010 A 
ATOM     35  C   UNL     1      -5.083  -2.939  -3.726  1.00  0.00    -0.014 A 
BRANCH  35  36
ATOM     36  C   UNL     1      -5.801  -2.698  -4.965  1.00  0.00     0.031 A 
ATOM     37  C   UNL     1      -6.499  -1.395  -4.967  1.00  0.00     0.074 A 
ATOM     38  C   UNL     1      -5.869  -3.455  -6.075  1.00  0.00     0.049 A 
ATOM     39  N   UNL     1      -7.758  -1.205  -4.768  1.00  0.00    -0.248 NA
ATOM     40  C   UNL     1      -5.698  -0.172  -5.074  1.00  0.00     0.031 C 
ATOM     41  C   UNL     1      -5.070  -4.599  -6.503  1.00  0.00     0.029 A 
ATOM     42  N   UNL     1      -6.728  -3.267  -7.119  1.00  0.00    -0.354 N 
ATOM     43  C   UNL     1      -7.947   0.166  -4.817  1.00  0.00     0.074 A 
ATOM     44  C   UNL     1      -6.634   0.760  -4.894  1.00  0.00     0.031 C 
ATOM     45  C   UNL     1      -5.358  -4.882  -7.801  1.00  0.00     0.029 A 
ATOM     46  C   UNL     1      -6.481  -4.057  -8.225  1.00  0.00     0.049 A 
ATOM     47  H   UNL     1      -7.467  -2.617  -7.086  1.00  0.00     0.167 HD
ATOM     48  C   UNL     1      -9.186   0.712  -4.932  1.00  0.00     0.031 A 
ATOM     49  C   UNL     1      -7.161  -4.001  -9.396  1.00  0.00     0.031 A 
ATOM     50  C   UNL     1     -10.227  -0.252  -4.692  1.00  0.00     0.049 A 
ATOM     51  C   UNL     1      -8.496  -3.417  -9.116  1.00  0.00     0.074 A 
ATOM     52  C   UNL     1     -10.600  -1.016  -3.603  1.00  0.00     0.029 A 
ATOM     53  N   UNL     1     -10.812  -0.843  -5.787  1.00  0.00    -0.354 N 
ATOM     54  N   UNL     1      -9.423  -4.017  -8.428  1.00  0.00    -0.248 NA
ATOM     55  C   UNL     1      -8.693  -1.990  -9.312  1.00  0.00     0.031 C 
ATOM     56  C   UNL     1     -10.990  -2.274  -4.149  1.00  0.00     0.029 A 
ATOM     57  C   UNL     1     -10.875  -2.193  -5.539  1.00  0.00     0.049 A 
ATOM     58  H   UNL     1     -11.127  -0.384  -6.598  1.00  0.00     0.167 HD
ATOM     59  C   UNL     1     -10.078  -3.001  -7.750  1.00  0.00     0.074 A 
ATOM     60  C   UNL     1      -9.670  -1.775  -8.428  1.00  0.00     0.031 C 
ATOM     61  C   UNL     1     -10.673  -3.222  -6.540  1.00  0.00     0.031 A 
BRANCH  48  62
ATOM     62  C   UNL     1      -9.446   2.059  -5.533  1.00  0.00    -0.014 A 
ATOM     63  C   UNL     1      -8.537   2.699  -6.398  1.00  0.00     0.009 A 
ATOM     64  C   UNL     1     -10.726   2.624  -5.420  1.00  0.00     0.009 A 
ATOM     65  C   UNL     1      -8.875   3.859  -7.097  1.00  0.00     0.001 A 
ATOM     66  C   UNL     1     -11.082   3.761  -6.153  1.00  0.00     0.001 A 
ATOM     67  C   UNL     1     -10.156   4.379  -6.989  1.00  0.00     0.000 A 
ENDBRANCH  48  62
BRANCH  49  68
ATOM     68  C   UNL     1      -6.654  -4.100 -10.781  1.00  0.00    -0.014 A 
ATOM     69  C   UNL     1      -5.346  -3.684 -11.079  1.00  0.00     0.009 A 
ATOM     70  C   UNL     1      -7.551  -4.269 -11.850  1.00  0.00     0.009 A 
ATOM     71  C   UNL     1      -4.967  -3.380 -12.391  1.00  0.00     0.001 A 
ATOM     72  C   UNL     1      -7.173  -3.961 -13.162  1.00  0.00     0.001 A 
ATOM     73  C   UNL     1      -5.887  -3.497 -13.429  1.00  0.00     0.000 A 
ENDBRANCH  49  68
BRANCH  61  74
ATOM     74  C   UNL     1     -10.869  -4.653  -6.086  1.00  0.00    -0.014 A 
ATOM     75  C   UNL     1     -12.134  -5.032  -5.606  1.00  0.00     0.009 A 
ATOM     76  C   UNL     1      -9.817  -5.580  -5.972  1.00  0.00     0.009 A 
ATOM     77  C   UNL     1     -12.341  -6.288  -5.029  1.00  0.00     0.001 A 
ATOM     78  C   UNL     1     -10.031  -6.849  -5.421  1.00  0.00     0.001 A 
ATOM     79  C   UNL     1     -11.291  -7.198  -4.941  1.00  0.00     0.000 A 
ENDBRANCH  61  74
ENDBRANCH  35  36
ENDBRANCH  28  30
ENDBRANCH  27  28
ENDBRANCH  26  27
ENDBRANCH   1  26
TORSDOF 15
