REMARK SMILES O=C(OCCOC(=O)[C@H](O)Cc1ccc(O)cc1)c1ccc(-c2c3nc(c(-c4ccccc4)c4ccc([nH]4)c(-c4ccccc4)c4nc(c(-c5ccccc5)c5ccc2[nH]5)C=C4)C=C3)cc1
REMARK SMILES IDX 5 1 4 2 3 3 2 4 1 5 19 6 20 7 66 8 21 9 65 10 22 11 23 12
REMARK SMILES IDX 24 13 59 14 25 15 64 16 58 17 60 18 26 19 63 20 57 21 56 22
REMARK SMILES IDX 27 24 49 25 34 26 48 27 35 28 38 29 47 30 61 31 36 32 37 33
REMARK SMILES IDX 46 35 62 36 39 37 28 38 29 39 33 40 30 41 32 42 31 43 50 44
REMARK SMILES IDX 51 45 55 46 52 47 54 48 53 49 40 50 41 51 45 52 42 53 44 54
REMARK SMILES IDX 43 55 6 56 7 57 8 58 9 59 11 60 12 61 13 62 18 63 14 64
REMARK SMILES IDX 17 65 15 66 16 67 10 69
REMARK H PARENT 60 23 38 34 16 68 10 70
REMARK Flexibility Score: inf
ROOT
ATOM      1  C   UNL     1       4.337   3.090   3.929  1.00  0.00     0.274 C 
ENDROOT
BRANCH   1   2
ATOM      2  C   UNL     1       3.336   2.254   4.732  1.00  0.00     0.275 C 
BRANCH   2   3
ATOM      3  O   UNL     1       2.769   1.142   4.013  1.00  0.00    -0.458 OA
BRANCH   3   4
ATOM      4  C   UNL     1       1.657   1.080   3.244  1.00  0.00     0.338 C 
ATOM      5  O   UNL     1       1.218  -0.023   2.922  1.00  0.00    -0.246 OA
BRANCH   4   6
ATOM      6  C   UNL     1       1.028   2.280   2.614  1.00  0.00     0.060 A 
ATOM      7  C   UNL     1       0.943   3.550   3.186  1.00  0.00     0.016 A 
ATOM      8  C   UNL     1       0.466   2.092   1.333  1.00  0.00     0.016 A 
ATOM      9  C   UNL     1       0.384   4.618   2.480  1.00  0.00     0.010 A 
ATOM     10  C   UNL     1      -0.092   3.157   0.620  1.00  0.00     0.010 A 
ATOM     11  C   UNL     1      -0.144   4.427   1.200  1.00  0.00    -0.014 A 
BRANCH  11  12
ATOM     12  C   UNL     1      -0.901   5.530   0.575  1.00  0.00     0.031 A 
ATOM     13  C   UNL     1      -2.389   5.556   0.747  1.00  0.00     0.074 A 
ATOM     14  C   UNL     1      -0.266   6.543  -0.040  1.00  0.00     0.049 A 
ATOM     15  N   UNL     1      -3.235   6.506   0.448  1.00  0.00    -0.248 NA
ATOM     16  C   UNL     1      -3.000   4.372   1.373  1.00  0.00     0.031 C 
ATOM     17  C   UNL     1       1.180   6.656  -0.207  1.00  0.00     0.029 A 
ATOM     18  N   UNL     1      -0.762   7.675  -0.633  1.00  0.00    -0.354 N 
ATOM     19  C   UNL     1      -4.468   6.058   0.900  1.00  0.00     0.074 A 
ATOM     20  C   UNL     1      -4.274   4.726   1.429  1.00  0.00     0.031 C 
ATOM     21  C   UNL     1       1.456   7.781  -0.890  1.00  0.00     0.029 A 
ATOM     22  C   UNL     1       0.206   8.464  -1.202  1.00  0.00     0.049 A 
ATOM     23  H   UNL     1      -1.720   7.901  -0.648  1.00  0.00     0.167 HD
ATOM     24  C   UNL     1      -5.652   6.712   0.904  1.00  0.00     0.031 A 
ATOM     25  C   UNL     1       0.090   9.610  -1.899  1.00  0.00     0.031 A 
ATOM     26  C   UNL     1      -5.853   8.006   0.317  1.00  0.00     0.049 A 
ATOM     27  C   UNL     1      -1.267  10.241  -2.035  1.00  0.00     0.074 A 
ATOM     28  C   UNL     1      -7.013   8.756   0.250  1.00  0.00     0.029 A 
ATOM     29  N   UNL     1      -4.865   8.731  -0.333  1.00  0.00    -0.354 N 
ATOM     30  N   UNL     1      -2.415   9.839  -1.545  1.00  0.00    -0.248 NA
ATOM     31  C   UNL     1      -1.337  11.502  -2.785  1.00  0.00     0.031 C 
ATOM     32  C   UNL     1      -6.737   9.914  -0.487  1.00  0.00     0.029 A 
ATOM     33  C   UNL     1      -5.394   9.908  -0.832  1.00  0.00     0.049 A 
ATOM     34  H   UNL     1      -3.927   8.449  -0.426  1.00  0.00     0.167 HD
ATOM     35  C   UNL     1      -3.333  10.825  -1.875  1.00  0.00     0.074 A 
ATOM     36  C   UNL     1      -2.610  11.836  -2.622  1.00  0.00     0.031 C 
ATOM     37  C   UNL     1      -4.652  10.900  -1.567  1.00  0.00     0.031 A 
BRANCH  24  38
ATOM     38  C   UNL     1      -6.804   6.000   1.547  1.00  0.00    -0.014 A 
ATOM     39  C   UNL     1      -6.868   5.851   2.943  1.00  0.00     0.009 A 
ATOM     40  C   UNL     1      -7.811   5.433   0.754  1.00  0.00     0.009 A 
ATOM     41  C   UNL     1      -7.896   5.109   3.528  1.00  0.00     0.001 A 
ATOM     42  C   UNL     1      -8.849   4.710   1.344  1.00  0.00     0.001 A 
ATOM     43  C   UNL     1      -8.885   4.539   2.728  1.00  0.00     0.000 A 
ENDBRANCH  24  38
BRANCH  25  44
ATOM     44  C   UNL     1       1.289  10.239  -2.509  1.00  0.00    -0.014 A 
ATOM     45  C   UNL     1       1.837  11.418  -1.983  1.00  0.00     0.009 A 
ATOM     46  C   UNL     1       1.880   9.665  -3.646  1.00  0.00     0.009 A 
ATOM     47  C   UNL     1       2.937  12.022  -2.598  1.00  0.00     0.001 A 
ATOM     48  C   UNL     1       2.993  10.258  -4.246  1.00  0.00     0.001 A 
ATOM     49  C   UNL     1       3.515  11.441  -3.726  1.00  0.00     0.000 A 
ENDBRANCH  25  44
BRANCH  37  50
ATOM     50  C   UNL     1      -5.376  12.148  -1.980  1.00  0.00    -0.014 A 
ATOM     51  C   UNL     1      -5.719  12.389  -3.318  1.00  0.00     0.009 A 
ATOM     52  C   UNL     1      -5.746  13.081  -0.999  1.00  0.00     0.009 A 
ATOM     53  C   UNL     1      -6.391  13.561  -3.670  1.00  0.00     0.001 A 
ATOM     54  C   UNL     1      -6.442  14.237  -1.350  1.00  0.00     0.001 A 
ATOM     55  C   UNL     1      -6.755  14.481  -2.686  1.00  0.00     0.000 A 
ENDBRANCH  37  50
ENDBRANCH  11  12
ENDBRANCH   4   6
ENDBRANCH   3   4
ENDBRANCH   2   3
ENDBRANCH   1   2
BRANCH   1  56
ATOM     56  O   UNL     1       3.961   3.246   2.550  1.00  0.00    -0.460 OA
BRANCH  56  57
ATOM     57  C   UNL     1       4.571   2.380   1.688  1.00  0.00     0.335 C 
ATOM     58  O   UNL     1       5.448   1.583   2.006  1.00  0.00    -0.249 OA
BRANCH  57  59
ATOM     59  C   UNL     1       3.920   2.400   0.301  1.00  0.00     0.228 C 
BRANCH  59  60
ATOM     60  C   UNL     1       4.193   3.698  -0.467  1.00  0.00     0.079 C 
BRANCH  60  61
ATOM     61  C   UNL     1       3.360   3.938  -1.720  1.00  0.00    -0.045 A 
ATOM     62  C   UNL     1       3.466   5.180  -2.370  1.00  0.00     0.007 A 
ATOM     63  C   UNL     1       2.509   2.974  -2.282  1.00  0.00     0.007 A 
ATOM     64  C   UNL     1       2.725   5.459  -3.525  1.00  0.00     0.046 A 
ATOM     65  C   UNL     1       1.774   3.248  -3.439  1.00  0.00     0.046 A 
ATOM     66  C   UNL     1       1.883   4.488  -4.049  1.00  0.00     0.115 A 
BRANCH  66  67
ATOM     67  O   UNL     1       1.146   4.707  -5.175  1.00  0.00    -0.508 OA
ATOM     68  H   UNL     1       1.196   5.534  -5.613  1.00  0.00     0.293 HD
ENDBRANCH  66  67
ENDBRANCH  60  61
ENDBRANCH  59  60
BRANCH  59  69
ATOM     69  O   UNL     1       4.390   1.282  -0.463  1.00  0.00    -0.381 OA
ATOM     70  H   UNL     1       5.349   1.354  -0.585  1.00  0.00     0.211 HD
ENDBRANCH  59  69
ENDBRANCH  57  59
ENDBRANCH  56  57
ENDBRANCH   1  56
TORSDOF 15
