REMARK SMILES Cn1ncc2c(NCCC3=CCCCC3)c(C(=O)OCCOC(=O)c3ccc(-c4c5nc(c(-c6ccccc6)c6ccc([nH]6)c(-c6ccccc6)c6nc(c(-c7ccccc7)c7ccc4[nH]7)C=C6)C=C5)cc3)cnc21
REMARK SMILES IDX 20 1 19 2 17 3 18 4 16 5 1 6 2 7 3 8 75 9 4 10 5 11 74 12
REMARK SMILES IDX 6 13 73 14 7 15 8 17 9 18 10 19 11 20 15 21 12 22 14 23
REMARK SMILES IDX 13 24 21 25 22 26 23 27 24 28 25 29 26 30 72 31 27 32 71 33
REMARK SMILES IDX 28 34 29 35 30 36 65 37 31 38 70 39 64 40 66 41 32 42 69 43
REMARK SMILES IDX 63 44 62 45 33 47 55 48 40 49 54 50 41 51 44 52 53 53 67 54
REMARK SMILES IDX 42 55 43 56 52 58 68 59 45 60 34 61 35 62 39 63 36 64 38 65
REMARK SMILES IDX 37 66 56 67 57 68 61 69 58 70 60 71 59 72 46 73 47 74 51 75
REMARK SMILES IDX 48 76 50 77 49 78
REMARK H PARENT 7 16 66 46 44 57
REMARK Flexibility Score: inf
ROOT
ATOM      1  C   UNL     1       0.145   6.803   5.117  1.00  0.00     0.275 C 
ENDROOT
BRANCH   1   2
ATOM      2  O   UNL     1       0.230   5.699   4.187  1.00  0.00    -0.458 OA
BRANCH   2   3
ATOM      3  C   UNL     1       0.506   4.482   4.733  1.00  0.00     0.341 C 
ATOM      4  O   UNL     1       0.772   4.309   5.914  1.00  0.00    -0.246 OA
BRANCH   3   5
ATOM      5  C   UNL     1       0.411   3.374   3.742  1.00  0.00     0.102 A 
ATOM      6  C   UNL     1       1.140   0.370  -0.348  1.00  0.00     0.176 C 
ATOM      7  N   UNL     1       0.661   0.413   1.010  1.00  0.00    -0.250 N 
ATOM      8  N   UNL     1       0.257  -0.717   1.618  1.00  0.00    -0.179 NA
ATOM      9  C   UNL     1       0.599   1.524   1.808  1.00  0.00     0.159 A 
ATOM     10  C   UNL     1      -0.080  -0.293   2.841  1.00  0.00     0.147 A 
ATOM     11  C   UNL     1       0.137   1.095   3.051  1.00  0.00     0.063 A 
ATOM     12  N   UNL     1       0.936   2.772   1.435  1.00  0.00    -0.236 NA
ATOM     13  C   UNL     1       0.004   2.045   4.100  1.00  0.00     0.063 A 
ATOM     14  C   UNL     1       0.820   3.662   2.442  1.00  0.00     0.131 A 
BRANCH  13  15
ATOM     15  N   UNL     1      -0.440   1.767   5.386  1.00  0.00    -0.383 N 
ATOM     16  H   UNL     1      -0.605   2.562   5.943  1.00  0.00     0.160 HD
BRANCH  15  17
ATOM     17  C   UNL     1      -0.705   0.498   6.050  1.00  0.00     0.117 C 
BRANCH  17  18
ATOM     18  C   UNL     1       0.115   0.341   7.349  1.00  0.00     0.052 C 
BRANCH  18  19
ATOM     19  C   UNL     1      -0.283   1.216   8.527  1.00  0.00    -0.072 C 
ATOM     20  C   UNL     1      -0.191   2.555   8.482  1.00  0.00    -0.028 C 
ATOM     21  C   UNL     1      -0.674   0.515   9.807  1.00  0.00     0.031 C 
ATOM     22  C   UNL     1      -0.491   3.483   9.611  1.00  0.00     0.027 C 
ATOM     23  C   UNL     1      -1.193   1.454  10.905  1.00  0.00     0.005 C 
ATOM     24  C   UNL     1      -0.421   2.770  10.953  1.00  0.00     0.004 C 
ENDBRANCH  18  19
ENDBRANCH  17  18
ENDBRANCH  15  17
ENDBRANCH  13  15
ENDBRANCH   3   5
ENDBRANCH   2   3
ENDBRANCH   1   2
BRANCH   1  25
ATOM     25  C   UNL     1      -1.292   7.130   5.530  1.00  0.00     0.275 C 
BRANCH  25  26
ATOM     26  O   UNL     1      -1.877   6.142   6.385  1.00  0.00    -0.458 OA
BRANCH  26  27
ATOM     27  C   UNL     1      -2.419   5.121   5.693  1.00  0.00     0.338 C 
ATOM     28  O   UNL     1      -2.249   4.839   4.517  1.00  0.00    -0.246 OA
BRANCH  27  29
ATOM     29  C   UNL     1      -3.478   4.467   6.446  1.00  0.00     0.060 A 
ATOM     30  C   UNL     1      -3.744   3.147   6.084  1.00  0.00     0.016 A 
ATOM     31  C   UNL     1      -4.416   5.274   7.104  1.00  0.00     0.016 A 
ATOM     32  C   UNL     1      -5.026   2.682   6.222  1.00  0.00     0.010 A 
ATOM     33  C   UNL     1      -5.702   4.800   7.249  1.00  0.00     0.010 A 
ATOM     34  C   UNL     1      -6.007   3.541   6.733  1.00  0.00    -0.014 A 
BRANCH  34  35
ATOM     35  C   UNL     1      -7.348   2.998   6.802  1.00  0.00     0.031 A 
ATOM     36  C   UNL     1      -7.430   1.821   7.704  1.00  0.00     0.074 A 
ATOM     37  C   UNL     1      -8.391   3.544   6.152  1.00  0.00     0.049 A 
ATOM     38  N   UNL     1      -7.779   0.611   7.414  1.00  0.00    -0.248 NA
ATOM     39  C   UNL     1      -6.880   1.986   9.064  1.00  0.00     0.031 C 
ATOM     40  C   UNL     1      -8.462   4.828   5.450  1.00  0.00     0.029 A 
ATOM     41  N   UNL     1      -9.671   3.095   6.089  1.00  0.00    -0.354 N 
ATOM     42  C   UNL     1      -7.645  -0.106   8.597  1.00  0.00     0.074 A 
ATOM     43  C   UNL     1      -6.950   0.743   9.531  1.00  0.00     0.031 C 
ATOM     44  C   UNL     1      -9.762   5.169   5.284  1.00  0.00     0.029 A 
ATOM     45  C   UNL     1     -10.596   4.069   5.737  1.00  0.00     0.049 A 
ATOM     46  H   UNL     1      -9.921   2.162   6.277  1.00  0.00     0.167 HD
ATOM     47  C   UNL     1      -8.329  -1.256   8.826  1.00  0.00     0.031 A 
ATOM     48  C   UNL     1     -11.937   3.989   5.935  1.00  0.00     0.031 A 
ATOM     49  C   UNL     1      -8.774  -1.883   7.615  1.00  0.00     0.049 A 
ATOM     50  C   UNL     1     -12.258   2.550   6.114  1.00  0.00     0.074 A 
ATOM     51  C   UNL     1      -8.143  -2.459   6.532  1.00  0.00     0.029 A 
ATOM     52  N   UNL     1     -10.061  -1.628   7.214  1.00  0.00    -0.354 N 
ATOM     53  N   UNL     1     -12.120   1.651   5.182  1.00  0.00    -0.248 NA
ATOM     54  C   UNL     1     -12.323   2.036   7.475  1.00  0.00     0.031 C 
ATOM     55  C   UNL     1      -8.935  -2.093   5.405  1.00  0.00     0.029 A 
ATOM     56  C   UNL     1     -10.029  -1.360   5.869  1.00  0.00     0.049 A 
ATOM     57  H   UNL     1     -10.862  -1.637   7.786  1.00  0.00     0.167 HD
ATOM     58  C   UNL     1     -11.666   0.520   5.845  1.00  0.00     0.074 A 
ATOM     59  C   UNL     1     -11.894   0.790   7.262  1.00  0.00     0.031 C 
ATOM     60  C   UNL     1     -10.896  -0.409   5.210  1.00  0.00     0.031 A 
BRANCH  47  61
ATOM     61  C   UNL     1      -8.931  -1.543  10.173  1.00  0.00    -0.014 A 
ATOM     62  C   UNL     1      -9.479  -2.805  10.438  1.00  0.00     0.009 A 
ATOM     63  C   UNL     1      -9.212  -0.515  11.099  1.00  0.00     0.009 A 
ATOM     64  C   UNL     1     -10.283  -3.017  11.566  1.00  0.00     0.001 A 
ATOM     65  C   UNL     1      -9.978  -0.732  12.243  1.00  0.00     0.001 A 
ATOM     66  C   UNL     1     -10.531  -1.982  12.466  1.00  0.00     0.000 A 
ENDBRANCH  47  61
BRANCH  48  67
ATOM     67  C   UNL     1     -12.824   5.048   6.489  1.00  0.00    -0.014 A 
ATOM     68  C   UNL     1     -14.202   4.797   6.627  1.00  0.00     0.009 A 
ATOM     69  C   UNL     1     -12.296   6.156   7.176  1.00  0.00     0.009 A 
ATOM     70  C   UNL     1     -14.996   5.566   7.488  1.00  0.00     0.001 A 
ATOM     71  C   UNL     1     -13.093   6.933   8.025  1.00  0.00     0.001 A 
ATOM     72  C   UNL     1     -14.436   6.621   8.202  1.00  0.00     0.000 A 
ENDBRANCH  48  67
BRANCH  60  73
ATOM     73  C   UNL     1     -10.730  -0.284   3.716  1.00  0.00    -0.014 A 
ATOM     74  C   UNL     1     -10.008   0.762   3.110  1.00  0.00     0.009 A 
ATOM     75  C   UNL     1     -11.158  -1.351   2.915  1.00  0.00     0.009 A 
ATOM     76  C   UNL     1      -9.728   0.733   1.738  1.00  0.00     0.001 A 
ATOM     77  C   UNL     1     -10.864  -1.386   1.551  1.00  0.00     0.001 A 
ATOM     78  C   UNL     1     -10.148  -0.346   0.962  1.00  0.00     0.000 A 
ENDBRANCH  60  73
ENDBRANCH  34  35
ENDBRANCH  27  29
ENDBRANCH  26  27
ENDBRANCH  25  26
ENDBRANCH   1  25
TORSDOF 15
