REMARK SMILES CC[C@H]1CC[C@@](C(=O)OCCOC(=O)c2ccc(-c3c4nc(c(-c5ccccc5)c5ccc([nH]5)c(-c5ccccc5)c5nc(c(-c6ccccc6)c6ccc3[nH]6)C=C5)C=C4)cc2)(C2CCCC2)C1
REMARK SMILES IDX 11 1 10 2 9 3 7 4 8 5 6 6 3 7 4 8 68 9 5 10 2 11 1 12 63 13
REMARK SMILES IDX 64 14 67 15 65 16 66 17 12 18 13 19 14 20 15 21 16 22 62 23
REMARK SMILES IDX 17 24 61 25 18 26 19 27 20 28 55 29 21 30 60 31 54 32 56 33
REMARK SMILES IDX 22 34 59 35 53 36 52 37 23 39 45 40 30 41 44 42 31 43 34 44
REMARK SMILES IDX 43 45 57 46 32 47 33 48 42 50 58 51 35 52 24 53 25 54 29 55
REMARK SMILES IDX 26 56 28 57 27 58 46 59 47 60 51 61 48 62 50 63 49 64 36 65
REMARK SMILES IDX 37 66 41 67 38 68 40 69 39 70
REMARK H PARENT 56 38 34 49
REMARK Flexibility Score: inf
ROOT
ATOM      1  C   UNL     1       3.989  -7.533   1.536  1.00  0.00     0.275 C 
ENDROOT
BRANCH   1   2
ATOM      2  C   UNL     1       3.336  -6.532   0.585  1.00  0.00     0.274 C 
BRANCH   2   3
ATOM      3  O   UNL     1       3.099  -5.261   1.236  1.00  0.00    -0.462 OA
BRANCH   3   4
ATOM      4  C   UNL     1       1.826  -5.051   1.660  1.00  0.00     0.312 C 
ATOM      5  O   UNL     1       0.934  -5.892   1.577  1.00  0.00    -0.252 OA
BRANCH   4   6
ATOM      6  C   UNL     1       1.553  -3.632   2.207  1.00  0.00     0.071 C 
ATOM      7  C   UNL     1       0.937  -1.669   0.783  1.00  0.00    -0.010 C 
ATOM      8  C   UNL     1       2.457  -1.766   0.877  1.00  0.00     0.005 C 
ATOM      9  C   UNL     1       0.478  -3.061   1.234  1.00  0.00     0.022 C 
ATOM     10  C   UNL     1       2.724  -2.629   2.105  1.00  0.00     0.019 C 
BRANCH   7  11
ATOM     11  C   UNL     1       0.317  -0.552   1.634  1.00  0.00     0.000 C 
ATOM     12  C   UNL     1       0.408   0.816   0.978  1.00  0.00     0.004 C 
ENDBRANCH   7  11
BRANCH   6  13
ATOM     13  C   UNL     1       1.035  -3.810   3.670  1.00  0.00     0.006 C 
ATOM     14  C   UNL     1       2.120  -4.009   4.746  1.00  0.00     0.005 C 
ATOM     15  C   UNL     1       0.221  -2.668   4.285  1.00  0.00     0.005 C 
ATOM     16  C   UNL     1       1.431  -3.708   6.082  1.00  0.00     0.000 C 
ATOM     17  C   UNL     1       0.076  -3.102   5.736  1.00  0.00     0.000 C 
ENDBRANCH   6  13
ENDBRANCH   4   6
ENDBRANCH   3   4
ENDBRANCH   2   3
ENDBRANCH   1   2
BRANCH   1  18
ATOM     18  O   UNL     1       3.095  -7.798   2.629  1.00  0.00    -0.458 OA
BRANCH  18  19
ATOM     19  C   UNL     1       3.659  -7.933   3.847  1.00  0.00     0.338 C 
ATOM     20  O   UNL     1       4.860  -7.986   4.092  1.00  0.00    -0.246 OA
BRANCH  19  21
ATOM     21  C   UNL     1       2.615  -7.939   4.902  1.00  0.00     0.060 A 
ATOM     22  C   UNL     1       1.349  -7.400   4.670  1.00  0.00     0.016 A 
ATOM     23  C   UNL     1       2.944  -8.371   6.190  1.00  0.00     0.016 A 
ATOM     24  C   UNL     1       0.475  -7.173   5.733  1.00  0.00     0.010 A 
ATOM     25  C   UNL     1       2.018  -8.241   7.234  1.00  0.00     0.010 A 
ATOM     26  C   UNL     1       0.787  -7.594   7.034  1.00  0.00    -0.014 A 
BRANCH  26  27
ATOM     27  C   UNL     1      -0.130  -7.314   8.182  1.00  0.00     0.031 A 
ATOM     28  C   UNL     1       0.387  -6.641   9.433  1.00  0.00     0.074 A 
ATOM     29  C   UNL     1      -1.438  -7.640   8.127  1.00  0.00     0.049 A 
ATOM     30  N   UNL     1      -0.175  -6.546  10.614  1.00  0.00    -0.248 NA
ATOM     31  C   UNL     1       1.712  -6.004   9.353  1.00  0.00     0.031 C 
ATOM     32  C   UNL     1      -2.127  -8.234   6.980  1.00  0.00     0.029 A 
ATOM     33  N   UNL     1      -2.431  -7.503   9.069  1.00  0.00    -0.354 N 
ATOM     34  C   UNL     1       0.759  -5.920  11.432  1.00  0.00     0.074 A 
ATOM     35  C   UNL     1       1.913  -5.630  10.609  1.00  0.00     0.031 C 
ATOM     36  C   UNL     1      -3.433  -8.352   7.261  1.00  0.00     0.029 A 
ATOM     37  C   UNL     1      -3.656  -7.957   8.646  1.00  0.00     0.049 A 
ATOM     38  H   UNL     1      -2.277  -7.118   9.962  1.00  0.00     0.167 HD
ATOM     39  C   UNL     1       0.672  -5.628  12.753  1.00  0.00     0.031 A 
ATOM     40  C   UNL     1      -4.823  -8.103   9.302  1.00  0.00     0.031 A 
ATOM     41  C   UNL     1      -0.496  -5.849  13.564  1.00  0.00     0.049 A 
ATOM     42  C   UNL     1      -4.895  -7.796  10.767  1.00  0.00     0.074 A 
ATOM     43  C   UNL     1      -0.673  -5.584  14.913  1.00  0.00     0.029 A 
ATOM     44  N   UNL     1      -1.695  -6.360  13.097  1.00  0.00    -0.354 N 
ATOM     45  N   UNL     1      -3.962  -7.326  11.557  1.00  0.00    -0.248 NA
ATOM     46  C   UNL     1      -6.172  -8.079  11.438  1.00  0.00     0.031 C 
ATOM     47  C   UNL     1      -1.973  -5.960  15.267  1.00  0.00     0.029 A 
ATOM     48  C   UNL     1      -2.615  -6.423  14.130  1.00  0.00     0.049 A 
ATOM     49  H   UNL     1      -1.868  -6.637  12.169  1.00  0.00     0.167 HD
ATOM     50  C   UNL     1      -4.534  -7.270  12.821  1.00  0.00     0.074 A 
ATOM     51  C   UNL     1      -5.903  -7.723  12.687  1.00  0.00     0.031 C 
ATOM     52  C   UNL     1      -3.967  -6.891  13.990  1.00  0.00     0.031 A 
BRANCH  39  53
ATOM     53  C   UNL     1       1.899  -5.086  13.428  1.00  0.00    -0.014 A 
ATOM     54  C   UNL     1       2.296  -3.750  13.280  1.00  0.00     0.009 A 
ATOM     55  C   UNL     1       2.640  -5.927  14.275  1.00  0.00     0.009 A 
ATOM     56  C   UNL     1       3.426  -3.273  13.951  1.00  0.00     0.001 A 
ATOM     57  C   UNL     1       3.755  -5.442  14.961  1.00  0.00     0.001 A 
ATOM     58  C   UNL     1       4.150  -4.117  14.793  1.00  0.00     0.000 A 
ENDBRANCH  39  53
BRANCH  40  59
ATOM     59  C   UNL     1      -6.000  -8.653   8.584  1.00  0.00    -0.014 A 
ATOM     60  C   UNL     1      -7.080  -7.825   8.248  1.00  0.00     0.009 A 
ATOM     61  C   UNL     1      -6.032 -10.005   8.204  1.00  0.00     0.009 A 
ATOM     62  C   UNL     1      -8.170  -8.342   7.544  1.00  0.00     0.001 A 
ATOM     63  C   UNL     1      -7.109 -10.511   7.476  1.00  0.00     0.001 A 
ATOM     64  C   UNL     1      -8.179  -9.680   7.150  1.00  0.00     0.000 A 
ENDBRANCH  40  59
BRANCH  52  65
ATOM     65  C   UNL     1      -4.832  -6.946  15.214  1.00  0.00    -0.014 A 
ATOM     66  C   UNL     1      -5.105  -8.168  15.846  1.00  0.00     0.009 A 
ATOM     67  C   UNL     1      -5.364  -5.764  15.749  1.00  0.00     0.009 A 
ATOM     68  C   UNL     1      -5.921  -8.209  16.978  1.00  0.00     0.001 A 
ATOM     69  C   UNL     1      -6.165  -5.806  16.891  1.00  0.00     0.001 A 
ATOM     70  C   UNL     1      -6.449  -7.028  17.500  1.00  0.00     0.000 A 
ENDBRANCH  52  65
ENDBRANCH  26  27
ENDBRANCH  19  21
ENDBRANCH  18  19
ENDBRANCH   1  18
TORSDOF 13
