REMARK SMILES [N-]=[N+]=NC[C@@H](Nc1ccccc1Br)C(=O)OCCOC(=O)c1ccc(-c2c3nc(c(-c4ccccc4)c4ccc([nH]4)c(-c4ccccc4)c4nc(c(-c5ccccc5)c5ccc2[nH]5)C=C4)C=C3)cc1
REMARK SMILES IDX 17 1 16 2 14 3 15 4 5 5 4 6 3 7 1 8 2 9 6 10 7 12 8 13 12 14
REMARK SMILES IDX 9 15 11 16 13 17 10 18 18 19 19 20 20 21 21 22 22 23 23 24
REMARK SMILES IDX 69 25 24 26 68 27 25 28 26 29 27 30 62 31 28 32 67 33 61 34
REMARK SMILES IDX 63 35 29 36 66 37 60 38 59 39 30 41 52 42 37 43 51 44 38 45
REMARK SMILES IDX 41 46 50 47 64 48 39 49 40 50 49 52 65 53 42 54 31 55 32 56
REMARK SMILES IDX 36 57 33 58 35 59 34 60 53 61 54 62 58 63 55 64 57 65 56 66
REMARK SMILES IDX 43 67 44 68 48 69 45 70 47 71 46 72
REMARK H PARENT 6 11 63 40 41 51
REMARK Flexibility Score: inf
ROOT
ATOM      1  C   UNL     1       5.464  -1.240   5.163  1.00  0.00     0.274 C 
ENDROOT
BRANCH   1   2
ATOM      2  O   UNL     1       4.673  -1.000   3.979  1.00  0.00    -0.461 OA
BRANCH   2   3
ATOM      3  C   UNL     1       4.369   0.311   3.760  1.00  0.00     0.328 C 
ATOM      4  O   UNL     1       4.760   1.217   4.490  1.00  0.00    -0.250 OA
BRANCH   3   5
ATOM      5  C   UNL     1       3.479   0.551   2.521  1.00  0.00     0.195 C 
BRANCH   5   6
ATOM      6  C   UNL     1       3.747  -0.499   1.425  1.00  0.00     0.127 C 
BRANCH   6   7
ATOM      7  N   UNL     1       3.321  -0.005   0.096  1.00  0.00    -0.091 NA
ATOM      8  N   UNL     1       1.039  -0.393  -0.459  1.00  0.00    -0.003 NA
ATOM      9  N   UNL     1       2.135  -0.215  -0.213  1.00  0.00     0.001 N 
ENDBRANCH   6   7
ENDBRANCH   5   6
BRANCH   5  10
ATOM     10  N   UNL     1       2.026   0.704   2.804  1.00  0.00    -0.371 N 
ATOM     11  H   UNL     1       1.412   1.017   2.100  1.00  0.00     0.161 HD
BRANCH  10  12
ATOM     12  C   UNL     1       1.542   0.400   4.072  1.00  0.00     0.049 A 
ATOM     13  C   UNL     1       0.944  -0.852   4.263  1.00  0.00     0.027 A 
ATOM     14  C   UNL     1       1.749   1.219   5.198  1.00  0.00     0.041 A 
ATOM     15  C   UNL     1       0.650  -1.315   5.545  1.00  0.00     0.002 A 
ATOM     16  C   UNL     1       1.504   0.736   6.485  1.00  0.00     0.018 A 
ATOM     17  Br  UNL     1       2.278   3.042   5.024  1.00  0.00    -0.049 Br
ATOM     18  C   UNL     1       0.967  -0.538   6.657  1.00  0.00     0.001 A 
ENDBRANCH  10  12
ENDBRANCH   5  10
ENDBRANCH   3   5
ENDBRANCH   2   3
ENDBRANCH   1   2
BRANCH   1  19
ATOM     19  C   UNL     1       6.979  -1.133   4.924  1.00  0.00     0.275 C 
BRANCH  19  20
ATOM     20  O   UNL     1       7.424   0.204   4.616  1.00  0.00    -0.458 OA
BRANCH  20  21
ATOM     21  C   UNL     1       7.400   0.528   3.302  1.00  0.00     0.338 C 
ATOM     22  O   UNL     1       7.085  -0.202   2.375  1.00  0.00    -0.246 OA
BRANCH  21  23
ATOM     23  C   UNL     1       7.661   1.964   3.110  1.00  0.00     0.060 A 
ATOM     24  C   UNL     1       6.649   2.750   2.548  1.00  0.00     0.016 A 
ATOM     25  C   UNL     1       8.916   2.512   3.359  1.00  0.00     0.016 A 
ATOM     26  C   UNL     1       6.876   4.080   2.219  1.00  0.00     0.010 A 
ATOM     27  C   UNL     1       9.149   3.851   3.025  1.00  0.00     0.010 A 
ATOM     28  C   UNL     1       8.137   4.634   2.438  1.00  0.00    -0.014 A 
BRANCH  28  29
ATOM     29  C   UNL     1       8.434   6.001   1.955  1.00  0.00     0.031 A 
ATOM     30  C   UNL     1       9.343   6.171   0.772  1.00  0.00     0.074 A 
ATOM     31  C   UNL     1       7.892   7.073   2.560  1.00  0.00     0.049 A 
ATOM     32  N   UNL     1       9.881   7.261   0.292  1.00  0.00    -0.248 NA
ATOM     33  C   UNL     1       9.698   4.946   0.036  1.00  0.00     0.031 C 
ATOM     34  C   UNL     1       6.922   7.032   3.655  1.00  0.00     0.029 A 
ATOM     35  N   UNL     1       8.098   8.412   2.344  1.00  0.00    -0.354 N 
ATOM     36  C   UNL     1      10.663   6.851  -0.780  1.00  0.00     0.074 A 
ATOM     37  C   UNL     1      10.545   5.412  -0.870  1.00  0.00     0.031 C 
ATOM     38  C   UNL     1       6.629   8.290   4.026  1.00  0.00     0.029 A 
ATOM     39  C   UNL     1       7.437   9.217   3.240  1.00  0.00     0.049 A 
ATOM     40  H   UNL     1       8.664   8.762   1.618  1.00  0.00     0.167 HD
ATOM     41  C   UNL     1      11.412   7.611  -1.614  1.00  0.00     0.031 A 
ATOM     42  C   UNL     1       7.516  10.547   3.433  1.00  0.00     0.031 A 
ATOM     43  C   UNL     1      11.522   9.041  -1.513  1.00  0.00     0.049 A 
ATOM     44  C   UNL     1       8.444  11.355   2.564  1.00  0.00     0.074 A 
ATOM     45  C   UNL     1      12.263   9.907  -2.297  1.00  0.00     0.029 A 
ATOM     46  N   UNL     1      10.866   9.816  -0.568  1.00  0.00    -0.354 N 
ATOM     47  N   UNL     1       9.203  10.960   1.570  1.00  0.00    -0.248 NA
ATOM     48  C   UNL     1       8.526  12.796   2.845  1.00  0.00     0.031 C 
ATOM     49  C   UNL     1      12.102  11.199  -1.791  1.00  0.00     0.029 A 
ATOM     50  C   UNL     1      11.201  11.148  -0.739  1.00  0.00     0.049 A 
ATOM     51  H   UNL     1      10.254   9.471   0.121  1.00  0.00     0.167 HD
ATOM     52  C   UNL     1       9.812  12.108   1.078  1.00  0.00     0.074 A 
ATOM     53  C   UNL     1       9.330  13.214   1.878  1.00  0.00     0.031 C 
ATOM     54  C   UNL     1      10.689  12.237   0.053  1.00  0.00     0.031 A 
BRANCH  41  55
ATOM     55  C   UNL     1      12.201   6.906  -2.681  1.00  0.00    -0.014 A 
ATOM     56  C   UNL     1      11.572   6.305  -3.782  1.00  0.00     0.009 A 
ATOM     57  C   UNL     1      13.603   6.884  -2.605  1.00  0.00     0.009 A 
ATOM     58  C   UNL     1      12.330   5.671  -4.770  1.00  0.00     0.001 A 
ATOM     59  C   UNL     1      14.359   6.278  -3.610  1.00  0.00     0.001 A 
ATOM     60  C   UNL     1      13.722   5.665  -4.687  1.00  0.00     0.000 A 
ENDBRANCH  41  55
BRANCH  42  61
ATOM     61  C   UNL     1       6.735  11.203   4.516  1.00  0.00    -0.014 A 
ATOM     62  C   UNL     1       5.731  12.135   4.210  1.00  0.00     0.009 A 
ATOM     63  C   UNL     1       7.022  10.940   5.865  1.00  0.00     0.009 A 
ATOM     64  C   UNL     1       5.063  12.819   5.229  1.00  0.00     0.001 A 
ATOM     65  C   UNL     1       6.327  11.598   6.883  1.00  0.00     0.001 A 
ATOM     66  C   UNL     1       5.360  12.548   6.564  1.00  0.00     0.000 A 
ENDBRANCH  42  61
BRANCH  54  67
ATOM     67  C   UNL     1      11.121  13.629  -0.319  1.00  0.00    -0.014 A 
ATOM     68  C   UNL     1      11.981  14.379   0.496  1.00  0.00     0.009 A 
ATOM     69  C   UNL     1      10.699  14.172  -1.544  1.00  0.00     0.009 A 
ATOM     70  C   UNL     1      12.383  15.659   0.107  1.00  0.00     0.001 A 
ATOM     71  C   UNL     1      11.130  15.435  -1.947  1.00  0.00     0.001 A 
ATOM     72  C   UNL     1      11.964  16.182  -1.117  1.00  0.00     0.000 A 
ENDBRANCH  54  67
ENDBRANCH  28  29
ENDBRANCH  21  23
ENDBRANCH  20  21
ENDBRANCH  19  20
ENDBRANCH   1  19
TORSDOF 15
