REMARK SMILES [NH3+][C@]1(C(=O)OCCOC(=O)c2ccc(-c3c4nc(c(-c5ccccc5)c5ccc([nH]5)c(-c5ccccc5)c5nc(c(-c6ccccc6)c6ccc3[nH]6)C=C5)C=C4)cc2)CC[C@H](Oc2ccccc2[N+](=O)[O-])C1
REMARK SMILES IDX 6 1 5 2 3 3 4 4 2 5 59 6 72 7 60 8 61 9 1 10 62 14 63 15
REMARK SMILES IDX 64 16 68 17 65 18 67 19 66 20 69 21 70 22 71 23 7 24 8 25
REMARK SMILES IDX 9 26 10 27 11 28 12 29 58 30 13 31 57 32 14 33 15 34 16 35
REMARK SMILES IDX 51 36 17 37 56 38 50 39 52 40 18 41 55 42 49 43 48 44 19 46
REMARK SMILES IDX 41 47 26 48 40 49 27 50 30 51 39 52 53 53 28 54 29 55 38 57
REMARK SMILES IDX 54 58 31 59 20 60 21 61 25 62 22 63 24 64 23 65 42 66 43 67
REMARK SMILES IDX 47 68 44 69 46 70 45 71 32 72 33 73 37 74 34 75 36 76 35 77
REMARK H PARENT 1 11 1 12 1 13 52 45 30 56
REMARK Flexibility Score: inf
ROOT
ATOM      1  C   UNL     1       0.944   2.228   0.450  1.00  0.00     0.274 C 
ENDROOT
BRANCH   1   2
ATOM      2  O   UNL     1       0.680   0.892   0.919  1.00  0.00    -0.457 OA
BRANCH   2   3
ATOM      3  C   UNL     1       0.218   0.012  -0.012  1.00  0.00     0.368 C 
ATOM      4  O   UNL     1       0.088   0.265  -1.206  1.00  0.00    -0.245 OA
BRANCH   3   5
ATOM      5  C   UNL     1      -0.205  -1.336   0.611  1.00  0.00     0.196 C 
ATOM      6  C   UNL     1      -0.054  -2.452  -0.433  1.00  0.00     0.085 C 
ATOM      7  C   UNL     1       0.703  -1.833   1.751  1.00  0.00     0.126 C 
ATOM      8  C   UNL     1      -0.047  -3.727   0.379  1.00  0.00     0.052 C 
ATOM      9  C   UNL     1       0.753  -3.376   1.641  1.00  0.00     0.180 C 
BRANCH   5  10
ATOM     10  N   UNL     1      -1.609  -1.232   1.060  1.00  0.00    -0.343 N 
ATOM     11  H   UNL     1      -1.900  -2.118   1.473  1.00  0.00     0.345 HD
ATOM     12  H   UNL     1      -2.206  -1.017   0.261  1.00  0.00     0.345 HD
ATOM     13  H   UNL     1      -1.689  -0.490   1.754  1.00  0.00     0.345 HD
ENDBRANCH   5  10
BRANCH   9  14
ATOM     14  O   UNL     1       0.200  -3.950   2.831  1.00  0.00    -0.483 OA
BRANCH  14  15
ATOM     15  C   UNL     1      -0.036  -5.297   2.849  1.00  0.00     0.197 A 
ATOM     16  C   UNL     1       0.725  -6.222   2.125  1.00  0.00     0.054 A 
ATOM     17  C   UNL     1      -1.080  -5.787   3.646  1.00  0.00     0.310 A 
ATOM     18  C   UNL     1       0.406  -7.585   2.148  1.00  0.00     0.004 A 
ATOM     19  C   UNL     1      -1.396  -7.154   3.690  1.00  0.00     0.090 A 
ATOM     20  C   UNL     1      -0.655  -8.051   2.924  1.00  0.00     0.007 A 
BRANCH  17  21
ATOM     21  N   UNL     1      -1.901  -4.879   4.435  1.00  0.00     0.066 N 
ATOM     22  O   UNL     1      -2.153  -5.221   5.600  1.00  0.00    -0.258 OA
ATOM     23  O   UNL     1      -2.349  -3.866   3.877  1.00  0.00    -0.258 OA
ENDBRANCH  17  21
ENDBRANCH  14  15
ENDBRANCH   9  14
ENDBRANCH   3   5
ENDBRANCH   2   3
ENDBRANCH   1   2
BRANCH   1  24
ATOM     24  C   UNL     1       2.441   2.466   0.278  1.00  0.00     0.275 C 
BRANCH  24  25
ATOM     25  O   UNL     1       2.963   1.616  -0.760  1.00  0.00    -0.458 OA
BRANCH  25  26
ATOM     26  C   UNL     1       3.850   0.683  -0.355  1.00  0.00     0.338 C 
ATOM     27  O   UNL     1       4.287   0.497   0.768  1.00  0.00    -0.246 OA
BRANCH  26  28
ATOM     28  C   UNL     1       4.231  -0.166  -1.492  1.00  0.00     0.060 A 
ATOM     29  C   UNL     1       3.295  -1.051  -2.022  1.00  0.00     0.016 A 
ATOM     30  C   UNL     1       5.556  -0.202  -1.920  1.00  0.00     0.016 A 
ATOM     31  C   UNL     1       3.701  -2.048  -2.907  1.00  0.00     0.010 A 
ATOM     32  C   UNL     1       5.942  -1.143  -2.879  1.00  0.00     0.010 A 
ATOM     33  C   UNL     1       5.031  -2.108  -3.348  1.00  0.00    -0.014 A 
BRANCH  33  34
ATOM     34  C   UNL     1       5.494  -3.208  -4.240  1.00  0.00     0.031 A 
ATOM     35  C   UNL     1       6.597  -4.131  -3.787  1.00  0.00     0.074 A 
ATOM     36  C   UNL     1       4.937  -3.399  -5.452  1.00  0.00     0.049 A 
ATOM     37  N   UNL     1       7.281  -5.007  -4.479  1.00  0.00    -0.248 NA
ATOM     38  C   UNL     1       6.990  -4.048  -2.371  1.00  0.00     0.031 C 
ATOM     39  C   UNL     1       3.823  -2.631  -6.010  1.00  0.00     0.029 A 
ATOM     40  N   UNL     1       5.236  -4.311  -6.435  1.00  0.00    -0.354 N 
ATOM     41  C   UNL     1       8.228  -5.525  -3.604  1.00  0.00     0.074 A 
ATOM     42  C   UNL     1       8.023  -4.877  -2.327  1.00  0.00     0.031 C 
ATOM     43  C   UNL     1       3.509  -3.127  -7.218  1.00  0.00     0.029 A 
ATOM     44  C   UNL     1       4.452  -4.188  -7.555  1.00  0.00     0.049 A 
ATOM     45  H   UNL     1       5.945  -4.988  -6.345  1.00  0.00     0.167 HD
ATOM     46  C   UNL     1       9.189  -6.449  -3.844  1.00  0.00     0.031 A 
ATOM     47  C   UNL     1       4.507  -4.823  -8.741  1.00  0.00     0.031 A 
ATOM     48  C   UNL     1       9.367  -7.135  -5.096  1.00  0.00     0.049 A 
ATOM     49  C   UNL     1       5.590  -5.831  -8.993  1.00  0.00     0.074 A 
ATOM     50  C   UNL     1      10.314  -8.086  -5.434  1.00  0.00     0.029 A 
ATOM     51  N   UNL     1       8.563  -6.958  -6.210  1.00  0.00    -0.354 N 
ATOM     52  N   UNL     1       6.531  -6.249  -8.183  1.00  0.00    -0.248 NA
ATOM     53  C   UNL     1       5.632  -6.435 -10.332  1.00  0.00     0.031 C 
ATOM     54  C   UNL     1      10.096  -8.469  -6.762  1.00  0.00     0.029 A 
ATOM     55  C   UNL     1       8.993  -7.780  -7.237  1.00  0.00     0.049 A 
ATOM     56  H   UNL     1       7.799  -6.339  -6.263  1.00  0.00     0.167 HD
ATOM     57  C   UNL     1       7.276  -7.166  -8.912  1.00  0.00     0.074 A 
ATOM     58  C   UNL     1       6.664  -7.260 -10.222  1.00  0.00     0.031 C 
ATOM     59  C   UNL     1       8.375  -7.861  -8.533  1.00  0.00     0.031 A 
BRANCH  46  60
ATOM     60  C   UNL     1      10.159  -6.739  -2.735  1.00  0.00    -0.014 A 
ATOM     61  C   UNL     1       9.802  -7.534  -1.636  1.00  0.00     0.009 A 
ATOM     62  C   UNL     1      11.464  -6.227  -2.812  1.00  0.00     0.009 A 
ATOM     63  C   UNL     1      10.727  -7.785  -0.620  1.00  0.00     0.001 A 
ATOM     64  C   UNL     1      12.393  -6.499  -1.806  1.00  0.00     0.001 A 
ATOM     65  C   UNL     1      12.021  -7.271  -0.707  1.00  0.00     0.000 A 
ENDBRANCH  46  60
BRANCH  47  66
ATOM     66  C   UNL     1       3.530  -4.481  -9.806  1.00  0.00    -0.014 A 
ATOM     67  C   UNL     1       2.505  -5.376 -10.144  1.00  0.00     0.009 A 
ATOM     68  C   UNL     1       3.612  -3.252 -10.478  1.00  0.00     0.009 A 
ATOM     69  C   UNL     1       1.585  -5.048 -11.143  1.00  0.00     0.001 A 
ATOM     70  C   UNL     1       2.677  -2.917 -11.458  1.00  0.00     0.001 A 
ATOM     71  C   UNL     1       1.667  -3.818 -11.794  1.00  0.00     0.000 A 
ENDBRANCH  47  66
BRANCH  59  72
ATOM     72  C   UNL     1       8.968  -8.799  -9.540  1.00  0.00    -0.014 A 
ATOM     73  C   UNL     1       9.762  -8.320 -10.593  1.00  0.00     0.009 A 
ATOM     74  C   UNL     1       8.755 -10.180  -9.417  1.00  0.00     0.009 A 
ATOM     75  C   UNL     1      10.312  -9.207 -11.520  1.00  0.00     0.001 A 
ATOM     76  C   UNL     1       9.320 -11.066 -10.336  1.00  0.00     0.001 A 
ATOM     77  C   UNL     1      10.092 -10.578 -11.389  1.00  0.00     0.000 A 
ENDBRANCH  59  72
ENDBRANCH  33  34
ENDBRANCH  26  28
ENDBRANCH  25  26
ENDBRANCH  24  25
ENDBRANCH   1  24
TORSDOF 15
