REMARK SMILES CC[C@@](C)([NH3+])C(=O)N1CC[NH+]([C@H](C)C(=O)OCCOC(=O)c2ccc(-c3c4nc(c(-c5ccccc5)c5ccc([nH]5)c(-c5ccccc5)c5nc(c(-c6ccccc6)c6ccc3[nH]6)C=C5)C=C4)cc2)CC1
REMARK SMILES IDX 17 1 16 2 14 3 15 4 12 5 13 6 11 7 6 8 7 9 8 10 9 11 71 12
REMARK SMILES IDX 10 13 70 14 3 16 4 17 2 18 1 19 5 20 18 24 19 25 20 26 21 27
REMARK SMILES IDX 22 28 23 29 69 30 24 31 68 32 25 33 26 34 27 35 62 36 28 37
REMARK SMILES IDX 67 38 61 39 63 40 29 41 66 42 60 43 59 44 30 46 52 47 37 48
REMARK SMILES IDX 51 49 38 50 41 51 50 52 64 53 39 54 40 55 49 57 65 58 42 59
REMARK SMILES IDX 31 60 32 61 36 62 33 63 35 64 34 65 53 66 54 67 58 68 55 69
REMARK SMILES IDX 57 70 56 71 43 72 44 73 48 74 45 75 47 76 46 77
REMARK H PARENT 11 15 5 21 5 22 5 23 63 45 41 56
REMARK Flexibility Score: inf
ROOT
ATOM      1  C   UNL     1       7.897  -5.003  -4.317  1.00  0.00     0.274 C 
ENDROOT
BRANCH   1   2
ATOM      2  O   UNL     1       6.672  -4.249  -4.372  1.00  0.00    -0.458 OA
BRANCH   2   3
ATOM      3  C   UNL     1       6.506  -3.453  -5.465  1.00  0.00     0.364 C 
ATOM      4  O   UNL     1       7.335  -3.325  -6.361  1.00  0.00    -0.245 OA
BRANCH   3   5
ATOM      5  C   UNL     1       5.155  -2.711  -5.454  1.00  0.00     0.292 C 
ATOM      6  C   UNL     1       4.079  -3.415  -4.618  1.00  0.00     0.088 C 
BRANCH   5   7
ATOM      7  N   UNL     1       5.372  -1.272  -5.175  1.00  0.00    -0.321 N 
ATOM      8  C   UNL     1       3.999   1.857  -2.871  1.00  0.00     0.283 C 
ATOM      9  O   UNL     1       4.628   2.369  -1.936  1.00  0.00    -0.268 OA
ATOM     10  N   UNL     1       4.702   1.198  -3.863  1.00  0.00    -0.326 N 
ATOM     11  C   UNL     1       5.941   0.515  -3.506  1.00  0.00     0.181 C 
ATOM     12  C   UNL     1       4.365   1.041  -5.273  1.00  0.00     0.181 C 
ATOM     13  C   UNL     1       5.755  -0.992  -3.776  1.00  0.00     0.284 C 
ATOM     14  C   UNL     1       4.237  -0.447  -5.642  1.00  0.00     0.284 C 
ATOM     15  H   UNL     1       6.184  -0.994  -5.725  1.00  0.00     0.348 HD
BRANCH   8  16
ATOM     16  C   UNL     1       2.427   1.744  -2.798  1.00  0.00     0.171 C 
ATOM     17  C   UNL     1       2.038   0.271  -2.589  1.00  0.00     0.090 C 
BRANCH  16  18
ATOM     18  C   UNL     1       1.884   2.617  -1.628  1.00  0.00     0.075 C 
ATOM     19  C   UNL     1       2.156   2.091  -0.219  1.00  0.00     0.011 C 
ENDBRANCH  16  18
BRANCH  16  20
ATOM     20  N   UNL     1       1.782   2.247  -4.037  1.00  0.00    -0.345 N 
ATOM     21  H   UNL     1       0.769   2.157  -3.953  1.00  0.00     0.345 HD
ATOM     22  H   UNL     1       2.107   1.701  -4.835  1.00  0.00     0.345 HD
ATOM     23  H   UNL     1       2.026   3.227  -4.174  1.00  0.00     0.345 HD
ENDBRANCH  16  20
ENDBRANCH   8  16
ENDBRANCH   5   7
ENDBRANCH   3   5
ENDBRANCH   2   3
ENDBRANCH   1   2
BRANCH   1  24
ATOM     24  C   UNL     1       7.699  -6.441  -4.806  1.00  0.00     0.275 C 
BRANCH  24  25
ATOM     25  O   UNL     1       7.395  -6.493  -6.212  1.00  0.00    -0.458 OA
BRANCH  25  26
ATOM     26  C   UNL     1       6.077  -6.544  -6.512  1.00  0.00     0.338 C 
ATOM     27  O   UNL     1       5.139  -6.587  -5.735  1.00  0.00    -0.246 OA
BRANCH  26  28
ATOM     28  C   UNL     1       5.891  -6.406  -7.963  1.00  0.00     0.060 A 
ATOM     29  C   UNL     1       5.312  -5.227  -8.439  1.00  0.00     0.016 A 
ATOM     30  C   UNL     1       6.178  -7.455  -8.834  1.00  0.00     0.016 A 
ATOM     31  C   UNL     1       5.008  -5.087  -9.787  1.00  0.00     0.010 A 
ATOM     32  C   UNL     1       5.875  -7.315 -10.192  1.00  0.00     0.010 A 
ATOM     33  C   UNL     1       5.277  -6.135 -10.672  1.00  0.00    -0.014 A 
BRANCH  33  34
ATOM     34  C   UNL     1       4.874  -6.013 -12.090  1.00  0.00     0.031 A 
ATOM     35  C   UNL     1       3.680  -6.770 -12.592  1.00  0.00     0.074 A 
ATOM     36  C   UNL     1       5.559  -5.202 -12.916  1.00  0.00     0.049 A 
ATOM     37  N   UNL     1       3.225  -6.880 -13.813  1.00  0.00    -0.248 NA
ATOM     38  C   UNL     1       2.892  -7.499 -11.585  1.00  0.00     0.031 C 
ATOM     39  C   UNL     1       6.693  -4.361 -12.529  1.00  0.00     0.029 A 
ATOM     40  N   UNL     1       5.399  -4.956 -14.255  1.00  0.00    -0.354 N 
ATOM     41  C   UNL     1       2.118  -7.714 -13.728  1.00  0.00     0.074 A 
ATOM     42  C   UNL     1       1.970  -8.083 -12.337  1.00  0.00     0.031 C 
ATOM     43  C   UNL     1       7.127  -3.692 -13.610  1.00  0.00     0.029 A 
ATOM     44  C   UNL     1       6.336  -4.095 -14.768  1.00  0.00     0.049 A 
ATOM     45  H   UNL     1       4.681  -5.358 -14.796  1.00  0.00     0.167 HD
ATOM     46  C   UNL     1       1.303  -8.137 -14.723  1.00  0.00     0.031 A 
ATOM     47  C   UNL     1       6.555  -3.704 -16.037  1.00  0.00     0.031 A 
ATOM     48  C   UNL     1       1.450  -7.765 -16.104  1.00  0.00     0.049 A 
ATOM     49  C   UNL     1       5.680  -4.242 -17.133  1.00  0.00     0.074 A 
ATOM     50  C   UNL     1       0.677  -8.143 -17.188  1.00  0.00     0.029 A 
ATOM     51  N   UNL     1       2.438  -6.924 -16.591  1.00  0.00    -0.354 N 
ATOM     52  N   UNL     1       4.654  -5.053 -17.046  1.00  0.00    -0.248 NA
ATOM     53  C   UNL     1       5.999  -3.815 -18.503  1.00  0.00     0.031 C 
ATOM     54  C   UNL     1       1.222  -7.560 -18.338  1.00  0.00     0.029 A 
ATOM     55  C   UNL     1       2.307  -6.785 -17.962  1.00  0.00     0.049 A 
ATOM     56  H   UNL     1       3.131  -6.489 -16.043  1.00  0.00     0.167 HD
ATOM     57  C   UNL     1       4.197  -5.225 -18.345  1.00  0.00     0.074 A 
ATOM     58  C   UNL     1       5.046  -4.420 -19.200  1.00  0.00     0.031 C 
ATOM     59  C   UNL     1       3.166  -5.983 -18.793  1.00  0.00     0.031 A 
BRANCH  46  60
ATOM     60  C   UNL     1       0.207  -9.093 -14.353  1.00  0.00    -0.014 A 
ATOM     61  C   UNL     1      -0.948  -8.659 -13.685  1.00  0.00     0.009 A 
ATOM     62  C   UNL     1       0.327 -10.449 -14.698  1.00  0.00     0.009 A 
ATOM     63  C   UNL     1      -1.950  -9.570 -13.345  1.00  0.00     0.001 A 
ATOM     64  C   UNL     1      -0.686 -11.353 -14.375  1.00  0.00     0.001 A 
ATOM     65  C   UNL     1      -1.819 -10.915 -13.692  1.00  0.00     0.000 A 
ENDBRANCH  46  60
BRANCH  47  66
ATOM     66  C   UNL     1       7.681  -2.786 -16.344  1.00  0.00    -0.014 A 
ATOM     67  C   UNL     1       7.438  -1.457 -16.718  1.00  0.00     0.009 A 
ATOM     68  C   UNL     1       9.007  -3.239 -16.262  1.00  0.00     0.009 A 
ATOM     69  C   UNL     1       8.502  -0.603 -17.019  1.00  0.00     0.001 A 
ATOM     70  C   UNL     1      10.069  -2.377 -16.540  1.00  0.00     0.001 A 
ATOM     71  C   UNL     1       9.815  -1.062 -16.925  1.00  0.00     0.000 A 
ENDBRANCH  47  66
BRANCH  59  72
ATOM     72  C   UNL     1       2.890  -5.954 -20.267  1.00  0.00    -0.014 A 
ATOM     73  C   UNL     1       3.701  -6.658 -21.169  1.00  0.00     0.009 A 
ATOM     74  C   UNL     1       1.783  -5.241 -20.753  1.00  0.00     0.009 A 
ATOM     75  C   UNL     1       3.425  -6.625 -22.537  1.00  0.00     0.001 A 
ATOM     76  C   UNL     1       1.497  -5.228 -22.119  1.00  0.00     0.001 A 
ATOM     77  C   UNL     1       2.322  -5.914 -23.010  1.00  0.00     0.000 A 
ENDBRANCH  59  72
ENDBRANCH  33  34
ENDBRANCH  26  28
ENDBRANCH  25  26
ENDBRANCH  24  25
ENDBRANCH   1  24
TORSDOF 15
