REMARK SMILES CCCCCCNC(=O)Oc1cccc(-c2ccc(CC(=O)OCCOC(=O)c3ccc(-c4c5nc(c(-c6ccccc6)c6ccc([nH]6)c(-c6ccccc6)c6nc(c(-c7ccccc7)c7ccc4[nH]7)C=C6)C=C5)cc3)cc2F)c1
REMARK SMILES IDX 20 1 19 2 16 3 17 4 78 5 18 6 77 7 79 8 15 9 11 10 12 11
REMARK SMILES IDX 80 12 13 13 14 14 10 15 8 16 7 17 9 19 6 20 5 21 4 22 3 23
REMARK SMILES IDX 2 24 1 25 21 26 22 27 23 28 24 29 25 30 26 31 27 32 28 33
REMARK SMILES IDX 29 34 30 35 76 36 31 37 75 38 32 39 33 40 34 41 69 42 35 43
REMARK SMILES IDX 74 44 68 45 70 46 36 47 73 48 67 49 66 50 37 52 59 53 44 54
REMARK SMILES IDX 58 55 45 56 48 57 57 58 71 59 46 60 47 61 56 63 72 64 49 65
REMARK SMILES IDX 38 66 39 67 43 68 40 69 42 70 41 71 60 72 61 73 65 74 62 75
REMARK SMILES IDX 64 76 63 77 50 78 51 79 55 80 52 81 54 82 53 83
REMARK H PARENT 7 18 70 51 48 62
REMARK Flexibility Score: inf
ROOT
ATOM      1  C   UNL     1      -4.448  -3.109  12.723  1.00  0.00     0.158 C 
ENDROOT
BRANCH   1   2
ATOM      2  C   UNL     1      -4.642  -3.569  11.299  1.00  0.00    -0.034 A 
ATOM      3  C   UNL     1      -4.909  -4.393   8.597  1.00  0.00     0.018 A 
ATOM      4  C   UNL     1      -4.823  -5.336   9.630  1.00  0.00     0.012 A 
ATOM      5  C   UNL     1      -4.865  -3.037   8.948  1.00  0.00     0.131 A 
ATOM      6  C   UNL     1      -4.685  -4.929  10.962  1.00  0.00     0.005 A 
ATOM      7  C   UNL     1      -4.737  -2.624  10.272  1.00  0.00     0.044 A 
ATOM      8  F   UNL     1      -4.945  -2.090   8.001  1.00  0.00    -0.206 F 
BRANCH   3   9
ATOM      9  C   UNL     1      -5.028  -4.808   7.195  1.00  0.00    -0.012 A 
ATOM     10  C   UNL     1      -4.195  -4.783   4.917  1.00  0.00     0.133 A 
ATOM     11  C   UNL     1      -5.303  -5.501   4.476  1.00  0.00     0.047 A 
ATOM     12  C   UNL     1      -4.057  -4.426   6.258  1.00  0.00     0.056 A 
ATOM     13  C   UNL     1      -6.267  -5.901   5.399  1.00  0.00     0.004 A 
ATOM     14  C   UNL     1      -6.128  -5.561   6.749  1.00  0.00     0.009 A 
BRANCH  10  15
ATOM     15  O   UNL     1      -3.298  -4.309   3.950  1.00  0.00    -0.410 OA
BRANCH  15  16
ATOM     16  C   UNL     1      -1.955  -4.604   4.131  1.00  0.00     0.412 C 
ATOM     17  N   UNL     1      -1.140  -3.962   3.238  1.00  0.00    -0.321 N 
ATOM     18  H   UNL     1      -0.177  -4.159   3.300  1.00  0.00     0.167 HD
ATOM     19  O   UNL     1      -1.487  -5.355   4.978  1.00  0.00    -0.224 OA
BRANCH  17  20
ATOM     20  C   UNL     1      -1.545  -3.024   2.211  1.00  0.00     0.119 C 
BRANCH  20  21
ATOM     21  C   UNL     1      -0.940  -1.637   2.431  1.00  0.00     0.021 C 
BRANCH  21  22
ATOM     22  C   UNL     1       0.590  -1.578   2.350  1.00  0.00     0.002 C 
BRANCH  22  23
ATOM     23  C   UNL     1       1.204  -2.081   1.039  1.00  0.00    -0.000 C 
BRANCH  23  24
ATOM     24  C   UNL     1       0.725  -1.370  -0.229  1.00  0.00    -0.003 C 
ATOM     25  C   UNL     1       1.083   0.107  -0.264  1.00  0.00     0.004 C 
ENDBRANCH  23  24
ENDBRANCH  22  23
ENDBRANCH  21  22
ENDBRANCH  20  21
ENDBRANCH  17  20
ENDBRANCH  15  16
ENDBRANCH  10  15
ENDBRANCH   3   9
ENDBRANCH   1   2
BRANCH   1  26
ATOM     26  C   UNL     1      -5.566  -3.401  13.696  1.00  0.00     0.310 C 
ATOM     27  O   UNL     1      -5.368  -3.466  14.906  1.00  0.00    -0.252 OA
BRANCH  26  28
ATOM     28  O   UNL     1      -6.781  -3.528  13.102  1.00  0.00    -0.462 OA
BRANCH  28  29
ATOM     29  C   UNL     1      -7.885  -3.815  13.982  1.00  0.00     0.274 C 
BRANCH  29  30
ATOM     30  C   UNL     1      -8.170  -5.314  14.025  1.00  0.00     0.275 C 
BRANCH  30  31
ATOM     31  O   UNL     1      -7.024  -6.016  14.540  1.00  0.00    -0.458 OA
BRANCH  31  32
ATOM     32  C   UNL     1      -6.517  -6.980  13.741  1.00  0.00     0.338 C 
ATOM     33  O   UNL     1      -6.940  -7.366  12.666  1.00  0.00    -0.246 OA
BRANCH  32  34
ATOM     34  C   UNL     1      -5.305  -7.535  14.360  1.00  0.00     0.060 A 
ATOM     35  C   UNL     1      -4.125  -6.789  14.369  1.00  0.00     0.016 A 
ATOM     36  C   UNL     1      -5.317  -8.850  14.823  1.00  0.00     0.016 A 
ATOM     37  C   UNL     1      -2.936  -7.374  14.799  1.00  0.00     0.010 A 
ATOM     38  C   UNL     1      -4.136  -9.415  15.310  1.00  0.00     0.010 A 
ATOM     39  C   UNL     1      -2.932  -8.691  15.279  1.00  0.00    -0.014 A 
BRANCH  39  40
ATOM     40  C   UNL     1      -1.667  -9.319  15.734  1.00  0.00     0.031 A 
ATOM     41  C   UNL     1      -1.071 -10.465  14.965  1.00  0.00     0.074 A 
ATOM     42  C   UNL     1      -1.057  -8.864  16.844  1.00  0.00     0.049 A 
ATOM     43  N   UNL     1      -0.036 -11.210  15.264  1.00  0.00    -0.248 NA
ATOM     44  C   UNL     1      -1.726 -10.825  13.698  1.00  0.00     0.031 C 
ATOM     45  C   UNL     1      -1.510  -7.736  17.660  1.00  0.00     0.029 A 
ATOM     46  N   UNL     1       0.079  -9.300  17.479  1.00  0.00    -0.354 N 
ATOM     47  C   UNL     1       0.064 -12.145  14.242  1.00  0.00     0.074 A 
ATOM     48  C   UNL     1      -1.019 -11.882  13.319  1.00  0.00     0.031 C 
ATOM     49  C   UNL     1      -0.652  -7.559  18.677  1.00  0.00     0.029 A 
ATOM     50  C   UNL     1       0.375  -8.593  18.618  1.00  0.00     0.049 A 
ATOM     51  H   UNL     1       0.628 -10.048  17.149  1.00  0.00     0.167 HD
ATOM     52  C   UNL     1       0.976 -13.135  14.088  1.00  0.00     0.031 A 
ATOM     53  C   UNL     1       1.348  -8.775  19.530  1.00  0.00     0.031 A 
ATOM     54  C   UNL     1       2.064 -13.389  14.994  1.00  0.00     0.049 A 
ATOM     55  C   UNL     1       2.311  -9.914  19.363  1.00  0.00     0.074 A 
ATOM     56  C   UNL     1       3.055 -14.352  14.905  1.00  0.00     0.029 A 
ATOM     57  N   UNL     1       2.306 -12.672  16.155  1.00  0.00    -0.354 N 
ATOM     58  N   UNL     1       2.390 -10.794  18.395  1.00  0.00    -0.248 NA
ATOM     59  C   UNL     1       3.315 -10.089  20.422  1.00  0.00     0.031 C 
ATOM     60  C   UNL     1       3.872 -14.245  16.036  1.00  0.00     0.029 A 
ATOM     61  C   UNL     1       3.416 -13.188  16.805  1.00  0.00     0.049 A 
ATOM     62  H   UNL     1       1.769 -11.911  16.472  1.00  0.00     0.167 HD
ATOM     63  C   UNL     1       3.462 -11.616  18.719  1.00  0.00     0.074 A 
ATOM     64  C   UNL     1       4.011 -11.120  19.964  1.00  0.00     0.031 C 
ATOM     65  C   UNL     1       3.946 -12.687  18.045  1.00  0.00     0.031 A 
BRANCH  52  66
ATOM     66  C   UNL     1       0.814 -14.047  12.905  1.00  0.00    -0.014 A 
ATOM     67  C   UNL     1       1.143 -13.628  11.607  1.00  0.00     0.009 A 
ATOM     68  C   UNL     1       0.363 -15.362  13.103  1.00  0.00     0.009 A 
ATOM     69  C   UNL     1       0.997 -14.501  10.527  1.00  0.00     0.001 A 
ATOM     70  C   UNL     1       0.240 -16.238  12.024  1.00  0.00     0.001 A 
ATOM     71  C   UNL     1       0.550 -15.805  10.736  1.00  0.00     0.000 A 
ENDBRANCH  52  66
BRANCH  53  72
ATOM     72  C   UNL     1       1.441  -7.872  20.704  1.00  0.00    -0.014 A 
ATOM     73  C   UNL     1       2.490  -6.947  20.808  1.00  0.00     0.009 A 
ATOM     74  C   UNL     1       0.486  -7.936  21.731  1.00  0.00     0.009 A 
ATOM     75  C   UNL     1       2.591  -6.116  21.926  1.00  0.00     0.001 A 
ATOM     76  C   UNL     1       0.575  -7.087  22.835  1.00  0.00     0.001 A 
ATOM     77  C   UNL     1       1.631  -6.184  22.935  1.00  0.00     0.000 A 
ENDBRANCH  53  72
BRANCH  65  78
ATOM     78  C   UNL     1       5.145 -13.373  18.631  1.00  0.00    -0.014 A 
ATOM     79  C   UNL     1       5.028 -14.202  19.757  1.00  0.00     0.009 A 
ATOM     80  C   UNL     1       6.404 -13.204  18.034  1.00  0.00     0.009 A 
ATOM     81  C   UNL     1       6.156 -14.824  20.293  1.00  0.00     0.001 A 
ATOM     82  C   UNL     1       7.526 -13.846  18.559  1.00  0.00     0.001 A 
ATOM     83  C   UNL     1       7.403 -14.649  19.693  1.00  0.00     0.000 A 
ENDBRANCH  65  78
ENDBRANCH  39  40
ENDBRANCH  32  34
ENDBRANCH  31  32
ENDBRANCH  30  31
ENDBRANCH  29  30
ENDBRANCH  28  29
ENDBRANCH  26  28
ENDBRANCH   1  26
TORSDOF 20
