REMARK SMILES CCN(Cc1ccc(Br)s1)C(=O)C[N@@H+](C)CC(=O)OCCOC(=O)c1ccc(-c2c3nc(c(-c4ccccc4)c4ccc([nH]4)c(-c4ccccc4)c4nc(c(-c5ccccc5)c5ccc2[nH]5)C=C4)C=C3)cc1
REMARK SMILES IDX 17 1 18 2 16 3 14 4 15 5 13 7 11 8 12 9 3 10 2 11 1 12 4 13
REMARK SMILES IDX 5 14 6 15 10 16 7 17 8 18 9 19 19 20 20 21 21 22 22 23 23 24
REMARK SMILES IDX 24 25 25 26 26 27 72 28 27 29 71 30 28 31 29 32 30 33 65 34
REMARK SMILES IDX 31 35 70 36 64 37 66 38 32 39 69 40 63 41 62 42 33 44 55 45
REMARK SMILES IDX 40 46 54 47 41 48 44 49 53 50 67 51 42 52 43 53 52 55 68 56
REMARK SMILES IDX 45 57 34 58 35 59 39 60 36 61 38 62 37 63 56 64 57 65 61 66
REMARK SMILES IDX 58 67 60 68 59 69 46 70 47 71 51 72 48 73 50 74 49 75
REMARK H PARENT 14 6 66 43 44 54
REMARK Flexibility Score: inf
ROOT
ATOM      1  C   UNL     1       4.223  -4.530   0.021  1.00  0.00     0.361 C 
ATOM      2  O   UNL     1       4.593  -4.375   1.183  1.00  0.00    -0.245 OA
ENDROOT
BRANCH   1   3
ATOM      3  C   UNL     1       2.759  -4.336  -0.366  1.00  0.00     0.386 C 
BRANCH   3   4
ATOM      4  N   UNL     1       2.358  -4.411  -1.786  1.00  0.00    -0.320 N 
ATOM      5  C   UNL     1       2.665  -5.687  -2.422  1.00  0.00     0.333 C 
ATOM      6  H   UNL     1       1.341  -4.345  -1.732  1.00  0.00     0.348 HD
BRANCH   4   7
ATOM      7  C   UNL     1       2.779  -3.271  -2.618  1.00  0.00     0.364 C 
BRANCH   7   8
ATOM      8  C   UNL     1       2.124  -1.931  -2.221  1.00  0.00     0.278 C 
ATOM      9  O   UNL     1       2.851  -0.958  -1.999  1.00  0.00    -0.268 OA
BRANCH   8  10
ATOM     10  N   UNL     1       0.740  -1.792  -2.193  1.00  0.00    -0.333 N 
BRANCH  10  11
ATOM     11  C   UNL     1       0.179  -0.482  -1.845  1.00  0.00     0.116 C 
ATOM     12  C   UNL     1       0.212  -0.211  -0.350  1.00  0.00     0.027 C 
ENDBRANCH  10  11
BRANCH  10  13
ATOM     13  C   UNL     1      -0.199  -2.828  -2.620  1.00  0.00     0.166 C 
BRANCH  13  14
ATOM     14  C   UNL     1      -0.167  -2.954  -4.117  1.00  0.00     0.025 A 
ATOM     15  C   UNL     1       0.103  -1.991  -5.077  1.00  0.00     0.018 A 
ATOM     16  S   UNL     1      -0.464  -4.482  -4.846  1.00  0.00    -0.131 S 
ATOM     17  C   UNL     1       0.157  -2.533  -6.394  1.00  0.00     0.028 A 
ATOM     18  C   UNL     1      -0.115  -3.877  -6.387  1.00  0.00     0.070 A 
ATOM     19  Br  UNL     1      -0.096  -4.944  -7.925  1.00  0.00    -0.039 Br
ENDBRANCH  13  14
ENDBRANCH  10  13
ENDBRANCH   8  10
ENDBRANCH   7   8
ENDBRANCH   4   7
ENDBRANCH   3   4
ENDBRANCH   1   3
BRANCH   1  20
ATOM     20  O   UNL     1       5.045  -4.899  -0.993  1.00  0.00    -0.458 OA
BRANCH  20  21
ATOM     21  C   UNL     1       6.442  -5.054  -0.664  1.00  0.00     0.274 C 
BRANCH  21  22
ATOM     22  C   UNL     1       7.228  -3.851  -1.173  1.00  0.00     0.275 C 
BRANCH  22  23
ATOM     23  O   UNL     1       6.689  -2.662  -0.573  1.00  0.00    -0.458 OA
BRANCH  23  24
ATOM     24  C   UNL     1       6.508  -1.609  -1.404  1.00  0.00     0.338 C 
ATOM     25  O   UNL     1       6.871  -1.527  -2.565  1.00  0.00    -0.246 OA
BRANCH  24  26
ATOM     26  C   UNL     1       5.788  -0.530  -0.691  1.00  0.00     0.060 A 
ATOM     27  C   UNL     1       4.796  -0.824   0.246  1.00  0.00     0.016 A 
ATOM     28  C   UNL     1       6.035   0.799  -1.043  1.00  0.00     0.016 A 
ATOM     29  C   UNL     1       3.995   0.198   0.755  1.00  0.00     0.010 A 
ATOM     30  C   UNL     1       5.288   1.829  -0.459  1.00  0.00     0.010 A 
ATOM     31  C   UNL     1       4.229   1.541   0.418  1.00  0.00    -0.014 A 
BRANCH  31  32
ATOM     32  C   UNL     1       3.358   2.629   0.955  1.00  0.00     0.031 A 
ATOM     33  C   UNL     1       2.662   3.595   0.025  1.00  0.00     0.074 A 
ATOM     34  C   UNL     1       3.174   2.765   2.284  1.00  0.00     0.049 A 
ATOM     35  N   UNL     1       2.042   4.716   0.312  1.00  0.00    -0.248 NA
ATOM     36  C   UNL     1       2.674   3.272  -1.411  1.00  0.00     0.031 C 
ATOM     37  C   UNL     1       3.739   1.895   3.317  1.00  0.00     0.029 A 
ATOM     38  N   UNL     1       2.445   3.688   2.996  1.00  0.00    -0.354 N 
ATOM     39  C   UNL     1       1.658   5.263  -0.907  1.00  0.00     0.074 A 
ATOM     40  C   UNL     1       2.103   4.348  -1.937  1.00  0.00     0.031 C 
ATOM     41  C   UNL     1       3.292   2.288   4.519  1.00  0.00     0.029 A 
ATOM     42  C   UNL     1       2.494   3.496   4.356  1.00  0.00     0.049 A 
ATOM     43  H   UNL     1       1.936   4.417   2.572  1.00  0.00     0.167 HD
ATOM     44  C   UNL     1       1.001   6.425  -1.146  1.00  0.00     0.031 A 
ATOM     45  C   UNL     1       1.997   4.227   5.370  1.00  0.00     0.031 A 
ATOM     46  C   UNL     1       0.499   7.311  -0.127  1.00  0.00     0.049 A 
ATOM     47  C   UNL     1       1.276   5.509   5.079  1.00  0.00     0.074 A 
ATOM     48  C   UNL     1      -0.185   8.507  -0.283  1.00  0.00     0.029 A 
ATOM     49  N   UNL     1       0.601   7.088   1.236  1.00  0.00    -0.354 N 
ATOM     50  N   UNL     1       1.002   6.057   3.922  1.00  0.00    -0.248 NA
ATOM     51  C   UNL     1       0.817   6.285   6.241  1.00  0.00     0.031 C 
ATOM     52  C   UNL     1      -0.474   9.019   0.986  1.00  0.00     0.029 A 
ATOM     53  C   UNL     1      -0.006   8.122   1.931  1.00  0.00     0.049 A 
ATOM     54  H   UNL     1       1.039   6.310   1.650  1.00  0.00     0.167 HD
ATOM     55  C   UNL     1       0.347   7.245   4.215  1.00  0.00     0.074 A 
ATOM     56  C   UNL     1       0.231   7.320   5.656  1.00  0.00     0.031 C 
ATOM     57  C   UNL     1      -0.103   8.197   3.363  1.00  0.00     0.031 A 
BRANCH  44  58
ATOM     58  C   UNL     1       0.799   6.837  -2.578  1.00  0.00    -0.014 A 
ATOM     59  C   UNL     1      -0.180   6.237  -3.383  1.00  0.00     0.009 A 
ATOM     60  C   UNL     1       1.547   7.906  -3.099  1.00  0.00     0.009 A 
ATOM     61  C   UNL     1      -0.395   6.691  -4.687  1.00  0.00     0.001 A 
ATOM     62  C   UNL     1       1.314   8.372  -4.394  1.00  0.00     0.001 A 
ATOM     63  C   UNL     1       0.346   7.761  -5.189  1.00  0.00     0.000 A 
ENDBRANCH  44  58
BRANCH  45  64
ATOM     64  C   UNL     1       2.224   3.792   6.772  1.00  0.00    -0.014 A 
ATOM     65  C   UNL     1       1.162   3.306   7.549  1.00  0.00     0.009 A 
ATOM     66  C   UNL     1       3.508   3.856   7.336  1.00  0.00     0.009 A 
ATOM     67  C   UNL     1       1.380   2.905   8.868  1.00  0.00     0.001 A 
ATOM     68  C   UNL     1       3.728   3.425   8.645  1.00  0.00     0.001 A 
ATOM     69  C   UNL     1       2.663   2.957   9.412  1.00  0.00     0.000 A 
ENDBRANCH  45  64
BRANCH  57  70
ATOM     70  C   UNL     1      -0.769   9.393   3.978  1.00  0.00    -0.014 A 
ATOM     71  C   UNL     1      -0.014  10.385   4.623  1.00  0.00     0.009 A 
ATOM     72  C   UNL     1      -2.164   9.526   3.918  1.00  0.00     0.009 A 
ATOM     73  C   UNL     1      -0.649  11.470   5.231  1.00  0.00     0.001 A 
ATOM     74  C   UNL     1      -2.794  10.623   4.507  1.00  0.00     0.001 A 
ATOM     75  C   UNL     1      -2.037  11.588   5.172  1.00  0.00     0.000 A 
ENDBRANCH  57  70
ENDBRANCH  31  32
ENDBRANCH  24  26
ENDBRANCH  23  24
ENDBRANCH  22  23
ENDBRANCH  21  22
ENDBRANCH  20  21
ENDBRANCH   1  20
TORSDOF 18
