REMARK SMILES CC(C)(C)C(=O)Nc1ccc(C(=O)OCCOC(=O)c2ccc(-c3c4nc(c(-c5ccccc5)c5ccc([nH]5)c(-c5ccccc5)c5nc(c(-c6ccccc6)c6ccc3[nH]6)C=C5)C=C4)cc2)cc1Br
REMARK SMILES IDX 15 1 14 2 12 3 13 4 11 5 8 6 9 7 69 8 10 9 68 10 70 11 7 12
REMARK SMILES IDX 5 13 6 14 2 16 1 17 3 18 4 19 16 20 17 21 18 22 19 23 20 24
REMARK SMILES IDX 21 25 67 26 22 27 66 28 23 29 24 30 25 31 60 32 26 33 65 34
REMARK SMILES IDX 59 35 61 36 27 37 64 38 58 39 57 40 28 42 50 43 35 44 49 45
REMARK SMILES IDX 36 46 39 47 48 48 62 49 37 50 38 51 47 53 63 54 40 55 29 56
REMARK SMILES IDX 30 57 34 58 31 59 33 60 32 61 51 62 52 63 56 64 53 65 55 66
REMARK SMILES IDX 54 67 41 68 42 69 46 70 43 71 45 72 44 73
REMARK H PARENT 7 15 61 41 39 52
REMARK Flexibility Score: inf
ROOT
ATOM      1  C   UNL     1      -4.522   3.332   6.257  1.00  0.00     0.275 C 
ENDROOT
BRANCH   1   2
ATOM      2  O   UNL     1      -3.841   2.260   5.579  1.00  0.00    -0.458 OA
BRANCH   2   3
ATOM      3  C   UNL     1      -2.492   2.289   5.656  1.00  0.00     0.338 C 
ATOM      4  O   UNL     1      -1.815   3.169   6.167  1.00  0.00    -0.246 OA
BRANCH   3   5
ATOM      5  C   UNL     1      -1.887   1.062   5.080  1.00  0.00     0.061 A 
ATOM      6  C   UNL     1      -0.554  -1.008   3.791  1.00  0.00     0.055 A 
ATOM      7  C   UNL     1       0.149  -0.193   4.673  1.00  0.00     0.028 A 
ATOM      8  C   UNL     1      -1.950  -0.922   3.707  1.00  0.00     0.042 A 
ATOM      9  C   UNL     1      -0.511   0.865   5.284  1.00  0.00     0.018 A 
ATOM     10  C   UNL     1      -2.620   0.126   4.343  1.00  0.00     0.033 A 
ATOM     11  Br  UNL     1      -2.966  -2.145   2.671  1.00  0.00    -0.049 Br
BRANCH   6  12
ATOM     12  N   UNL     1       0.193  -1.817   2.936  1.00  0.00    -0.325 N 
ATOM     13  C   UNL     1       0.856  -1.433   1.798  1.00  0.00     0.229 C 
ATOM     14  O   UNL     1       1.638  -2.265   1.322  1.00  0.00    -0.274 OA
ATOM     15  H   UNL     1       0.251  -2.771   3.175  1.00  0.00     0.169 HD
BRANCH  13  16
ATOM     16  C   UNL     1       0.659  -0.037   1.123  1.00  0.00     0.041 C 
ATOM     17  C   UNL     1       1.427  -0.059  -0.220  1.00  0.00     0.021 C 
ATOM     18  C   UNL     1       1.255   1.114   1.945  1.00  0.00     0.021 C 
ATOM     19  C   UNL     1      -0.808   0.262   0.784  1.00  0.00     0.021 C 
ENDBRANCH  13  16
ENDBRANCH   6  12
ENDBRANCH   3   5
ENDBRANCH   2   3
ENDBRANCH   1   2
BRANCH   1  20
ATOM     20  C   UNL     1      -5.073   2.849   7.600  1.00  0.00     0.275 C 
BRANCH  20  21
ATOM     21  O   UNL     1      -4.005   2.530   8.516  1.00  0.00    -0.458 OA
BRANCH  21  22
ATOM     22  C   UNL     1      -3.717   1.213   8.632  1.00  0.00     0.338 C 
ATOM     23  O   UNL     1      -4.271   0.278   8.080  1.00  0.00    -0.246 OA
BRANCH  22  24
ATOM     24  C   UNL     1      -2.514   1.035   9.458  1.00  0.00     0.060 A 
ATOM     25  C   UNL     1      -1.283   0.996   8.812  1.00  0.00     0.016 A 
ATOM     26  C   UNL     1      -2.596   0.752  10.819  1.00  0.00     0.016 A 
ATOM     27  C   UNL     1      -0.133   0.616   9.492  1.00  0.00     0.010 A 
ATOM     28  C   UNL     1      -1.425   0.436  11.524  1.00  0.00     0.010 A 
ATOM     29  C   UNL     1      -0.186   0.337  10.861  1.00  0.00    -0.014 A 
BRANCH  29  30
ATOM     30  C   UNL     1       1.048  -0.104  11.568  1.00  0.00     0.031 A 
ATOM     31  C   UNL     1       1.113  -1.467  12.203  1.00  0.00     0.074 A 
ATOM     32  C   UNL     1       2.131   0.698  11.610  1.00  0.00     0.049 A 
ATOM     33  N   UNL     1       2.049  -1.984  12.960  1.00  0.00    -0.248 NA
ATOM     34  C   UNL     1      -0.028  -2.365  11.964  1.00  0.00     0.031 C 
ATOM     35  C   UNL     1       2.234   2.021  10.991  1.00  0.00     0.029 A 
ATOM     36  N   UNL     1       3.361   0.510  12.193  1.00  0.00    -0.354 N 
ATOM     37  C   UNL     1       1.585  -3.240  13.332  1.00  0.00     0.074 A 
ATOM     38  C   UNL     1       0.284  -3.406  12.722  1.00  0.00     0.031 C 
ATOM     39  C   UNL     1       3.466   2.510  11.198  1.00  0.00     0.029 A 
ATOM     40  C   UNL     1       4.214   1.575  12.031  1.00  0.00     0.049 A 
ATOM     41  H   UNL     1       3.608  -0.310  12.679  1.00  0.00     0.167 HD
ATOM     42  C   UNL     1       2.186  -4.168  14.116  1.00  0.00     0.031 A 
ATOM     43  C   UNL     1       5.445   1.800  12.530  1.00  0.00     0.031 A 
ATOM     44  C   UNL     1       3.496  -4.019  14.694  1.00  0.00     0.049 A 
ATOM     45  C   UNL     1       6.074   0.773  13.427  1.00  0.00     0.074 A 
ATOM     46  C   UNL     1       4.196  -4.915  15.485  1.00  0.00     0.029 A 
ATOM     47  N   UNL     1       4.308  -2.907  14.536  1.00  0.00    -0.354 N 
ATOM     48  N   UNL     1       5.607  -0.394  13.800  1.00  0.00    -0.248 NA
ATOM     49  C   UNL     1       7.395   1.101  13.981  1.00  0.00     0.031 C 
ATOM     50  C   UNL     1       5.412  -4.324  15.846  1.00  0.00     0.029 A 
ATOM     51  C   UNL     1       5.492  -3.084  15.233  1.00  0.00     0.049 A 
ATOM     52  H   UNL     1       4.077  -2.110  14.007  1.00  0.00     0.167 HD
ATOM     53  C   UNL     1       6.581  -0.944  14.622  1.00  0.00     0.074 A 
ATOM     54  C   UNL     1       7.674   0.005  14.673  1.00  0.00     0.031 C 
ATOM     55  C   UNL     1       6.568  -2.128  15.282  1.00  0.00     0.031 A 
BRANCH  42  56
ATOM     56  C   UNL     1       1.405  -5.412  14.438  1.00  0.00    -0.014 A 
ATOM     57  C   UNL     1       1.173  -6.410  13.479  1.00  0.00     0.009 A 
ATOM     58  C   UNL     1       0.917  -5.598  15.742  1.00  0.00     0.009 A 
ATOM     59  C   UNL     1       0.437  -7.550  13.810  1.00  0.00     0.001 A 
ATOM     60  C   UNL     1       0.206  -6.751  16.078  1.00  0.00     0.001 A 
ATOM     61  C   UNL     1      -0.042  -7.722  15.109  1.00  0.00     0.000 A 
ENDBRANCH  42  56
BRANCH  43  62
ATOM     62  C   UNL     1       6.141   3.080  12.234  1.00  0.00    -0.014 A 
ATOM     63  C   UNL     1       7.282   3.105  11.418  1.00  0.00     0.009 A 
ATOM     64  C   UNL     1       5.660   4.287  12.766  1.00  0.00     0.009 A 
ATOM     65  C   UNL     1       7.935   4.312  11.156  1.00  0.00     0.001 A 
ATOM     66  C   UNL     1       6.296   5.495  12.476  1.00  0.00     0.001 A 
ATOM     67  C   UNL     1       7.438   5.506  11.678  1.00  0.00     0.000 A 
ENDBRANCH  43  62
BRANCH  55  68
ATOM     68  C   UNL     1       7.785  -2.472  16.091  1.00  0.00    -0.014 A 
ATOM     69  C   UNL     1       8.060  -1.823  17.305  1.00  0.00     0.009 A 
ATOM     70  C   UNL     1       8.657  -3.478  15.645  1.00  0.00     0.009 A 
ATOM     71  C   UNL     1       9.203  -2.149  18.037  1.00  0.00     0.001 A 
ATOM     72  C   UNL     1       9.784  -3.821  16.392  1.00  0.00     0.001 A 
ATOM     73  C   UNL     1      10.061  -3.151  17.582  1.00  0.00     0.000 A 
ENDBRANCH  55  68
ENDBRANCH  29  30
ENDBRANCH  22  24
ENDBRANCH  21  22
ENDBRANCH  20  21
ENDBRANCH   1  20
TORSDOF 13
