REMARK SMILES Cc1[nH]cnc1C[NH+]1CCC(Oc2cccc(F)c2)(C(=O)OCCOC(=O)c2ccc(-c3c4nc(c(-c5ccccc5)c5ccc([nH]5)c(-c5ccccc5)c5nc(c(-c6ccccc6)c6ccc3[nH]6)C=C5)C=C4)cc2)CC1
REMARK SMILES IDX 23 1 22 2 20 3 21 4 11 5 8 6 9 7 77 8 10 10 76 11 7 12 6 13
REMARK SMILES IDX 1 14 2 15 3 16 4 17 5 19 12 20 13 21 14 22 19 23 15 24 17 25
REMARK SMILES IDX 16 26 18 27 24 28 25 29 26 30 27 31 28 32 29 33 75 34 30 35
REMARK SMILES IDX 74 36 31 37 32 38 33 39 68 40 34 41 73 42 67 43 69 44 35 45
REMARK SMILES IDX 72 46 66 47 65 48 36 50 58 51 43 52 57 53 44 54 47 55 56 56
REMARK SMILES IDX 70 57 45 58 46 59 55 61 71 62 48 63 37 64 38 65 42 66 39 67
REMARK SMILES IDX 41 68 40 69 59 70 60 71 64 72 61 73 63 74 62 75 49 76 50 77
REMARK SMILES IDX 54 78 51 79 53 80 52 81
REMARK H PARENT 8 9 3 18 69 49 47 60
REMARK Flexibility Score: inf
ROOT
ATOM      1  C   UNL     1      -2.363  -0.482   5.463  1.00  0.00     0.274 C 
ENDROOT
BRANCH   1   2
ATOM      2  O   UNL     1      -1.509  -1.460   4.833  1.00  0.00    -0.459 OA
BRANCH   2   3
ATOM      3  C   UNL     1      -2.150  -2.538   4.297  1.00  0.00     0.351 C 
ATOM      4  O   UNL     1      -3.374  -2.632   4.224  1.00  0.00    -0.247 OA
BRANCH   3   5
ATOM      5  C   UNL     1      -1.202  -3.685   3.907  1.00  0.00     0.216 C 
ATOM      6  N   UNL     1       0.344  -3.329   1.466  1.00  0.00    -0.330 N 
ATOM      7  C   UNL     1       0.734  -2.568   2.652  1.00  0.00     0.267 C 
ATOM      8  C   UNL     1      -1.110  -3.412   1.370  1.00  0.00     0.267 C 
ATOM      9  H   UNL     1       0.715  -4.271   1.593  1.00  0.00     0.348 HD
ATOM     10  C   UNL     1       0.292  -3.322   3.906  1.00  0.00     0.122 C 
ATOM     11  C   UNL     1      -1.641  -4.248   2.534  1.00  0.00     0.122 C 
BRANCH   6  12
ATOM     12  C   UNL     1       0.967  -2.864   0.212  1.00  0.00     0.321 C 
BRANCH  12  13
ATOM     13  C   UNL     1       0.783  -1.405  -0.085  1.00  0.00     0.115 A 
ATOM     14  C   UNL     1       3.084  -0.307   0.543  1.00  0.00     0.066 C 
ATOM     15  C   UNL     1       1.686  -0.365   0.065  1.00  0.00     0.040 A 
ATOM     16  N   UNL     1       1.011   0.754  -0.349  1.00  0.00    -0.348 N 
ATOM     17  C   UNL     1      -0.210   0.356  -0.800  1.00  0.00     0.197 A 
ATOM     18  H   UNL     1       1.348   1.679  -0.324  1.00  0.00     0.167 HD
ATOM     19  N   UNL     1      -0.387  -0.935  -0.646  1.00  0.00    -0.236 NA
ENDBRANCH  12  13
ENDBRANCH   6  12
BRANCH   5  20
ATOM     20  O   UNL     1      -1.461  -4.530   5.075  1.00  0.00    -0.475 OA
BRANCH  20  21
ATOM     21  C   UNL     1      -1.530  -5.872   4.863  1.00  0.00     0.123 A 
ATOM     22  C   UNL     1      -0.381  -6.649   5.000  1.00  0.00     0.047 A 
ATOM     23  C   UNL     1      -2.765  -6.466   4.616  1.00  0.00     0.085 A 
ATOM     24  C   UNL     1      -0.454  -8.031   4.827  1.00  0.00     0.007 A 
ATOM     25  C   UNL     1      -2.825  -7.843   4.444  1.00  0.00     0.126 A 
ATOM     26  C   UNL     1      -1.681  -8.630   4.541  1.00  0.00     0.039 A 
ATOM     27  F   UNL     1      -4.003  -8.426   4.185  1.00  0.00    -0.207 F 
ENDBRANCH  20  21
ENDBRANCH   5  20
ENDBRANCH   3   5
ENDBRANCH   2   3
ENDBRANCH   1   2
BRANCH   1  28
ATOM     28  C   UNL     1      -2.648   0.690   4.531  1.00  0.00     0.275 C 
BRANCH  28  29
ATOM     29  O   UNL     1      -3.305   0.215   3.346  1.00  0.00    -0.458 OA
BRANCH  29  30
ATOM     30  C   UNL     1      -2.776   0.632   2.177  1.00  0.00     0.338 C 
ATOM     31  O   UNL     1      -1.867   1.443   2.035  1.00  0.00    -0.246 OA
BRANCH  30  32
ATOM     32  C   UNL     1      -3.453  -0.015   1.034  1.00  0.00     0.060 A 
ATOM     33  C   UNL     1      -3.862  -1.350   1.079  1.00  0.00     0.016 A 
ATOM     34  C   UNL     1      -3.555   0.701  -0.160  1.00  0.00     0.016 A 
ATOM     35  C   UNL     1      -4.235  -2.006  -0.095  1.00  0.00     0.010 A 
ATOM     36  C   UNL     1      -3.999   0.066  -1.320  1.00  0.00     0.010 A 
ATOM     37  C   UNL     1      -4.305  -1.302  -1.305  1.00  0.00    -0.014 A 
BRANCH  37  38
ATOM     38  C   UNL     1      -4.760  -1.959  -2.553  1.00  0.00     0.031 A 
ATOM     39  C   UNL     1      -3.846  -2.092  -3.738  1.00  0.00     0.074 A 
ATOM     40  C   UNL     1      -6.037  -2.373  -2.638  1.00  0.00     0.049 A 
ATOM     41  N   UNL     1      -4.142  -2.401  -4.976  1.00  0.00    -0.248 NA
ATOM     42  C   UNL     1      -2.416  -1.845  -3.505  1.00  0.00     0.031 C 
ATOM     43  C   UNL     1      -7.011  -2.340  -1.545  1.00  0.00     0.029 A 
ATOM     44  N   UNL     1      -6.742  -2.875  -3.701  1.00  0.00    -0.354 N 
ATOM     45  C   UNL     1      -2.942  -2.360  -5.675  1.00  0.00     0.074 A 
ATOM     46  C   UNL     1      -1.913  -1.992  -4.725  1.00  0.00     0.031 C 
ATOM     47  C   UNL     1      -8.189  -2.792  -1.996  1.00  0.00     0.029 A 
ATOM     48  C   UNL     1      -8.071  -3.066  -3.423  1.00  0.00     0.049 A 
ATOM     49  H   UNL     1      -6.335  -3.077  -4.575  1.00  0.00     0.167 HD
ATOM     50  C   UNL     1      -2.725  -2.606  -6.990  1.00  0.00     0.031 A 
ATOM     51  C   UNL     1      -9.102  -3.363  -4.232  1.00  0.00     0.031 A 
ATOM     52  C   UNL     1      -3.754  -2.985  -7.924  1.00  0.00     0.049 A 
ATOM     53  C   UNL     1      -8.858  -3.533  -5.698  1.00  0.00     0.074 A 
ATOM     54  C   UNL     1      -3.632  -3.279  -9.272  1.00  0.00     0.029 A 
ATOM     55  N   UNL     1      -5.096  -3.125  -7.606  1.00  0.00    -0.354 N 
ATOM     56  N   UNL     1      -7.730  -3.445  -6.359  1.00  0.00    -0.248 NA
ATOM     57  C   UNL     1     -10.031  -3.826  -6.532  1.00  0.00     0.031 C 
ATOM     58  C   UNL     1      -4.907  -3.555  -9.778  1.00  0.00     0.029 A 
ATOM     59  C   UNL     1      -5.816  -3.474  -8.736  1.00  0.00     0.049 A 
ATOM     60  H   UNL     1      -5.480  -2.995  -6.709  1.00  0.00     0.167 HD
ATOM     61  C   UNL     1      -8.053  -3.678  -7.687  1.00  0.00     0.074 A 
ATOM     62  C   UNL     1      -9.481  -3.923  -7.735  1.00  0.00     0.031 C 
ATOM     63  C   UNL     1      -7.238  -3.691  -8.768  1.00  0.00     0.031 A 
BRANCH  50  64
ATOM     64  C   UNL     1      -1.327  -2.448  -7.516  1.00  0.00    -0.014 A 
ATOM     65  C   UNL     1      -0.346  -3.424  -7.287  1.00  0.00     0.009 A 
ATOM     66  C   UNL     1      -1.012  -1.345  -8.327  1.00  0.00     0.009 A 
ATOM     67  C   UNL     1       0.926  -3.292  -7.850  1.00  0.00     0.001 A 
ATOM     68  C   UNL     1       0.254  -1.225  -8.902  1.00  0.00     0.001 A 
ATOM     69  C   UNL     1       1.223  -2.197  -8.661  1.00  0.00     0.000 A 
ENDBRANCH  50  64
BRANCH  51  70
ATOM     70  C   UNL     1     -10.466  -3.437  -3.657  1.00  0.00    -0.014 A 
ATOM     71  C   UNL     1     -11.082  -4.677  -3.442  1.00  0.00     0.009 A 
ATOM     72  C   UNL     1     -11.122  -2.265  -3.247  1.00  0.00     0.009 A 
ATOM     73  C   UNL     1     -12.331  -4.741  -2.822  1.00  0.00     0.001 A 
ATOM     74  C   UNL     1     -12.359  -2.335  -2.606  1.00  0.00     0.001 A 
ATOM     75  C   UNL     1     -12.963  -3.573  -2.396  1.00  0.00     0.000 A 
ENDBRANCH  51  70
BRANCH  63  76
ATOM     76  C   UNL     1      -7.881  -3.994 -10.088  1.00  0.00    -0.014 A 
ATOM     77  C   UNL     1      -8.617  -3.015 -10.772  1.00  0.00     0.009 A 
ATOM     78  C   UNL     1      -7.745  -5.270 -10.653  1.00  0.00     0.009 A 
ATOM     79  C   UNL     1      -9.233  -3.320 -11.986  1.00  0.00     0.001 A 
ATOM     80  C   UNL     1      -8.346  -5.566 -11.877  1.00  0.00     0.001 A 
ATOM     81  C   UNL     1      -9.096  -4.594 -12.538  1.00  0.00     0.000 A 
ENDBRANCH  63  76
ENDBRANCH  37  38
ENDBRANCH  30  32
ENDBRANCH  29  30
ENDBRANCH  28  29
ENDBRANCH   1  28
TORSDOF 15
