REMARK SMILES C#CC[NH2+]CC(=O)N(C)CCCC(=O)OCCOC(=O)c1ccc(-c2c3nc(c(-c4ccccc4)c4ccc([nH]4)c(-c4ccccc4)c4nc(c(-c5ccccc5)c5ccc2[nH]5)C=C4)C=C3)cc1
REMARK SMILES IDX 12 1 11 2 10 3 8 4 9 5 6 6 7 7 5 8 4 9 3 12 2 13 1 14 13 15
REMARK SMILES IDX 14 16 15 17 16 18 17 19 18 20 19 21 20 22 21 23 22 24 68 25
REMARK SMILES IDX 23 26 67 27 24 28 25 29 26 30 61 31 27 32 66 33 60 34 62 35
REMARK SMILES IDX 28 36 65 37 59 38 58 39 29 41 51 42 36 43 50 44 37 45 40 46
REMARK SMILES IDX 49 47 63 48 38 49 39 50 48 52 64 53 41 54 30 55 31 56 35 57
REMARK SMILES IDX 32 58 34 59 33 60 52 61 53 62 57 63 54 64 56 65 55 66 42 67
REMARK SMILES IDX 43 68 47 69 44 70 46 71 45 72
REMARK H PARENT 4 10 4 11 62 40 40 51
REMARK Flexibility Score: inf
ROOT
ATOM      1  C   UNL     1      -4.404   0.555   3.468  1.00  0.00     0.124 C 
ENDROOT
BRANCH   1   2
ATOM      2  C   UNL     1      -4.085  -0.920   3.208  1.00  0.00     0.033 C 
BRANCH   2   3
ATOM      3  C   UNL     1      -4.754  -1.625   2.012  1.00  0.00     0.120 C 
BRANCH   3   4
ATOM      4  N   UNL     1      -4.409  -1.113   0.684  1.00  0.00    -0.341 N 
ATOM      5  C   UNL     1      -4.166  -2.131  -0.330  1.00  0.00     0.147 C 
BRANCH   4   6
ATOM      6  C   UNL     1      -4.714   0.201   0.328  1.00  0.00     0.277 C 
ATOM      7  O   UNL     1      -5.619   0.830   0.878  1.00  0.00    -0.268 OA
BRANCH   6   8
ATOM      8  C   UNL     1      -3.826   0.906  -0.724  1.00  0.00     0.362 C 
BRANCH   8   9
ATOM      9  N   UNL     1      -2.433   1.171  -0.264  1.00  0.00    -0.328 N 
ATOM     10  H   UNL     1      -1.924   1.666  -0.997  1.00  0.00     0.347 HD
ATOM     11  H   UNL     1      -2.463   1.741   0.582  1.00  0.00     0.347 HD
BRANCH   9  12
ATOM     12  C   UNL     1      -1.764  -0.075   0.027  1.00  0.00     0.352 C 
BRANCH  12  13
ATOM     13  C   UNL     1      -0.244  -0.075   0.027  1.00  0.00    -0.047 C 
ATOM     14  C   UNL     1       1.060  -0.075   0.027  1.00  0.00     0.010 C 
ENDBRANCH  12  13
ENDBRANCH   9  12
ENDBRANCH   8   9
ENDBRANCH   6   8
ENDBRANCH   4   6
ENDBRANCH   3   4
ENDBRANCH   2   3
ENDBRANCH   1   2
BRANCH   1  15
ATOM     15  C   UNL     1      -5.853   0.914   3.740  1.00  0.00     0.305 C 
ATOM     16  O   UNL     1      -6.185   1.987   4.230  1.00  0.00    -0.252 OA
BRANCH  15  17
ATOM     17  O   UNL     1      -6.705  -0.078   3.395  1.00  0.00    -0.462 OA
BRANCH  17  18
ATOM     18  C   UNL     1      -8.117   0.160   3.489  1.00  0.00     0.274 C 
BRANCH  18  19
ATOM     19  C   UNL     1      -8.731  -0.784   4.522  1.00  0.00     0.275 C 
BRANCH  19  20
ATOM     20  O   UNL     1      -8.275  -0.440   5.842  1.00  0.00    -0.458 OA
BRANCH  20  21
ATOM     21  C   UNL     1      -7.119  -1.038   6.214  1.00  0.00     0.338 C 
ATOM     22  O   UNL     1      -6.520  -1.931   5.641  1.00  0.00    -0.246 OA
BRANCH  21  23
ATOM     23  C   UNL     1      -6.562  -0.316   7.366  1.00  0.00     0.060 A 
ATOM     24  C   UNL     1      -5.282   0.228   7.232  1.00  0.00     0.016 A 
ATOM     25  C   UNL     1      -7.253  -0.224   8.574  1.00  0.00     0.016 A 
ATOM     26  C   UNL     1      -4.672   0.853   8.312  1.00  0.00     0.010 A 
ATOM     27  C   UNL     1      -6.637   0.397   9.664  1.00  0.00     0.010 A 
ATOM     28  C   UNL     1      -5.336   0.916   9.542  1.00  0.00    -0.014 A 
BRANCH  28  29
ATOM     29  C   UNL     1      -4.606   1.414  10.728  1.00  0.00     0.031 A 
ATOM     30  C   UNL     1      -4.079   0.425  11.727  1.00  0.00     0.074 A 
ATOM     31  C   UNL     1      -4.371   2.729  10.879  1.00  0.00     0.049 A 
ATOM     32  N   UNL     1      -3.452   0.640  12.855  1.00  0.00    -0.248 NA
ATOM     33  C   UNL     1      -4.287  -0.999  11.413  1.00  0.00     0.031 C 
ATOM     34  C   UNL     1      -4.771   3.775   9.938  1.00  0.00     0.029 A 
ATOM     35  N   UNL     1      -3.723   3.405  11.881  1.00  0.00    -0.354 N 
ATOM     36  C   UNL     1      -3.219  -0.616  13.399  1.00  0.00     0.074 A 
ATOM     37  C   UNL     1      -3.780  -1.588  12.485  1.00  0.00     0.031 C 
ATOM     38  C   UNL     1      -4.345   4.963  10.401  1.00  0.00     0.029 A 
ATOM     39  C   UNL     1      -3.685   4.763  11.689  1.00  0.00     0.049 A 
ATOM     40  H   UNL     1      -3.324   2.959  12.662  1.00  0.00     0.167 HD
ATOM     41  C   UNL     1      -2.595  -0.931  14.558  1.00  0.00     0.031 A 
ATOM     42  C   UNL     1      -3.188   5.736  12.475  1.00  0.00     0.031 A 
ATOM     43  C   UNL     1      -2.030   0.037  15.459  1.00  0.00     0.049 A 
ATOM     44  C   UNL     1      -2.554   5.364  13.787  1.00  0.00     0.074 A 
ATOM     45  C   UNL     1      -1.372  -0.177  16.657  1.00  0.00     0.029 A 
ATOM     46  N   UNL     1      -2.058   1.409  15.255  1.00  0.00    -0.354 N 
ATOM     47  N   UNL     1      -2.352   4.174  14.300  1.00  0.00    -0.248 NA
ATOM     48  C   UNL     1      -2.080   6.472  14.627  1.00  0.00     0.031 C 
ATOM     49  C   UNL     1      -1.038   1.069  17.199  1.00  0.00     0.029 A 
ATOM     50  C   UNL     1      -1.445   2.055  16.315  1.00  0.00     0.049 A 
ATOM     51  H   UNL     1      -2.454   1.856  14.473  1.00  0.00     0.167 HD
ATOM     52  C   UNL     1      -1.708   4.388  15.511  1.00  0.00     0.074 A 
ATOM     53  C   UNL     1      -1.540   5.821  15.648  1.00  0.00     0.031 C 
ATOM     54  C   UNL     1      -1.291   3.482  16.429  1.00  0.00     0.031 A 
BRANCH  41  55
ATOM     55  C   UNL     1      -2.542  -2.384  14.935  1.00  0.00    -0.014 A 
ATOM     56  C   UNL     1      -1.700  -3.287  14.268  1.00  0.00     0.009 A 
ATOM     57  C   UNL     1      -3.350  -2.855  15.982  1.00  0.00     0.009 A 
ATOM     58  C   UNL     1      -1.697  -4.639  14.617  1.00  0.00     0.001 A 
ATOM     59  C   UNL     1      -3.326  -4.202  16.346  1.00  0.00     0.001 A 
ATOM     60  C   UNL     1      -2.507  -5.095  15.657  1.00  0.00     0.000 A 
ENDBRANCH  41  55
BRANCH  42  61
ATOM     61  C   UNL     1      -3.284   7.157  12.054  1.00  0.00    -0.014 A 
ATOM     62  C   UNL     1      -2.135   7.871  11.685  1.00  0.00     0.009 A 
ATOM     63  C   UNL     1      -4.527   7.810  12.028  1.00  0.00     0.009 A 
ATOM     64  C   UNL     1      -2.225   9.216  11.318  1.00  0.00     0.001 A 
ATOM     65  C   UNL     1      -4.617   9.147  11.635  1.00  0.00     0.001 A 
ATOM     66  C   UNL     1      -3.466   9.851  11.288  1.00  0.00     0.000 A 
ENDBRANCH  42  61
BRANCH  54  67
ATOM     67  C   UNL     1      -0.580   4.016  17.639  1.00  0.00    -0.014 A 
ATOM     68  C   UNL     1      -1.278   4.675  18.663  1.00  0.00     0.009 A 
ATOM     69  C   UNL     1       0.806   3.833  17.766  1.00  0.00     0.009 A 
ATOM     70  C   UNL     1      -0.595   5.171  19.775  1.00  0.00     0.001 A 
ATOM     71  C   UNL     1       1.482   4.306  18.891  1.00  0.00     0.001 A 
ATOM     72  C   UNL     1       0.782   4.983  19.889  1.00  0.00     0.000 A 
ENDBRANCH  54  67
ENDBRANCH  28  29
ENDBRANCH  21  23
ENDBRANCH  20  21
ENDBRANCH  19  20
ENDBRANCH  18  19
ENDBRANCH  17  18
ENDBRANCH  15  17
ENDBRANCH   1  15
TORSDOF 19
