REMARK SMILES Cc1ccc(S(=O)(=O)n2cc(C(=O)C(=O)N[C@@H](Cc3c[nH]c4ccccc34)C(=O)NCC(=O)OCCOC(=O)c3ccc(-c4c5nc(c(-c6ccccc6)c6ccc([nH]6)c(-c6ccccc6)c6nc(c(-c7ccccc7)c7ccc4[nH]7)C=C6)C=C5)cc3)c3ccccc32)cc1
REMARK SMILES IDX 32 1 33 2 31 3 30 4 28 5 29 6 17 8 16 9 14 10 15 11 12 13
REMARK SMILES IDX 13 14 11 15 9 16 10 17 93 18 88 19 92 20 89 21 91 22 90 23
REMARK SMILES IDX 6 24 7 25 8 26 5 27 1 28 2 29 3 30 95 31 4 32 94 33 18 34
REMARK SMILES IDX 19 35 20 36 27 37 21 38 22 39 26 40 23 42 25 43 24 44 34 45
REMARK SMILES IDX 35 46 36 47 37 48 38 49 39 50 40 51 41 52 87 53 42 54 86 55
REMARK SMILES IDX 43 56 44 57 45 58 80 59 46 60 85 61 79 62 81 63 47 64 84 65
REMARK SMILES IDX 78 66 77 67 48 69 70 70 55 71 69 72 56 73 59 74 68 75 82 76
REMARK SMILES IDX 57 77 58 78 67 80 83 81 60 82 49 83 50 84 54 85 51 86 53 87
REMARK SMILES IDX 52 88 71 89 72 90 76 91 73 92 75 93 74 94 61 95 62 96 66 97
REMARK SMILES IDX 63 98 65 99 64 100
REMARK H PARENT 30 7 16 12 21 41 81 68 59 79
REMARK Flexibility Score: inf
ROOT
ATOM      1  C   UNL     1     -11.048   3.431  -4.613  1.00  0.00     0.325 C 
ATOM      2  O   UNL     1     -12.031   3.134  -5.274  1.00  0.00    -0.250 OA
ENDROOT
BRANCH   1   3
ATOM      3  C   UNL     1     -10.531   2.627  -3.401  1.00  0.00     0.238 C 
BRANCH   3   4
ATOM      4  N   UNL     1     -11.595   1.984  -2.627  1.00  0.00    -0.343 N 
ATOM      5  C   UNL     1     -11.655   1.505  -1.348  1.00  0.00     0.243 C 
ATOM      6  O   UNL     1     -12.711   0.944  -1.027  1.00  0.00    -0.273 OA
ATOM      7  H   UNL     1     -12.435   1.876  -3.128  1.00  0.00     0.164 HD
BRANCH   5   8
ATOM      8  C   UNL     1     -10.447   1.506  -0.354  1.00  0.00     0.176 C 
BRANCH   8   9
ATOM      9  N   UNL     1      -9.329   2.383  -0.687  1.00  0.00    -0.337 N 
ATOM     10  C   UNL     1      -8.012   2.161  -1.010  1.00  0.00     0.293 C 
ATOM     11  O   UNL     1      -7.220   3.090  -1.121  1.00  0.00    -0.265 OA
ATOM     12  H   UNL     1      -9.570   3.337  -0.678  1.00  0.00     0.164 HD
BRANCH  10  13
ATOM     13  C   UNL     1      -7.559   0.757  -1.347  1.00  0.00     0.252 C 
ATOM     14  O   UNL     1      -8.230   0.190  -2.211  1.00  0.00    -0.283 OA
BRANCH  13  15
ATOM     15  C   UNL     1      -6.480   0.081  -0.624  1.00  0.00     0.054 A 
ATOM     16  N   UNL     1      -4.566  -0.531   0.412  1.00  0.00    -0.240 N 
ATOM     17  C   UNL     1      -5.221   0.532  -0.213  1.00  0.00     0.117 A 
ATOM     18  C   UNL     1      -5.515  -1.544   0.624  1.00  0.00     0.065 A 
ATOM     19  C   UNL     1      -6.546  -1.299  -0.278  1.00  0.00     0.012 A 
ATOM     20  C   UNL     1      -5.429  -2.764   1.320  1.00  0.00     0.028 A 
ATOM     21  C   UNL     1      -7.409  -2.358  -0.630  1.00  0.00     0.011 A 
ATOM     22  C   UNL     1      -6.261  -3.810   0.918  1.00  0.00     0.002 A 
ATOM     23  C   UNL     1      -7.212  -3.622  -0.075  1.00  0.00     0.001 A 
BRANCH  16  24
ATOM     24  S   UNL     1      -3.022  -1.179  -0.095  1.00  0.00     0.268 S 
ATOM     25  O   UNL     1      -3.262  -1.571  -1.473  1.00  0.00    -0.201 OA
ATOM     26  O   UNL     1      -2.731  -2.169   0.932  1.00  0.00    -0.201 OA
BRANCH  24  27
ATOM     27  C   UNL     1      -1.533  -0.246  -0.121  1.00  0.00     0.088 A 
ATOM     28  C   UNL     1       2.559   1.136  -0.024  1.00  0.00     0.044 C 
ATOM     29  C   UNL     1       1.123   0.700  -0.096  1.00  0.00    -0.051 A 
ATOM     30  C   UNL     1       0.873  -0.633  -0.394  1.00  0.00     0.005 A 
ATOM     31  C   UNL     1       0.032   1.555   0.177  1.00  0.00     0.005 A 
ATOM     32  C   UNL     1      -0.433  -1.088  -0.416  1.00  0.00     0.022 A 
ATOM     33  C   UNL     1      -1.308   1.089   0.171  1.00  0.00     0.022 A 
ENDBRANCH  24  27
ENDBRANCH  16  24
ENDBRANCH  13  15
ENDBRANCH  10  13
ENDBRANCH   8   9
BRANCH   8  34
ATOM     34  C   UNL     1     -10.932   1.796   1.109  1.00  0.00     0.072 C 
BRANCH  34  35
ATOM     35  C   UNL     1     -11.582   3.146   1.397  1.00  0.00    -0.020 A 
ATOM     36  C   UNL     1     -12.818   3.274   2.055  1.00  0.00     0.087 A 
ATOM     37  C   UNL     1     -11.161   4.475   1.021  1.00  0.00     0.003 A 
ATOM     38  N   UNL     1     -13.391   4.543   2.050  1.00  0.00    -0.361 N 
ATOM     39  C   UNL     1     -12.663   5.405   1.269  1.00  0.00     0.046 A 
ATOM     40  C   UNL     1      -9.743   5.300   0.183  1.00  0.00     0.010 A 
ATOM     41  H   UNL     1     -14.209   4.788   2.540  1.00  0.00     0.166 HD
ATOM     42  C   UNL     1     -12.930   6.974   0.355  1.00  0.00     0.026 A 
ATOM     43  C   UNL     1      -9.890   6.989  -0.520  1.00  0.00     0.001 A 
ATOM     44  C   UNL     1     -11.538   7.735  -0.595  1.00  0.00     0.002 A 
ENDBRANCH  34  35
ENDBRANCH   8  34
ENDBRANCH   5   8
ENDBRANCH   3   4
ENDBRANCH   1   3
BRANCH   1  45
ATOM     45  O   UNL     1     -10.253   4.514  -4.835  1.00  0.00    -0.461 OA
BRANCH  45  46
ATOM     46  C   UNL     1     -10.494   5.511  -5.872  1.00  0.00     0.274 C 
BRANCH  46  47
ATOM     47  C   UNL     1     -11.934   5.863  -6.326  1.00  0.00     0.275 C 
BRANCH  47  48
ATOM     48  O   UNL     1     -12.684   6.678  -5.401  1.00  0.00    -0.458 OA
BRANCH  48  49
ATOM     49  C   UNL     1     -13.597   6.022  -4.633  1.00  0.00     0.338 C 
ATOM     50  O   UNL     1     -14.754   5.804  -4.943  1.00  0.00    -0.246 OA
BRANCH  49  51
ATOM     51  C   UNL     1     -13.005   5.742  -3.311  1.00  0.00     0.060 A 
ATOM     52  C   UNL     1     -13.621   5.017  -2.329  1.00  0.00     0.016 A 
ATOM     53  C   UNL     1     -11.706   6.104  -3.076  1.00  0.00     0.016 A 
ATOM     54  C   UNL     1     -12.987   4.981  -1.058  1.00  0.00     0.010 A 
ATOM     55  C   UNL     1     -11.022   5.654  -1.957  1.00  0.00     0.010 A 
ATOM     56  C   UNL     1     -11.649   5.661  -0.627  1.00  0.00    -0.014 A 
BRANCH  56  57
ATOM     57  C   UNL     1     -11.013   6.648   1.153  1.00  0.00     0.031 A 
ATOM     58  C   UNL     1      -9.889   6.122   2.361  1.00  0.00     0.074 A 
ATOM     59  C   UNL     1     -11.134   8.002   1.731  1.00  0.00     0.049 A 
ATOM     60  N   UNL     1      -8.594   6.362   2.375  1.00  0.00    -0.248 NA
ATOM     61  C   UNL     1     -10.319   5.287   3.505  1.00  0.00     0.031 C 
ATOM     62  C   UNL     1     -10.205   8.764   2.592  1.00  0.00     0.029 A 
ATOM     63  N   UNL     1     -12.079   9.038   1.469  1.00  0.00    -0.354 N 
ATOM     64  C   UNL     1      -8.047   5.721   3.481  1.00  0.00     0.074 A 
ATOM     65  C   UNL     1      -9.147   4.946   4.040  1.00  0.00     0.031 C 
ATOM     66  C   UNL     1     -10.742   9.947   2.945  1.00  0.00     0.029 A 
ATOM     67  C   UNL     1     -12.102   9.975   2.469  1.00  0.00     0.049 A 
ATOM     68  H   UNL     1     -12.646   9.076   0.665  1.00  0.00     0.167 HD
ATOM     69  C   UNL     1      -7.266   6.394   4.374  1.00  0.00     0.031 A 
ATOM     70  C   UNL     1     -13.263  10.185   3.143  1.00  0.00     0.031 A 
ATOM     71  C   UNL     1      -7.858   7.562   4.995  1.00  0.00     0.049 A 
ATOM     72  C   UNL     1     -13.023   9.857   4.580  1.00  0.00     0.074 A 
ATOM     73  C   UNL     1      -7.559   8.912   4.978  1.00  0.00     0.029 A 
ATOM     74  N   UNL     1      -9.038   7.434   5.721  1.00  0.00    -0.354 N 
ATOM     75  N   UNL     1     -12.064   9.054   4.954  1.00  0.00    -0.248 NA
ATOM     76  C   UNL     1     -13.736  10.443   5.707  1.00  0.00     0.031 C 
ATOM     77  C   UNL     1      -8.614   9.600   5.637  1.00  0.00     0.029 A 
ATOM     78  C   UNL     1      -9.536   8.664   6.080  1.00  0.00     0.049 A 
ATOM     79  H   UNL     1      -9.461   6.574   5.947  1.00  0.00     0.167 HD
ATOM     80  C   UNL     1     -11.871   9.202   6.287  1.00  0.00     0.074 A 
ATOM     81  C   UNL     1     -13.011   9.978   6.742  1.00  0.00     0.031 C 
ATOM     82  C   UNL     1     -10.735   8.777   6.901  1.00  0.00     0.031 A 
BRANCH  69  83
ATOM     83  C   UNL     1      -5.816   5.984   4.430  1.00  0.00    -0.014 A 
ATOM     84  C   UNL     1      -4.866   6.746   5.130  1.00  0.00     0.009 A 
ATOM     85  C   UNL     1      -5.350   4.800   3.815  1.00  0.00     0.009 A 
ATOM     86  C   UNL     1      -3.520   6.358   5.201  1.00  0.00     0.001 A 
ATOM     87  C   UNL     1      -4.007   4.405   3.892  1.00  0.00     0.001 A 
ATOM     88  C   UNL     1      -3.091   5.187   4.584  1.00  0.00     0.000 A 
ENDBRANCH  69  83
BRANCH  70  89
ATOM     89  C   UNL     1     -14.501   9.977   2.321  1.00  0.00    -0.014 A 
ATOM     90  C   UNL     1     -14.622  10.723   1.119  1.00  0.00     0.009 A 
ATOM     91  C   UNL     1     -15.371   8.893   2.495  1.00  0.00     0.009 A 
ATOM     92  C   UNL     1     -15.493  10.338   0.093  1.00  0.00     0.001 A 
ATOM     93  C   UNL     1     -16.271   8.527   1.474  1.00  0.00     0.001 A 
ATOM     94  C   UNL     1     -16.309   9.227   0.265  1.00  0.00     0.000 A 
ENDBRANCH  70  89
BRANCH  82  95
ATOM     95  C   UNL     1     -10.634   8.555   8.372  1.00  0.00    -0.014 A 
ATOM     96  C   UNL     1     -11.746   8.215   9.154  1.00  0.00     0.009 A 
ATOM     97  C   UNL     1      -9.363   8.488   8.974  1.00  0.00     0.009 A 
ATOM     98  C   UNL     1     -11.599   7.874  10.499  1.00  0.00     0.001 A 
ATOM     99  C   UNL     1      -9.210   8.111  10.306  1.00  0.00     0.001 A 
ATOM    100  C   UNL     1     -10.331   7.815  11.072  1.00  0.00     0.000 A 
ENDBRANCH  82  95
ENDBRANCH  56  57
ENDBRANCH  49  51
ENDBRANCH  48  49
ENDBRANCH  47  48
ENDBRANCH  46  47
ENDBRANCH  45  46
ENDBRANCH   1  45
TORSDOF 20
