REMARK SMILES CC[C@@H](C)[C@@H](NC(N)=O)C(=O)N1CCC[C@H](C(=O)OCCOC(=O)c2ccc(-c3c4nc(c(-c5ccccc5)c5ccc([nH]5)c(-c5ccccc5)c5nc(c(-c6ccccc6)c6ccc3[nH]6)C=C5)C=C4)cc2)C1
REMARK SMILES IDX 20 1 19 2 17 3 18 4 16 5 12 6 13 7 73 8 14 9 15 10 10 11
REMARK SMILES IDX 11 12 5 13 3 14 4 15 2 16 1 17 6 18 7 19 8 21 9 22 21 25
REMARK SMILES IDX 22 26 23 27 24 28 25 29 26 30 72 31 27 32 71 33 28 34 29 35
REMARK SMILES IDX 30 36 65 37 31 38 70 39 64 40 66 41 32 42 69 43 63 44 62 45
REMARK SMILES IDX 33 47 55 48 40 49 54 50 41 51 44 52 53 53 67 54 42 55 43 56
REMARK SMILES IDX 52 58 68 59 45 60 34 61 35 62 39 63 36 64 38 65 37 66 56 67
REMARK SMILES IDX 57 68 61 69 58 70 60 71 59 72 46 73 47 74 51 75 48 76 50 77
REMARK SMILES IDX 49 78
REMARK H PARENT 6 20 8 23 8 24 66 46 44 57
REMARK Flexibility Score: inf
ROOT
ATOM      1  C   UNL     1       1.420  -4.097  -5.335  1.00  0.00     0.274 C 
ENDROOT
BRANCH   1   2
ATOM      2  O   UNL     1       2.471  -3.147  -5.589  1.00  0.00    -0.462 OA
BRANCH   2   3
ATOM      3  C   UNL     1       3.077  -2.549  -4.538  1.00  0.00     0.310 C 
ATOM      4  O   UNL     1       2.839  -2.788  -3.358  1.00  0.00    -0.252 OA
BRANCH   3   5
ATOM      5  C   UNL     1       4.104  -1.503  -4.959  1.00  0.00     0.119 C 
ATOM      6  N   UNL     1       2.465   0.183  -5.560  1.00  0.00    -0.340 N 
ATOM      7  C   UNL     1       2.813   0.189  -6.975  1.00  0.00     0.119 C 
ATOM      8  C   UNL     1       3.562  -0.107  -4.657  1.00  0.00     0.134 C 
ATOM      9  C   UNL     1       3.516  -1.091  -7.421  1.00  0.00     0.022 C 
ATOM     10  C   UNL     1       4.567  -1.585  -6.420  1.00  0.00     0.019 C 
BRANCH   6  11
ATOM     11  C   UNL     1       1.126   0.139  -5.179  1.00  0.00     0.245 C 
ATOM     12  O   UNL     1       0.307  -0.516  -5.831  1.00  0.00    -0.272 OA
BRANCH  11  13
ATOM     13  C   UNL     1       0.695   0.877  -3.864  1.00  0.00     0.176 C 
BRANCH  13  14
ATOM     14  C   UNL     1       0.758   0.021  -2.565  1.00  0.00     0.018 C 
ATOM     15  C   UNL     1      -0.015  -1.296  -2.706  1.00  0.00     0.010 C 
BRANCH  14  16
ATOM     16  C   UNL     1       0.225   0.805  -1.337  1.00  0.00     0.002 C 
ATOM     17  C   UNL     1       0.645   0.182  -0.009  1.00  0.00     0.004 C 
ENDBRANCH  14  16
ENDBRANCH  13  14
BRANCH  13  18
ATOM     18  N   UNL     1       1.490   2.108  -3.742  1.00  0.00    -0.326 N 
ATOM     19  C   UNL     1       1.392   3.095  -4.676  1.00  0.00     0.312 C 
ATOM     20  H   UNL     1       2.099   2.221  -2.977  1.00  0.00     0.166 HD
ATOM     21  N   UNL     1       2.163   4.170  -4.401  1.00  0.00    -0.352 N 
ATOM     22  O   UNL     1       0.718   3.044  -5.694  1.00  0.00    -0.249 OA
ATOM     23  H   UNL     1       2.699   4.194  -3.576  1.00  0.00     0.161 HD
ATOM     24  H   UNL     1       2.188   4.930  -5.027  1.00  0.00     0.161 HD
ENDBRANCH  13  18
ENDBRANCH  11  13
ENDBRANCH   6  11
ENDBRANCH   3   5
ENDBRANCH   2   3
ENDBRANCH   1   2
BRANCH   1  25
ATOM     25  C   UNL     1       1.884  -5.510  -5.689  1.00  0.00     0.275 C 
BRANCH  25  26
ATOM     26  O   UNL     1       2.889  -5.956  -4.759  1.00  0.00    -0.458 OA
BRANCH  26  27
ATOM     27  C   UNL     1       4.162  -5.688  -5.126  1.00  0.00     0.338 C 
ATOM     28  O   UNL     1       4.560  -5.225  -6.180  1.00  0.00    -0.246 OA
BRANCH  27  29
ATOM     29  C   UNL     1       5.039  -5.885  -3.966  1.00  0.00     0.060 A 
ATOM     30  C   UNL     1       5.619  -4.752  -3.392  1.00  0.00     0.016 A 
ATOM     31  C   UNL     1       5.345  -7.161  -3.496  1.00  0.00     0.016 A 
ATOM     32  C   UNL     1       6.517  -4.882  -2.343  1.00  0.00     0.010 A 
ATOM     33  C   UNL     1       6.253  -7.294  -2.443  1.00  0.00     0.010 A 
ATOM     34  C   UNL     1       6.851  -6.155  -1.872  1.00  0.00    -0.014 A 
BRANCH  34  35
ATOM     35  C   UNL     1       7.895  -6.288  -0.834  1.00  0.00     0.031 A 
ATOM     36  C   UNL     1       9.268  -6.744  -1.228  1.00  0.00     0.074 A 
ATOM     37  C   UNL     1       7.621  -5.954   0.439  1.00  0.00     0.049 A 
ATOM     38  N   UNL     1      10.301  -7.002  -0.469  1.00  0.00    -0.248 NA
ATOM     39  C   UNL     1       9.513  -6.929  -2.668  1.00  0.00     0.031 C 
ATOM     40  C   UNL     1       6.344  -5.424   0.921  1.00  0.00     0.029 A 
ATOM     41  N   UNL     1       8.408  -6.006   1.560  1.00  0.00    -0.354 N 
ATOM     42  C   UNL     1      11.310  -7.404  -1.334  1.00  0.00     0.074 A 
ATOM     43  C   UNL     1      10.765  -7.364  -2.674  1.00  0.00     0.031 C 
ATOM     44  C   UNL     1       6.437  -5.198   2.241  1.00  0.00     0.029 A 
ATOM     45  C   UNL     1       7.758  -5.614   2.703  1.00  0.00     0.049 A 
ATOM     46  H   UNL     1       9.348  -6.298   1.546  1.00  0.00     0.167 HD
ATOM     47  C   UNL     1      12.576  -7.775  -1.035  1.00  0.00     0.031 A 
ATOM     48  C   UNL     1       8.174  -5.621   3.983  1.00  0.00     0.031 A 
ATOM     49  C   UNL     1      13.111  -7.815   0.300  1.00  0.00     0.049 A 
ATOM     50  C   UNL     1       9.559  -6.116   4.296  1.00  0.00     0.074 A 
ATOM     51  C   UNL     1      14.376  -8.194   0.713  1.00  0.00     0.029 A 
ATOM     52  N   UNL     1      12.405  -7.457   1.438  1.00  0.00    -0.354 N 
ATOM     53  N   UNL     1      10.495  -6.525   3.474  1.00  0.00    -0.248 NA
ATOM     54  C   UNL     1       9.940  -6.156   5.714  1.00  0.00     0.031 C 
ATOM     55  C   UNL     1      14.422  -8.103   2.109  1.00  0.00     0.029 A 
ATOM     56  C   UNL     1      13.203  -7.622   2.558  1.00  0.00     0.049 A 
ATOM     57  H   UNL     1      11.475  -7.135   1.449  1.00  0.00     0.167 HD
ATOM     58  C   UNL     1      11.582  -6.852   4.273  1.00  0.00     0.074 A 
ATOM     59  C   UNL     1      11.195  -6.577   5.642  1.00  0.00     0.031 C 
ATOM     60  C   UNL     1      12.793  -7.340   3.908  1.00  0.00     0.031 A 
BRANCH  47  61
ATOM     61  C   UNL     1      13.453  -8.212  -2.173  1.00  0.00    -0.014 A 
ATOM     62  C   UNL     1      13.993  -7.284  -3.076  1.00  0.00     0.009 A 
ATOM     63  C   UNL     1      13.760  -9.573  -2.328  1.00  0.00     0.009 A 
ATOM     64  C   UNL     1      14.802  -7.715  -4.130  1.00  0.00     0.001 A 
ATOM     65  C   UNL     1      14.587  -9.998  -3.369  1.00  0.00     0.001 A 
ATOM     66  C   UNL     1      15.101  -9.070  -4.273  1.00  0.00     0.000 A 
ENDBRANCH  47  61
BRANCH  48  67
ATOM     67  C   UNL     1       7.259  -5.186   5.069  1.00  0.00    -0.014 A 
ATOM     68  C   UNL     1       7.502  -4.001   5.779  1.00  0.00     0.009 A 
ATOM     69  C   UNL     1       6.142  -5.965   5.411  1.00  0.00     0.009 A 
ATOM     70  C   UNL     1       6.659  -3.619   6.825  1.00  0.00     0.001 A 
ATOM     71  C   UNL     1       5.286  -5.566   6.438  1.00  0.00     0.001 A 
ATOM     72  C   UNL     1       5.550  -4.398   7.151  1.00  0.00     0.000 A 
ENDBRANCH  48  67
BRANCH  60  73
ATOM     73  C   UNL     1      13.792  -7.569   5.005  1.00  0.00    -0.014 A 
ATOM     74  C   UNL     1      13.671  -8.659   5.881  1.00  0.00     0.009 A 
ATOM     75  C   UNL     1      14.885  -6.700   5.142  1.00  0.00     0.009 A 
ATOM     76  C   UNL     1      14.610  -8.853   6.895  1.00  0.00     0.001 A 
ATOM     77  C   UNL     1      15.835  -6.912   6.141  1.00  0.00     0.001 A 
ATOM     78  C   UNL     1      15.692  -7.983   7.022  1.00  0.00     0.000 A 
ENDBRANCH  60  73
ENDBRANCH  34  35
ENDBRANCH  27  29
ENDBRANCH  26  27
ENDBRANCH  25  26
ENDBRANCH   1  25
TORSDOF 16
