REMARK SMILES Cc1cc(C(=O)OCCOC(=O)c2ccc(-c3c4nc(c(-c5ccccc5)c5ccc([nH]5)c(-c5ccccc5)c5nc(c(-c6ccccc6)c6ccc3[nH]6)C=C5)C=C4)cc2)ccc1NS(=O)(=O)c1ccc2c(c1)CCC2
REMARK SMILES IDX 8 1 7 2 5 3 6 4 4 5 1 6 2 7 3 8 63 9 62 10 61 11 64 12 65 14
REMARK SMILES IDX 66 15 67 16 68 17 69 18 73 19 70 20 72 21 71 22 74 23 76 24
REMARK SMILES IDX 75 25 9 26 10 27 11 28 12 29 13 30 14 31 60 32 15 33 59 34
REMARK SMILES IDX 16 35 17 36 18 37 53 38 19 39 58 40 52 41 54 42 20 43 57 44
REMARK SMILES IDX 51 45 50 46 21 48 43 49 28 50 42 51 29 52 32 53 41 54 55 55
REMARK SMILES IDX 30 56 31 57 40 59 56 60 33 61 22 62 23 63 27 64 24 65 26 66
REMARK SMILES IDX 25 67 44 68 45 69 49 70 46 71 48 72 47 73 34 74 35 75 39 76
REMARK SMILES IDX 36 77 38 78 37 79
REMARK H PARENT 64 13 54 47 32 58
REMARK Flexibility Score: inf
ROOT
ATOM      1  C   UNL     1      -3.784  -2.828  -2.168  1.00  0.00     0.275 C 
ENDROOT
BRANCH   1   2
ATOM      2  O   UNL     1      -2.587  -2.064  -1.911  1.00  0.00    -0.458 OA
BRANCH   2   3
ATOM      3  C   UNL     1      -2.794  -1.160  -0.908  1.00  0.00     0.338 C 
ATOM      4  O   UNL     1      -3.892  -0.954  -0.397  1.00  0.00    -0.246 OA
BRANCH   3   5
ATOM      5  C   UNL     1      -1.611  -0.372  -0.443  1.00  0.00     0.060 A 
ATOM      6  C   UNL     1       2.101   0.329  -0.798  1.00  0.00     0.046 C 
ATOM      7  C   UNL     1       0.630   0.587  -0.576  1.00  0.00    -0.026 A 
ATOM      8  C   UNL     1      -0.314  -0.403  -0.966  1.00  0.00     0.021 A 
ATOM      9  C   UNL     1       0.196   1.654   0.233  1.00  0.00     0.052 A 
ATOM     10  C   UNL     1      -0.969   1.507   0.965  1.00  0.00     0.028 A 
ATOM     11  C   UNL     1      -1.865   0.501   0.626  1.00  0.00     0.018 A 
BRANCH   9  12
ATOM     12  N   UNL     1       0.822   2.948   0.277  1.00  0.00    -0.279 N 
ATOM     13  H   UNL     1       1.643   3.082   0.803  1.00  0.00     0.180 HD
BRANCH  12  14
ATOM     14  S   UNL     1       0.120   4.276  -0.606  1.00  0.00     0.261 S 
ATOM     15  O   UNL     1       0.555   5.456   0.118  1.00  0.00    -0.201 OA
ATOM     16  O   UNL     1       0.503   4.094  -1.990  1.00  0.00    -0.201 OA
BRANCH  14  17
ATOM     17  C   UNL     1      -1.670   4.263  -0.553  1.00  0.00     0.088 A 
ATOM     18  C   UNL     1      -2.393   3.147  -0.999  1.00  0.00     0.022 A 
ATOM     19  C   UNL     1      -2.368   5.396  -0.107  1.00  0.00     0.026 A 
ATOM     20  C   UNL     1      -3.748   3.003  -0.676  1.00  0.00     0.005 A 
ATOM     21  C   UNL     1      -3.740   5.289   0.078  1.00  0.00    -0.043 A 
ATOM     22  C   UNL     1      -4.392   4.063  -0.072  1.00  0.00    -0.045 A 
ATOM     23  C   UNL     1      -4.747   6.351   0.396  1.00  0.00     0.036 C 
ATOM     24  C   UNL     1      -5.793   4.128   0.459  1.00  0.00     0.036 C 
ATOM     25  C   UNL     1      -5.807   5.518   1.123  1.00  0.00     0.010 C 
ENDBRANCH  14  17
ENDBRANCH  12  14
ENDBRANCH   9  12
ENDBRANCH   3   5
ENDBRANCH   2   3
ENDBRANCH   1   2
BRANCH   1  26
ATOM     26  C   UNL     1      -3.609  -4.191  -2.865  1.00  0.00     0.275 C 
BRANCH  26  27
ATOM     27  O   UNL     1      -2.345  -4.904  -2.830  1.00  0.00    -0.458 OA
BRANCH  27  28
ATOM     28  C   UNL     1      -1.333  -4.743  -1.953  1.00  0.00     0.338 C 
ATOM     29  O   UNL     1      -0.154  -4.852  -2.285  1.00  0.00    -0.246 OA
BRANCH  28  30
ATOM     30  C   UNL     1      -1.699  -4.428  -0.568  1.00  0.00     0.060 A 
ATOM     31  C   UNL     1      -0.848  -3.596   0.177  1.00  0.00     0.016 A 
ATOM     32  C   UNL     1      -2.928  -4.851  -0.067  1.00  0.00     0.016 A 
ATOM     33  C   UNL     1      -1.250  -3.140   1.421  1.00  0.00     0.010 A 
ATOM     34  C   UNL     1      -3.401  -4.271   1.079  1.00  0.00     0.010 A 
ATOM     35  C   UNL     1      -2.527  -3.491   1.850  1.00  0.00    -0.014 A 
BRANCH  35  36
ATOM     36  C   UNL     1      -2.891  -3.497   3.252  1.00  0.00     0.031 A 
ATOM     37  C   UNL     1      -3.480  -2.313   3.879  1.00  0.00     0.074 A 
ATOM     38  C   UNL     1      -2.742  -4.741   3.761  1.00  0.00     0.049 A 
ATOM     39  N   UNL     1      -3.404  -2.048   5.133  1.00  0.00    -0.248 NA
ATOM     40  C   UNL     1      -4.154  -1.257   3.123  1.00  0.00     0.031 C 
ATOM     41  C   UNL     1      -3.225  -5.382   4.964  1.00  0.00     0.029 A 
ATOM     42  N   UNL     1      -1.898  -5.709   3.196  1.00  0.00    -0.354 N 
ATOM     43  C   UNL     1      -4.337  -1.061   5.381  1.00  0.00     0.074 A 
ATOM     44  C   UNL     1      -4.606  -0.461   4.101  1.00  0.00     0.031 C 
ATOM     45  C   UNL     1      -2.458  -6.469   5.202  1.00  0.00     0.029 A 
ATOM     46  C   UNL     1      -1.372  -6.479   4.220  1.00  0.00     0.049 A 
ATOM     47  H   UNL     1      -1.711  -5.821   2.236  1.00  0.00     0.167 HD
ATOM     48  C   UNL     1      -4.958  -1.050   6.596  1.00  0.00     0.031 A 
ATOM     49  C   UNL     1      -0.044  -6.298   4.490  1.00  0.00     0.031 A 
ATOM     50  C   UNL     1      -4.422  -2.135   7.419  1.00  0.00     0.049 A 
ATOM     51  C   UNL     1       0.094  -5.569   5.806  1.00  0.00     0.074 A 
ATOM     52  C   UNL     1      -4.876  -3.426   7.631  1.00  0.00     0.029 A 
ATOM     53  N   UNL     1      -3.079  -2.119   7.769  1.00  0.00    -0.354 N 
ATOM     54  N   UNL     1      -0.729  -4.645   6.234  1.00  0.00    -0.248 NA
ATOM     55  C   UNL     1       1.102  -5.940   6.790  1.00  0.00     0.031 C 
ATOM     56  C   UNL     1      -3.752  -4.217   7.999  1.00  0.00     0.029 A 
ATOM     57  C   UNL     1      -2.630  -3.404   8.010  1.00  0.00     0.049 A 
ATOM     58  H   UNL     1      -2.525  -1.308   7.836  1.00  0.00     0.167 HD
ATOM     59  C   UNL     1      -0.466  -4.403   7.556  1.00  0.00     0.074 A 
ATOM     60  C   UNL     1       0.714  -5.205   7.844  1.00  0.00     0.031 C 
ATOM     61  C   UNL     1      -1.240  -3.630   8.373  1.00  0.00     0.031 A 
BRANCH  48  62
ATOM     62  C   UNL     1      -6.245  -0.333   6.934  1.00  0.00    -0.014 A 
ATOM     63  C   UNL     1      -6.980  -0.759   8.061  1.00  0.00     0.009 A 
ATOM     64  C   UNL     1      -6.811   0.724   6.201  1.00  0.00     0.009 A 
ATOM     65  C   UNL     1      -8.221  -0.205   8.405  1.00  0.00     0.001 A 
ATOM     66  C   UNL     1      -8.060   1.278   6.535  1.00  0.00     0.001 A 
ATOM     67  C   UNL     1      -8.767   0.809   7.634  1.00  0.00     0.000 A 
ENDBRANCH  48  62
BRANCH  49  68
ATOM     68  C   UNL     1       0.830  -6.105   3.275  1.00  0.00    -0.014 A 
ATOM     69  C   UNL     1       0.760  -7.071   2.240  1.00  0.00     0.009 A 
ATOM     70  C   UNL     1       1.519  -4.917   2.995  1.00  0.00     0.009 A 
ATOM     71  C   UNL     1       1.251  -6.816   0.953  1.00  0.00     0.001 A 
ATOM     72  C   UNL     1       2.042  -4.676   1.708  1.00  0.00     0.001 A 
ATOM     73  C   UNL     1       1.880  -5.609   0.683  1.00  0.00     0.000 A 
ENDBRANCH  49  68
BRANCH  61  74
ATOM     74  C   UNL     1      -0.762  -3.053   9.677  1.00  0.00    -0.014 A 
ATOM     75  C   UNL     1       0.591  -2.867   9.980  1.00  0.00     0.009 A 
ATOM     76  C   UNL     1      -1.702  -2.497  10.573  1.00  0.00     0.009 A 
ATOM     77  C   UNL     1       0.988  -2.221  11.153  1.00  0.00     0.001 A 
ATOM     78  C   UNL     1      -1.310  -1.788  11.706  1.00  0.00     0.001 A 
ATOM     79  C   UNL     1       0.039  -1.670  12.007  1.00  0.00     0.000 A 
ENDBRANCH  61  74
ENDBRANCH  35  36
ENDBRANCH  28  30
ENDBRANCH  27  28
ENDBRANCH  26  27
ENDBRANCH   1  26
TORSDOF 14
