REMARK SMILES Cc1ccccc1OCC[NH+]1CCC(CC(=O)OCCOC(=O)c2ccc(-c3c4nc(c(-c5ccccc5)c5ccc([nH]5)c(-c5ccccc5)c5nc(c(-c6ccccc6)c6ccc3[nH]6)C=C5)C=C4)cc2)CC1
REMARK SMILES IDX 18 1 16 2 17 3 15 4 14 5 11 6 12 7 73 8 13 10 72 11 10 12
REMARK SMILES IDX 9 13 8 14 7 15 1 16 2 17 3 18 4 19 6 20 5 21 19 22 20 23
REMARK SMILES IDX 21 24 22 25 23 26 24 27 25 28 71 29 26 30 70 31 27 32 28 33
REMARK SMILES IDX 29 34 64 35 30 36 69 37 63 38 65 39 31 40 68 41 62 42 61 43
REMARK SMILES IDX 32 45 54 46 39 47 53 48 40 49 43 50 52 51 66 52 41 53 42 54
REMARK SMILES IDX 51 56 67 57 44 58 33 59 34 60 38 61 35 62 37 63 36 64 55 65
REMARK SMILES IDX 56 66 60 67 57 68 59 69 58 70 45 71 46 72 50 73 47 74 49 75
REMARK SMILES IDX 48 76
REMARK H PARENT 11 9 65 44 43 55
REMARK Flexibility Score: inf
ROOT
ATOM      1  O   UNL     1       1.353  -2.640  -2.098  1.00  0.00    -0.462 OA
ENDROOT
BRANCH   1   2
ATOM      2  C   UNL     1       0.893  -2.599  -0.822  1.00  0.00     0.306 C 
ATOM      3  O   UNL     1      -0.271  -2.528  -0.495  1.00  0.00    -0.252 OA
BRANCH   2   4
ATOM      4  C   UNL     1       2.056  -2.667   0.140  1.00  0.00     0.126 C 
BRANCH   4   5
ATOM      5  C   UNL     1       3.225  -1.709  -0.204  1.00  0.00     0.011 C 
ATOM      6  N   UNL     1       3.306   1.008   0.520  1.00  0.00    -0.332 N 
ATOM      7  C   UNL     1       3.492   0.756  -0.901  1.00  0.00     0.262 C 
ATOM      8  C   UNL     1       4.283   0.210   1.251  1.00  0.00     0.262 C 
ATOM      9  H   UNL     1       2.380   0.703   0.819  1.00  0.00     0.348 HD
ATOM     10  C   UNL     1       2.786  -0.550  -1.132  1.00  0.00     0.066 C 
ATOM     11  C   UNL     1       3.958  -1.284   1.096  1.00  0.00     0.066 C 
BRANCH   6  12
ATOM     12  C   UNL     1       3.271   2.431   0.851  1.00  0.00     0.304 C 
BRANCH  12  13
ATOM     13  C   UNL     1       1.924   3.084   0.435  1.00  0.00     0.290 C 
BRANCH  13  14
ATOM     14  O   UNL     1       0.915   2.854   1.433  1.00  0.00    -0.487 OA
BRANCH  14  15
ATOM     15  C   UNL     1      -0.078   2.005   1.020  1.00  0.00     0.122 A 
ATOM     16  C   UNL     1       0.766   0.264   2.667  1.00  0.00     0.048 C 
ATOM     17  C   UNL     1      -0.207   0.758   1.641  1.00  0.00    -0.009 A 
ATOM     18  C   UNL     1      -1.264  -0.081   1.260  1.00  0.00     0.007 A 
ATOM     19  C   UNL     1      -2.198   0.326   0.308  1.00  0.00     0.001 A 
ATOM     20  C   UNL     1      -1.031   2.429   0.088  1.00  0.00     0.047 A 
ATOM     21  C   UNL     1      -2.088   1.587  -0.271  1.00  0.00     0.004 A 
ENDBRANCH  14  15
ENDBRANCH  13  14
ENDBRANCH  12  13
ENDBRANCH   6  12
ENDBRANCH   4   5
ENDBRANCH   2   4
ENDBRANCH   1   2
BRANCH   1  22
ATOM     22  C   UNL     1       0.382  -2.462  -3.123  1.00  0.00     0.274 C 
BRANCH  22  23
ATOM     23  C   UNL     1       0.913  -3.103  -4.407  1.00  0.00     0.275 C 
BRANCH  23  24
ATOM     24  O   UNL     1       1.899  -4.183  -4.278  1.00  0.00    -0.458 OA
BRANCH  24  25
ATOM     25  C   UNL     1       1.999  -5.170  -3.345  1.00  0.00     0.338 C 
ATOM     26  O   UNL     1       3.051  -5.758  -3.129  1.00  0.00    -0.246 OA
BRANCH  25  27
ATOM     27  C   UNL     1       0.795  -5.500  -2.561  1.00  0.00     0.060 A 
ATOM     28  C   UNL     1       0.891  -5.765  -1.182  1.00  0.00     0.016 A 
ATOM     29  C   UNL     1      -0.441  -5.424  -3.180  1.00  0.00     0.016 A 
ATOM     30  C   UNL     1      -0.266  -5.801  -0.393  1.00  0.00     0.010 A 
ATOM     31  C   UNL     1      -1.563  -5.332  -2.391  1.00  0.00     0.010 A 
ATOM     32  C   UNL     1      -1.496  -5.537  -0.998  1.00  0.00    -0.014 A 
BRANCH  32  33
ATOM     33  C   UNL     1      -2.805  -5.745  -0.376  1.00  0.00     0.031 A 
ATOM     34  C   UNL     1      -3.422  -4.915   0.680  1.00  0.00     0.074 A 
ATOM     35  C   UNL     1      -3.487  -6.766  -0.944  1.00  0.00     0.049 A 
ATOM     36  N   UNL     1      -4.454  -5.290   1.361  1.00  0.00    -0.248 NA
ATOM     37  C   UNL     1      -2.942  -3.603   1.094  1.00  0.00     0.031 C 
ATOM     38  C   UNL     1      -4.888  -7.129  -0.852  1.00  0.00     0.029 A 
ATOM     39  N   UNL     1      -2.906  -7.836  -1.638  1.00  0.00    -0.354 N 
ATOM     40  C   UNL     1      -4.935  -4.204   2.061  1.00  0.00     0.074 A 
ATOM     41  C   UNL     1      -3.914  -3.195   1.924  1.00  0.00     0.031 C 
ATOM     42  C   UNL     1      -5.003  -8.433  -1.165  1.00  0.00     0.029 A 
ATOM     43  C   UNL     1      -3.649  -8.961  -1.306  1.00  0.00     0.049 A 
ATOM     44  H   UNL     1      -2.128  -7.798  -2.240  1.00  0.00     0.167 HD
ATOM     45  C   UNL     1      -6.203  -4.253   2.564  1.00  0.00     0.031 A 
ATOM     46  C   UNL     1      -3.099  -9.980  -0.583  1.00  0.00     0.031 A 
ATOM     47  C   UNL     1      -6.774  -5.585   2.401  1.00  0.00     0.049 A 
ATOM     48  C   UNL     1      -3.876 -10.197   0.689  1.00  0.00     0.074 A 
ATOM     49  C   UNL     1      -7.627  -6.133   1.459  1.00  0.00     0.029 A 
ATOM     50  N   UNL     1      -6.215  -6.643   3.105  1.00  0.00    -0.354 N 
ATOM     51  N   UNL     1      -4.508  -9.248   1.322  1.00  0.00    -0.248 NA
ATOM     52  C   UNL     1      -4.015 -11.501   1.326  1.00  0.00     0.031 C 
ATOM     53  C   UNL     1      -7.487  -7.543   1.525  1.00  0.00     0.029 A 
ATOM     54  C   UNL     1      -6.586  -7.841   2.534  1.00  0.00     0.049 A 
ATOM     55  H   UNL     1      -5.638  -6.551   3.897  1.00  0.00     0.167 HD
ATOM     56  C   UNL     1      -5.223  -9.804   2.346  1.00  0.00     0.074 A 
ATOM     57  C   UNL     1      -4.840 -11.206   2.345  1.00  0.00     0.031 C 
ATOM     58  C   UNL     1      -6.116  -9.096   3.092  1.00  0.00     0.031 A 
BRANCH  45  59
ATOM     59  C   UNL     1      -7.037  -3.064   2.986  1.00  0.00    -0.014 A 
ATOM     60  C   UNL     1      -8.445  -3.163   2.924  1.00  0.00     0.009 A 
ATOM     61  C   UNL     1      -6.530  -1.824   3.401  1.00  0.00     0.009 A 
ATOM     62  C   UNL     1      -9.291  -2.078   3.192  1.00  0.00     0.001 A 
ATOM     63  C   UNL     1      -7.371  -0.727   3.660  1.00  0.00     0.001 A 
ATOM     64  C   UNL     1      -8.751  -0.851   3.545  1.00  0.00     0.000 A 
ENDBRANCH  45  59
BRANCH  46  65
ATOM     65  C   UNL     1      -1.611 -10.116  -0.695  1.00  0.00    -0.014 A 
ATOM     66  C   UNL     1      -1.049 -10.380  -1.964  1.00  0.00     0.009 A 
ATOM     67  C   UNL     1      -0.754  -9.671   0.323  1.00  0.00     0.009 A 
ATOM     68  C   UNL     1       0.303 -10.129  -2.225  1.00  0.00     0.001 A 
ATOM     69  C   UNL     1       0.606  -9.438   0.062  1.00  0.00     0.001 A 
ATOM     70  C   UNL     1       1.128  -9.644  -1.215  1.00  0.00     0.000 A 
ENDBRANCH  46  65
BRANCH  58  71
ATOM     71  C   UNL     1      -6.717  -9.564   4.385  1.00  0.00    -0.014 A 
ATOM     72  C   UNL     1      -6.071 -10.453   5.253  1.00  0.00     0.009 A 
ATOM     73  C   UNL     1      -7.904  -8.957   4.848  1.00  0.00     0.009 A 
ATOM     74  C   UNL     1      -6.609 -10.754   6.508  1.00  0.00     0.001 A 
ATOM     75  C   UNL     1      -8.420  -9.221   6.116  1.00  0.00     0.001 A 
ATOM     76  C   UNL     1      -7.775 -10.130   6.943  1.00  0.00     0.000 A 
ENDBRANCH  58  71
ENDBRANCH  32  33
ENDBRANCH  25  27
ENDBRANCH  24  25
ENDBRANCH  23  24
ENDBRANCH  22  23
ENDBRANCH   1  22
TORSDOF 16
