REMARK SMILES O=C(OCCOC(=O)c1cc(-c2ccoc2)n[nH]1)c1ccc(-c2c3nc(c(-c4ccccc4)c4ccc([nH]4)c(-c4ccccc4)c4nc(c(-c5ccccc5)c5ccc2[nH]5)C=C4)C=C3)cc1
REMARK SMILES IDX 4 1 3 2 2 3 1 4 19 5 20 6 66 7 21 8 65 9 22 10 23 11 24 12
REMARK SMILES IDX 59 13 25 14 64 15 58 16 60 17 26 18 63 19 57 20 56 21 27 23
REMARK SMILES IDX 49 24 34 25 48 26 35 27 38 28 47 29 61 30 36 31 37 32 46 34
REMARK SMILES IDX 62 35 39 36 28 37 29 38 33 39 30 40 32 41 31 42 50 43 51 44
REMARK SMILES IDX 55 45 52 46 54 47 53 48 40 49 41 50 45 51 42 52 44 53 43 54
REMARK SMILES IDX 5 55 6 56 7 57 8 58 9 59 10 60 18 61 11 62 17 63 12 65 13 66
REMARK SMILES IDX 16 67 14 68 15 69
REMARK H PARENT 60 22 38 33 18 64
REMARK Flexibility Score: inf
ROOT
ATOM      1  C   UNL     1       4.073  -1.223  -0.944  1.00  0.00     0.275 C 
ENDROOT
BRANCH   1   2
ATOM      2  O   UNL     1       3.000  -1.069   0.005  1.00  0.00    -0.458 OA
BRANCH   2   3
ATOM      3  C   UNL     1       2.784  -0.148   0.971  1.00  0.00     0.338 C 
ATOM      4  O   UNL     1       1.827  -0.307   1.729  1.00  0.00    -0.246 OA
BRANCH   3   5
ATOM      5  C   UNL     1       3.551   1.130   1.100  1.00  0.00     0.060 A 
ATOM      6  C   UNL     1       4.882   1.332   0.731  1.00  0.00     0.016 A 
ATOM      7  C   UNL     1       2.858   2.213   1.675  1.00  0.00     0.016 A 
ATOM      8  C   UNL     1       5.487   2.585   0.873  1.00  0.00     0.010 A 
ATOM      9  C   UNL     1       3.454   3.469   1.818  1.00  0.00     0.010 A 
ATOM     10  C   UNL     1       4.780   3.658   1.421  1.00  0.00    -0.014 A 
BRANCH  10  11
ATOM     11  C   UNL     1       5.476   4.931   1.694  1.00  0.00     0.031 A 
ATOM     12  C   UNL     1       5.965   5.204   3.083  1.00  0.00     0.074 A 
ATOM     13  C   UNL     1       5.705   5.812   0.705  1.00  0.00     0.049 A 
ATOM     14  N   UNL     1       6.663   6.217   3.527  1.00  0.00    -0.248 NA
ATOM     15  C   UNL     1       5.648   4.191   4.103  1.00  0.00     0.031 C 
ATOM     16  C   UNL     1       5.322   5.632  -0.693  1.00  0.00     0.029 A 
ATOM     17  N   UNL     1       6.303   7.044   0.732  1.00  0.00    -0.354 N 
ATOM     18  C   UNL     1       6.907   5.940   4.864  1.00  0.00     0.074 A 
ATOM     19  C   UNL     1       6.226   4.703   5.178  1.00  0.00     0.031 C 
ATOM     20  C   UNL     1       5.644   6.739  -1.384  1.00  0.00     0.029 A 
ATOM     21  C   UNL     1       6.267   7.695  -0.476  1.00  0.00     0.049 A 
ATOM     22  H   UNL     1       6.719   7.425   1.539  1.00  0.00     0.167 HD
ATOM     23  C   UNL     1       7.660   6.639   5.745  1.00  0.00     0.031 A 
ATOM     24  C   UNL     1       6.686   8.930  -0.806  1.00  0.00     0.031 A 
ATOM     25  C   UNL     1       8.285   7.896   5.447  1.00  0.00     0.049 A 
ATOM     26  C   UNL     1       7.373   9.767   0.232  1.00  0.00     0.074 A 
ATOM     27  C   UNL     1       9.074   8.688   6.260  1.00  0.00     0.029 A 
ATOM     28  N   UNL     1       8.163   8.560   4.234  1.00  0.00    -0.354 N 
ATOM     29  N   UNL     1       7.655   9.467   1.477  1.00  0.00    -0.248 NA
ATOM     30  C   UNL     1       7.829  11.098  -0.190  1.00  0.00     0.031 C 
ATOM     31  C   UNL     1       9.392   9.855   5.553  1.00  0.00     0.029 A 
ATOM     32  C   UNL     1       8.838   9.767   4.285  1.00  0.00     0.049 A 
ATOM     33  H   UNL     1       7.668   8.222   3.453  1.00  0.00     0.167 HD
ATOM     34  C   UNL     1       8.362  10.551   1.976  1.00  0.00     0.074 A 
ATOM     35  C   UNL     1       8.453  11.521   0.902  1.00  0.00     0.031 C 
ATOM     36  C   UNL     1       8.910  10.717   3.205  1.00  0.00     0.031 A 
BRANCH  23  37
ATOM     37  C   UNL     1       7.814   6.037   7.111  1.00  0.00    -0.014 A 
ATOM     38  C   UNL     1       8.605   4.891   7.305  1.00  0.00     0.009 A 
ATOM     39  C   UNL     1       7.126   6.582   8.204  1.00  0.00     0.009 A 
ATOM     40  C   UNL     1       8.662   4.274   8.556  1.00  0.00     0.001 A 
ATOM     41  C   UNL     1       7.203   5.975   9.459  1.00  0.00     0.001 A 
ATOM     42  C   UNL     1       7.959   4.815   9.630  1.00  0.00     0.000 A 
ENDBRANCH  23  37
BRANCH  24  43
ATOM     43  C   UNL     1       6.468   9.445  -2.179  1.00  0.00    -0.014 A 
ATOM     44  C   UNL     1       7.514   9.479  -3.112  1.00  0.00     0.009 A 
ATOM     45  C   UNL     1       5.199   9.906  -2.560  1.00  0.00     0.009 A 
ATOM     46  C   UNL     1       7.293   9.976  -4.400  1.00  0.00     0.001 A 
ATOM     47  C   UNL     1       4.977  10.385  -3.853  1.00  0.00     0.001 A 
ATOM     48  C   UNL     1       6.025  10.423  -4.770  1.00  0.00     0.000 A 
ENDBRANCH  24  43
BRANCH  36  49
ATOM     49  C   UNL     1       9.701  11.971   3.430  1.00  0.00    -0.014 A 
ATOM     50  C   UNL     1       9.070  13.208   3.625  1.00  0.00     0.009 A 
ATOM     51  C   UNL     1      11.102  11.900   3.477  1.00  0.00     0.009 A 
ATOM     52  C   UNL     1       9.833  14.358   3.838  1.00  0.00     0.001 A 
ATOM     53  C   UNL     1      11.860  13.046   3.714  1.00  0.00     0.001 A 
ATOM     54  C   UNL     1      11.225  14.275   3.887  1.00  0.00     0.000 A 
ENDBRANCH  36  49
ENDBRANCH  10  11
ENDBRANCH   3   5
ENDBRANCH   2   3
ENDBRANCH   1   2
BRANCH   1  55
ATOM     55  C   UNL     1       3.890  -0.459  -2.259  1.00  0.00     0.275 C 
BRANCH  55  56
ATOM     56  O   UNL     1       3.463   0.900  -2.089  1.00  0.00    -0.457 OA
BRANCH  56  57
ATOM     57  C   UNL     1       2.110   1.067  -2.057  1.00  0.00     0.356 C 
ATOM     58  O   UNL     1       1.285   0.175  -2.201  1.00  0.00    -0.244 OA
BRANCH  57  59
ATOM     59  C   UNL     1       1.782   2.408  -1.685  1.00  0.00     0.144 A 
ATOM     60  C   UNL     1       2.338   3.638  -1.980  1.00  0.00     0.066 A 
ATOM     61  N   UNL     1       0.726   2.678  -0.859  1.00  0.00    -0.271 N 
ATOM     62  C   UNL     1       1.582   4.566  -1.228  1.00  0.00     0.096 A 
ATOM     63  N   UNL     1       0.629   3.970  -0.506  1.00  0.00    -0.175 NA
ATOM     64  H   UNL     1       0.094   1.989  -0.551  1.00  0.00     0.190 HD
BRANCH  62  65
ATOM     65  C   UNL     1       1.782   6.004  -1.215  1.00  0.00     0.040 A 
ATOM     66  C   UNL     1       1.821   6.843  -2.355  1.00  0.00     0.052 A 
ATOM     67  C   UNL     1       1.916   6.826  -0.120  1.00  0.00     0.205 A 
ATOM     68  C   UNL     1       1.948   8.126  -1.872  1.00  0.00     0.195 A 
ATOM     69  O   UNL     1       2.028   8.123  -0.516  1.00  0.00    -0.472 OA
ENDBRANCH  62  65
ENDBRANCH  57  59
ENDBRANCH  56  57
ENDBRANCH  55  56
ENDBRANCH   1  55
TORSDOF 12
