REMARK SMILES O=CN[C@H](C(=O)OCCOC(=O)c1ccc(-c2c3nc(c(-c4ccccc4)c4ccc([nH]4)c(-c4ccccc4)c4nc(c(-c5ccccc5)c5ccc2[nH]5)C=C4)C=C3)cc1)[C@@H]1CCO[C@@]2(CCOC2)C1
REMARK SMILES IDX 9 1 8 2 7 3 5 4 6 5 4 6 3 7 1 8 2 9 61 11 62 12 70 13 63 14
REMARK SMILES IDX 65 15 64 16 66 17 69 18 67 19 68 20 10 21 11 22 12 23 13 24
REMARK SMILES IDX 14 25 60 26 15 27 59 28 16 29 17 30 18 31 53 32 19 33 58 34
REMARK SMILES IDX 52 35 54 36 20 37 57 38 51 39 50 40 21 42 43 43 28 44 42 45
REMARK SMILES IDX 29 46 32 47 41 48 55 49 30 50 31 51 40 53 56 54 33 55 22 56
REMARK SMILES IDX 23 57 27 58 24 59 26 60 25 61 44 62 45 63 49 64 46 65 48 66
REMARK SMILES IDX 47 67 34 68 35 69 39 70 36 71 38 72 37 73
REMARK H PARENT 3 10 54 41 32 52
REMARK Flexibility Score: inf
ROOT
ATOM      1  C   UNL     1      -0.024   0.167  -1.752  1.00  0.00     0.275 C 
ENDROOT
BRANCH   1   2
ATOM      2  C   UNL     1       0.574   1.575  -1.824  1.00  0.00     0.274 C 
BRANCH   2   3
ATOM      3  O   UNL     1       1.972   1.495  -2.158  1.00  0.00    -0.461 OA
BRANCH   3   4
ATOM      4  C   UNL     1       2.871   1.711  -1.160  1.00  0.00     0.329 C 
ATOM      5  O   UNL     1       2.590   2.148  -0.050  1.00  0.00    -0.250 OA
BRANCH   4   6
ATOM      6  C   UNL     1       4.280   1.185  -1.538  1.00  0.00     0.195 C 
BRANCH   6   7
ATOM      7  N   UNL     1       4.411   0.817  -2.944  1.00  0.00    -0.345 N 
ATOM      8  O   UNL     1       4.463   1.282  -5.164  1.00  0.00    -0.279 OA
ATOM      9  C   UNL     1       4.383   1.667  -4.006  1.00  0.00     0.337 C 
ATOM     10  H   UNL     1       4.532  -0.139  -3.143  1.00  0.00     0.164 HD
ENDBRANCH   6   7
BRANCH   6  11
ATOM     11  C   UNL     1       5.421   2.058  -0.929  1.00  0.00     0.028 C 
ATOM     12  C   UNL     1       6.646   2.318  -1.817  1.00  0.00     0.035 C 
ATOM     13  C   UNL     1       5.932   1.488   0.430  1.00  0.00     0.044 C 
ATOM     14  C   UNL     1       7.520   1.083  -1.924  1.00  0.00     0.161 C 
ATOM     15  C   UNL     1       7.055   0.416   0.329  1.00  0.00     0.094 C 
ATOM     16  O   UNL     1       8.041   0.779  -0.637  1.00  0.00    -0.372 OA
ATOM     17  C   UNL     1       7.781   0.259   1.663  1.00  0.00     0.066 C 
ATOM     18  C   UNL     1       6.563  -1.023   0.143  1.00  0.00     0.195 C 
ATOM     19  C   UNL     1       6.938  -0.737   2.420  1.00  0.00     0.163 C 
ATOM     20  O   UNL     1       6.286  -1.558   1.445  1.00  0.00    -0.378 OA
ENDBRANCH   6  11
ENDBRANCH   4   6
ENDBRANCH   3   4
ENDBRANCH   2   3
ENDBRANCH   1   2
BRANCH   1  21
ATOM     21  O   UNL     1       0.390  -0.520  -0.552  1.00  0.00    -0.458 OA
BRANCH  21  22
ATOM     22  C   UNL     1       1.489  -1.294  -0.671  1.00  0.00     0.338 C 
ATOM     23  O   UNL     1       2.183  -1.461  -1.668  1.00  0.00    -0.246 OA
BRANCH  22  24
ATOM     24  C   UNL     1       1.856  -1.846   0.637  1.00  0.00     0.060 A 
ATOM     25  C   UNL     1       2.808  -1.164   1.388  1.00  0.00     0.016 A 
ATOM     26  C   UNL     1       1.397  -3.097   1.049  1.00  0.00     0.016 A 
ATOM     27  C   UNL     1       3.362  -1.771   2.512  1.00  0.00     0.010 A 
ATOM     28  C   UNL     1       1.923  -3.678   2.214  1.00  0.00     0.010 A 
ATOM     29  C   UNL     1       2.949  -3.042   2.937  1.00  0.00    -0.014 A 
BRANCH  29  30
ATOM     30  C   UNL     1       3.655  -3.717   4.070  1.00  0.00     0.031 A 
ATOM     31  C   UNL     1       4.338  -5.049   3.863  1.00  0.00     0.074 A 
ATOM     32  C   UNL     1       3.758  -3.128   5.279  1.00  0.00     0.049 A 
ATOM     33  N   UNL     1       4.856  -5.861   4.753  1.00  0.00    -0.248 NA
ATOM     34  C   UNL     1       4.442  -5.537   2.479  1.00  0.00     0.031 C 
ATOM     35  C   UNL     1       3.224  -1.814   5.637  1.00  0.00     0.029 A 
ATOM     36  N   UNL     1       4.380  -3.555   6.430  1.00  0.00    -0.354 N 
ATOM     37  C   UNL     1       5.276  -6.983   4.047  1.00  0.00     0.074 A 
ATOM     38  C   UNL     1       4.964  -6.743   2.654  1.00  0.00     0.031 C 
ATOM     39  C   UNL     1       3.596  -1.514   6.892  1.00  0.00     0.029 A 
ATOM     40  C   UNL     1       4.316  -2.649   7.460  1.00  0.00     0.049 A 
ATOM     41  H   UNL     1       4.828  -4.428   6.507  1.00  0.00     0.167 HD
ATOM     42  C   UNL     1       5.862  -8.114   4.512  1.00  0.00     0.031 A 
ATOM     43  C   UNL     1       4.756  -2.724   8.731  1.00  0.00     0.031 A 
ATOM     44  C   UNL     1       6.251  -8.336   5.880  1.00  0.00     0.049 A 
ATOM     45  C   UNL     1       5.406  -3.984   9.227  1.00  0.00     0.074 A 
ATOM     46  C   UNL     1       6.838  -9.461   6.439  1.00  0.00     0.029 A 
ATOM     47  N   UNL     1       6.129  -7.405   6.896  1.00  0.00    -0.354 N 
ATOM     48  N   UNL     1       5.685  -5.082   8.570  1.00  0.00    -0.248 NA
ATOM     49  C   UNL     1       5.776  -4.021  10.650  1.00  0.00     0.031 C 
ATOM     50  C   UNL     1       7.055  -9.215   7.799  1.00  0.00     0.029 A 
ATOM     51  C   UNL     1       6.634  -7.926   8.077  1.00  0.00     0.049 A 
ATOM     52  H   UNL     1       5.742  -6.505   6.795  1.00  0.00     0.167 HD
ATOM     53  C   UNL     1       6.259  -5.940   9.499  1.00  0.00     0.074 A 
ATOM     54  C   UNL     1       6.318  -5.226  10.757  1.00  0.00     0.031 C 
ATOM     55  C   UNL     1       6.687  -7.213   9.324  1.00  0.00     0.031 A 
BRANCH  42  56
ATOM     56  C   UNL     1       6.084  -9.232   3.534  1.00  0.00    -0.014 A 
ATOM     57  C   UNL     1       7.132  -9.201   2.604  1.00  0.00     0.009 A 
ATOM     58  C   UNL     1       5.252 -10.363   3.587  1.00  0.00     0.009 A 
ATOM     59  C   UNL     1       7.327 -10.271   1.728  1.00  0.00     0.001 A 
ATOM     60  C   UNL     1       5.464 -11.440   2.726  1.00  0.00     0.001 A 
ATOM     61  C   UNL     1       6.497 -11.390   1.792  1.00  0.00     0.000 A 
ENDBRANCH  42  56
BRANCH  43  62
ATOM     62  C   UNL     1       4.555  -1.577   9.652  1.00  0.00    -0.014 A 
ATOM     63  C   UNL     1       5.647  -0.799  10.066  1.00  0.00     0.009 A 
ATOM     64  C   UNL     1       3.273  -1.261  10.128  1.00  0.00     0.009 A 
ATOM     65  C   UNL     1       5.459   0.267  10.949  1.00  0.00     0.001 A 
ATOM     66  C   UNL     1       3.085  -0.179  10.988  1.00  0.00     0.001 A 
ATOM     67  C   UNL     1       4.178   0.579  11.404  1.00  0.00     0.000 A 
ENDBRANCH  43  62
BRANCH  55  68
ATOM     68  C   UNL     1       7.273  -7.908  10.518  1.00  0.00    -0.014 A 
ATOM     69  C   UNL     1       6.448  -8.409  11.538  1.00  0.00     0.009 A 
ATOM     70  C   UNL     1       8.661  -8.084  10.614  1.00  0.00     0.009 A 
ATOM     71  C   UNL     1       7.007  -9.046  12.647  1.00  0.00     0.001 A 
ATOM     72  C   UNL     1       9.215  -8.739  11.716  1.00  0.00     0.001 A 
ATOM     73  C   UNL     1       8.389  -9.212  12.734  1.00  0.00     0.000 A 
ENDBRANCH  55  68
ENDBRANCH  29  30
ENDBRANCH  22  24
ENDBRANCH  21  22
ENDBRANCH   1  21
TORSDOF 13
