REMARK SMILES Cc1ccc(-c2nn(-c3ccccc3)cc2[C@@H]2[NH2+][C@H](C(=O)OCCOC(=O)c3ccc(-c4c5nc(c(-c6ccccc6)c6ccc([nH]6)c(-c6ccccc6)c6nc(c(-c7ccccc7)c7ccc4[nH]7)C=C6)C=C5)cc3)CS2)cc1
REMARK SMILES IDX 23 1 22 2 20 3 21 4 19 5 17 6 18 7 77 8 76 11 16 12 6 13
REMARK SMILES IDX 7 14 8 15 15 16 5 17 1 18 2 19 3 20 79 21 4 22 78 23 9 24
REMARK SMILES IDX 10 25 14 26 11 27 13 28 12 29 24 30 25 31 26 32 27 33 28 34
REMARK SMILES IDX 29 35 75 36 30 37 74 38 31 39 32 40 33 41 68 42 34 43 73 44
REMARK SMILES IDX 67 45 69 46 35 47 72 48 66 49 65 50 36 52 58 53 43 54 57 55
REMARK SMILES IDX 44 56 47 57 56 58 70 59 45 60 46 61 55 63 71 64 48 65 37 66
REMARK SMILES IDX 38 67 42 68 39 69 41 70 40 71 59 72 60 73 64 74 61 75 63 76
REMARK SMILES IDX 62 77 49 78 50 79 54 80 51 81 53 82 52 83
REMARK H PARENT 18 9 18 10 69 51 47 62
REMARK Flexibility Score: inf
ROOT
ATOM      1  C   UNL     1      -4.866  -2.637  -1.427  1.00  0.00     0.274 C 
ENDROOT
BRANCH   1   2
ATOM      2  O   UNL     1      -4.268  -2.678  -0.125  1.00  0.00    -0.458 OA
BRANCH   2   3
ATOM      3  C   UNL     1      -4.825  -1.824   0.783  1.00  0.00     0.365 C 
ATOM      4  O   UNL     1      -5.785  -1.105   0.546  1.00  0.00    -0.245 OA
BRANCH   3   5
ATOM      5  C   UNL     1      -4.093  -1.865   2.128  1.00  0.00     0.304 C 
ATOM      6  C   UNL     1      -2.962   0.251   2.088  1.00  0.00     0.278 C 
ATOM      7  N   UNL     1      -2.764  -1.211   2.020  1.00  0.00    -0.319 N 
ATOM      8  S   UNL     1      -4.158   0.486   3.429  1.00  0.00    -0.087 SA
ATOM      9  H   UNL     1      -2.166  -1.515   2.789  1.00  0.00     0.348 HD
ATOM     10  H   UNL     1      -2.316  -1.466   1.140  1.00  0.00     0.348 HD
ATOM     11  C   UNL     1      -4.858  -1.185   3.267  1.00  0.00     0.153 C 
BRANCH   6  12
ATOM     12  C   UNL     1      -3.427   0.764   0.755  1.00  0.00     0.067 A 
ATOM     13  C   UNL     1      -2.746   0.638  -0.489  1.00  0.00     0.103 A 
ATOM     14  N   UNL     1      -3.533   0.944  -1.530  1.00  0.00    -0.167 NA
ATOM     15  N   UNL     1      -4.698   1.358  -0.965  1.00  0.00    -0.240 N 
ATOM     16  C   UNL     1      -4.560   1.477   0.403  1.00  0.00     0.126 A 
BRANCH  13  17
ATOM     17  C   UNL     1      -1.328   0.359  -0.616  1.00  0.00     0.003 A 
ATOM     18  C   UNL     1       2.885  -0.224  -0.013  1.00  0.00     0.044 C 
ATOM     19  C   UNL     1       1.423  -0.021  -0.276  1.00  0.00    -0.051 A 
ATOM     20  C   UNL     1       0.561  -1.124  -0.379  1.00  0.00     0.004 A 
ATOM     21  C   UNL     1       0.904   1.271  -0.397  1.00  0.00     0.004 A 
ATOM     22  C   UNL     1      -0.814  -0.936  -0.549  1.00  0.00     0.011 A 
ATOM     23  C   UNL     1      -0.464   1.459  -0.569  1.00  0.00     0.011 A 
ENDBRANCH  13  17
BRANCH  15  24
ATOM     24  C   UNL     1      -5.886   1.555  -1.729  1.00  0.00     0.065 A 
ATOM     25  C   UNL     1      -5.961   1.073  -3.043  1.00  0.00     0.028 A 
ATOM     26  C   UNL     1      -7.015   2.163  -1.162  1.00  0.00     0.028 A 
ATOM     27  C   UNL     1      -7.161   1.168  -3.757  1.00  0.00     0.002 A 
ATOM     28  C   UNL     1      -8.212   2.253  -1.877  1.00  0.00     0.002 A 
ATOM     29  C   UNL     1      -8.286   1.751  -3.172  1.00  0.00     0.000 A 
ENDBRANCH  15  24
ENDBRANCH   6  12
ENDBRANCH   3   5
ENDBRANCH   2   3
ENDBRANCH   1   2
BRANCH   1  30
ATOM     30  C   UNL     1      -5.054  -4.037  -2.024  1.00  0.00     0.275 C 
BRANCH  30  31
ATOM     31  O   UNL     1      -5.106  -5.181  -1.117  1.00  0.00    -0.458 OA
BRANCH  31  32
ATOM     32  C   UNL     1      -5.812  -5.393   0.026  1.00  0.00     0.338 C 
ATOM     33  O   UNL     1      -5.582  -6.334   0.761  1.00  0.00    -0.246 OA
BRANCH  32  34
ATOM     34  C   UNL     1      -6.838  -4.404   0.408  1.00  0.00     0.060 A 
ATOM     35  C   UNL     1      -6.966  -4.008   1.752  1.00  0.00     0.016 A 
ATOM     36  C   UNL     1      -7.612  -3.817  -0.577  1.00  0.00     0.016 A 
ATOM     37  C   UNL     1      -7.800  -2.934   2.085  1.00  0.00     0.010 A 
ATOM     38  C   UNL     1      -8.278  -2.652  -0.279  1.00  0.00     0.010 A 
ATOM     39  C   UNL     1      -8.420  -2.224   1.055  1.00  0.00    -0.014 A 
BRANCH  39  40
ATOM     40  C   UNL     1      -9.448  -1.198   1.242  1.00  0.00     0.031 A 
ATOM     41  C   UNL     1      -9.235   0.149   1.813  1.00  0.00     0.074 A 
ATOM     42  C   UNL     1     -10.653  -1.603   0.785  1.00  0.00     0.049 A 
ATOM     43  N   UNL     1     -10.173   0.874   2.324  1.00  0.00    -0.248 NA
ATOM     44  C   UNL     1      -7.944   0.817   1.875  1.00  0.00     0.031 C 
ATOM     45  C   UNL     1     -11.903  -0.893   0.604  1.00  0.00     0.029 A 
ATOM     46  N   UNL     1     -10.991  -2.944   0.559  1.00  0.00    -0.354 N 
ATOM     47  C   UNL     1      -9.685   2.156   2.497  1.00  0.00     0.074 A 
ATOM     48  C   UNL     1      -8.268   2.049   2.288  1.00  0.00     0.031 C 
ATOM     49  C   UNL     1     -12.901  -1.803   0.615  1.00  0.00     0.029 A 
ATOM     50  C   UNL     1     -12.311  -3.099   0.953  1.00  0.00     0.049 A 
ATOM     51  H   UNL     1     -10.403  -3.643   0.191  1.00  0.00     0.167 HD
ATOM     52  C   UNL     1     -10.567   3.186   2.644  1.00  0.00     0.031 A 
ATOM     53  C   UNL     1     -12.544  -3.821   2.090  1.00  0.00     0.031 A 
ATOM     54  C   UNL     1     -11.924   2.670   2.767  1.00  0.00     0.049 A 
ATOM     55  C   UNL     1     -13.166  -2.955   3.152  1.00  0.00     0.074 A 
ATOM     56  C   UNL     1     -12.927   2.474   1.834  1.00  0.00     0.029 A 
ATOM     57  N   UNL     1     -12.251   1.906   3.880  1.00  0.00    -0.354 N 
ATOM     58  N   UNL     1     -12.933  -1.678   3.285  1.00  0.00    -0.248 NA
ATOM     59  C   UNL     1     -14.120  -3.468   4.127  1.00  0.00     0.031 C 
ATOM     60  C   UNL     1     -13.783   1.461   2.340  1.00  0.00     0.029 A 
ATOM     61  C   UNL     1     -13.325   1.088   3.592  1.00  0.00     0.049 A 
ATOM     62  H   UNL     1     -11.785   1.942   4.746  1.00  0.00     0.167 HD
ATOM     63  C   UNL     1     -13.739  -1.184   4.270  1.00  0.00     0.074 A 
ATOM     64  C   UNL     1     -14.439  -2.346   4.791  1.00  0.00     0.031 C 
ATOM     65  C   UNL     1     -13.808   0.140   4.581  1.00  0.00     0.031 A 
BRANCH  52  66
ATOM     66  C   UNL     1     -10.264   4.646   2.385  1.00  0.00    -0.014 A 
ATOM     67  C   UNL     1     -11.314   5.489   1.958  1.00  0.00     0.009 A 
ATOM     68  C   UNL     1      -8.998   5.247   2.476  1.00  0.00     0.009 A 
ATOM     69  C   UNL     1     -11.104   6.820   1.573  1.00  0.00     0.001 A 
ATOM     70  C   UNL     1      -8.778   6.578   2.077  1.00  0.00     0.001 A 
ATOM     71  C   UNL     1      -9.829   7.361   1.614  1.00  0.00     0.000 A 
ENDBRANCH  52  66
BRANCH  53  72
ATOM     72  C   UNL     1     -11.553  -4.920   2.377  1.00  0.00    -0.014 A 
ATOM     73  C   UNL     1     -11.296  -5.894   1.384  1.00  0.00     0.009 A 
ATOM     74  C   UNL     1     -10.693  -4.885   3.485  1.00  0.00     0.009 A 
ATOM     75  C   UNL     1     -10.176  -6.735   1.452  1.00  0.00     0.001 A 
ATOM     76  C   UNL     1      -9.586  -5.747   3.564  1.00  0.00     0.001 A 
ATOM     77  C   UNL     1      -9.313  -6.652   2.538  1.00  0.00     0.000 A 
ENDBRANCH  53  72
BRANCH  65  78
ATOM     78  C   UNL     1     -14.431   0.670   5.837  1.00  0.00    -0.014 A 
ATOM     79  C   UNL     1     -14.477  -0.063   7.030  1.00  0.00     0.009 A 
ATOM     80  C   UNL     1     -14.845   2.016   5.885  1.00  0.00     0.009 A 
ATOM     81  C   UNL     1     -14.980   0.503   8.204  1.00  0.00     0.001 A 
ATOM     82  C   UNL     1     -15.298   2.599   7.067  1.00  0.00     0.001 A 
ATOM     83  C   UNL     1     -15.382   1.835   8.224  1.00  0.00     0.000 A 
ENDBRANCH  65  78
ENDBRANCH  39  40
ENDBRANCH  32  34
ENDBRANCH  31  32
ENDBRANCH  30  31
ENDBRANCH   1  30
TORSDOF 14
