REMARK SMILES Cc1cc(C)n(-c2nc(C)c(C)c(Oc3cccc(C(=O)OCCOC(=O)c4ccc(-c5c6nc(c(-c7ccccc7)c7ccc([nH]7)c(-c7ccccc7)c7nc(c(-c8ccccc8)c8ccc5[nH]8)C=C7)C=C6)cc4)c3)n2)n1
REMARK SMILES IDX 23 1 22 2 20 3 21 4 19 5 15 6 16 7 76 8 17 9 18 10 14 11
REMARK SMILES IDX 13 12 7 13 8 14 77 15 9 16 10 17 11 18 12 19 6 20 1 21 2 22
REMARK SMILES IDX 3 23 78 24 4 25 5 26 24 27 25 28 26 29 27 30 28 31 29 32
REMARK SMILES IDX 75 33 30 34 74 35 31 36 32 37 33 38 68 39 34 40 73 41 67 42
REMARK SMILES IDX 69 43 35 44 72 45 66 46 65 47 36 49 58 50 43 51 57 52 44 53
REMARK SMILES IDX 47 54 56 55 70 56 45 57 46 58 55 60 71 61 48 62 37 63 38 64
REMARK SMILES IDX 42 65 39 66 41 67 40 68 59 69 60 70 64 71 61 72 63 73 62 74
REMARK SMILES IDX 49 75 50 76 54 77 51 78 53 79 52 80
REMARK H PARENT 69 48 47 59
REMARK Flexibility Score: inf
ROOT
ATOM      1  C   UNL     1      -5.820   2.914   1.465  1.00  0.00     0.275 C 
ENDROOT
BRANCH   1   2
ATOM      2  O   UNL     1      -4.702   3.817   1.448  1.00  0.00    -0.458 OA
BRANCH   2   3
ATOM      3  C   UNL     1      -4.281   4.208   0.217  1.00  0.00     0.338 C 
ATOM      4  O   UNL     1      -4.691   3.776  -0.853  1.00  0.00    -0.246 OA
BRANCH   3   5
ATOM      5  C   UNL     1      -3.325   5.339   0.320  1.00  0.00     0.063 A 
ATOM      6  C   UNL     1      -1.637   6.609   1.493  1.00  0.00     0.130 A 
ATOM      7  C   UNL     1      -1.500   7.455   0.392  1.00  0.00     0.047 A 
ATOM      8  C   UNL     1      -2.594   5.589   1.485  1.00  0.00     0.062 A 
ATOM      9  C   UNL     1      -2.264   7.239  -0.754  1.00  0.00     0.005 A 
ATOM     10  C   UNL     1      -3.160   6.170  -0.797  1.00  0.00     0.016 A 
BRANCH   6  11
ATOM     11  O   UNL     1      -0.823   6.875   2.570  1.00  0.00    -0.439 OA
BRANCH  11  12
ATOM     12  C   UNL     1      -0.154   5.810   3.172  1.00  0.00     0.227 A 
ATOM     13  C   UNL     1       0.346   3.583   3.253  1.00  0.00     0.254 A 
ATOM     14  N   UNL     1       0.909   3.703   4.474  1.00  0.00    -0.216 NA
ATOM     15  N   UNL     1      -0.147   4.615   2.555  1.00  0.00    -0.175 NA
ATOM     16  C   UNL     1       1.039   4.947   4.987  1.00  0.00     0.050 A 
ATOM     17  C   UNL     1       1.906   5.027   6.210  1.00  0.00     0.067 C 
ATOM     18  C   UNL     1       0.468   6.060   4.386  1.00  0.00     0.033 A 
ATOM     19  C   UNL     1       0.543   7.430   4.984  1.00  0.00     0.052 C 
BRANCH  13  20
ATOM     20  N   UNL     1       0.248   2.269   2.683  1.00  0.00    -0.203 N 
ATOM     21  C   UNL     1       0.857   0.097  -0.067  1.00  0.00     0.069 C 
ATOM     22  C   UNL     1       0.496   0.720   1.229  1.00  0.00     0.060 A 
ATOM     23  C   UNL     1       0.189   0.070   2.441  1.00  0.00     0.049 A 
ATOM     24  N   UNL     1       0.427   2.049   1.347  1.00  0.00    -0.170 NA
ATOM     25  C   UNL     1      -0.006   1.080   3.357  1.00  0.00     0.045 A 
ATOM     26  C   UNL     1      -0.472   1.024   4.764  1.00  0.00     0.067 C 
ENDBRANCH  13  20
ENDBRANCH  11  12
ENDBRANCH   6  11
ENDBRANCH   3   5
ENDBRANCH   2   3
ENDBRANCH   1   2
BRANCH   1  27
ATOM     27  C   UNL     1      -7.143   3.668   1.523  1.00  0.00     0.275 C 
BRANCH  27  28
ATOM     28  O   UNL     1      -7.448   4.328   0.293  1.00  0.00    -0.458 OA
BRANCH  28  29
ATOM     29  C   UNL     1      -7.061   5.622   0.232  1.00  0.00     0.338 C 
ATOM     30  O   UNL     1      -6.263   6.192   0.957  1.00  0.00    -0.246 OA
BRANCH  29  31
ATOM     31  C   UNL     1      -7.929   6.347  -0.704  1.00  0.00     0.060 A 
ATOM     32  C   UNL     1      -7.591   7.669  -1.002  1.00  0.00     0.016 A 
ATOM     33  C   UNL     1      -9.177   5.812  -1.060  1.00  0.00     0.016 A 
ATOM     34  C   UNL     1      -8.559   8.495  -1.538  1.00  0.00     0.010 A 
ATOM     35  C   UNL     1     -10.145   6.640  -1.589  1.00  0.00     0.010 A 
ATOM     36  C   UNL     1      -9.845   7.988  -1.768  1.00  0.00    -0.014 A 
BRANCH  36  37
ATOM     37  C   UNL     1     -10.834   8.890  -2.327  1.00  0.00     0.031 A 
ATOM     38  C   UNL     1     -10.519   9.325  -3.707  1.00  0.00     0.074 A 
ATOM     39  C   UNL     1     -11.980   9.235  -1.711  1.00  0.00     0.049 A 
ATOM     40  N   UNL     1     -10.225  10.516  -4.109  1.00  0.00    -0.248 NA
ATOM     41  C   UNL     1     -10.384   8.282  -4.736  1.00  0.00     0.031 C 
ATOM     42  C   UNL     1     -12.558   8.676  -0.487  1.00  0.00     0.029 A 
ATOM     43  N   UNL     1     -12.929  10.116  -2.130  1.00  0.00    -0.354 N 
ATOM     44  C   UNL     1     -10.034  10.411  -5.481  1.00  0.00     0.074 A 
ATOM     45  C   UNL     1      -9.997   9.004  -5.787  1.00  0.00     0.031 C 
ATOM     46  C   UNL     1     -13.849   9.070  -0.387  1.00  0.00     0.029 A 
ATOM     47  C   UNL     1     -14.136  10.016  -1.453  1.00  0.00     0.049 A 
ATOM     48  H   UNL     1     -12.773  10.768  -2.851  1.00  0.00     0.167 HD
ATOM     49  C   UNL     1     -10.169  11.490  -6.298  1.00  0.00     0.031 A 
ATOM     50  C   UNL     1     -15.296  10.631  -1.789  1.00  0.00     0.031 A 
ATOM     51  C   UNL     1     -10.083  12.729  -5.572  1.00  0.00     0.049 A 
ATOM     52  C   UNL     1     -14.955  11.780  -2.656  1.00  0.00     0.074 A 
ATOM     53  C   UNL     1      -9.118  13.352  -4.807  1.00  0.00     0.029 A 
ATOM     54  N   UNL     1     -11.269  13.357  -5.280  1.00  0.00    -0.354 N 
ATOM     55  N   UNL     1     -14.328  12.841  -2.237  1.00  0.00    -0.248 NA
ATOM     56  C   UNL     1     -14.977  11.597  -4.098  1.00  0.00     0.031 C 
ATOM     57  C   UNL     1      -9.837  14.022  -3.775  1.00  0.00     0.029 A 
ATOM     58  C   UNL     1     -11.201  13.807  -3.989  1.00  0.00     0.049 A 
ATOM     59  H   UNL     1     -12.033  13.465  -5.891  1.00  0.00     0.167 HD
ATOM     60  C   UNL     1     -13.521  13.214  -3.300  1.00  0.00     0.074 A 
ATOM     61  C   UNL     1     -14.058  12.498  -4.453  1.00  0.00     0.031 C 
ATOM     62  C   UNL     1     -12.329  13.844  -3.085  1.00  0.00     0.031 A 
BRANCH  49  63
ATOM     63  C   UNL     1     -10.827  11.401  -7.653  1.00  0.00    -0.014 A 
ATOM     64  C   UNL     1     -10.936  12.569  -8.427  1.00  0.00     0.009 A 
ATOM     65  C   UNL     1     -11.602  10.297  -8.061  1.00  0.00     0.009 A 
ATOM     66  C   UNL     1     -11.835  12.651  -9.497  1.00  0.00     0.001 A 
ATOM     67  C   UNL     1     -12.467  10.361  -9.155  1.00  0.00     0.001 A 
ATOM     68  C   UNL     1     -12.606  11.550  -9.854  1.00  0.00     0.000 A 
ENDBRANCH  49  63
BRANCH  50  69
ATOM     69  C   UNL     1     -16.688  10.156  -1.639  1.00  0.00    -0.014 A 
ATOM     70  C   UNL     1     -17.764  11.045  -1.804  1.00  0.00     0.009 A 
ATOM     71  C   UNL     1     -16.973   8.779  -1.628  1.00  0.00     0.009 A 
ATOM     72  C   UNL     1     -19.067  10.571  -2.007  1.00  0.00     0.001 A 
ATOM     73  C   UNL     1     -18.275   8.306  -1.824  1.00  0.00     0.001 A 
ATOM     74  C   UNL     1     -19.319   9.202  -2.033  1.00  0.00     0.000 A 
ENDBRANCH  50  69
BRANCH  62  75
ATOM     75  C   UNL     1     -12.051  14.380  -1.703  1.00  0.00    -0.014 A 
ATOM     76  C   UNL     1     -11.920  13.551  -0.575  1.00  0.00     0.009 A 
ATOM     77  C   UNL     1     -11.735  15.741  -1.573  1.00  0.00     0.009 A 
ATOM     78  C   UNL     1     -11.491  14.076   0.650  1.00  0.00     0.001 A 
ATOM     79  C   UNL     1     -11.287  16.259  -0.357  1.00  0.00     0.001 A 
ATOM     80  C   UNL     1     -11.166  15.427   0.754  1.00  0.00     0.000 A 
ENDBRANCH  62  75
ENDBRANCH  36  37
ENDBRANCH  29  31
ENDBRANCH  28  29
ENDBRANCH  27  28
ENDBRANCH   1  27
TORSDOF 14
