REMARK SMILES C[C@@H](C(=O)OCCOC(=O)c1ccc(-c2c3nc(c(-c4ccccc4)c4ccc([nH]4)c(-c4ccccc4)c4nc(c(-c5ccccc5)c5ccc2[nH]5)C=C4)C=C3)cc1)[C@@H](C)C(=O)c1cc(Cl)c2c(c1)OCCCO2
REMARK SMILES IDX 3 1 4 2 2 3 1 4 59 5 60 6 61 7 62 8 63 9 64 10 69 11 65 12
REMARK SMILES IDX 68 13 66 14 67 15 70 16 71 17 74 19 73 20 72 21 5 23 6 24
REMARK SMILES IDX 7 25 8 26 9 27 10 28 11 29 12 30 58 31 13 32 57 33 14 34
REMARK SMILES IDX 15 35 16 36 51 37 17 38 56 39 50 40 52 41 18 42 55 43 49 44
REMARK SMILES IDX 48 45 19 47 41 48 26 49 40 50 27 51 30 52 39 53 53 54 28 55
REMARK SMILES IDX 29 56 38 58 54 59 31 60 20 61 21 62 25 63 22 64 24 65 23 66
REMARK SMILES IDX 42 67 43 68 47 69 44 70 46 71 45 72 32 73 33 74 37 75 34 76
REMARK SMILES IDX 36 77 35 78
REMARK H PARENT 52 46 30 57
REMARK Flexibility Score: 80.00
ROOT
ATOM      1  C   UNL     1       0.981  -2.708   0.317  1.00  0.00     0.309 C 
ATOM      2  O   UNL     1       0.407  -3.783   0.419  1.00  0.00    -0.252 OA
ENDROOT
BRANCH   1   3
ATOM      3  C   UNL     1       0.534  -1.600  -0.645  1.00  0.00     0.106 C 
ATOM      4  C   UNL     1       0.958  -0.218  -0.122  1.00  0.00     0.021 C 
BRANCH   3   5
ATOM      5  C   UNL     1      -0.994  -1.653  -0.951  1.00  0.00     0.072 C 
ATOM      6  C   UNL     1      -1.417  -0.628  -2.014  1.00  0.00     0.017 C 
BRANCH   5   7
ATOM      7  C   UNL     1      -1.594  -3.041  -1.316  1.00  0.00     0.166 C 
ATOM      8  O   UNL     1      -2.560  -3.523  -0.735  1.00  0.00    -0.294 OA
BRANCH   7   9
ATOM      9  C   UNL     1      -1.139  -3.685  -2.564  1.00  0.00     0.023 A 
ATOM     10  C   UNL     1      -1.936  -3.474  -3.695  1.00  0.00     0.036 A 
ATOM     11  C   UNL     1       0.162  -4.169  -2.667  1.00  0.00     0.062 A 
ATOM     12  C   UNL     1      -1.330  -3.476  -4.943  1.00  0.00     0.087 A 
ATOM     13  C   UNL     1       0.771  -4.116  -3.905  1.00  0.00     0.163 A 
ATOM     14  Cl  UNL     1      -2.251  -3.008  -6.319  1.00  0.00    -0.080 Cl
ATOM     15  C   UNL     1       0.052  -3.661  -5.011  1.00  0.00     0.179 A 
BRANCH  13  16
ATOM     16  O   UNL     1       2.117  -4.335  -4.014  1.00  0.00    -0.489 OA
BRANCH  16  17
ATOM     17  C   UNL     1       2.842  -3.123  -3.797  1.00  0.00     0.233 CG0
ATOM     18  G   UNL     1       2.740  -2.103  -4.936  1.00  0.00     0.000 G0
ENDBRANCH  16  17
ENDBRANCH  13  16
BRANCH  15  19
ATOM     19  O   UNL     1       0.769  -3.093  -6.043  1.00  0.00    -0.488 OA
BRANCH  19  20
ATOM     20  C   UNL     1       1.346  -1.877  -5.518  1.00  0.00     0.233 C 
BRANCH  20  21
ATOM     21  C   UNL     1       2.740  -2.103  -4.936  1.00  0.00     0.083 CG0
ATOM     22  G   UNL     1       2.842  -3.123  -3.797  1.00  0.00     0.000 G0
ENDBRANCH  20  21
ENDBRANCH  19  20
ENDBRANCH  15  19
ENDBRANCH   7   9
ENDBRANCH   5   7
ENDBRANCH   3   5
ENDBRANCH   1   3
BRANCH   1  23
ATOM     23  O   UNL     1       2.132  -2.405   0.975  1.00  0.00    -0.462 OA
BRANCH  23  24
ATOM     24  C   UNL     1       2.627  -3.428   1.867  1.00  0.00     0.274 C 
BRANCH  24  25
ATOM     25  C   UNL     1       2.111  -3.216   3.291  1.00  0.00     0.275 C 
BRANCH  25  26
ATOM     26  O   UNL     1       0.679  -3.356   3.315  1.00  0.00    -0.458 OA
BRANCH  26  27
ATOM     27  C   UNL     1      -0.009  -2.431   4.024  1.00  0.00     0.338 C 
ATOM     28  O   UNL     1       0.446  -1.538   4.716  1.00  0.00    -0.246 OA
BRANCH  27  29
ATOM     29  C   UNL     1      -1.453  -2.604   3.772  1.00  0.00     0.060 A 
ATOM     30  C   UNL     1      -1.912  -2.479   2.467  1.00  0.00     0.016 A 
ATOM     31  C   UNL     1      -2.369  -2.762   4.807  1.00  0.00     0.016 A 
ATOM     32  C   UNL     1      -3.272  -2.465   2.177  1.00  0.00     0.010 A 
ATOM     33  C   UNL     1      -3.741  -2.819   4.513  1.00  0.00     0.010 A 
ATOM     34  C   UNL     1      -4.207  -2.651   3.193  1.00  0.00    -0.014 A 
BRANCH  34  35
ATOM     35  C   UNL     1      -5.657  -2.567   2.876  1.00  0.00     0.031 A 
ATOM     36  C   UNL     1      -6.463  -1.423   3.425  1.00  0.00     0.074 A 
ATOM     37  C   UNL     1      -6.248  -3.443   2.040  1.00  0.00     0.049 A 
ATOM     38  N   UNL     1      -7.759  -1.244   3.424  1.00  0.00    -0.248 NA
ATOM     39  C   UNL     1      -5.702  -0.327   4.047  1.00  0.00     0.031 C 
ATOM     40  C   UNL     1      -5.572  -4.511   1.301  1.00  0.00     0.029 A 
ATOM     41  N   UNL     1      -7.564  -3.560   1.659  1.00  0.00    -0.354 N 
ATOM     42  C   UNL     1      -7.972  -0.045   4.091  1.00  0.00     0.074 A 
ATOM     43  C   UNL     1      -6.673   0.468   4.471  1.00  0.00     0.031 C 
ATOM     44  C   UNL     1      -6.473  -5.162   0.547  1.00  0.00     0.029 A 
ATOM     45  C   UNL     1      -7.800  -4.614   0.809  1.00  0.00     0.049 A 
ATOM     46  H   UNL     1      -8.271  -2.947   1.966  1.00  0.00     0.167 HD
ATOM     47  C   UNL     1      -9.146   0.566   4.373  1.00  0.00     0.031 A 
ATOM     48  C   UNL     1      -8.957  -5.112   0.332  1.00  0.00     0.031 A 
ATOM     49  C   UNL     1     -10.436   0.071   3.975  1.00  0.00     0.049 A 
ATOM     50  C   UNL     1     -10.257  -4.489   0.759  1.00  0.00     0.074 A 
ATOM     51  C   UNL     1     -11.686   0.595   4.254  1.00  0.00     0.029 A 
ATOM     52  N   UNL     1     -10.637  -1.057   3.197  1.00  0.00    -0.354 N 
ATOM     53  N   UNL     1     -10.461  -3.417   1.486  1.00  0.00    -0.248 NA
ATOM     54  C   UNL     1     -11.489  -5.162   0.320  1.00  0.00     0.031 C 
ATOM     55  C   UNL     1     -12.648  -0.242   3.677  1.00  0.00     0.029 A 
ATOM     56  C   UNL     1     -11.993  -1.258   3.002  1.00  0.00     0.049 A 
ATOM     57  H   UNL     1      -9.923  -1.631   2.837  1.00  0.00     0.167 HD
ATOM     58  C   UNL     1     -11.840  -3.281   1.580  1.00  0.00     0.074 A 
ATOM     59  C   UNL     1     -12.424  -4.367   0.821  1.00  0.00     0.031 C 
ATOM     60  C   UNL     1     -12.558  -2.341   2.241  1.00  0.00     0.031 A 
BRANCH  47  61
ATOM     61  C   UNL     1      -9.084   1.800   5.223  1.00  0.00    -0.014 A 
ATOM     62  C   UNL     1      -8.669   3.035   4.703  1.00  0.00     0.009 A 
ATOM     63  C   UNL     1      -9.452   1.717   6.576  1.00  0.00     0.009 A 
ATOM     64  C   UNL     1      -8.594   4.157   5.532  1.00  0.00     0.001 A 
ATOM     65  C   UNL     1      -9.398   2.845   7.395  1.00  0.00     0.001 A 
ATOM     66  C   UNL     1      -8.961   4.061   6.875  1.00  0.00     0.000 A 
ENDBRANCH  47  61
BRANCH  48  67
ATOM     67  C   UNL     1      -8.954  -6.318  -0.539  1.00  0.00    -0.014 A 
ATOM     68  C   UNL     1      -9.356  -6.235  -1.881  1.00  0.00     0.009 A 
ATOM     69  C   UNL     1      -8.585  -7.569  -0.019  1.00  0.00     0.009 A 
ATOM     70  C   UNL     1      -9.407  -7.383  -2.676  1.00  0.00     0.001 A 
ATOM     71  C   UNL     1      -8.610  -8.710  -0.824  1.00  0.00     0.001 A 
ATOM     72  C   UNL     1      -9.030  -8.618  -2.149  1.00  0.00     0.000 A 
ENDBRANCH  48  67
BRANCH  60  73
ATOM     73  C   UNL     1     -14.054  -2.428   2.146  1.00  0.00    -0.014 A 
ATOM     74  C   UNL     1     -14.772  -3.392   2.869  1.00  0.00     0.009 A 
ATOM     75  C   UNL     1     -14.754  -1.506   1.353  1.00  0.00     0.009 A 
ATOM     76  C   UNL     1     -16.164  -3.447   2.779  1.00  0.00     0.001 A 
ATOM     77  C   UNL     1     -16.147  -1.549   1.283  1.00  0.00     0.001 A 
ATOM     78  C   UNL     1     -16.850  -2.523   1.990  1.00  0.00     0.000 A 
ENDBRANCH  60  73
ENDBRANCH  34  35
ENDBRANCH  27  29
ENDBRANCH  26  27
ENDBRANCH  25  26
ENDBRANCH  24  25
ENDBRANCH  23  24
ENDBRANCH   1  23
TORSDOF 14
