REMARK SMILES Cc1cc(Br)cc2c1O[C@H](C(F)(F)F)C(C(=O)OCCOC(=O)c1ccc(-c3c4nc(c(-c5ccccc5)c5ccc([nH]5)c(-c5ccccc5)c5nc(c(-c6ccccc6)c6ccc3[nH]6)C=C5)C=C4)cc1)=C2
REMARK SMILES IDX 20 1 19 2 18 3 16 4 17 5 15 6 1 7 2 8 3 9 8 10 4 11 7 12
REMARK SMILES IDX 9 13 5 14 6 15 72 16 10 17 11 18 12 19 13 20 14 21 21 22
REMARK SMILES IDX 22 23 23 24 24 25 25 26 71 27 26 28 70 29 27 30 28 31 29 32
REMARK SMILES IDX 64 33 30 34 69 35 63 36 65 37 31 38 68 39 62 40 61 41 32 43
REMARK SMILES IDX 54 44 39 45 53 46 40 47 43 48 52 49 66 50 41 51 42 52 51 54
REMARK SMILES IDX 67 55 44 56 33 57 34 58 38 59 35 60 37 61 36 62 55 63 56 64
REMARK SMILES IDX 60 65 57 66 59 67 58 68 45 69 46 70 50 71 47 72 49 73 48 74
REMARK H PARENT 65 42 43 53
REMARK Flexibility Score: inf
ROOT
ATOM      1  C   UNL     1      -4.399   1.721   7.104  1.00  0.00     0.275 C 
ENDROOT
BRANCH   1   2
ATOM      2  C   UNL     1      -4.765   0.912   5.859  1.00  0.00     0.275 C 
BRANCH   2   3
ATOM      3  O   UNL     1      -3.641   0.787   4.960  1.00  0.00    -0.459 OA
BRANCH   3   4
ATOM      4  C   UNL     1      -3.669   1.598   3.879  1.00  0.00     0.338 C 
ATOM      5  O   UNL     1      -4.545   2.399   3.590  1.00  0.00    -0.246 OA
BRANCH   4   6
ATOM      6  C   UNL     1      -2.454   1.421   3.062  1.00  0.00     0.087 C 
ATOM      7  C   UNL     1       1.157  -0.322  -0.184  1.00  0.00     0.048 C 
ATOM      8  C   UNL     1       0.735   1.007   0.376  1.00  0.00    -0.007 A 
ATOM      9  C   UNL     1       1.361   2.170  -0.109  1.00  0.00     0.023 A 
ATOM     10  C   UNL     1      -0.306   1.126   1.310  1.00  0.00     0.130 A 
ATOM     11  C   UNL     1       0.979   3.425   0.359  1.00  0.00     0.019 A 
ATOM     12  C   UNL     1      -0.686   2.391   1.764  1.00  0.00     0.019 A 
ATOM     13  O   UNL     1      -0.900  -0.026   1.754  1.00  0.00    -0.475 OA
ATOM     14  Br  UNL     1       1.828   4.980  -0.299  1.00  0.00    -0.051 Br
ATOM     15  C   UNL     1      -0.038   3.542   1.299  1.00  0.00     0.027 A 
ATOM     16  C   UNL     1      -1.787   2.520   2.696  1.00  0.00     0.027 C 
ATOM     17  C   UNL     1      -2.115   0.053   2.551  1.00  0.00     0.316 C 
BRANCH  17  18
ATOM     18  C   UNL     1      -3.281  -0.542   1.745  1.00  0.00     0.430 C 
ATOM     19  F   UNL     1      -2.972  -1.766   1.258  1.00  0.00    -0.167 F 
ATOM     20  F   UNL     1      -4.386  -0.700   2.514  1.00  0.00    -0.167 F 
ATOM     21  F   UNL     1      -3.626   0.239   0.696  1.00  0.00    -0.167 F 
ENDBRANCH  17  18
ENDBRANCH   4   6
ENDBRANCH   3   4
ENDBRANCH   2   3
ENDBRANCH   1   2
BRANCH   1  22
ATOM     22  O   UNL     1      -4.133   3.092   6.754  1.00  0.00    -0.458 OA
BRANCH  22  23
ATOM     23  C   UNL     1      -2.826   3.434   6.751  1.00  0.00     0.338 C 
ATOM     24  O   UNL     1      -1.873   2.731   7.041  1.00  0.00    -0.246 OA
BRANCH  23  25
ATOM     25  C   UNL     1      -2.649   4.803   6.245  1.00  0.00     0.060 A 
ATOM     26  C   UNL     1      -2.900   5.050   4.902  1.00  0.00     0.016 A 
ATOM     27  C   UNL     1      -1.993   5.758   7.018  1.00  0.00     0.016 A 
ATOM     28  C   UNL     1      -2.318   6.149   4.278  1.00  0.00     0.010 A 
ATOM     29  C   UNL     1      -1.555   6.945   6.418  1.00  0.00     0.010 A 
ATOM     30  C   UNL     1      -1.645   7.124   5.025  1.00  0.00    -0.014 A 
BRANCH  30  31
ATOM     31  C   UNL     1      -0.994   8.290   4.357  1.00  0.00     0.031 A 
ATOM     32  C   UNL     1       0.459   8.608   4.632  1.00  0.00     0.074 A 
ATOM     33  C   UNL     1      -1.676   9.063   3.486  1.00  0.00     0.049 A 
ATOM     34  N   UNL     1       1.135   9.695   4.356  1.00  0.00    -0.248 NA
ATOM     35  C   UNL     1       1.250   7.574   5.321  1.00  0.00     0.031 C 
ATOM     36  C   UNL     1      -3.055   8.842   3.043  1.00  0.00     0.029 A 
ATOM     37  N   UNL     1      -1.294  10.194   2.804  1.00  0.00    -0.354 N 
ATOM     38  C   UNL     1       2.403   9.503   4.896  1.00  0.00     0.074 A 
ATOM     39  C   UNL     1       2.402   8.199   5.521  1.00  0.00     0.031 C 
ATOM     40  C   UNL     1      -3.381   9.764   2.127  1.00  0.00     0.029 A 
ATOM     41  C   UNL     1      -2.288  10.720   2.012  1.00  0.00     0.049 A 
ATOM     42  H   UNL     1      -0.395  10.589   2.875  1.00  0.00     0.167 HD
ATOM     43  C   UNL     1       3.470  10.338   4.873  1.00  0.00     0.031 A 
ATOM     44  C   UNL     1      -2.350  11.872   1.320  1.00  0.00     0.031 A 
ATOM     45  C   UNL     1       3.483  11.613   4.204  1.00  0.00     0.049 A 
ATOM     46  C   UNL     1      -1.191  12.823   1.382  1.00  0.00     0.074 A 
ATOM     47  C   UNL     1       4.513  12.535   4.124  1.00  0.00     0.029 A 
ATOM     48  N   UNL     1       2.423  12.134   3.478  1.00  0.00    -0.354 N 
ATOM     49  N   UNL     1      -0.033  12.673   1.976  1.00  0.00    -0.248 NA
ATOM     50  C   UNL     1      -1.361  14.114   0.702  1.00  0.00     0.031 C 
ATOM     51  C   UNL     1       4.058  13.637   3.394  1.00  0.00     0.029 A 
ATOM     52  C   UNL     1       2.766  13.375   2.968  1.00  0.00     0.049 A 
ATOM     53  H   UNL     1       1.556  11.688   3.345  1.00  0.00     0.167 HD
ATOM     54  C   UNL     1       0.669  13.846   1.735  1.00  0.00     0.074 A 
ATOM     55  C   UNL     1      -0.183  14.685   0.916  1.00  0.00     0.031 C 
ATOM     56  C   UNL     1       1.905  14.201   2.162  1.00  0.00     0.031 A 
BRANCH  43  57
ATOM     57  C   UNL     1       4.707   9.925   5.624  1.00  0.00    -0.014 A 
ATOM     58  C   UNL     1       5.543   8.898   5.161  1.00  0.00     0.009 A 
ATOM     59  C   UNL     1       5.076  10.625   6.785  1.00  0.00     0.009 A 
ATOM     60  C   UNL     1       6.708   8.564   5.859  1.00  0.00     0.001 A 
ATOM     61  C   UNL     1       6.255  10.311   7.464  1.00  0.00     0.001 A 
ATOM     62  C   UNL     1       7.066   9.275   7.004  1.00  0.00     0.000 A 
ENDBRANCH  43  57
BRANCH  44  63
ATOM     63  C   UNL     1      -3.586  12.219   0.567  1.00  0.00    -0.014 A 
ATOM     64  C   UNL     1      -3.573  12.275  -0.835  1.00  0.00     0.009 A 
ATOM     65  C   UNL     1      -4.791  12.474   1.243  1.00  0.00     0.009 A 
ATOM     66  C   UNL     1      -4.738  12.586  -1.541  1.00  0.00     0.001 A 
ATOM     67  C   UNL     1      -5.961  12.749   0.534  1.00  0.00     0.001 A 
ATOM     68  C   UNL     1      -5.932  12.812  -0.857  1.00  0.00     0.000 A 
ENDBRANCH  44  63
BRANCH  56  69
ATOM     69  C   UNL     1       2.416  15.548   1.740  1.00  0.00    -0.014 A 
ATOM     70  C   UNL     1       1.897  16.727   2.296  1.00  0.00     0.009 A 
ATOM     71  C   UNL     1       3.463  15.637   0.809  1.00  0.00     0.009 A 
ATOM     72  C   UNL     1       2.397  17.970   1.907  1.00  0.00     0.001 A 
ATOM     73  C   UNL     1       3.982  16.880   0.445  1.00  0.00     0.001 A 
ATOM     74  C   UNL     1       3.443  18.045   0.987  1.00  0.00     0.000 A 
ENDBRANCH  56  69
ENDBRANCH  30  31
ENDBRANCH  23  25
ENDBRANCH  22  23
ENDBRANCH   1  22
TORSDOF 12
