REMARK SMILES CC[C@H](CCO)CNc1cc(C(=O)OCCOC(=O)c2ccc(-c3c4nc(c(-c5ccccc5)c5ccc([nH]5)c(-c5ccccc5)c5nc(c(-c6ccccc6)c6ccc3[nH]6)C=C5)C=C4)cc2)ccn1
REMARK SMILES IDX 12 1 13 2 11 3 9 4 10 5 70 6 69 7 68 8 8 9 7 11 3 12 2 13
REMARK SMILES IDX 1 14 4 15 5 16 6 17 14 19 15 20 16 21 17 22 18 23 19 24
REMARK SMILES IDX 20 25 21 26 67 27 22 28 66 29 23 30 24 31 25 32 60 33 26 34
REMARK SMILES IDX 65 35 59 36 61 37 27 38 64 39 58 40 57 41 28 43 50 44 35 45
REMARK SMILES IDX 49 46 36 47 39 48 48 49 62 50 37 51 38 52 47 54 63 55 40 56
REMARK SMILES IDX 29 57 30 58 34 59 31 60 33 61 32 62 51 63 52 64 56 65 53 66
REMARK SMILES IDX 55 67 54 68 41 69 42 70 46 71 43 72 45 73 44 74
REMARK H PARENT 8 10 6 18 61 42 39 53
REMARK Flexibility Score: inf
ROOT
ATOM      1  C   UNL     1       2.339  -7.969   2.502  1.00  0.00     0.338 C 
ATOM      2  O   UNL     1       3.335  -8.419   3.044  1.00  0.00    -0.246 OA
ENDROOT
BRANCH   1   3
ATOM      3  C   UNL     1       2.407  -6.941   1.437  1.00  0.00     0.065 A 
ATOM      4  C   UNL     1       1.463  -5.155   0.161  1.00  0.00     0.126 A 
ATOM      5  C   UNL     1       1.338  -6.090   1.177  1.00  0.00     0.062 A 
ATOM      6  N   UNL     1       2.569  -5.064  -0.604  1.00  0.00    -0.240 NA
ATOM      7  C   UNL     1       3.595  -5.897  -0.335  1.00  0.00     0.114 A 
ATOM      8  C   UNL     1       3.575  -6.823   0.688  1.00  0.00     0.036 A 
BRANCH   4   9
ATOM      9  N   UNL     1       0.467  -4.244  -0.118  1.00  0.00    -0.370 N 
ATOM     10  H   UNL     1       0.101  -4.173  -1.029  1.00  0.00     0.162 HD
BRANCH   9  11
ATOM     11  C   UNL     1      -0.037  -3.392   0.943  1.00  0.00     0.118 C 
BRANCH  11  12
ATOM     12  C   UNL     1       0.693  -2.023   0.991  1.00  0.00     0.010 C 
BRANCH  12  13
ATOM     13  C   UNL     1       0.240  -1.314   2.294  1.00  0.00     0.002 C 
ATOM     14  C   UNL     1       0.527   0.177   2.396  1.00  0.00     0.004 C 
ENDBRANCH  12  13
BRANCH  12  15
ATOM     15  C   UNL     1       0.447  -1.202  -0.300  1.00  0.00     0.033 C 
BRANCH  15  16
ATOM     16  C   UNL     1       1.627  -1.240  -1.275  1.00  0.00     0.156 C 
BRANCH  16  17
ATOM     17  O   UNL     1       1.760  -2.517  -1.875  1.00  0.00    -0.396 OA
ATOM     18  H   UNL     1       1.922  -3.182  -1.188  1.00  0.00     0.210 HD
ENDBRANCH  16  17
ENDBRANCH  15  16
ENDBRANCH  12  15
ENDBRANCH  11  12
ENDBRANCH   9  11
ENDBRANCH   4   9
ENDBRANCH   1   3
BRANCH   1  19
ATOM     19  O   UNL     1       1.058  -8.366   2.700  1.00  0.00    -0.458 OA
BRANCH  19  20
ATOM     20  C   UNL     1       0.856  -9.437   3.645  1.00  0.00     0.275 C 
BRANCH  20  21
ATOM     21  C   UNL     1       0.631 -10.763   2.921  1.00  0.00     0.275 C 
BRANCH  21  22
ATOM     22  O   UNL     1       1.846 -11.153   2.257  1.00  0.00    -0.458 OA
BRANCH  22  23
ATOM     23  C   UNL     1       1.755 -11.364   0.924  1.00  0.00     0.338 C 
ATOM     24  O   UNL     1       0.759 -11.343   0.226  1.00  0.00    -0.246 OA
BRANCH  23  25
ATOM     25  C   UNL     1       3.107 -11.601   0.396  1.00  0.00     0.060 A 
ATOM     26  C   UNL     1       4.002 -10.535   0.341  1.00  0.00     0.016 A 
ATOM     27  C   UNL     1       3.456 -12.841  -0.133  1.00  0.00     0.016 A 
ATOM     28  C   UNL     1       5.237 -10.683  -0.283  1.00  0.00     0.010 A 
ATOM     29  C   UNL     1       4.723 -13.009  -0.704  1.00  0.00     0.010 A 
ATOM     30  C   UNL     1       5.617 -11.926  -0.807  1.00  0.00    -0.014 A 
BRANCH  30  31
ATOM     31  C   UNL     1       6.919 -12.075  -1.510  1.00  0.00     0.031 A 
ATOM     32  C   UNL     1       6.948 -12.441  -2.970  1.00  0.00     0.074 A 
ATOM     33  C   UNL     1       8.079 -11.861  -0.859  1.00  0.00     0.049 A 
ATOM     34  N   UNL     1       7.970 -12.771  -3.720  1.00  0.00    -0.248 NA
ATOM     35  C   UNL     1       5.657 -12.445  -3.678  1.00  0.00     0.031 C 
ATOM     36  C   UNL     1       8.207 -11.444   0.539  1.00  0.00     0.029 A 
ATOM     37  N   UNL     1       9.379 -11.959  -1.294  1.00  0.00    -0.354 N 
ATOM     38  C   UNL     1       7.440 -13.076  -4.968  1.00  0.00     0.074 A 
ATOM     39  C   UNL     1       6.008 -12.888  -4.877  1.00  0.00     0.031 C 
ATOM     40  C   UNL     1       9.508 -11.290   0.835  1.00  0.00     0.029 A 
ATOM     41  C   UNL     1      10.308 -11.672  -0.324  1.00  0.00     0.049 A 
ATOM     42  H   UNL     1       9.621 -12.211  -2.215  1.00  0.00     0.167 HD
ATOM     43  C   UNL     1       8.086 -13.483  -6.086  1.00  0.00     0.031 A 
ATOM     44  C   UNL     1      11.652 -11.746  -0.347  1.00  0.00     0.031 A 
ATOM     45  C   UNL     1       9.513 -13.629  -6.194  1.00  0.00     0.049 A 
ATOM     46  C   UNL     1      12.344 -12.231  -1.589  1.00  0.00     0.074 A 
ATOM     47  C   UNL     1      10.258 -14.032  -7.290  1.00  0.00     0.029 A 
ATOM     48  N   UNL     1      10.412 -13.361  -5.175  1.00  0.00    -0.354 N 
ATOM     49  N   UNL     1      11.825 -12.575  -2.742  1.00  0.00    -0.248 NA
ATOM     50  C   UNL     1      13.808 -12.355  -1.524  1.00  0.00     0.031 C 
ATOM     51  C   UNL     1      11.608 -14.037  -6.923  1.00  0.00     0.029 A 
ATOM     52  C   UNL     1      11.704 -13.599  -5.612  1.00  0.00     0.049 A 
ATOM     53  H   UNL     1      10.168 -13.047  -4.274  1.00  0.00     0.167 HD
ATOM     54  C   UNL     1      12.896 -12.952  -3.540  1.00  0.00     0.074 A 
ATOM     55  C   UNL     1      14.096 -12.771  -2.750  1.00  0.00     0.031 C 
ATOM     56  C   UNL     1      12.885 -13.416  -4.813  1.00  0.00     0.031 A 
BRANCH  43  57
ATOM     57  C   UNL     1       7.247 -13.845  -7.277  1.00  0.00    -0.014 A 
ATOM     58  C   UNL     1       6.649 -12.862  -8.080  1.00  0.00     0.009 A 
ATOM     59  C   UNL     1       7.089 -15.197  -7.622  1.00  0.00     0.009 A 
ATOM     60  C   UNL     1       5.887 -13.230  -9.192  1.00  0.00     0.001 A 
ATOM     61  C   UNL     1       6.346 -15.560  -8.746  1.00  0.00     0.001 A 
ATOM     62  C   UNL     1       5.739 -14.576  -9.526  1.00  0.00     0.000 A 
ENDBRANCH  43  57
BRANCH  44  63
ATOM     63  C   UNL     1      12.435 -11.405   0.869  1.00  0.00    -0.014 A 
ATOM     64  C   UNL     1      13.229 -10.249   0.907  1.00  0.00     0.009 A 
ATOM     65  C   UNL     1      12.399 -12.242   1.996  1.00  0.00     0.009 A 
ATOM     66  C   UNL     1      13.981  -9.947   2.045  1.00  0.00     0.001 A 
ATOM     67  C   UNL     1      13.130 -11.923   3.141  1.00  0.00     0.001 A 
ATOM     68  C   UNL     1      13.927 -10.780   3.162  1.00  0.00     0.000 A 
ENDBRANCH  44  63
BRANCH  56  69
ATOM     69  C   UNL     1      14.213 -13.737  -5.433  1.00  0.00    -0.014 A 
ATOM     70  C   UNL     1      14.907 -14.908  -5.089  1.00  0.00     0.009 A 
ATOM     71  C   UNL     1      14.761 -12.875  -6.395  1.00  0.00     0.009 A 
ATOM     72  C   UNL     1      16.140 -15.194  -5.678  1.00  0.00     0.001 A 
ATOM     73  C   UNL     1      15.983 -13.175  -6.997  1.00  0.00     0.001 A 
ATOM     74  C   UNL     1      16.675 -14.329  -6.633  1.00  0.00     0.000 A 
ENDBRANCH  56  69
ENDBRANCH  30  31
ENDBRANCH  23  25
ENDBRANCH  22  23
ENDBRANCH  21  22
ENDBRANCH  20  21
ENDBRANCH  19  20
ENDBRANCH   1  19
TORSDOF 18
