REMARK SMILES COc1cccc([C@@H]2CC(c3cccc(C)c3)=NN2C(=O)CCC(=O)OCCOC(=O)c2ccc(-c3c4nc(c(-c5ccccc5)c5ccc([nH]5)c(-c5ccccc5)c5nc(c(-c6ccccc6)c6ccc3[nH]6)C=C5)C=C4)cc2)c1
REMARK SMILES IDX 26 1 24 2 25 3 23 4 22 5 20 6 21 7 19 8 8 9 9 10 10 11 18 12
REMARK SMILES IDX 7 13 3 14 4 15 80 16 5 17 6 18 2 19 1 20 11 21 12 22 17 23
REMARK SMILES IDX 13 24 15 25 14 26 16 27 27 28 28 29 29 30 30 31 31 32 32 33
REMARK SMILES IDX 33 34 79 35 34 36 78 37 35 38 36 39 37 40 72 41 38 42 77 43
REMARK SMILES IDX 71 44 73 45 39 46 76 47 70 48 69 49 40 51 62 52 47 53 61 54
REMARK SMILES IDX 48 55 51 56 60 57 74 58 49 59 50 60 59 62 75 63 52 64 41 65
REMARK SMILES IDX 42 66 46 67 43 68 45 69 44 70 63 71 64 72 68 73 65 74 67 75
REMARK SMILES IDX 66 76 53 77 54 78 58 79 55 80 57 81 56 82
REMARK H PARENT 73 50 51 61
REMARK Flexibility Score: inf
ROOT
ATOM      1  O   UNL     1       2.651   2.399   1.245  1.00  0.00    -0.462 OA
ENDROOT
BRANCH   1   2
ATOM      2  C   UNL     1       2.125   3.234   0.311  1.00  0.00     0.306 C 
ATOM      3  O   UNL     1       0.944   3.243  -0.021  1.00  0.00    -0.252 OA
BRANCH   2   4
ATOM      4  C   UNL     1       3.153   4.129  -0.336  1.00  0.00     0.132 C 
BRANCH   4   5
ATOM      5  C   UNL     1       4.095   4.876   0.611  1.00  0.00     0.114 C 
BRANCH   5   6
ATOM      6  C   UNL     1       5.429   4.167   0.693  1.00  0.00     0.243 C 
ATOM      7  O   UNL     1       6.106   4.089  -0.340  1.00  0.00    -0.273 OA
BRANCH   6   8
ATOM      8  N   UNL     1       5.798   3.569   1.889  1.00  0.00    -0.225 N 
ATOM      9  C   UNL     1       5.118   3.559   3.201  1.00  0.00     0.147 C 
ATOM     10  C   UNL     1       5.691   2.342   3.918  1.00  0.00     0.091 C 
ATOM     11  C   UNL     1       6.628   1.847   2.864  1.00  0.00     0.071 C 
ATOM     12  N   UNL     1       6.740   2.568   1.798  1.00  0.00    -0.174 NA
BRANCH   9  13
ATOM     13  C   UNL     1       5.249   4.817   4.049  1.00  0.00    -0.019 A 
ATOM     14  C   UNL     1       4.305   6.261   5.800  1.00  0.00     0.119 A 
ATOM     15  C   UNL     1       5.361   7.150   5.603  1.00  0.00     0.046 A 
ATOM     16  C   UNL     1       4.283   5.083   5.053  1.00  0.00     0.052 A 
ATOM     17  C   UNL     1       6.367   6.872   4.675  1.00  0.00     0.004 A 
ATOM     18  C   UNL     1       6.308   5.717   3.894  1.00  0.00     0.006 A 
BRANCH  14  19
ATOM     19  O   UNL     1       3.373   6.694   6.697  1.00  0.00    -0.497 OA
ATOM     20  C   UNL     1       2.341   5.828   7.147  1.00  0.00     0.278 C 
ENDBRANCH  14  19
ENDBRANCH   9  13
BRANCH  11  21
ATOM     21  C   UNL     1       7.319   0.571   3.017  1.00  0.00    -0.002 A 
ATOM     22  C   UNL     1       8.710   0.538   3.031  1.00  0.00     0.010 A 
ATOM     23  C   UNL     1       6.561  -0.605   3.032  1.00  0.00     0.013 A 
ATOM     24  C   UNL     1       9.354  -0.694   3.098  1.00  0.00     0.001 A 
ATOM     25  C   UNL     1       7.207  -1.843   3.069  1.00  0.00    -0.050 A 
ATOM     26  C   UNL     1       8.608  -1.877   3.117  1.00  0.00     0.003 A 
ATOM     27  C   UNL     1       6.423  -3.122   3.027  1.00  0.00     0.044 C 
ENDBRANCH  11  21
ENDBRANCH   6   8
ENDBRANCH   5   6
ENDBRANCH   4   5
ENDBRANCH   2   4
ENDBRANCH   1   2
BRANCH   1  28
ATOM     28  C   UNL     1       1.715   1.501   1.879  1.00  0.00     0.274 C 
BRANCH  28  29
ATOM     29  C   UNL     1       1.057   2.096   3.131  1.00  0.00     0.275 C 
BRANCH  29  30
ATOM     30  O   UNL     1       0.294   3.287   2.853  1.00  0.00    -0.458 OA
BRANCH  30  31
ATOM     31  C   UNL     1       1.036   4.409   2.954  1.00  0.00     0.338 C 
ATOM     32  O   UNL     1       2.219   4.460   3.223  1.00  0.00    -0.246 OA
BRANCH  31  33
ATOM     33  C   UNL     1       0.290   5.648   2.873  1.00  0.00     0.060 A 
ATOM     34  C   UNL     1      -0.279   6.109   1.692  1.00  0.00     0.016 A 
ATOM     35  C   UNL     1       0.306   6.425   4.033  1.00  0.00     0.016 A 
ATOM     36  C   UNL     1      -0.915   7.350   1.708  1.00  0.00     0.010 A 
ATOM     37  C   UNL     1      -0.379   7.621   4.069  1.00  0.00     0.010 A 
ATOM     38  C   UNL     1      -1.032   8.069   2.917  1.00  0.00    -0.014 A 
BRANCH  38  39
ATOM     39  C   UNL     1      -2.052   9.124   3.083  1.00  0.00     0.031 A 
ATOM     40  C   UNL     1      -1.702  10.509   3.532  1.00  0.00     0.074 A 
ATOM     41  C   UNL     1      -3.335   8.715   3.031  1.00  0.00     0.049 A 
ATOM     42  N   UNL     1      -2.506  11.501   3.818  1.00  0.00    -0.248 NA
ATOM     43  C   UNL     1      -0.278  10.806   3.753  1.00  0.00     0.031 C 
ATOM     44  C   UNL     1      -3.771   7.333   2.787  1.00  0.00     0.029 A 
ATOM     45  N   UNL     1      -4.505   9.403   3.190  1.00  0.00    -0.354 N 
ATOM     46  C   UNL     1      -1.696  12.517   4.307  1.00  0.00     0.074 A 
ATOM     47  C   UNL     1      -0.338  12.016   4.294  1.00  0.00     0.031 C 
ATOM     48  C   UNL     1      -5.107   7.292   2.736  1.00  0.00     0.029 A 
ATOM     49  C   UNL     1      -5.620   8.628   2.987  1.00  0.00     0.049 A 
ATOM     50  H   UNL     1      -4.544  10.358   3.426  1.00  0.00     0.167 HD
ATOM     51  C   UNL     1      -2.064  13.751   4.727  1.00  0.00     0.031 A 
ATOM     52  C   UNL     1      -6.920   8.962   2.982  1.00  0.00     0.031 A 
ATOM     53  C   UNL     1      -3.423  14.232   4.689  1.00  0.00     0.049 A 
ATOM     54  C   UNL     1      -7.281  10.387   3.244  1.00  0.00     0.074 A 
ATOM     55  C   UNL     1      -3.901  15.501   4.965  1.00  0.00     0.029 A 
ATOM     56  N   UNL     1      -4.521  13.457   4.341  1.00  0.00    -0.354 N 
ATOM     57  N   UNL     1      -6.496  11.379   3.587  1.00  0.00    -0.248 NA
ATOM     58  C   UNL     1      -8.695  10.746   3.100  1.00  0.00     0.031 C 
ATOM     59  C   UNL     1      -5.292  15.487   4.804  1.00  0.00     0.029 A 
ATOM     60  C   UNL     1      -5.675  14.220   4.393  1.00  0.00     0.049 A 
ATOM     61  H   UNL     1      -4.485  12.505   4.094  1.00  0.00     0.167 HD
ATOM     62  C   UNL     1      -7.318  12.487   3.698  1.00  0.00     0.074 A 
ATOM     63  C   UNL     1      -8.658  12.047   3.355  1.00  0.00     0.031 C 
ATOM     64  C   UNL     1      -6.995  13.752   4.059  1.00  0.00     0.031 A 
BRANCH  51  65
ATOM     65  C   UNL     1      -0.993  14.666   5.257  1.00  0.00    -0.014 A 
ATOM     66  C   UNL     1      -0.006  15.203   4.416  1.00  0.00     0.009 A 
ATOM     67  C   UNL     1      -0.996  15.034   6.613  1.00  0.00     0.009 A 
ATOM     68  C   UNL     1       0.976  16.057   4.926  1.00  0.00     0.001 A 
ATOM     69  C   UNL     1      -0.031  15.911   7.115  1.00  0.00     0.001 A 
ATOM     70  C   UNL     1       0.960  16.414   6.274  1.00  0.00     0.000 A 
ENDBRANCH  51  65
BRANCH  52  71
ATOM     71  C   UNL     1      -7.927   7.939   2.616  1.00  0.00    -0.014 A 
ATOM     72  C   UNL     1      -8.476   7.934   1.325  1.00  0.00     0.009 A 
ATOM     73  C   UNL     1      -8.267   6.909   3.506  1.00  0.00     0.009 A 
ATOM     74  C   UNL     1      -9.358   6.925   0.936  1.00  0.00     0.001 A 
ATOM     75  C   UNL     1      -9.131   5.888   3.105  1.00  0.00     0.001 A 
ATOM     76  C   UNL     1      -9.679   5.900   1.823  1.00  0.00     0.000 A 
ENDBRANCH  52  71
BRANCH  64  77
ATOM     77  C   UNL     1      -8.121  14.739   4.093  1.00  0.00    -0.014 A 
ATOM     78  C   UNL     1      -9.062  14.721   5.134  1.00  0.00     0.009 A 
ATOM     79  C   UNL     1      -8.234  15.700   3.079  1.00  0.00     0.009 A 
ATOM     80  C   UNL     1     -10.118  15.631   5.139  1.00  0.00     0.001 A 
ATOM     81  C   UNL     1      -9.279  16.623   3.099  1.00  0.00     0.001 A 
ATOM     82  C   UNL     1     -10.225  16.582   4.124  1.00  0.00     0.000 A 
ENDBRANCH  64  77
ENDBRANCH  38  39
ENDBRANCH  31  33
ENDBRANCH  30  31
ENDBRANCH  29  30
ENDBRANCH  28  29
ENDBRANCH   1  28
TORSDOF 17
