REMARK SMILES C[C@@H](c1cccc(O)c1)[N@H+]1[C@@H]2CC[C@H]1C[C@H](CC(=O)OCCOC(=O)c1ccc(-c3c4nc(c(-c5ccccc5)c5ccc([nH]5)c(-c5ccccc5)c5nc(c(-c6ccccc6)c6ccc3[nH]6)C=C5)C=C4)cc1)C2
REMARK SMILES IDX 21 1 20 2 18 3 19 4 17 5 16 6 10 7 11 8 14 9 12 11 74 12
REMARK SMILES IDX 13 13 15 14 2 15 1 16 3 17 4 18 9 19 5 20 7 21 6 22 8 23
REMARK SMILES IDX 22 25 23 26 24 27 25 28 26 29 27 30 73 31 28 32 72 33 29 34
REMARK SMILES IDX 30 35 31 36 66 37 32 38 71 39 65 40 67 41 33 42 70 43 64 44
REMARK SMILES IDX 63 45 34 47 56 48 41 49 55 50 42 51 45 52 54 53 68 54 43 55
REMARK SMILES IDX 44 56 53 58 69 59 46 60 35 61 36 62 40 63 37 64 39 65 38 66
REMARK SMILES IDX 57 67 58 68 62 69 59 70 61 71 60 72 47 73 48 74 52 75 49 76
REMARK SMILES IDX 51 77 50 78
REMARK H PARENT 10 10 8 24 67 46 45 57
REMARK Flexibility Score: inf
ROOT
ATOM      1  C   UNL     1      -0.387  -1.922  -6.170  1.00  0.00     0.274 C 
ENDROOT
BRANCH   1   2
ATOM      2  O   UNL     1      -0.615  -0.883  -5.201  1.00  0.00    -0.462 OA
BRANCH   2   3
ATOM      3  C   UNL     1       0.198   0.192  -5.295  1.00  0.00     0.306 C 
ATOM      4  O   UNL     1       1.158   0.280  -6.057  1.00  0.00    -0.252 OA
BRANCH   3   5
ATOM      5  C   UNL     1      -0.240   1.361  -4.449  1.00  0.00     0.126 C 
BRANCH   5   6
ATOM      6  C   UNL     1      -1.267   1.200  -3.322  1.00  0.00     0.012 C 
ATOM      7  N   UNL     1      -0.685   1.298  -0.452  1.00  0.00    -0.324 N 
ATOM      8  C   UNL     1      -1.409   2.429  -1.011  1.00  0.00     0.185 C 
ATOM      9  C   UNL     1      -1.353   0.123  -0.984  1.00  0.00     0.185 C 
ATOM     10  H   UNL     1      -0.730   1.291   0.567  1.00  0.00     0.349 HD
ATOM     11  C   UNL     1      -2.838   2.018  -0.647  1.00  0.00     0.071 C 
ATOM     12  C   UNL     1      -1.287   2.543  -2.535  1.00  0.00     0.069 C 
ATOM     13  C   UNL     1      -2.833   0.496  -0.777  1.00  0.00     0.071 C 
ATOM     14  C   UNL     1      -1.036  -0.059  -2.465  1.00  0.00     0.069 C 
BRANCH   7  15
ATOM     15  C   UNL     1       0.756   1.350  -0.190  1.00  0.00     0.212 C 
ATOM     16  C   UNL     1       1.173   0.145   0.676  1.00  0.00     0.081 C 
BRANCH  15  17
ATOM     17  C   UNL     1       1.713   1.571  -1.362  1.00  0.00     0.013 A 
ATOM     18  C   UNL     1       2.369   0.520  -2.031  1.00  0.00     0.010 A 
ATOM     19  C   UNL     1       1.995   2.882  -1.786  1.00  0.00     0.056 A 
ATOM     20  C   UNL     1       3.225   0.767  -3.112  1.00  0.00     0.004 A 
ATOM     21  C   UNL     1       2.827   3.120  -2.880  1.00  0.00     0.116 A 
ATOM     22  C   UNL     1       3.447   2.072  -3.548  1.00  0.00     0.046 A 
BRANCH  21  23
ATOM     23  O   UNL     1       2.971   4.409  -3.301  1.00  0.00    -0.508 OA
ATOM     24  H   UNL     1       3.522   4.605  -4.033  1.00  0.00     0.293 HD
ENDBRANCH  21  23
ENDBRANCH  15  17
ENDBRANCH   7  15
ENDBRANCH   5   6
ENDBRANCH   3   5
ENDBRANCH   2   3
ENDBRANCH   1   2
BRANCH   1  25
ATOM     25  C   UNL     1      -1.477  -1.858  -7.236  1.00  0.00     0.275 C 
BRANCH  25  26
ATOM     26  O   UNL     1      -1.464  -0.569  -7.881  1.00  0.00    -0.458 OA
BRANCH  26  27
ATOM     27  C   UNL     1      -2.426   0.288  -7.476  1.00  0.00     0.338 C 
ATOM     28  O   UNL     1      -3.334   0.075  -6.681  1.00  0.00    -0.246 OA
BRANCH  27  29
ATOM     29  C   UNL     1      -2.239   1.595  -8.117  1.00  0.00     0.060 A 
ATOM     30  C   UNL     1      -1.149   2.391  -7.770  1.00  0.00     0.016 A 
ATOM     31  C   UNL     1      -3.228   2.091  -8.964  1.00  0.00     0.016 A 
ATOM     32  C   UNL     1      -1.096   3.719  -8.177  1.00  0.00     0.010 A 
ATOM     33  C   UNL     1      -3.104   3.384  -9.477  1.00  0.00     0.010 A 
ATOM     34  C   UNL     1      -2.051   4.222  -9.068  1.00  0.00    -0.014 A 
BRANCH  34  35
ATOM     35  C   UNL     1      -1.945   5.611  -9.587  1.00  0.00     0.031 A 
ATOM     36  C   UNL     1      -3.079   6.581  -9.398  1.00  0.00     0.074 A 
ATOM     37  C   UNL     1      -0.839   5.999 -10.254  1.00  0.00     0.049 A 
ATOM     38  N   UNL     1      -3.279   7.739  -9.973  1.00  0.00    -0.248 NA
ATOM     39  C   UNL     1      -4.134   6.189  -8.450  1.00  0.00     0.031 C 
ATOM     40  C   UNL     1       0.360   5.184 -10.466  1.00  0.00     0.029 A 
ATOM     41  N   UNL     1      -0.546   7.184 -10.882  1.00  0.00    -0.354 N 
ATOM     42  C   UNL     1      -4.508   8.186  -9.505  1.00  0.00     0.074 A 
ATOM     43  C   UNL     1      -5.006   7.178  -8.594  1.00  0.00     0.031 C 
ATOM     44  C   UNL     1       1.268   5.902 -11.142  1.00  0.00     0.029 A 
ATOM     45  C   UNL     1       0.681   7.186 -11.498  1.00  0.00     0.049 A 
ATOM     46  H   UNL     1      -1.156   7.956 -10.890  1.00  0.00     0.167 HD
ATOM     47  C   UNL     1      -5.165   9.329  -9.818  1.00  0.00     0.031 A 
ATOM     48  C   UNL     1       1.255   8.093 -12.310  1.00  0.00     0.031 A 
ATOM     49  C   UNL     1      -4.650  10.343 -10.698  1.00  0.00     0.049 A 
ATOM     50  C   UNL     1       0.488   9.326 -12.682  1.00  0.00     0.074 A 
ATOM     51  C   UNL     1      -5.236  11.539 -11.076  1.00  0.00     0.029 A 
ATOM     52  N   UNL     1      -3.416  10.286 -11.327  1.00  0.00    -0.354 N 
ATOM     53  N   UNL     1      -0.704   9.704 -12.290  1.00  0.00    -0.248 NA
ATOM     54  C   UNL     1       1.135  10.243 -13.630  1.00  0.00     0.031 C 
ATOM     55  C   UNL     1      -4.369  12.190 -11.962  1.00  0.00     0.029 A 
ATOM     56  C   UNL     1      -3.227  11.418 -12.102  1.00  0.00     0.049 A 
ATOM     57  H   UNL     1      -2.769   9.549 -11.236  1.00  0.00     0.167 HD
ATOM     58  C   UNL     1      -0.950  10.905 -12.939  1.00  0.00     0.074 A 
ATOM     59  C   UNL     1       0.226  11.203 -13.732  1.00  0.00     0.031 C 
ATOM     60  C   UNL     1      -2.054  11.688 -12.889  1.00  0.00     0.031 A 
BRANCH  47  61
ATOM     61  C   UNL     1      -6.539   9.516  -9.240  1.00  0.00    -0.014 A 
ATOM     62  C   UNL     1      -6.731   9.851  -7.892  1.00  0.00     0.009 A 
ATOM     63  C   UNL     1      -7.662   9.378 -10.073  1.00  0.00     0.009 A 
ATOM     64  C   UNL     1      -8.022  10.013  -7.382  1.00  0.00     0.001 A 
ATOM     65  C   UNL     1      -8.949   9.563  -9.567  1.00  0.00     0.001 A 
ATOM     66  C   UNL     1      -9.129   9.872  -8.220  1.00  0.00     0.000 A 
ENDBRANCH  47  61
BRANCH  48  67
ATOM     67  C   UNL     1       2.601   7.828 -12.878  1.00  0.00    -0.014 A 
ATOM     68  C   UNL     1       3.714   8.561 -12.441  1.00  0.00     0.009 A 
ATOM     69  C   UNL     1       2.782   6.827 -13.847  1.00  0.00     0.009 A 
ATOM     70  C   UNL     1       4.980   8.303 -12.972  1.00  0.00     0.001 A 
ATOM     71  C   UNL     1       4.053   6.553 -14.354  1.00  0.00     0.001 A 
ATOM     72  C   UNL     1       5.150   7.296 -13.921  1.00  0.00     0.000 A 
ENDBRANCH  48  67
BRANCH  60  73
ATOM     73  C   UNL     1      -2.023  12.949 -13.701  1.00  0.00    -0.014 A 
ATOM     74  C   UNL     1      -2.197  12.915 -15.093  1.00  0.00     0.009 A 
ATOM     75  C   UNL     1      -1.839  14.184 -13.062  1.00  0.00     0.009 A 
ATOM     76  C   UNL     1      -2.157  14.097 -15.834  1.00  0.00     0.001 A 
ATOM     77  C   UNL     1      -1.821  15.365 -13.804  1.00  0.00     0.001 A 
ATOM     78  C   UNL     1      -1.972  15.320 -15.190  1.00  0.00     0.000 A 
ENDBRANCH  60  73
ENDBRANCH  34  35
ENDBRANCH  27  29
ENDBRANCH  26  27
ENDBRANCH  25  26
ENDBRANCH   1  25
TORSDOF 15
