REMARK SMILES Cc1ccc(-c2cc(Cl)cc3c2O[C@H](C(F)(F)F)C(C(=O)OCCOC(=O)c2ccc(-c4c5nc(c(-c6ccccc6)c6ccc([nH]6)c(-c6ccccc6)c6nc(c(-c7ccccc7)c7ccc4[nH]7)C=C6)C=C5)cc2)=C3)cc1
REMARK SMILES IDX 24 1 23 2 22 3 20 4 21 5 19 6 6 7 7 8 12 9 8 10 11 11 13 12
REMARK SMILES IDX 9 13 10 14 76 15 14 16 5 17 1 18 2 19 3 20 78 21 4 22 77 23
REMARK SMILES IDX 15 24 16 25 17 26 18 27 25 28 26 29 27 30 28 31 29 32 75 33
REMARK SMILES IDX 30 34 74 35 31 36 32 37 33 38 68 39 34 40 73 41 67 42 69 43
REMARK SMILES IDX 35 44 72 45 66 46 65 47 36 49 58 50 43 51 57 52 44 53 47 54
REMARK SMILES IDX 56 55 70 56 45 57 46 58 55 60 71 61 48 62 37 63 38 64 42 65
REMARK SMILES IDX 39 66 41 67 40 68 59 69 60 70 64 71 61 72 63 73 62 74 49 75
REMARK SMILES IDX 50 76 54 77 51 78 53 79 52 80
REMARK H PARENT 69 48 47 59
REMARK Flexibility Score: inf
ROOT
ATOM      1  C   UNL     1      -1.554  -4.457   3.843  1.00  0.00     0.275 C 
ENDROOT
BRANCH   1   2
ATOM      2  C   UNL     1      -2.139  -3.356   4.822  1.00  0.00     0.275 C 
BRANCH   2   3
ATOM      3  O   UNL     1      -3.146  -2.006   4.243  1.00  0.00    -0.459 OA
BRANCH   3   4
ATOM      4  C   UNL     1      -3.350  -0.740   2.724  1.00  0.00     0.338 C 
ATOM      5  O   UNL     1      -2.431  -0.162   2.053  1.00  0.00    -0.246 OA
BRANCH   4   6
ATOM      6  C   UNL     1      -4.743  -0.015   2.462  1.00  0.00     0.087 C 
ATOM      7  C   UNL     1      -3.375  -0.783  -0.875  1.00  0.00     0.026 A 
ATOM      8  C   UNL     1      -3.903  -0.106  -1.998  1.00  0.00     0.033 A 
ATOM      9  C   UNL     1      -4.324  -1.072   0.121  1.00  0.00     0.135 A 
ATOM     10  C   UNL     1      -5.253   0.290  -2.069  1.00  0.00     0.042 A 
ATOM     11  C   UNL     1      -5.537  -0.423   0.165  1.00  0.00     0.019 A 
ATOM     12  O   UNL     1      -4.240  -1.931   1.174  1.00  0.00    -0.475 OA
ATOM     13  Cl  UNL     1      -5.787   1.239  -3.404  1.00  0.00    -0.084 Cl
ATOM     14  C   UNL     1      -6.094   0.141  -0.972  1.00  0.00     0.032 A 
ATOM     15  C   UNL     1      -5.712   0.136   1.506  1.00  0.00     0.027 C 
ATOM     16  C   UNL     1      -4.278  -1.429   2.966  1.00  0.00     0.316 C 
BRANCH   7  17
ATOM     17  C   UNL     1      -1.877  -0.791  -0.680  1.00  0.00    -0.015 A 
ATOM     18  C   UNL     1       2.441  -0.376   0.054  1.00  0.00     0.044 C 
ATOM     19  C   UNL     1       0.960  -0.526  -0.162  1.00  0.00    -0.051 A 
ATOM     20  C   UNL     1       0.293  -1.753  -0.025  1.00  0.00     0.004 A 
ATOM     21  C   UNL     1       0.213   0.564  -0.583  1.00  0.00     0.004 A 
ATOM     22  C   UNL     1      -1.103  -1.881  -0.271  1.00  0.00     0.009 A 
ATOM     23  C   UNL     1      -1.157   0.418  -0.847  1.00  0.00     0.009 A 
ENDBRANCH   7  17
BRANCH  16  24
ATOM     24  C   UNL     1      -4.917  -2.436   4.822  1.00  0.00     0.430 C 
ATOM     25  F   UNL     1      -5.918  -1.851   5.675  1.00  0.00    -0.167 F 
ATOM     26  F   UNL     1      -5.496  -3.726   4.685  1.00  0.00    -0.167 F 
ATOM     27  F   UNL     1      -4.044  -2.641   5.887  1.00  0.00    -0.167 F 
ENDBRANCH  16  24
ENDBRANCH   4   6
ENDBRANCH   3   4
ENDBRANCH   2   3
ENDBRANCH   1   2
BRANCH   1  28
ATOM     28  O   UNL     1      -2.259  -4.988   2.659  1.00  0.00    -0.458 OA
BRANCH  28  29
ATOM     29  C   UNL     1      -3.295  -4.487   1.944  1.00  0.00     0.338 C 
ATOM     30  O   UNL     1      -3.821  -4.995   0.975  1.00  0.00    -0.246 OA
BRANCH  29  31
ATOM     31  C   UNL     1      -3.684  -3.210   2.484  1.00  0.00     0.060 A 
ATOM     32  C   UNL     1      -5.574  -2.612   2.796  1.00  0.00     0.016 A 
ATOM     33  C   UNL     1      -2.054  -2.188   2.891  1.00  0.00     0.016 A 
ATOM     34  C   UNL     1      -5.714  -0.991   3.952  1.00  0.00     0.010 A 
ATOM     35  C   UNL     1      -2.143  -0.665   4.149  1.00  0.00     0.010 A 
ATOM     36  C   UNL     1      -3.998  -0.205   4.619  1.00  0.00    -0.014 A 
BRANCH  36  37
ATOM     37  C   UNL     1      -3.785   1.107   5.310  1.00  0.00     0.031 A 
ATOM     38  C   UNL     1      -4.248   1.168   6.707  1.00  0.00     0.074 A 
ATOM     39  C   UNL     1      -2.781   1.904   4.810  1.00  0.00     0.049 A 
ATOM     40  N   UNL     1      -4.679   2.224   7.322  1.00  0.00    -0.248 NA
ATOM     41  C   UNL     1      -4.447  -0.064   7.483  1.00  0.00     0.031 C 
ATOM     42  C   UNL     1      -1.573   2.361   5.531  1.00  0.00     0.029 A 
ATOM     43  N   UNL     1      -2.427   2.220   3.484  1.00  0.00    -0.354 N 
ATOM     44  C   UNL     1      -4.787   1.804   8.640  1.00  0.00     0.074 A 
ATOM     45  C   UNL     1      -5.069   0.398   8.566  1.00  0.00     0.031 C 
ATOM     46  C   UNL     1      -0.756   3.043   4.695  1.00  0.00     0.029 A 
ATOM     47  C   UNL     1      -1.452   3.239   3.441  1.00  0.00     0.049 A 
ATOM     48  H   UNL     1      -2.812   1.785   2.689  1.00  0.00     0.167 HD
ATOM     49  C   UNL     1      -4.008   2.373   9.609  1.00  0.00     0.031 A 
ATOM     50  C   UNL     1      -1.677   4.465   2.860  1.00  0.00     0.031 A 
ATOM     51  C   UNL     1      -3.068   3.326   9.030  1.00  0.00     0.049 A 
ATOM     52  C   UNL     1      -1.828   5.571   3.866  1.00  0.00     0.074 A 
ATOM     53  C   UNL     1      -1.699   3.301   8.833  1.00  0.00     0.029 A 
ATOM     54  N   UNL     1      -3.545   4.367   8.268  1.00  0.00    -0.354 N 
ATOM     55  N   UNL     1      -1.852   5.370   5.146  1.00  0.00    -0.248 NA
ATOM     56  C   UNL     1      -2.284   6.903   3.476  1.00  0.00     0.031 C 
ATOM     57  C   UNL     1      -1.361   4.423   8.024  1.00  0.00     0.029 A 
ATOM     58  C   UNL     1      -2.520   5.131   7.760  1.00  0.00     0.049 A 
ATOM     59  H   UNL     1      -4.500   4.544   8.107  1.00  0.00     0.167 HD
ATOM     60  C   UNL     1      -2.514   6.406   5.733  1.00  0.00     0.074 A 
ATOM     61  C   UNL     1      -2.775   7.337   4.645  1.00  0.00     0.031 C 
ATOM     62  C   UNL     1      -2.868   6.351   7.047  1.00  0.00     0.031 A 
BRANCH  49  63
ATOM     63  C   UNL     1      -3.836   1.890  11.037  1.00  0.00    -0.014 A 
ATOM     64  C   UNL     1      -2.977   2.627  11.876  1.00  0.00     0.009 A 
ATOM     65  C   UNL     1      -4.477   0.792  11.637  1.00  0.00     0.009 A 
ATOM     66  C   UNL     1      -2.749   2.280  13.212  1.00  0.00     0.001 A 
ATOM     67  C   UNL     1      -4.246   0.429  12.974  1.00  0.00     0.001 A 
ATOM     68  C   UNL     1      -3.383   1.176  13.762  1.00  0.00     0.000 A 
ENDBRANCH  49  63
BRANCH  50  69
ATOM     69  C   UNL     1      -2.704   4.432   1.788  1.00  0.00    -0.014 A 
ATOM     70  C   UNL     1      -2.350   4.055   0.491  1.00  0.00     0.009 A 
ATOM     71  C   UNL     1      -4.015   4.263   2.272  1.00  0.00     0.009 A 
ATOM     72  C   UNL     1      -3.232   3.257  -0.206  1.00  0.00     0.001 A 
ATOM     73  C   UNL     1      -4.803   3.330   1.652  1.00  0.00     0.001 A 
ATOM     74  C   UNL     1      -4.376   2.814   0.440  1.00  0.00     0.000 A 
ENDBRANCH  50  69
BRANCH  62  75
ATOM     75  C   UNL     1      -3.639   7.428   7.759  1.00  0.00    -0.014 A 
ATOM     76  C   UNL     1      -3.678   8.750   7.313  1.00  0.00     0.009 A 
ATOM     77  C   UNL     1      -4.304   7.164   8.976  1.00  0.00     0.009 A 
ATOM     78  C   UNL     1      -4.458   9.716   7.949  1.00  0.00     0.001 A 
ATOM     79  C   UNL     1      -5.051   8.130   9.644  1.00  0.00     0.001 A 
ATOM     80  C   UNL     1      -5.152   9.403   9.111  1.00  0.00     0.000 A 
ENDBRANCH  62  75
ENDBRANCH  36  37
ENDBRANCH  29  31
ENDBRANCH  28  29
ENDBRANCH   1  28
TORSDOF 13
