REMARK SMILES COC(=O)c1c(NC(=O)CCC(=O)OCCOC(=O)c2ccc(-c3c4nc(c(-c5ccccc5)c5ccc([nH]5)c(-c5ccccc5)c5nc(c(-c6ccccc6)c6ccc3[nH]6)C=C5)C=C4)cc2)sc2c1CCCCCC2
REMARK SMILES IDX 12 1 13 2 11 3 10 4 8 5 7 6 9 8 6 9 5 10 70 11 68 12 69 13
REMARK SMILES IDX 3 14 4 15 2 16 1 17 71 18 72 19 73 20 76 22 75 23 74 24
REMARK SMILES IDX 14 26 15 27 16 28 17 29 18 30 19 31 20 32 21 33 67 34 22 35
REMARK SMILES IDX 66 36 23 37 24 38 25 39 60 40 26 41 65 42 59 43 61 44 27 45
REMARK SMILES IDX 64 46 58 47 57 48 28 50 50 51 35 52 49 53 36 54 39 55 48 56
REMARK SMILES IDX 62 57 37 58 38 59 47 61 63 62 40 63 29 64 30 65 34 66 31 67
REMARK SMILES IDX 33 68 32 69 51 70 52 71 56 72 53 73 55 74 54 75 41 76 42 77
REMARK SMILES IDX 46 78 43 79 45 80 44 81
REMARK H PARENT 7 7 61 49 39 60
REMARK Flexibility Score: 90.00
ROOT
ATOM      1  C   UNL     1      -0.049  -3.772   0.013  1.00  0.00     0.306 C 
ATOM      2  O   UNL     1       1.154  -3.916   0.180  1.00  0.00    -0.252 OA
ENDROOT
BRANCH   1   3
ATOM      3  C   UNL     1      -0.903  -2.804   0.786  1.00  0.00     0.132 C 
BRANCH   3   4
ATOM      4  C   UNL     1      -1.746  -1.791   0.009  1.00  0.00     0.112 C 
BRANCH   4   5
ATOM      5  C   UNL     1      -2.844  -2.275  -0.922  1.00  0.00     0.225 C 
ATOM      6  N   UNL     1      -2.680  -2.426  -2.271  1.00  0.00    -0.317 N 
ATOM      7  H   UNL     1      -3.498  -2.390  -2.818  1.00  0.00     0.170 HD
ATOM      8  O   UNL     1      -3.962  -2.506  -0.448  1.00  0.00    -0.275 OA
BRANCH   6   9
ATOM      9  C   UNL     1      -1.501  -2.624  -2.948  1.00  0.00     0.110 A 
ATOM     10  C   UNL     1       0.236  -2.552  -2.587  1.00  0.00     0.098 A 
ATOM     11  C   UNL     1       1.287  -3.508  -3.908  1.00  0.00    -0.017 A 
ATOM     12  S   UNL     1      -1.922  -3.593  -5.024  1.00  0.00    -0.122 S 
ATOM     13  C   UNL     1       0.332  -4.072  -5.286  1.00  0.00     0.011 A 
BRANCH  10  14
ATOM     14  C   UNL     1       0.638  -1.290  -1.921  1.00  0.00     0.341 C 
ATOM     15  O   UNL     1       0.015  -0.263  -2.173  1.00  0.00    -0.246 OA
BRANCH  14  16
ATOM     16  O   UNL     1       1.596  -1.341  -0.961  1.00  0.00    -0.465 OA
ATOM     17  C   UNL     1       1.651  -0.138  -0.159  1.00  0.00     0.282 C 
ENDBRANCH  14  16
ENDBRANCH  10  14
BRANCH  11  18
ATOM     18  C   UNL     1       2.799  -3.554  -3.954  1.00  0.00     0.037 C 
BRANCH  18  19
ATOM     19  C   UNL     1       3.419  -4.921  -3.702  1.00  0.00     0.005 C 
BRANCH  19  20
ATOM     20  C   UNL     1       2.835  -6.098  -4.492  1.00  0.00     0.000 CG0
ATOM     21  G   UNL     1       2.973  -6.062  -6.016  1.00  0.00     0.000 G0
ENDBRANCH  19  20
ENDBRANCH  18  19
ENDBRANCH  11  18
BRANCH  13  22
ATOM     22  C   UNL     1       0.612  -4.987  -6.454  1.00  0.00     0.047 C 
BRANCH  22  23
ATOM     23  C   UNL     1       2.083  -5.125  -6.849  1.00  0.00     0.006 C 
BRANCH  23  24
ATOM     24  C   UNL     1       2.973  -6.062  -6.016  1.00  0.00     0.000 CG0
ATOM     25  G   UNL     1       2.835  -6.098  -4.492  1.00  0.00     0.000 G0
ENDBRANCH  23  24
ENDBRANCH  22  23
ENDBRANCH  13  22
ENDBRANCH   6   9
ENDBRANCH   4   5
ENDBRANCH   3   4
ENDBRANCH   1   3
BRANCH   1  26
ATOM     26  O   UNL     1      -0.777  -4.428  -0.913  1.00  0.00    -0.462 OA
BRANCH  26  27
ATOM     27  C   UNL     1      -0.022  -5.003  -1.992  1.00  0.00     0.274 C 
BRANCH  27  28
ATOM     28  C   UNL     1      -0.544  -4.443  -3.400  1.00  0.00     0.275 C 
BRANCH  28  29
ATOM     29  O   UNL     1      -0.316  -2.619  -4.332  1.00  0.00    -0.458 OA
BRANCH  29  30
ATOM     30  C   UNL     1      -0.092  -1.393  -4.940  1.00  0.00     0.338 C 
ATOM     31  O   UNL     1      -0.974  -0.630  -5.318  1.00  0.00    -0.246 OA
BRANCH  30  32
ATOM     32  C   UNL     1       1.281  -0.976  -5.152  1.00  0.00     0.060 A 
ATOM     33  C   UNL     1       1.859   0.114  -4.486  1.00  0.00     0.016 A 
ATOM     34  C   UNL     1       1.829  -1.505  -6.309  1.00  0.00     0.016 A 
ATOM     35  C   UNL     1       2.718   0.880  -5.220  1.00  0.00     0.010 A 
ATOM     36  C   UNL     1       2.974  -0.956  -6.755  1.00  0.00     0.010 A 
ATOM     37  C   UNL     1       3.033   0.384  -6.471  1.00  0.00    -0.014 A 
BRANCH  37  38
ATOM     38  C   UNL     1       3.569   1.198  -7.512  1.00  0.00     0.031 A 
ATOM     39  C   UNL     1       4.889   1.674  -7.071  1.00  0.00     0.074 A 
ATOM     40  C   UNL     1       2.895   1.326  -8.676  1.00  0.00     0.049 A 
ATOM     41  N   UNL     1       5.111   2.825  -6.535  1.00  0.00    -0.248 NA
ATOM     42  C   UNL     1       5.952   0.684  -6.792  1.00  0.00     0.031 C 
ATOM     43  C   UNL     1       1.635   0.722  -9.141  1.00  0.00     0.029 A 
ATOM     44  N   UNL     1       3.289   2.008  -9.776  1.00  0.00    -0.354 N 
ATOM     45  C   UNL     1       6.453   2.807  -6.202  1.00  0.00     0.074 A 
ATOM     46  C   UNL     1       6.811   1.421  -6.083  1.00  0.00     0.031 C 
ATOM     47  C   UNL     1       1.543   0.829 -10.492  1.00  0.00     0.029 A 
ATOM     48  C   UNL     1       2.640   1.649 -10.962  1.00  0.00     0.049 A 
ATOM     49  H   UNL     1       3.982   2.707  -9.744  1.00  0.00     0.167 HD
ATOM     50  C   UNL     1       7.210   3.896  -6.502  1.00  0.00     0.031 A 
ATOM     51  C   UNL     1       3.098   1.997 -12.197  1.00  0.00     0.031 A 
ATOM     52  C   UNL     1       6.363   5.043  -6.753  1.00  0.00     0.049 A 
ATOM     53  C   UNL     1       4.001   3.173 -11.975  1.00  0.00     0.074 A 
ATOM     54  C   UNL     1       5.413   5.710  -6.002  1.00  0.00     0.029 A 
ATOM     55  N   UNL     1       6.063   5.295  -8.075  1.00  0.00    -0.354 N 
ATOM     56  N   UNL     1       3.543   4.317 -11.534  1.00  0.00    -0.248 NA
ATOM     57  C   UNL     1       5.392   2.879 -11.635  1.00  0.00     0.031 C 
ATOM     58  C   UNL     1       4.329   5.937  -6.901  1.00  0.00     0.029 A 
ATOM     59  C   UNL     1       4.718   5.547  -8.184  1.00  0.00     0.049 A 
ATOM     60  H   UNL     1       6.708   5.294  -8.819  1.00  0.00     0.167 HD
ATOM     61  C   UNL     1       4.405   4.668 -10.501  1.00  0.00     0.074 A 
ATOM     62  C   UNL     1       5.548   3.752 -10.629  1.00  0.00     0.031 C 
ATOM     63  C   UNL     1       3.974   5.386  -9.417  1.00  0.00     0.031 A 
BRANCH  50  64
ATOM     64  C   UNL     1       8.586   3.776  -7.099  1.00  0.00    -0.014 A 
ATOM     65  C   UNL     1       9.280   4.962  -7.381  1.00  0.00     0.009 A 
ATOM     66  C   UNL     1       9.098   2.590  -7.664  1.00  0.00     0.009 A 
ATOM     67  C   UNL     1      10.377   4.969  -8.246  1.00  0.00     0.001 A 
ATOM     68  C   UNL     1      10.212   2.588  -8.503  1.00  0.00     0.001 A 
ATOM     69  C   UNL     1      10.837   3.785  -8.815  1.00  0.00     0.000 A 
ENDBRANCH  50  64
BRANCH  51  70
ATOM     70  C   UNL     1       3.163   1.164 -13.427  1.00  0.00    -0.014 A 
ATOM     71  C   UNL     1       3.513   1.717 -14.673  1.00  0.00     0.009 A 
ATOM     72  C   UNL     1       3.165  -0.240 -13.327  1.00  0.00     0.009 A 
ATOM     73  C   UNL     1       3.888   0.900 -15.755  1.00  0.00     0.001 A 
ATOM     74  C   UNL     1       3.546  -1.055 -14.402  1.00  0.00     0.001 A 
ATOM     75  C   UNL     1       3.922  -0.485 -15.613  1.00  0.00     0.000 A 
ENDBRANCH  51  70
BRANCH  63  76
ATOM     76  C   UNL     1       2.561   5.935  -9.418  1.00  0.00    -0.014 A 
ATOM     77  C   UNL     1       1.386   5.155  -9.402  1.00  0.00     0.009 A 
ATOM     78  C   UNL     1       2.428   7.319  -9.240  1.00  0.00     0.009 A 
ATOM     79  C   UNL     1       0.126   5.755  -9.250  1.00  0.00     0.001 A 
ATOM     80  C   UNL     1       1.177   7.913  -9.069  1.00  0.00     0.001 A 
ATOM     81  C   UNL     1       0.024   7.134  -9.085  1.00  0.00     0.000 A 
ENDBRANCH  63  76
ENDBRANCH  37  38
ENDBRANCH  30  32
ENDBRANCH  29  30
ENDBRANCH  28  29
ENDBRANCH  27  28
ENDBRANCH  26  27
ENDBRANCH   1  26
TORSDOF 16
