REMARK SMILES COc1ccc(-c2[nH]nc3nc(-c4ccc(C(F)(F)F)cc4)cc(C(=O)OCCOC(=O)c4ccc(-c5c6nc(c(-c7ccccc7)c7ccc([nH]7)c(-c7ccccc7)c7nc(c(-c8ccccc8)c8ccc5[nH]8)C=C7)C=C6)cc4)c23)cc1
REMARK SMILES IDX 28 1 27 2 25 3 26 4 24 5 7 6 8 7 81 8 9 9 10 11 11 12 23 13
REMARK SMILES IDX 12 14 6 15 3 16 4 17 83 18 5 19 82 20 2 21 1 22 13 23 14 24
REMARK SMILES IDX 22 25 15 26 21 27 16 28 17 29 18 30 19 31 20 32 29 33 30 34
REMARK SMILES IDX 31 35 32 36 33 37 34 38 80 39 35 40 79 41 36 42 37 43 38 44
REMARK SMILES IDX 73 45 39 46 78 47 72 48 74 49 40 50 77 51 71 52 70 53 41 55
REMARK SMILES IDX 63 56 48 57 62 58 49 59 52 60 61 61 75 62 50 63 51 64 60 66
REMARK SMILES IDX 76 67 53 68 42 69 43 70 47 71 44 72 46 73 45 74 64 75 65 76
REMARK SMILES IDX 69 77 66 78 68 79 67 80 54 81 55 82 59 83 56 84 58 85 57 86
REMARK H PARENT 8 10 74 54 52 65
REMARK Flexibility Score: inf
ROOT
ATOM      1  C   UNL     1       4.928  -4.124  -4.202  1.00  0.00     0.275 C 
ENDROOT
BRANCH   1   2
ATOM      2  O   UNL     1       4.652  -3.573  -5.497  1.00  0.00    -0.458 OA
BRANCH   2   3
ATOM      3  C   UNL     1       3.380  -3.171  -5.744  1.00  0.00     0.339 C 
ATOM      4  O   UNL     1       2.390  -3.485  -5.114  1.00  0.00    -0.246 OA
BRANCH   3   5
ATOM      5  C   UNL     1       3.418  -2.260  -6.894  1.00  0.00     0.075 A 
ATOM      6  C   UNL     1       1.544  -0.598  -6.448  1.00  0.00     0.075 A 
ATOM      7  N   UNL     1       1.079   0.408  -7.270  1.00  0.00    -0.275 N 
ATOM      8  C   UNL     1       2.563  -1.187  -7.191  1.00  0.00     0.061 A 
ATOM      9  N   UNL     1       1.727   0.549  -8.434  1.00  0.00    -0.154 NA
ATOM     10  H   UNL     1       0.322   0.985  -7.017  1.00  0.00     0.190 HD
ATOM     11  C   UNL     1       2.651  -0.407  -8.401  1.00  0.00     0.182 A 
ATOM     12  N   UNL     1       3.573  -0.640  -9.372  1.00  0.00    -0.226 NA
ATOM     13  C   UNL     1       4.368  -2.456  -7.911  1.00  0.00     0.045 A 
ATOM     14  C   UNL     1       4.402  -1.683  -9.093  1.00  0.00     0.074 A 
BRANCH   6  15
ATOM     15  C   UNL     1       1.031  -0.709  -5.077  1.00  0.00     0.001 A 
ATOM     16  C   UNL     1       0.163  -0.712  -2.379  1.00  0.00     0.118 A 
ATOM     17  C   UNL     1      -0.759  -0.642  -3.424  1.00  0.00     0.047 A 
ATOM     18  C   UNL     1       1.510  -0.828  -2.682  1.00  0.00     0.047 A 
ATOM     19  C   UNL     1      -0.331  -0.632  -4.764  1.00  0.00     0.014 A 
ATOM     20  C   UNL     1       1.926  -0.806  -4.014  1.00  0.00     0.014 A 
BRANCH  16  21
ATOM     21  O   UNL     1      -0.339  -0.734  -1.107  1.00  0.00    -0.497 OA
ATOM     22  C   UNL     1       0.442  -0.035  -0.139  1.00  0.00     0.278 C 
ENDBRANCH  16  21
ENDBRANCH   6  15
BRANCH  14  23
ATOM     23  C   UNL     1       5.342  -2.074 -10.164  1.00  0.00     0.000 A 
ATOM     24  C   UNL     1       6.211  -1.159 -10.775  1.00  0.00     0.011 A 
ATOM     25  C   UNL     1       5.407  -3.418 -10.580  1.00  0.00     0.011 A 
ATOM     26  C   UNL     1       7.133  -1.582 -11.745  1.00  0.00     0.014 A 
ATOM     27  C   UNL     1       6.322  -3.842 -11.544  1.00  0.00     0.014 A 
ATOM     28  C   UNL     1       7.202  -2.930 -12.133  1.00  0.00     0.056 A 
BRANCH  28  29
ATOM     29  C   UNL     1       8.203  -3.386 -13.167  1.00  0.00     0.416 C 
ATOM     30  F   UNL     1       8.027  -2.779 -14.373  1.00  0.00    -0.166 F 
ATOM     31  F   UNL     1       9.489  -3.128 -12.799  1.00  0.00    -0.166 F 
ATOM     32  F   UNL     1       8.152  -4.726 -13.415  1.00  0.00    -0.166 F 
ENDBRANCH  28  29
ENDBRANCH  14  23
ENDBRANCH   3   5
ENDBRANCH   2   3
ENDBRANCH   1   2
BRANCH   1  33
ATOM     33  C   UNL     1       5.878  -3.178  -3.489  1.00  0.00     0.275 C 
BRANCH  33  34
ATOM     34  O   UNL     1       5.244  -1.916  -3.295  1.00  0.00    -0.458 OA
BRANCH  34  35
ATOM     35  C   UNL     1       5.556  -0.905  -4.136  1.00  0.00     0.338 C 
ATOM     36  O   UNL     1       6.112  -0.969  -5.218  1.00  0.00    -0.246 OA
BRANCH  35  37
ATOM     37  C   UNL     1       5.139   0.334  -3.458  1.00  0.00     0.060 A 
ATOM     38  C   UNL     1       5.020   1.533  -4.171  1.00  0.00     0.016 A 
ATOM     39  C   UNL     1       4.921   0.285  -2.071  1.00  0.00     0.016 A 
ATOM     40  C   UNL     1       4.808   2.706  -3.463  1.00  0.00     0.010 A 
ATOM     41  C   UNL     1       4.687   1.436  -1.376  1.00  0.00     0.010 A 
ATOM     42  C   UNL     1       4.720   2.640  -2.069  1.00  0.00    -0.014 A 
BRANCH  42  43
ATOM     43  C   UNL     1       4.720   3.845  -1.269  1.00  0.00     0.031 A 
ATOM     44  C   UNL     1       3.406   4.514  -1.154  1.00  0.00     0.074 A 
ATOM     45  C   UNL     1       5.803   4.134  -0.516  1.00  0.00     0.049 A 
ATOM     46  N   UNL     1       3.067   5.674  -1.604  1.00  0.00    -0.248 NA
ATOM     47  C   UNL     1       2.285   3.744  -0.586  1.00  0.00     0.031 C 
ATOM     48  C   UNL     1       7.001   3.300  -0.319  1.00  0.00     0.029 A 
ATOM     49  N   UNL     1       6.011   5.164   0.342  1.00  0.00    -0.354 N 
ATOM     50  C   UNL     1       1.758   5.877  -1.174  1.00  0.00     0.074 A 
ATOM     51  C   UNL     1       1.270   4.593  -0.747  1.00  0.00     0.031 C 
ATOM     52  C   UNL     1       7.685   3.741   0.760  1.00  0.00     0.029 A 
ATOM     53  C   UNL     1       7.067   4.968   1.226  1.00  0.00     0.049 A 
ATOM     54  H   UNL     1       5.462   5.981   0.339  1.00  0.00     0.167 HD
ATOM     55  C   UNL     1       1.303   7.132  -0.904  1.00  0.00     0.031 A 
ATOM     56  C   UNL     1       7.381   5.740   2.294  1.00  0.00     0.031 A 
ATOM     57  C   UNL     1       2.186   8.130  -1.457  1.00  0.00     0.049 A 
ATOM     58  C   UNL     1       6.706   7.042   2.104  1.00  0.00     0.074 A 
ATOM     59  C   UNL     1       2.587   8.512  -2.718  1.00  0.00     0.029 A 
ATOM     60  N   UNL     1       3.110   8.636  -0.576  1.00  0.00    -0.354 N 
ATOM     61  N   UNL     1       7.005   7.872   1.146  1.00  0.00    -0.248 NA
ATOM     62  C   UNL     1       5.404   7.245   2.720  1.00  0.00     0.031 C 
ATOM     63  C   UNL     1       3.947   8.920  -2.571  1.00  0.00     0.029 A 
ATOM     64  C   UNL     1       4.298   8.832  -1.222  1.00  0.00     0.049 A 
ATOM     65  H   UNL     1       2.942   8.828   0.375  1.00  0.00     0.167 HD
ATOM     66  C   UNL     1       5.787   8.397   0.743  1.00  0.00     0.074 A 
ATOM     67  C   UNL     1       4.868   8.093   1.838  1.00  0.00     0.031 C 
ATOM     68  C   UNL     1       5.583   8.760  -0.558  1.00  0.00     0.031 A 
BRANCH  55  69
ATOM     69  C   UNL     1       0.413   7.459   0.283  1.00  0.00    -0.014 A 
ATOM     70  C   UNL     1       0.130   8.815   0.539  1.00  0.00     0.009 A 
ATOM     71  C   UNL     1       0.116   6.554   1.319  1.00  0.00     0.009 A 
ATOM     72  C   UNL     1      -0.308   9.249   1.797  1.00  0.00     0.001 A 
ATOM     73  C   UNL     1      -0.358   6.979   2.565  1.00  0.00     0.001 A 
ATOM     74  C   UNL     1      -0.536   8.331   2.815  1.00  0.00     0.000 A 
ENDBRANCH  55  69
BRANCH  56  75
ATOM     75  C   UNL     1       7.971   5.337   3.588  1.00  0.00    -0.014 A 
ATOM     76  C   UNL     1       8.604   6.274   4.419  1.00  0.00     0.009 A 
ATOM     77  C   UNL     1       7.664   4.077   4.135  1.00  0.00     0.009 A 
ATOM     78  C   UNL     1       8.886   5.973   5.759  1.00  0.00     0.001 A 
ATOM     79  C   UNL     1       7.943   3.777   5.473  1.00  0.00     0.001 A 
ATOM     80  C   UNL     1       8.542   4.731   6.290  1.00  0.00     0.000 A 
ENDBRANCH  56  75
BRANCH  68  81
ATOM     81  C   UNL     1       6.797   8.894  -1.442  1.00  0.00    -0.014 A 
ATOM     82  C   UNL     1       7.613   7.811  -1.815  1.00  0.00     0.009 A 
ATOM     83  C   UNL     1       7.036  10.144  -2.031  1.00  0.00     0.009 A 
ATOM     84  C   UNL     1       8.651   7.986  -2.738  1.00  0.00     0.001 A 
ATOM     85  C   UNL     1       8.058  10.312  -2.966  1.00  0.00     0.001 A 
ATOM     86  C   UNL     1       8.868   9.235  -3.316  1.00  0.00     0.000 A 
ENDBRANCH  68  81
ENDBRANCH  42  43
ENDBRANCH  35  37
ENDBRANCH  34  35
ENDBRANCH  33  34
ENDBRANCH   1  33
TORSDOF 15
