REMARK SMILES O=C1NC(=S)S/C1=C\c1ccc(OCc2cn(-c3ccc(C(=O)OCCOC(=O)c4ccc(-c5c6nc(c(-c7ccccc7)c7ccc([nH]7)c(-c7ccccc7)c7nc(c(-c8ccccc8)c8ccc5[nH]8)C=C7)C=C6)cc4)cc3)nn2)cc1
REMARK SMILES IDX 24 1 22 2 23 3 21 4 18 5 19 6 79 7 20 8 78 9 17 10 15 11
REMARK SMILES IDX 16 12 81 13 80 14 14 15 13 16 12 17 9 18 10 19 83 20 11 21
REMARK SMILES IDX 82 22 8 23 1 24 2 25 3 26 7 27 4 28 6 30 5 31 25 32 26 33
REMARK SMILES IDX 27 34 28 35 29 36 30 37 31 38 77 39 32 40 76 41 33 42 34 43
REMARK SMILES IDX 35 44 70 45 36 46 75 47 69 48 71 49 37 50 74 51 68 52 67 53
REMARK SMILES IDX 38 55 60 56 45 57 59 58 46 59 49 60 58 61 72 62 47 63 48 64
REMARK SMILES IDX 57 66 73 67 50 68 39 69 40 70 44 71 41 72 43 73 42 74 61 75
REMARK SMILES IDX 62 76 66 77 63 78 65 79 64 80 51 81 52 82 56 83 53 84 55 85
REMARK SMILES IDX 54 86
REMARK H PARENT 3 29 71 54 49 65
REMARK Flexibility Score: inf
ROOT
ATOM      1  O   UNL     1       6.729  10.502  -0.272  1.00  0.00    -0.458 OA
ENDROOT
BRANCH   1   2
ATOM      2  C   UNL     1       6.282  10.027  -1.460  1.00  0.00     0.338 C 
ATOM      3  O   UNL     1       6.880  10.058  -2.527  1.00  0.00    -0.246 OA
BRANCH   2   4
ATOM      4  C   UNL     1       4.979   9.348  -1.285  1.00  0.00     0.060 A 
ATOM      5  C   UNL     1       2.482   8.115  -1.133  1.00  0.00     0.066 A 
ATOM      6  C   UNL     1       3.417   7.684  -2.085  1.00  0.00     0.029 A 
ATOM      7  C   UNL     1       2.824   9.110  -0.208  1.00  0.00     0.029 A 
ATOM      8  C   UNL     1       4.653   8.319  -2.176  1.00  0.00     0.018 A 
ATOM      9  C   UNL     1       4.082   9.712  -0.274  1.00  0.00     0.018 A 
BRANCH   5  10
ATOM     10  N   UNL     1       1.172   7.586  -1.179  1.00  0.00    -0.220 N 
ATOM     11  C   UNL     1      -0.996   7.326  -1.181  1.00  0.00     0.120 A 
ATOM     12  C   UNL     1       0.006   8.144  -0.702  1.00  0.00     0.144 A 
ATOM     13  N   UNL     1      -0.422   6.301  -1.883  1.00  0.00    -0.131 NA
ATOM     14  N   UNL     1       0.888   6.465  -1.876  1.00  0.00    -0.062 NA
BRANCH  11  15
ATOM     15  C   UNL     1      -2.481   7.474  -1.135  1.00  0.00     0.289 C 
BRANCH  15  16
ATOM     16  O   UNL     1      -3.141   6.728  -0.100  1.00  0.00    -0.487 OA
BRANCH  16  17
ATOM     17  C   UNL     1      -3.136   5.363  -0.188  1.00  0.00     0.119 A 
ATOM     18  C   UNL     1      -2.913   2.569  -0.021  1.00  0.00    -0.024 A 
ATOM     19  C   UNL     1      -3.378   3.301   1.073  1.00  0.00     0.012 A 
ATOM     20  C   UNL     1      -2.653   3.230  -1.224  1.00  0.00     0.012 A 
ATOM     21  C   UNL     1      -3.485   4.693   0.987  1.00  0.00     0.047 A 
ATOM     22  C   UNL     1      -2.789   4.617  -1.312  1.00  0.00     0.047 A 
BRANCH  18  23
ATOM     23  C   UNL     1      -2.678   1.127   0.083  1.00  0.00     0.029 C 
ATOM     24  O   UNL     1      -2.198  -1.744   0.157  1.00  0.00    -0.268 OA
ATOM     25  C   UNL     1      -1.295  -0.924   0.113  1.00  0.00     0.263 C 
ATOM     26  N   UNL     1       0.036  -1.233   0.070  1.00  0.00    -0.307 N 
ATOM     27  C   UNL     1      -1.467   0.552   0.082  1.00  0.00     0.080 C 
ATOM     28  C   UNL     1       0.932  -0.209   0.023  1.00  0.00     0.145 C 
ATOM     29  H   UNL     1       0.338  -2.170   0.073  1.00  0.00     0.171 HD
ATOM     30  S   UNL     1       0.082   1.317   0.028  1.00  0.00    -0.055 SA
ATOM     31  S   UNL     1       2.572  -0.429  -0.028  1.00  0.00    -0.052 S 
ENDBRANCH  18  23
ENDBRANCH  16  17
ENDBRANCH  15  16
ENDBRANCH  11  15
ENDBRANCH   5  10
ENDBRANCH   2   4
ENDBRANCH   1   2
BRANCH   1  32
ATOM     32  C   UNL     1       8.105  10.910  -0.258  1.00  0.00     0.275 C 
BRANCH  32  33
ATOM     33  C   UNL     1       9.018   9.742   0.086  1.00  0.00     0.275 C 
BRANCH  33  34
ATOM     34  O   UNL     1       9.083   8.775  -0.963  1.00  0.00    -0.458 OA
BRANCH  34  35
ATOM     35  C   UNL     1       8.275   7.703  -0.794  1.00  0.00     0.338 C 
ATOM     36  O   UNL     1       7.252   7.639  -0.135  1.00  0.00    -0.246 OA
BRANCH  35  37
ATOM     37  C   UNL     1       8.958   6.510  -1.306  1.00  0.00     0.060 A 
ATOM     38  C   UNL     1       8.219   5.332  -1.444  1.00  0.00     0.016 A 
ATOM     39  C   UNL     1      10.358   6.514  -1.379  1.00  0.00     0.016 A 
ATOM     40  C   UNL     1       8.899   4.132  -1.550  1.00  0.00     0.010 A 
ATOM     41  C   UNL     1      11.033   5.319  -1.458  1.00  0.00     0.010 A 
ATOM     42  C   UNL     1      10.298   4.136  -1.496  1.00  0.00    -0.014 A 
BRANCH  42  43
ATOM     43  C   UNL     1      11.005   2.882  -1.669  1.00  0.00     0.031 A 
ATOM     44  C   UNL     1      10.947   2.379  -3.062  1.00  0.00     0.074 A 
ATOM     45  C   UNL     1      11.779   2.331  -0.715  1.00  0.00     0.049 A 
ATOM     46  N   UNL     1      10.393   1.293  -3.483  1.00  0.00    -0.248 NA
ATOM     47  C   UNL     1      11.432   3.267  -4.134  1.00  0.00     0.031 C 
ATOM     48  C   UNL     1      12.151   2.905   0.580  1.00  0.00     0.029 A 
ATOM     49  N   UNL     1      12.508   1.181  -0.763  1.00  0.00    -0.354 N 
ATOM     50  C   UNL     1      10.630   1.261  -4.853  1.00  0.00     0.074 A 
ATOM     51  C   UNL     1      11.096   2.573  -5.220  1.00  0.00     0.031 C 
ATOM     52  C   UNL     1      13.207   2.222   1.081  1.00  0.00     0.029 A 
ATOM     53  C   UNL     1      13.499   1.097   0.207  1.00  0.00     0.049 A 
ATOM     54  H   UNL     1      12.347   0.472  -1.427  1.00  0.00     0.167 HD
ATOM     55  C   UNL     1      10.703   0.080  -5.523  1.00  0.00     0.031 A 
ATOM     56  C   UNL     1      14.523   0.208   0.243  1.00  0.00     0.031 A 
ATOM     57  C   UNL     1      10.111  -0.995  -4.768  1.00  0.00     0.049 A 
ATOM     58  C   UNL     1      14.183  -0.912  -0.663  1.00  0.00     0.074 A 
ATOM     59  C   UNL     1       8.861  -1.243  -4.237  1.00  0.00     0.029 A 
ATOM     60  N   UNL     1      10.976  -1.848  -4.125  1.00  0.00    -0.354 N 
ATOM     61  N   UNL     1      13.253  -1.786  -0.412  1.00  0.00    -0.248 NA
ATOM     62  C   UNL     1      14.597  -0.824  -2.054  1.00  0.00     0.031 C 
ATOM     63  C   UNL     1       9.109  -1.902  -2.998  1.00  0.00     0.029 A 
ATOM     64  C   UNL     1      10.487  -2.082  -2.869  1.00  0.00     0.049 A 
ATOM     65  H   UNL     1      11.803  -2.225  -4.503  1.00  0.00     0.167 HD
ATOM     66  C   UNL     1      12.649  -2.012  -1.640  1.00  0.00     0.074 A 
ATOM     67  C   UNL     1      13.592  -1.492  -2.627  1.00  0.00     0.031 C 
ATOM     68  C   UNL     1      11.323  -2.331  -1.717  1.00  0.00     0.031 A 
BRANCH  55  69
ATOM     69  C   UNL     1      11.722  -0.175  -6.610  1.00  0.00    -0.014 A 
ATOM     70  C   UNL     1      11.752  -1.447  -7.210  1.00  0.00     0.009 A 
ATOM     71  C   UNL     1      12.834   0.657  -6.845  1.00  0.00     0.009 A 
ATOM     72  C   UNL     1      12.876  -1.893  -7.915  1.00  0.00     0.001 A 
ATOM     73  C   UNL     1      13.938   0.232  -7.587  1.00  0.00     0.001 A 
ATOM     74  C   UNL     1      13.973  -1.058  -8.092  1.00  0.00     0.000 A 
ENDBRANCH  55  69
BRANCH  56  75
ATOM     75  C   UNL     1      15.885   0.354   0.802  1.00  0.00    -0.014 A 
ATOM     76  C   UNL     1      16.695  -0.775   1.012  1.00  0.00     0.009 A 
ATOM     77  C   UNL     1      16.498   1.618   0.869  1.00  0.00     0.009 A 
ATOM     78  C   UNL     1      18.073  -0.645   1.229  1.00  0.00     0.001 A 
ATOM     79  C   UNL     1      17.873   1.748   1.092  1.00  0.00     0.001 A 
ATOM     80  C   UNL     1      18.664   0.615   1.254  1.00  0.00     0.000 A 
ENDBRANCH  56  75
BRANCH  68  81
ATOM     81  C   UNL     1      10.618  -2.740  -0.448  1.00  0.00    -0.014 A 
ATOM     82  C   UNL     1      10.529  -1.923   0.693  1.00  0.00     0.009 A 
ATOM     83  C   UNL     1       9.907  -3.949  -0.457  1.00  0.00     0.009 A 
ATOM     84  C   UNL     1       9.782  -2.328   1.805  1.00  0.00     0.001 A 
ATOM     85  C   UNL     1       9.141  -4.341   0.641  1.00  0.00     0.001 A 
ATOM     86  C   UNL     1       9.086  -3.534   1.776  1.00  0.00     0.000 A 
ENDBRANCH  68  81
ENDBRANCH  42  43
ENDBRANCH  35  37
ENDBRANCH  34  35
ENDBRANCH  33  34
ENDBRANCH  32  33
ENDBRANCH   1  32
TORSDOF 16
