REMARK SMILES Cc1c(C(=O)Nc2ccc(C(=O)Nc3ccccc3C(=O)OCCOC(=O)c3ccc(-c4c5nc(c(-c6ccccc6)c6ccc([nH]6)c(-c6ccccc6)c6nc(c(-c7ccccc7)c7ccc4[nH]7)C=C6)C=C5)cc3)cc2)cccc1[N+](=O)[O-]
REMARK SMILES IDX 22 1 20 2 21 3 19 4 14 5 15 6 16 7 18 8 17 9 13 10 11 11
REMARK SMILES IDX 12 12 10 14 7 15 8 16 77 17 9 18 76 19 6 20 4 21 5 22 3 24
REMARK SMILES IDX 1 25 2 26 81 27 78 28 80 29 79 30 82 31 83 32 84 33 23 34
REMARK SMILES IDX 24 35 25 36 26 37 27 38 28 39 29 40 75 41 30 42 74 43 31 44
REMARK SMILES IDX 32 45 33 46 68 47 34 48 73 49 67 50 69 51 35 52 72 53 66 54
REMARK SMILES IDX 65 55 36 57 58 58 43 59 57 60 44 61 47 62 56 63 70 64 45 65
REMARK SMILES IDX 46 66 55 68 71 69 48 70 37 71 38 72 42 73 39 74 41 75 40 76
REMARK SMILES IDX 59 77 60 78 64 79 61 80 63 81 62 82 49 83 50 84 54 85 51 86
REMARK SMILES IDX 53 87 52 88
REMARK H PARENT 13 13 6 23 69 56 47 67
REMARK Flexibility Score: inf
ROOT
ATOM      1  O   UNL     1       4.243   0.015   2.311  1.00  0.00    -0.458 OA
ENDROOT
BRANCH   1   2
ATOM      2  C   UNL     1       3.498   0.651   3.257  1.00  0.00     0.340 C 
ATOM      3  O   UNL     1       3.215   0.096   4.319  1.00  0.00    -0.246 OA
BRANCH   2   4
ATOM      4  C   UNL     1       2.888   2.012   2.959  1.00  0.00     0.083 A 
ATOM      5  C   UNL     1       3.184   3.027   2.010  1.00  0.00     0.056 A 
ATOM      6  C   UNL     1       2.459   4.249   2.083  1.00  0.00     0.027 A 
ATOM      7  C   UNL     1       1.396   4.449   2.959  1.00  0.00     0.002 A 
ATOM      8  C   UNL     1       1.794   2.263   3.839  1.00  0.00     0.018 A 
ATOM      9  C   UNL     1       1.047   3.441   3.829  1.00  0.00     0.001 A 
BRANCH   5  10
ATOM     10  N   UNL     1       4.048   3.059   0.889  1.00  0.00    -0.321 N 
ATOM     11  C   UNL     1       4.310   2.232  -0.182  1.00  0.00     0.255 C 
ATOM     12  O   UNL     1       5.062   2.662  -1.060  1.00  0.00    -0.269 OA
ATOM     13  H   UNL     1       4.598   3.875   0.869  1.00  0.00     0.170 HD
BRANCH  11  14
ATOM     14  C   UNL     1       3.721   0.896  -0.351  1.00  0.00     0.040 A 
ATOM     15  C   UNL     1       2.609  -1.632  -0.604  1.00  0.00     0.041 A 
ATOM     16  C   UNL     1       2.122  -0.751   0.343  1.00  0.00     0.027 A 
ATOM     17  C   UNL     1       3.776  -1.335  -1.309  1.00  0.00     0.027 A 
ATOM     18  C   UNL     1       2.561   0.552   0.319  1.00  0.00     0.016 A 
ATOM     19  C   UNL     1       4.335  -0.055  -1.178  1.00  0.00     0.016 A 
BRANCH  15  20
ATOM     20  N   UNL     1       1.797  -2.696  -1.000  1.00  0.00    -0.322 N 
ATOM     21  C   UNL     1       0.404  -2.702  -1.033  1.00  0.00     0.256 C 
ATOM     22  O   UNL     1      -0.187  -3.768  -1.196  1.00  0.00    -0.269 OA
ATOM     23  H   UNL     1       2.252  -3.522  -1.284  1.00  0.00     0.170 HD
BRANCH  21  24
ATOM     24  C   UNL     1      -0.415  -1.437  -0.835  1.00  0.00     0.049 A 
ATOM     25  C   UNL     1       0.742  -0.025  -2.621  1.00  0.00     0.053 C 
ATOM     26  C   UNL     1      -0.142  -0.160  -1.408  1.00  0.00     0.039 A 
ATOM     27  C   UNL     1      -0.751   0.975  -0.805  1.00  0.00     0.273 A 
ATOM     28  C   UNL     1      -1.473  -1.565   0.084  1.00  0.00     0.014 A 
ATOM     29  C   UNL     1      -1.801   0.820   0.114  1.00  0.00     0.086 A 
ATOM     30  C   UNL     1      -2.197  -0.453   0.509  1.00  0.00     0.008 A 
BRANCH  27  31
ATOM     31  N   UNL     1      -0.236   2.355  -0.991  1.00  0.00     0.063 N 
ATOM     32  O   UNL     1      -0.962   3.291  -0.624  1.00  0.00    -0.258 OA
ATOM     33  O   UNL     1       0.916   2.505  -1.414  1.00  0.00    -0.258 OA
ENDBRANCH  27  31
ENDBRANCH  21  24
ENDBRANCH  15  20
ENDBRANCH  11  14
ENDBRANCH   5  10
ENDBRANCH   2   4
ENDBRANCH   1   2
BRANCH   1  34
ATOM     34  C   UNL     1       4.494  -1.369   2.640  1.00  0.00     0.275 C 
BRANCH  34  35
ATOM     35  C   UNL     1       5.332  -2.236   1.661  1.00  0.00     0.275 C 
BRANCH  35  36
ATOM     36  O   UNL     1       6.081  -1.688   0.541  1.00  0.00    -0.458 OA
BRANCH  36  37
ATOM     37  C   UNL     1       6.986  -0.672   0.497  1.00  0.00     0.338 C 
ATOM     38  O   UNL     1       7.573  -0.319  -0.488  1.00  0.00    -0.246 OA
BRANCH  37  39
ATOM     39  C   UNL     1       7.113   0.037   1.759  1.00  0.00     0.060 A 
ATOM     40  C   UNL     1       6.717   1.380   1.806  1.00  0.00     0.016 A 
ATOM     41  C   UNL     1       7.441  -0.709   2.882  1.00  0.00     0.016 A 
ATOM     42  C   UNL     1       6.538   1.986   3.030  1.00  0.00     0.010 A 
ATOM     43  C   UNL     1       7.181  -0.155   4.100  1.00  0.00     0.010 A 
ATOM     44  C   UNL     1       6.828   1.212   4.147  1.00  0.00    -0.014 A 
BRANCH  44  45
ATOM     45  C   UNL     1       7.424   1.841   5.305  1.00  0.00     0.031 A 
ATOM     46  C   UNL     1       6.627   1.945   6.527  1.00  0.00     0.074 A 
ATOM     47  C   UNL     1       8.761   1.821   5.079  1.00  0.00     0.049 A 
ATOM     48  N   UNL     1       6.955   2.622   7.567  1.00  0.00    -0.248 NA
ATOM     49  C   UNL     1       5.287   1.358   6.658  1.00  0.00     0.031 C 
ATOM     50  C   UNL     1       9.920   1.595   5.915  1.00  0.00     0.029 A 
ATOM     51  N   UNL     1       9.338   2.031   3.820  1.00  0.00    -0.354 N 
ATOM     52  C   UNL     1       6.198   2.079   8.587  1.00  0.00     0.074 A 
ATOM     53  C   UNL     1       5.022   1.552   7.953  1.00  0.00     0.031 C 
ATOM     54  C   UNL     1      11.023   1.983   5.233  1.00  0.00     0.029 A 
ATOM     55  C   UNL     1      10.584   2.600   3.980  1.00  0.00     0.049 A 
ATOM     56  H   UNL     1       8.920   1.807   2.957  1.00  0.00     0.167 HD
ATOM     57  C   UNL     1       6.818   1.796   9.769  1.00  0.00     0.031 A 
ATOM     58  C   UNL     1      10.648   3.934   3.679  1.00  0.00     0.031 A 
ATOM     59  C   UNL     1       8.228   2.193   9.688  1.00  0.00     0.049 A 
ATOM     60  C   UNL     1      10.713   4.715   4.972  1.00  0.00     0.074 A 
ATOM     61  C   UNL     1       9.389   1.464   9.492  1.00  0.00     0.029 A 
ATOM     62  N   UNL     1       8.537   3.512   9.371  1.00  0.00    -0.354 N 
ATOM     63  N   UNL     1      10.080   4.397   6.073  1.00  0.00    -0.248 NA
ATOM     64  C   UNL     1      11.633   5.829   5.141  1.00  0.00     0.031 C 
ATOM     65  C   UNL     1      10.381   2.355   8.989  1.00  0.00     0.029 A 
ATOM     66  C   UNL     1       9.806   3.606   8.833  1.00  0.00     0.049 A 
ATOM     67  H   UNL     1       7.932   4.276   9.511  1.00  0.00     0.167 HD
ATOM     68  C   UNL     1      10.606   5.124   7.108  1.00  0.00     0.074 A 
ATOM     69  C   UNL     1      11.538   6.039   6.464  1.00  0.00     0.031 C 
ATOM     70  C   UNL     1      10.318   4.909   8.428  1.00  0.00     0.031 A 
BRANCH  57  71
ATOM     71  C   UNL     1       6.281   0.858  10.827  1.00  0.00    -0.014 A 
ATOM     72  C   UNL     1       7.175   0.299  11.762  1.00  0.00     0.009 A 
ATOM     73  C   UNL     1       4.934   0.480  10.971  1.00  0.00     0.009 A 
ATOM     74  C   UNL     1       6.764  -0.609  12.746  1.00  0.00     0.001 A 
ATOM     75  C   UNL     1       4.516  -0.443  11.944  1.00  0.00     0.001 A 
ATOM     76  C   UNL     1       5.433  -0.989  12.832  1.00  0.00     0.000 A 
ENDBRANCH  57  71
BRANCH  58  77
ATOM     77  C   UNL     1       9.843   4.324   2.461  1.00  0.00    -0.014 A 
ATOM     78  C   UNL     1      10.153   3.709   1.223  1.00  0.00     0.009 A 
ATOM     79  C   UNL     1       8.628   5.021   2.546  1.00  0.00     0.009 A 
ATOM     80  C   UNL     1       9.248   3.711   0.152  1.00  0.00     0.001 A 
ATOM     81  C   UNL     1       7.730   5.041   1.460  1.00  0.00     0.001 A 
ATOM     82  C   UNL     1       8.029   4.367   0.275  1.00  0.00     0.000 A 
ENDBRANCH  58  77
BRANCH  70  83
ATOM     83  C   UNL     1      10.531   5.927   9.519  1.00  0.00    -0.014 A 
ATOM     84  C   UNL     1      10.751   7.287   9.280  1.00  0.00     0.009 A 
ATOM     85  C   UNL     1      10.315   5.547  10.864  1.00  0.00     0.009 A 
ATOM     86  C   UNL     1      10.809   8.208  10.328  1.00  0.00     0.001 A 
ATOM     87  C   UNL     1      10.292   6.473  11.904  1.00  0.00     0.001 A 
ATOM     88  C   UNL     1      10.561   7.805  11.636  1.00  0.00     0.000 A 
ENDBRANCH  70  83
ENDBRANCH  44  45
ENDBRANCH  37  39
ENDBRANCH  36  37
ENDBRANCH  35  36
ENDBRANCH  34  35
ENDBRANCH   1  34
TORSDOF 16
