REMARK SMILES CC(C)C(=O)Nc1ccc2c([C@H](C(=O)OCCOC(=O)c3ccc(-c4c5nc(c(-c6ccccc6)c6ccc([nH]6)c(-c6ccccc6)c6nc(c(-c7ccccc7)c7ccc4[nH]7)C=C6)C=C5)cc3)[NH+]3CC[NH+](CC(=O)N(C)C)CC3)c[nH]c2c1
REMARK SMILES IDX 16 1 15 2 13 3 14 4 12 5 11 6 7 7 8 8 84 9 9 10 83 11 10 12
REMARK SMILES IDX 82 13 81 14 6 16 4 17 5 18 2 20 1 21 3 22 69 23 70 24 80 25
REMARK SMILES IDX 71 27 79 28 72 29 73 31 74 32 75 33 76 34 77 35 78 36 17 37
REMARK SMILES IDX 18 38 19 39 20 40 21 41 22 42 68 43 23 44 67 45 24 46 25 47
REMARK SMILES IDX 26 48 61 49 27 50 66 51 60 52 62 53 28 54 65 55 59 56 58 57
REMARK SMILES IDX 29 59 51 60 36 61 50 62 37 63 40 64 49 65 63 66 38 67 39 68
REMARK SMILES IDX 48 70 64 71 41 72 30 73 31 74 35 75 32 76 34 77 33 78 52 79
REMARK SMILES IDX 53 80 57 81 54 82 56 83 55 84 42 85 43 86 47 87 44 88 46 89
REMARK SMILES IDX 45 90
REMARK H PARENT 82 15 6 19 69 26 72 30 62 58 40 69
REMARK Flexibility Score: inf
ROOT
ATOM      1  C   UNL     1      -0.890  -4.172  -2.092  1.00  0.00     0.274 C 
ENDROOT
BRANCH   1   2
ATOM      2  O   UNL     1       0.366  -4.660  -1.582  1.00  0.00    -0.457 OA
BRANCH   2   3
ATOM      3  C   UNL     1       0.288  -5.294  -0.383  1.00  0.00     0.370 C 
ATOM      4  O   UNL     1      -0.759  -5.331   0.266  1.00  0.00    -0.245 OA
BRANCH   3   5
ATOM      5  C   UNL     1       1.607  -5.934   0.121  1.00  0.00     0.328 C 
BRANCH   5   6
ATOM      6  C   UNL     1       1.440  -7.420   0.471  1.00  0.00     0.046 A 
ATOM      7  C   UNL     1       3.906 -10.272   2.327  1.00  0.00     0.043 A 
ATOM      8  C   UNL     1       4.563  -9.176   1.791  1.00  0.00     0.027 A 
ATOM      9  C   UNL     1       2.571 -10.529   1.998  1.00  0.00     0.052 A 
ATOM     10  C   UNL     1       3.854  -8.159   1.162  1.00  0.00     0.013 A 
ATOM     11  C   UNL     1       1.874  -9.509   1.329  1.00  0.00     0.048 A 
ATOM     12  C   UNL     1       2.467  -8.296   0.976  1.00  0.00     0.009 A 
ATOM     13  N   UNL     1       0.561  -9.435   0.937  1.00  0.00    -0.361 N 
ATOM     14  C   UNL     1       0.290  -8.193   0.425  1.00  0.00     0.094 A 
ATOM     15  H   UNL     1      -0.092 -10.168   1.012  1.00  0.00     0.166 HD
BRANCH   7  16
ATOM     16  N   UNL     1       4.557 -11.124   3.221  1.00  0.00    -0.326 N 
ATOM     17  C   UNL     1       5.381 -10.815   4.269  1.00  0.00     0.226 C 
ATOM     18  O   UNL     1       5.983 -11.750   4.811  1.00  0.00    -0.274 OA
ATOM     19  H   UNL     1       4.401 -12.086   3.077  1.00  0.00     0.169 HD
BRANCH  17  20
ATOM     20  C   UNL     1       5.508  -9.397   4.865  1.00  0.00     0.072 C 
ATOM     21  C   UNL     1       6.513  -8.480   4.175  1.00  0.00     0.018 C 
ATOM     22  C   UNL     1       4.175  -8.703   5.146  1.00  0.00     0.018 C 
ENDBRANCH  17  20
ENDBRANCH   7  16
ENDBRANCH   5   6
BRANCH   5  23
ATOM     23  N   UNL     1       2.868  -5.698  -0.623  1.00  0.00    -0.310 N 
ATOM     24  C   UNL     1       3.194  -6.556  -1.751  1.00  0.00     0.325 C 
ATOM     25  C   UNL     1       3.285  -4.318  -0.864  1.00  0.00     0.325 C 
ATOM     26  H   UNL     1       3.459  -6.036   0.136  1.00  0.00     0.349 HD
ATOM     27  C   UNL     1       2.644  -6.027  -3.062  1.00  0.00     0.325 C 
ATOM     28  C   UNL     1       3.092  -3.737  -2.296  1.00  0.00     0.325 C 
ATOM     29  N   UNL     1       3.001  -4.660  -3.423  1.00  0.00    -0.318 N 
ATOM     30  H   UNL     1       2.191  -4.273  -3.907  1.00  0.00     0.348 HD
BRANCH  29  31
ATOM     31  C   UNL     1       4.032  -4.580  -4.463  1.00  0.00     0.364 C 
BRANCH  31  32
ATOM     32  C   UNL     1       5.293  -5.376  -4.103  1.00  0.00     0.277 C 
ATOM     33  O   UNL     1       5.359  -6.577  -4.387  1.00  0.00    -0.268 OA
ATOM     34  N   UNL     1       6.297  -4.753  -3.384  1.00  0.00    -0.344 N 
ATOM     35  C   UNL     1       6.510  -3.320  -3.316  1.00  0.00     0.146 C 
ATOM     36  C   UNL     1       7.288  -5.589  -2.731  1.00  0.00     0.146 C 
ENDBRANCH  31  32
ENDBRANCH  29  31
ENDBRANCH   5  23
ENDBRANCH   3   5
ENDBRANCH   2   3
ENDBRANCH   1   2
BRANCH   1  37
ATOM     37  C   UNL     1      -0.711  -3.526  -3.473  1.00  0.00     0.275 C 
BRANCH  37  38
ATOM     38  O   UNL     1      -0.071  -4.376  -4.442  1.00  0.00    -0.458 OA
BRANCH  38  39
ATOM     39  C   UNL     1      -0.743  -5.484  -4.825  1.00  0.00     0.338 C 
ATOM     40  O   UNL     1      -1.876  -5.805  -4.512  1.00  0.00    -0.246 OA
BRANCH  39  41
ATOM     41  C   UNL     1       0.217  -6.372  -5.508  1.00  0.00     0.060 A 
ATOM     42  C   UNL     1       0.593  -7.527  -4.832  1.00  0.00     0.016 A 
ATOM     43  C   UNL     1       0.822  -6.045  -6.726  1.00  0.00     0.016 A 
ATOM     44  C   UNL     1       1.652  -8.290  -5.320  1.00  0.00     0.010 A 
ATOM     45  C   UNL     1       1.782  -6.910  -7.286  1.00  0.00     0.010 A 
ATOM     46  C   UNL     1       2.210  -8.053  -6.592  1.00  0.00    -0.014 A 
BRANCH  46  47
ATOM     47  C   UNL     1       3.111  -9.087  -7.200  1.00  0.00     0.031 A 
ATOM     48  C   UNL     1       4.463  -8.774  -7.798  1.00  0.00     0.074 A 
ATOM     49  C   UNL     1       2.694 -10.373  -7.202  1.00  0.00     0.049 A 
ATOM     50  N   UNL     1       5.245  -9.554  -8.510  1.00  0.00    -0.248 NA
ATOM     51  C   UNL     1       5.012  -7.430  -7.578  1.00  0.00     0.031 C 
ATOM     52  C   UNL     1       1.428 -10.854  -6.636  1.00  0.00     0.029 A 
ATOM     53  N   UNL     1       3.290 -11.519  -7.669  1.00  0.00    -0.354 N 
ATOM     54  C   UNL     1       6.362  -8.792  -8.839  1.00  0.00     0.074 A 
ATOM     55  C   UNL     1       6.158  -7.484  -8.249  1.00  0.00     0.031 C 
ATOM     56  C   UNL     1       1.392 -12.187  -6.691  1.00  0.00     0.029 A 
ATOM     57  C   UNL     1       2.530 -12.646  -7.468  1.00  0.00     0.049 A 
ATOM     58  H   UNL     1       4.173 -11.532  -8.104  1.00  0.00     0.167 HD
ATOM     59  C   UNL     1       7.449  -9.149  -9.570  1.00  0.00     0.031 A 
ATOM     60  C   UNL     1       2.650 -13.903  -7.928  1.00  0.00     0.031 A 
ATOM     61  C   UNL     1       7.655 -10.455 -10.151  1.00  0.00     0.049 A 
ATOM     62  C   UNL     1       3.774 -14.233  -8.850  1.00  0.00     0.074 A 
ATOM     63  C   UNL     1       8.717 -10.899 -10.924  1.00  0.00     0.029 A 
ATOM     64  N   UNL     1       6.788 -11.527 -10.021  1.00  0.00    -0.354 N 
ATOM     65  N   UNL     1       4.765 -13.470  -9.238  1.00  0.00    -0.248 NA
ATOM     66  C   UNL     1       3.772 -15.579  -9.432  1.00  0.00     0.031 C 
ATOM     67  C   UNL     1       8.463 -12.221 -11.309  1.00  0.00     0.029 A 
ATOM     68  C   UNL     1       7.271 -12.618 -10.728  1.00  0.00     0.049 A 
ATOM     69  H   UNL     1       5.951 -11.516  -9.502  1.00  0.00     0.167 HD
ATOM     70  C   UNL     1       5.504 -14.240 -10.120  1.00  0.00     0.074 A 
ATOM     71  C   UNL     1       4.861 -15.538 -10.187  1.00  0.00     0.031 C 
ATOM     72  C   UNL     1       6.612 -13.895 -10.816  1.00  0.00     0.031 A 
BRANCH  59  73
ATOM     73  C   UNL     1       8.498  -8.102  -9.845  1.00  0.00    -0.014 A 
ATOM     74  C   UNL     1       9.435  -7.724  -8.873  1.00  0.00     0.009 A 
ATOM     75  C   UNL     1       8.613  -7.566 -11.140  1.00  0.00     0.009 A 
ATOM     76  C   UNL     1      10.457  -6.823  -9.188  1.00  0.00     0.001 A 
ATOM     77  C   UNL     1       9.646  -6.682 -11.458  1.00  0.00     0.001 A 
ATOM     78  C   UNL     1      10.566  -6.308 -10.480  1.00  0.00     0.000 A 
ENDBRANCH  59  73
BRANCH  60  79
ATOM     79  C   UNL     1       1.575 -14.883  -7.623  1.00  0.00    -0.014 A 
ATOM     80  C   UNL     1       1.800 -15.951  -6.747  1.00  0.00     0.009 A 
ATOM     81  C   UNL     1       0.283 -14.688  -8.145  1.00  0.00     0.009 A 
ATOM     82  C   UNL     1       0.746 -16.795  -6.387  1.00  0.00     0.001 A 
ATOM     83  C   UNL     1      -0.774 -15.506  -7.751  1.00  0.00     0.001 A 
ATOM     84  C   UNL     1      -0.541 -16.561  -6.874  1.00  0.00     0.000 A 
ENDBRANCH  60  79
BRANCH  72  85
ATOM     85  C   UNL     1       7.199 -14.955 -11.699  1.00  0.00    -0.014 A 
ATOM     86  C   UNL     1       6.590 -15.300 -12.915  1.00  0.00     0.009 A 
ATOM     87  C   UNL     1       8.357 -15.635 -11.295  1.00  0.00     0.009 A 
ATOM     88  C   UNL     1       7.109 -16.337 -13.692  1.00  0.00     0.001 A 
ATOM     89  C   UNL     1       8.887 -16.654 -12.086  1.00  0.00     0.001 A 
ATOM     90  C   UNL     1       8.257 -17.012 -13.277  1.00  0.00     0.000 A 
ENDBRANCH  72  85
ENDBRANCH  46  47
ENDBRANCH  39  41
ENDBRANCH  38  39
ENDBRANCH  37  38
ENDBRANCH   1  37
TORSDOF 17
