REMARK SMILES O=C(OCCOC(=O)c1ccc(C[N@@H+](CC(F)(F)F)C2CC2)nc1)c1ccc(-c2c3nc(c(-c4ccccc4)c4ccc([nH]4)c(-c4ccccc4)c4nc(c(-c5ccccc5)c5ccc2[nH]5)C=C4)C=C3)cc1
REMARK SMILES IDX 5 1 4 2 3 3 2 4 1 5 25 6 26 7 72 8 27 9 71 10 28 11 29 12
REMARK SMILES IDX 30 13 65 14 31 15 70 16 64 17 66 18 32 19 69 20 63 21 62 22
REMARK SMILES IDX 33 24 55 25 40 26 54 27 41 28 44 29 53 30 67 31 42 32 43 33
REMARK SMILES IDX 52 35 68 36 45 37 34 38 35 39 39 40 36 41 38 42 37 43 56 44
REMARK SMILES IDX 57 45 61 46 58 47 60 48 59 49 46 50 47 51 51 52 48 53 50 54
REMARK SMILES IDX 49 55 6 56 7 57 8 58 9 59 10 60 24 61 11 62 23 63 12 64
REMARK SMILES IDX 13 65 14 66 15 68 16 69 17 70 18 71 19 72 20 73 21 74 22 75
REMARK H PARENT 66 23 44 34 14 67
REMARK Flexibility Score: inf
ROOT
ATOM      1  C   UNL     1       3.934  -2.204   0.778  1.00  0.00     0.275 C 
ENDROOT
BRANCH   1   2
ATOM      2  C   UNL     1       4.177  -0.847   1.440  1.00  0.00     0.275 C 
BRANCH   2   3
ATOM      3  O   UNL     1       3.143   0.127   1.210  1.00  0.00    -0.458 OA
BRANCH   3   4
ATOM      4  C   UNL     1       3.043   1.077   0.252  1.00  0.00     0.338 C 
ATOM      5  O   UNL     1       2.226   1.985   0.398  1.00  0.00    -0.246 OA
BRANCH   4   6
ATOM      6  C   UNL     1       3.759   1.004  -1.059  1.00  0.00     0.060 A 
ATOM      7  C   UNL     1       5.055   0.527  -1.262  1.00  0.00     0.016 A 
ATOM      8  C   UNL     1       3.059   1.502  -2.174  1.00  0.00     0.016 A 
ATOM      9  C   UNL     1       5.613   0.481  -2.545  1.00  0.00     0.010 A 
ATOM     10  C   UNL     1       3.608   1.454  -3.458  1.00  0.00     0.010 A 
ATOM     11  C   UNL     1       4.895   0.945  -3.648  1.00  0.00    -0.014 A 
BRANCH  11  12
ATOM     12  C   UNL     1       5.546   1.026  -4.973  1.00  0.00     0.031 A 
ATOM     13  C   UNL     1       6.066   2.352  -5.438  1.00  0.00     0.074 A 
ATOM     14  C   UNL     1       5.691  -0.068  -5.741  1.00  0.00     0.049 A 
ATOM     15  N   UNL     1       6.719   2.639  -6.533  1.00  0.00    -0.248 NA
ATOM     16  C   UNL     1       5.855   3.496  -4.537  1.00  0.00     0.031 C 
ATOM     17  C   UNL     1       5.299  -1.422  -5.362  1.00  0.00     0.029 A 
ATOM     18  N   UNL     1       6.189  -0.211  -7.010  1.00  0.00    -0.354 N 
ATOM     19  C   UNL     1       7.040   3.984  -6.428  1.00  0.00     0.074 A 
ATOM     20  C   UNL     1       6.447   4.474  -5.204  1.00  0.00     0.031 C 
ATOM     21  C   UNL     1       5.482  -2.245  -6.408  1.00  0.00     0.029 A 
ATOM     22  C   UNL     1       6.037  -1.478  -7.518  1.00  0.00     0.049 A 
ATOM     23  H   UNL     1       6.613   0.524  -7.510  1.00  0.00     0.167 HD
ATOM     24  C   UNL     1       7.795   4.736  -7.262  1.00  0.00     0.031 A 
ATOM     25  C   UNL     1       6.313  -1.962  -8.742  1.00  0.00     0.031 A 
ATOM     26  C   UNL     1       8.334   4.257  -8.504  1.00  0.00     0.049 A 
ATOM     27  C   UNL     1       7.010  -1.068  -9.728  1.00  0.00     0.074 A 
ATOM     28  C   UNL     1       9.116   4.928  -9.425  1.00  0.00     0.029 A 
ATOM     29  N   UNL     1       8.116   2.983  -9.010  1.00  0.00    -0.354 N 
ATOM     30  N   UNL     1       7.387   0.180  -9.581  1.00  0.00    -0.248 NA
ATOM     31  C   UNL     1       7.366  -1.659 -11.024  1.00  0.00     0.031 C 
ATOM     32  C   UNL     1       9.326   4.076 -10.516  1.00  0.00     0.029 A 
ATOM     33  C   UNL     1       8.717   2.858 -10.250  1.00  0.00     0.049 A 
ATOM     34  H   UNL     1       7.608   2.274  -8.554  1.00  0.00     0.167 HD
ATOM     35  C   UNL     1       8.069   0.509 -10.743  1.00  0.00     0.074 A 
ATOM     36  C   UNL     1       8.046  -0.669 -11.588  1.00  0.00     0.031 C 
ATOM     37  C   UNL     1       8.679   1.675 -11.071  1.00  0.00     0.031 A 
BRANCH  24  38
ATOM     38  C   UNL     1       8.047   6.153  -6.839  1.00  0.00    -0.014 A 
ATOM     39  C   UNL     1       8.897   6.442  -5.758  1.00  0.00     0.009 A 
ATOM     40  C   UNL     1       7.396   7.207  -7.494  1.00  0.00     0.009 A 
ATOM     41  C   UNL     1       9.051   7.755  -5.310  1.00  0.00     0.001 A 
ATOM     42  C   UNL     1       7.571   8.523  -7.059  1.00  0.00     0.001 A 
ATOM     43  C   UNL     1       8.386   8.794  -5.960  1.00  0.00     0.000 A 
ENDBRANCH  24  38
BRANCH  25  44
ATOM     44  C   UNL     1       5.943  -3.357  -9.091  1.00  0.00    -0.014 A 
ATOM     45  C   UNL     1       6.917  -4.358  -9.213  1.00  0.00     0.009 A 
ATOM     46  C   UNL     1       4.595  -3.692  -9.305  1.00  0.00     0.009 A 
ATOM     47  C   UNL     1       6.552  -5.661  -9.564  1.00  0.00     0.001 A 
ATOM     48  C   UNL     1       4.232  -5.000  -9.636  1.00  0.00     0.001 A 
ATOM     49  C   UNL     1       5.211  -5.982  -9.772  1.00  0.00     0.000 A 
ENDBRANCH  25  44
BRANCH  37  50
ATOM     50  C   UNL     1       9.407   1.717 -12.383  1.00  0.00    -0.014 A 
ATOM     51  C   UNL     1       8.713   1.786 -13.600  1.00  0.00     0.009 A 
ATOM     52  C   UNL     1      10.810   1.738 -12.392  1.00  0.00     0.009 A 
ATOM     53  C   UNL     1       9.415   1.849 -14.805  1.00  0.00     0.001 A 
ATOM     54  C   UNL     1      11.508   1.829 -13.597  1.00  0.00     0.001 A 
ATOM     55  C   UNL     1      10.809   1.877 -14.802  1.00  0.00     0.000 A 
ENDBRANCH  37  50
ENDBRANCH  11  12
ENDBRANCH   4   6
ENDBRANCH   3   4
ENDBRANCH   2   3
ENDBRANCH   1   2
BRANCH   1  56
ATOM     56  O   UNL     1       3.485  -2.101  -0.581  1.00  0.00    -0.458 OA
BRANCH  56  57
ATOM     57  C   UNL     1       2.136  -2.142  -0.743  1.00  0.00     0.339 C 
ATOM     58  O   UNL     1       1.294  -2.285   0.126  1.00  0.00    -0.246 OA
BRANCH  57  59
ATOM     59  C   UNL     1       1.815  -1.855  -2.144  1.00  0.00     0.078 A 
ATOM     60  C   UNL     1       2.450  -2.493  -3.202  1.00  0.00     0.019 A 
ATOM     61  C   UNL     1       0.870  -0.880  -2.425  1.00  0.00     0.127 A 
ATOM     62  C   UNL     1       2.138  -2.103  -4.503  1.00  0.00     0.031 A 
ATOM     63  N   UNL     1       0.590  -0.449  -3.680  1.00  0.00    -0.254 NA
ATOM     64  C   UNL     1       1.238  -1.056  -4.709  1.00  0.00     0.095 A 
BRANCH  64  65
ATOM     65  C   UNL     1       0.938  -0.593  -6.131  1.00  0.00     0.320 C 
BRANCH  65  66
ATOM     66  N   UNL     1      -0.422  -0.907  -6.598  1.00  0.00    -0.320 N 
ATOM     67  H   UNL     1      -1.051  -0.335  -6.035  1.00  0.00     0.348 HD
BRANCH  66  68
ATOM     68  C   UNL     1      -0.729  -0.385  -7.943  1.00  0.00     0.379 C 
BRANCH  68  69
ATOM     69  C   UNL     1       0.094  -0.827  -9.167  1.00  0.00     0.438 C 
ATOM     70  F   UNL     1       0.035  -2.157  -9.390  1.00  0.00    -0.165 F 
ATOM     71  F   UNL     1      -0.369  -0.218 -10.286  1.00  0.00    -0.165 F 
ATOM     72  F   UNL     1       1.399  -0.493  -9.045  1.00  0.00    -0.165 F 
ENDBRANCH  68  69
ENDBRANCH  66  68
BRANCH  66  73
ATOM     73  C   UNL     1      -0.942  -2.219  -6.201  1.00  0.00     0.185 C 
ATOM     74  C   UNL     1      -1.677  -3.171  -7.096  1.00  0.00     0.071 C 
ATOM     75  C   UNL     1      -0.276  -3.487  -6.664  1.00  0.00     0.071 C 
ENDBRANCH  66  73
ENDBRANCH  65  66
ENDBRANCH  64  65
ENDBRANCH  57  59
ENDBRANCH  56  57
ENDBRANCH   1  56
TORSDOF 16
