REMARK SMILES C[C@@H](Sc1nc2ccccc2c(=O)n1N)C(=O)OCCOC(=O)c1ccc(-c2c3nc(c(-c4ccccc4)c4ccc([nH]4)c(-c4ccccc4)c4nc(c(-c5ccccc5)c5ccc2[nH]5)C=C4)C=C3)cc1
REMARK SMILES IDX 19 1 18 2 16 3 17 4 2 5 1 6 3 7 4 8 5 9 14 10 6 11 12 12
REMARK SMILES IDX 7 13 11 14 13 15 8 16 10 17 9 18 15 19 20 22 21 23 22 24
REMARK SMILES IDX 23 25 24 26 25 27 71 28 26 29 70 30 27 31 28 32 29 33 64 34
REMARK SMILES IDX 30 35 69 36 63 37 65 38 31 39 68 40 62 41 61 42 32 44 54 45
REMARK SMILES IDX 39 46 53 47 40 48 43 49 52 50 66 51 41 52 42 53 51 55 67 56
REMARK SMILES IDX 44 57 33 58 34 59 38 60 35 61 37 62 36 63 55 64 56 65 60 66
REMARK SMILES IDX 57 67 59 68 58 69 45 70 46 71 50 72 47 73 49 74 48 75
REMARK H PARENT 15 20 15 21 65 43 43 54
REMARK Flexibility Score: inf
ROOT
ATOM      1  C   UNL     1      -3.026   0.798   0.966  1.00  0.00     0.274 C 
ENDROOT
BRANCH   1   2
ATOM      2  O   UNL     1      -1.610   0.992   0.784  1.00  0.00    -0.461 OA
BRANCH   2   3
ATOM      3  C   UNL     1      -0.801   0.487   1.756  1.00  0.00     0.319 C 
ATOM      4  O   UNL     1      -1.210  -0.096   2.756  1.00  0.00    -0.251 OA
BRANCH   3   5
ATOM      5  C   UNL     1       0.683   0.716   1.479  1.00  0.00     0.161 C 
ATOM      6  C   UNL     1       1.011   1.115   0.046  1.00  0.00     0.032 C 
BRANCH   5   7
ATOM      7  S   UNL     1       1.298   1.936   2.690  1.00  0.00    -0.071 SA
BRANCH   7   8
ATOM      8  C   UNL     1       3.023   1.673   2.548  1.00  0.00     0.191 A 
ATOM      9  N   UNL     1       3.717   2.628   2.019  1.00  0.00    -0.222 NA
ATOM     10  N   UNL     1       3.581   0.500   3.052  1.00  0.00    -0.202 N 
ATOM     11  C   UNL     1       5.109   2.485   1.961  1.00  0.00     0.079 A 
ATOM     12  C   UNL     1       4.959   0.274   3.022  1.00  0.00     0.280 A 
ATOM     13  C   UNL     1       5.867   3.530   1.428  1.00  0.00     0.029 A 
ATOM     14  C   UNL     1       5.774   1.356   2.442  1.00  0.00     0.068 A 
ATOM     15  O   UNL     1       5.486  -0.748   3.459  1.00  0.00    -0.267 OA
ATOM     16  C   UNL     1       7.262   3.448   1.381  1.00  0.00     0.002 A 
ATOM     17  C   UNL     1       7.170   1.260   2.397  1.00  0.00     0.016 A 
ATOM     18  C   UNL     1       7.913   2.313   1.866  1.00  0.00     0.001 A 
BRANCH  10  19
ATOM     19  N   UNL     1       2.778  -0.541   3.631  1.00  0.00    -0.334 N 
ATOM     20  H   UNL     1       1.800  -0.438   3.681  1.00  0.00     0.178 HD
ATOM     21  H   UNL     1       3.206  -1.356   3.980  1.00  0.00     0.178 HD
ENDBRANCH  10  19
ENDBRANCH   7   8
ENDBRANCH   5   7
ENDBRANCH   3   5
ENDBRANCH   2   3
ENDBRANCH   1   2
BRANCH   1  22
ATOM     22  C   UNL     1      -3.550  -0.397   0.162  1.00  0.00     0.275 C 
BRANCH  22  23
ATOM     23  O   UNL     1      -3.064  -1.654   0.671  1.00  0.00    -0.458 OA
BRANCH  23  24
ATOM     24  C   UNL     1      -1.909  -2.086   0.113  1.00  0.00     0.338 C 
ATOM     25  O   UNL     1      -1.275  -1.547  -0.779  1.00  0.00    -0.246 OA
BRANCH  24  26
ATOM     26  C   UNL     1      -1.396  -3.258   0.842  1.00  0.00     0.060 A 
ATOM     27  C   UNL     1      -0.103  -3.171   1.363  1.00  0.00     0.016 A 
ATOM     28  C   UNL     1      -2.122  -4.446   0.946  1.00  0.00     0.016 A 
ATOM     29  C   UNL     1       0.474  -4.267   1.994  1.00  0.00     0.010 A 
ATOM     30  C   UNL     1      -1.538  -5.554   1.575  1.00  0.00     0.010 A 
ATOM     31  C   UNL     1      -0.234  -5.471   2.094  1.00  0.00    -0.014 A 
BRANCH  31  32
ATOM     32  C   UNL     1       0.434  -6.640   2.712  1.00  0.00     0.031 A 
ATOM     33  C   UNL     1       1.013  -7.721   1.847  1.00  0.00     0.074 A 
ATOM     34  C   UNL     1       0.589  -6.687   4.048  1.00  0.00     0.049 A 
ATOM     35  N   UNL     1       1.652  -8.808   2.202  1.00  0.00    -0.248 NA
ATOM     36  C   UNL     1       0.861  -7.558   0.393  1.00  0.00     0.031 C 
ATOM     37  C   UNL     1       0.116  -5.671   4.990  1.00  0.00     0.029 A 
ATOM     38  N   UNL     1       1.203  -7.622   4.841  1.00  0.00    -0.354 N 
ATOM     39  C   UNL     1       1.975  -9.459   1.019  1.00  0.00     0.074 A 
ATOM     40  C   UNL     1       1.444  -8.658  -0.064  1.00  0.00     0.031 C 
ATOM     41  C   UNL     1       0.469  -6.033   6.234  1.00  0.00     0.029 A 
ATOM     42  C   UNL     1       1.161  -7.318   6.179  1.00  0.00     0.049 A 
ATOM     43  H   UNL     1       1.633  -8.433   4.485  1.00  0.00     0.167 HD
ATOM     44  C   UNL     1       2.657 -10.617   0.850  1.00  0.00     0.031 A 
ATOM     45  C   UNL     1       1.617  -8.005   7.243  1.00  0.00     0.031 A 
ATOM     46  C   UNL     1       3.179 -11.420   1.923  1.00  0.00     0.049 A 
ATOM     47  C   UNL     1       2.316  -9.318   7.028  1.00  0.00     0.074 A 
ATOM     48  C   UNL     1       3.868 -12.619   1.848  1.00  0.00     0.029 A 
ATOM     49  N   UNL     1       3.072 -11.104   3.268  1.00  0.00    -0.354 N 
ATOM     50  N   UNL     1       2.602  -9.928   5.904  1.00  0.00    -0.248 NA
ATOM     51  C   UNL     1       2.756 -10.035   8.233  1.00  0.00     0.031 C 
ATOM     52  C   UNL     1       4.146 -13.047   3.151  1.00  0.00     0.029 A 
ATOM     53  C   UNL     1       3.668 -12.092   4.034  1.00  0.00     0.049 A 
ATOM     54  H   UNL     1       2.637 -10.297   3.626  1.00  0.00     0.167 HD
ATOM     55  C   UNL     1       3.264 -11.093   6.264  1.00  0.00     0.074 A 
ATOM     56  C   UNL     1       3.361 -11.092   7.710  1.00  0.00     0.031 C 
ATOM     57  C   UNL     1       3.746 -12.080   5.470  1.00  0.00     0.031 A 
BRANCH  44  58
ATOM     58  C   UNL     1       2.853 -11.102  -0.557  1.00  0.00    -0.014 A 
ATOM     59  C   UNL     1       3.803 -10.508  -1.403  1.00  0.00     0.009 A 
ATOM     60  C   UNL     1       2.110 -12.195  -1.028  1.00  0.00     0.009 A 
ATOM     61  C   UNL     1       3.989 -10.986  -2.701  1.00  0.00     0.001 A 
ATOM     62  C   UNL     1       2.312 -12.684  -2.320  1.00  0.00     0.001 A 
ATOM     63  C   UNL     1       3.247 -12.076  -3.157  1.00  0.00     0.000 A 
ENDBRANCH  44  58
BRANCH  45  64
ATOM     64  C   UNL     1       1.399  -7.482   8.615  1.00  0.00    -0.014 A 
ATOM     65  C   UNL     1       2.473  -7.008   9.382  1.00  0.00     0.009 A 
ATOM     66  C   UNL     1       0.111  -7.480   9.173  1.00  0.00     0.009 A 
ATOM     67  C   UNL     1       2.264  -6.565  10.691  1.00  0.00     0.001 A 
ATOM     68  C   UNL     1      -0.099  -7.011  10.471  1.00  0.00     0.001 A 
ATOM     69  C   UNL     1       0.979  -6.564  11.232  1.00  0.00     0.000 A 
ENDBRANCH  45  64
BRANCH  57  70
ATOM     70  C   UNL     1       4.430 -13.228   6.154  1.00  0.00    -0.014 A 
ATOM     71  C   UNL     1       3.693 -14.198   6.851  1.00  0.00     0.009 A 
ATOM     72  C   UNL     1       5.827 -13.347   6.090  1.00  0.00     0.009 A 
ATOM     73  C   UNL     1       4.345 -15.246   7.502  1.00  0.00     0.001 A 
ATOM     74  C   UNL     1       6.474 -14.410   6.722  1.00  0.00     0.001 A 
ATOM     75  C   UNL     1       5.734 -15.352   7.435  1.00  0.00     0.000 A 
ENDBRANCH  57  70
ENDBRANCH  31  32
ENDBRANCH  24  26
ENDBRANCH  23  24
ENDBRANCH  22  23
ENDBRANCH   1  22
TORSDOF 14
