REMARK SMILES CSc1nc(O)nc(C)c1C(=O)N1C[C@@H](O)C[C@@H]1C(=O)OCCOC(=O)c1ccc(-c2c3nc(c(-c4ccccc4)c4ccc([nH]4)c(-c4ccccc4)c4nc(c(-c5ccccc5)c5ccc2[nH]5)C=C4)C=C3)cc1
REMARK SMILES IDX 22 1 21 2 19 3 20 4 18 5 13 6 14 7 15 8 17 9 11 10 12 11
REMARK SMILES IDX 10 12 3 13 4 14 5 15 8 16 7 17 9 18 2 19 1 20 6 21 16 23
REMARK SMILES IDX 23 25 24 26 25 27 26 28 27 29 28 30 74 31 29 32 73 33 30 34
REMARK SMILES IDX 31 35 32 36 67 37 33 38 72 39 66 40 68 41 34 42 71 43 65 44
REMARK SMILES IDX 64 45 35 47 57 48 42 49 56 50 43 51 46 52 55 53 69 54 44 55
REMARK SMILES IDX 45 56 54 58 70 59 47 60 36 61 37 62 41 63 38 64 40 65 39 66
REMARK SMILES IDX 58 67 59 68 63 69 60 70 62 71 61 72 48 73 49 74 53 75 50 76
REMARK SMILES IDX 52 77 51 78
REMARK H PARENT 6 22 16 24 68 46 46 57
REMARK Flexibility Score: inf
ROOT
ATOM      1  C   UNL     1      -0.323   1.280   2.694  1.00  0.00     0.274 C 
ENDROOT
BRANCH   1   2
ATOM      2  O   UNL     1       0.515   0.797   1.620  1.00  0.00    -0.461 OA
BRANCH   2   3
ATOM      3  C   UNL     1       1.829   0.609   1.907  1.00  0.00     0.329 C 
ATOM      4  O   UNL     1       2.322   0.798   3.013  1.00  0.00    -0.250 OA
BRANCH   3   5
ATOM      5  C   UNL     1       2.645   0.078   0.718  1.00  0.00     0.198 C 
ATOM      6  N   UNL     1       2.536   0.868  -0.503  1.00  0.00    -0.322 N 
ATOM      7  C   UNL     1       2.975   0.006  -1.587  1.00  0.00     0.152 C 
ATOM      8  C   UNL     1       2.353  -1.339  -1.260  1.00  0.00     0.136 C 
ATOM      9  C   UNL     1       2.271  -1.346   0.272  1.00  0.00     0.071 C 
BRANCH   6  10
ATOM     10  C   UNL     1       3.040   2.154  -0.495  1.00  0.00     0.259 C 
ATOM     11  O   UNL     1       4.241   2.364  -0.363  1.00  0.00    -0.269 OA
BRANCH  10  12
ATOM     12  C   UNL     1       2.058   3.268  -0.592  1.00  0.00     0.093 A 
ATOM     13  C   UNL     1       0.836   3.209  -1.276  1.00  0.00     0.116 A 
ATOM     14  N   UNL     1       0.016   4.278  -1.393  1.00  0.00    -0.188 NA
ATOM     15  C   UNL     1       0.452   5.413  -0.870  1.00  0.00     0.315 A 
ATOM     16  C   UNL     1       2.364   4.511  -0.021  1.00  0.00     0.058 A 
ATOM     17  N   UNL     1       1.572   5.601  -0.185  1.00  0.00    -0.200 NA
ATOM     18  C   UNL     1       3.606   4.802   0.777  1.00  0.00     0.068 C 
BRANCH  13  19
ATOM     19  S   UNL     1       0.232   1.865  -2.294  1.00  0.00    -0.109 SA
ATOM     20  C   UNL     1      -0.839   0.997  -1.122  1.00  0.00     0.092 C 
ENDBRANCH  13  19
BRANCH  15  21
ATOM     21  O   UNL     1      -0.254   6.542  -1.128  1.00  0.00    -0.479 OA
ATOM     22  H   UNL     1      -1.057   6.492  -1.608  1.00  0.00     0.297 HD
ENDBRANCH  15  21
ENDBRANCH  10  12
ENDBRANCH   6  10
BRANCH   8  23
ATOM     23  O   UNL     1       3.149  -2.409  -1.737  1.00  0.00    -0.391 OA
ATOM     24  H   UNL     1       4.037  -2.349  -1.351  1.00  0.00     0.211 HD
ENDBRANCH   8  23
ENDBRANCH   3   5
ENDBRANCH   2   3
ENDBRANCH   1   2
BRANCH   1  25
ATOM     25  C   UNL     1      -1.103   0.148   3.369  1.00  0.00     0.275 C 
BRANCH  25  26
ATOM     26  O   UNL     1      -0.235  -0.655   4.186  1.00  0.00    -0.458 OA
BRANCH  26  27
ATOM     27  C   UNL     1       0.265  -1.762   3.597  1.00  0.00     0.338 C 
ATOM     28  O   UNL     1      -0.009  -2.210   2.493  1.00  0.00    -0.246 OA
BRANCH  27  29
ATOM     29  C   UNL     1       1.354  -2.279   4.431  1.00  0.00     0.060 A 
ATOM     30  C   UNL     1       2.667  -2.113   3.982  1.00  0.00     0.016 A 
ATOM     31  C   UNL     1       1.086  -2.931   5.633  1.00  0.00     0.016 A 
ATOM     32  C   UNL     1       3.729  -2.566   4.747  1.00  0.00     0.010 A 
ATOM     33  C   UNL     1       2.153  -3.410   6.393  1.00  0.00     0.010 A 
ATOM     34  C   UNL     1       3.474  -3.226   5.951  1.00  0.00    -0.014 A 
BRANCH  34  35
ATOM     35  C   UNL     1       4.607  -3.794   6.698  1.00  0.00     0.031 A 
ATOM     36  C   UNL     1       4.968  -5.230   6.486  1.00  0.00     0.074 A 
ATOM     37  C   UNL     1       5.336  -3.003   7.504  1.00  0.00     0.049 A 
ATOM     38  N   UNL     1       5.913  -5.930   7.052  1.00  0.00    -0.248 NA
ATOM     39  C   UNL     1       4.169  -5.974   5.496  1.00  0.00     0.031 C 
ATOM     40  C   UNL     1       5.116  -1.570   7.703  1.00  0.00     0.029 A 
ATOM     41  N   UNL     1       6.417  -3.293   8.293  1.00  0.00    -0.354 N 
ATOM     42  C   UNL     1       5.824  -7.195   6.490  1.00  0.00     0.074 A 
ATOM     43  C   UNL     1       4.724  -7.176   5.552  1.00  0.00     0.031 C 
ATOM     44  C   UNL     1       6.038  -1.105   8.563  1.00  0.00     0.029 A 
ATOM     45  C   UNL     1       6.885  -2.213   8.998  1.00  0.00     0.049 A 
ATOM     46  H   UNL     1       6.819  -4.190   8.350  1.00  0.00     0.167 HD
ATOM     47  C   UNL     1       6.601  -8.272   6.738  1.00  0.00     0.031 A 
ATOM     48  C   UNL     1       7.875  -2.134   9.906  1.00  0.00     0.031 A 
ATOM     49  C   UNL     1       7.683  -8.279   7.681  1.00  0.00     0.049 A 
ATOM     50  C   UNL     1       8.655  -3.373  10.243  1.00  0.00     0.074 A 
ATOM     51  C   UNL     1       8.519  -9.327   8.018  1.00  0.00     0.029 A 
ATOM     52  N   UNL     1       8.076  -7.185   8.437  1.00  0.00    -0.354 N 
ATOM     53  N   UNL     1       8.547  -4.574   9.727  1.00  0.00    -0.248 NA
ATOM     54  C   UNL     1       9.685  -3.253  11.284  1.00  0.00     0.031 C 
ATOM     55  C   UNL     1       9.389  -8.881   9.015  1.00  0.00     0.029 A 
ATOM     56  C   UNL     1       9.128  -7.541   9.259  1.00  0.00     0.049 A 
ATOM     57  H   UNL     1       7.667  -6.291   8.395  1.00  0.00     0.167 HD
ATOM     58  C   UNL     1       9.505  -5.349  10.366  1.00  0.00     0.074 A 
ATOM     59  C   UNL     1      10.188  -4.482  11.305  1.00  0.00     0.031 C 
ATOM     60  C   UNL     1       9.792  -6.660  10.186  1.00  0.00     0.031 A 
BRANCH  47  61
ATOM     61  C   UNL     1       6.299  -9.539   5.998  1.00  0.00    -0.014 A 
ATOM     62  C   UNL     1       6.678  -9.699   4.657  1.00  0.00     0.009 A 
ATOM     63  C   UNL     1       5.705 -10.614   6.676  1.00  0.00     0.009 A 
ATOM     64  C   UNL     1       6.463 -10.916   4.007  1.00  0.00     0.001 A 
ATOM     65  C   UNL     1       5.510 -11.835   6.029  1.00  0.00     0.001 A 
ATOM     66  C   UNL     1       5.888 -11.984   4.695  1.00  0.00     0.000 A 
ENDBRANCH  47  61
BRANCH  48  67
ATOM     67  C   UNL     1       8.165  -0.831  10.555  1.00  0.00    -0.014 A 
ATOM     68  C   UNL     1       9.305  -0.096  10.201  1.00  0.00     0.009 A 
ATOM     69  C   UNL     1       7.266  -0.286  11.487  1.00  0.00     0.009 A 
ATOM     70  C   UNL     1       9.538   1.160  10.766  1.00  0.00     0.001 A 
ATOM     71  C   UNL     1       7.491   0.979  12.034  1.00  0.00     0.001 A 
ATOM     72  C   UNL     1       8.628   1.700  11.674  1.00  0.00     0.000 A 
ENDBRANCH  48  67
BRANCH  60  73
ATOM     73  C   UNL     1      10.899  -7.258  11.002  1.00  0.00    -0.014 A 
ATOM     74  C   UNL     1      10.683  -7.632  12.336  1.00  0.00     0.009 A 
ATOM     75  C   UNL     1      12.115  -7.589  10.384  1.00  0.00     0.009 A 
ATOM     76  C   UNL     1      11.667  -8.331  13.037  1.00  0.00     0.001 A 
ATOM     77  C   UNL     1      13.088  -8.306  11.081  1.00  0.00     0.001 A 
ATOM     78  C   UNL     1      12.863  -8.677  12.405  1.00  0.00     0.000 A 
ENDBRANCH  60  73
ENDBRANCH  34  35
ENDBRANCH  27  29
ENDBRANCH  26  27
ENDBRANCH  25  26
ENDBRANCH   1  25
TORSDOF 16
