REMARK SMILES COCc1cc(SCC(=O)OCCOC(=O)c2ccc(-c3c4nc(c(-c5ccccc5)c5ccc([nH]5)c(-c5ccccc5)c5nc(c(-c6ccccc6)c6ccc3[nH]6)C=C5)C=C4)cc2)nc(-c2cccnc2)n1
REMARK SMILES IDX 12 1 11 2 9 3 10 4 8 5 7 6 6 7 4 8 5 9 73 10 66 11 65 12
REMARK SMILES IDX 3 13 2 14 1 15 67 16 68 17 72 18 69 19 71 20 70 21 13 22
REMARK SMILES IDX 14 23 15 24 16 25 17 26 18 27 64 28 19 29 63 30 20 31 21 32
REMARK SMILES IDX 22 33 57 34 23 35 62 36 56 37 58 38 24 39 61 40 55 41 54 42
REMARK SMILES IDX 25 44 47 45 32 46 46 47 33 48 36 49 45 50 59 51 34 52 35 53
REMARK SMILES IDX 44 55 60 56 37 57 26 58 27 59 31 60 28 61 30 62 29 63 48 64
REMARK SMILES IDX 49 65 53 66 50 67 52 68 51 69 38 70 39 71 43 72 40 73 42 74
REMARK SMILES IDX 41 75
REMARK H PARENT 58 43 36 54
REMARK Flexibility Score: inf
ROOT
ATOM      1  C   UNL     1       5.081  -5.609   0.980  1.00  0.00     0.274 C 
ENDROOT
BRANCH   1   2
ATOM      2  O   UNL     1       3.741  -5.845   0.501  1.00  0.00    -0.461 OA
BRANCH   2   3
ATOM      3  C   UNL     1       2.930  -6.557   1.325  1.00  0.00     0.316 C 
ATOM      4  O   UNL     1       3.238  -6.901   2.464  1.00  0.00    -0.251 OA
BRANCH   3   5
ATOM      5  C   UNL     1       1.563  -6.879   0.759  1.00  0.00     0.199 C 
BRANCH   5   6
ATOM      6  S   UNL     1       1.326  -6.485  -0.999  1.00  0.00    -0.094 SA
BRANCH   6   7
ATOM      7  C   UNL     1       0.516  -4.897  -0.990  1.00  0.00     0.101 A 
ATOM      8  C   UNL     1      -0.039  -2.769  -0.136  1.00  0.00     0.071 A 
ATOM      9  C   UNL     1       0.606  -3.981   0.038  1.00  0.00     0.062 A 
ATOM     10  N   UNL     1      -0.712  -2.484  -1.262  1.00  0.00    -0.230 NA
ATOM     11  C   UNL     1      -0.746  -3.428  -2.210  1.00  0.00     0.162 A 
ATOM     12  N   UNL     1      -0.175  -4.637  -2.115  1.00  0.00    -0.222 NA
BRANCH   8  13
ATOM     13  C   UNL     1      -0.030  -1.738   0.972  1.00  0.00     0.215 C 
BRANCH  13  14
ATOM     14  O   UNL     1      -0.539  -0.449   0.621  1.00  0.00    -0.378 OA
ATOM     15  C   UNL     1       0.404   0.315  -0.123  1.00  0.00     0.195 C 
ENDBRANCH  13  14
ENDBRANCH   8  13
BRANCH  11  16
ATOM     16  C   UNL     1      -1.425  -3.072  -3.442  1.00  0.00     0.038 A 
ATOM     17  C   UNL     1      -2.588  -3.716  -3.873  1.00  0.00     0.015 A 
ATOM     18  C   UNL     1      -0.963  -2.015  -4.224  1.00  0.00     0.123 A 
ATOM     19  C   UNL     1      -3.234  -3.281  -5.029  1.00  0.00     0.021 A 
ATOM     20  N   UNL     1      -1.556  -1.580  -5.363  1.00  0.00    -0.264 NA
ATOM     21  C   UNL     1      -2.684  -2.221  -5.732  1.00  0.00     0.111 A 
ENDBRANCH  11  16
ENDBRANCH   6   7
ENDBRANCH   5   6
ENDBRANCH   3   5
ENDBRANCH   2   3
ENDBRANCH   1   2
BRANCH   1  22
ATOM     22  C   UNL     1       5.226  -4.202   1.550  1.00  0.00     0.275 C 
BRANCH  22  23
ATOM     23  O   UNL     1       4.259  -3.984   2.595  1.00  0.00    -0.458 OA
BRANCH  23  24
ATOM     24  C   UNL     1       3.423  -2.948   2.393  1.00  0.00     0.338 C 
ATOM     25  O   UNL     1       3.418  -2.175   1.440  1.00  0.00    -0.246 OA
BRANCH  24  26
ATOM     26  C   UNL     1       2.417  -2.843   3.464  1.00  0.00     0.060 A 
ATOM     27  C   UNL     1       1.626  -3.939   3.822  1.00  0.00     0.016 A 
ATOM     28  C   UNL     1       2.134  -1.574   3.980  1.00  0.00     0.016 A 
ATOM     29  C   UNL     1       0.524  -3.752   4.662  1.00  0.00     0.010 A 
ATOM     30  C   UNL     1       1.064  -1.400   4.859  1.00  0.00     0.010 A 
ATOM     31  C   UNL     1       0.239  -2.483   5.194  1.00  0.00    -0.014 A 
BRANCH  31  32
ATOM     32  C   UNL     1      -0.868  -2.293   6.163  1.00  0.00     0.031 A 
ATOM     33  C   UNL     1      -2.111  -1.526   5.804  1.00  0.00     0.074 A 
ATOM     34  C   UNL     1      -0.728  -2.793   7.406  1.00  0.00     0.049 A 
ATOM     35  N   UNL     1      -3.136  -1.221   6.560  1.00  0.00    -0.248 NA
ATOM     36  C   UNL     1      -2.225  -1.051   4.418  1.00  0.00     0.031 C 
ATOM     37  C   UNL     1       0.421  -3.566   7.882  1.00  0.00     0.029 A 
ATOM     38  N   UNL     1      -1.554  -2.711   8.497  1.00  0.00    -0.354 N 
ATOM     39  C   UNL     1      -4.022  -0.532   5.741  1.00  0.00     0.074 A 
ATOM     40  C   UNL     1      -3.408  -0.448   4.433  1.00  0.00     0.031 C 
ATOM     41  C   UNL     1       0.226  -3.890   9.169  1.00  0.00     0.029 A 
ATOM     42  C   UNL     1      -1.034  -3.307   9.618  1.00  0.00     0.049 A 
ATOM     43  H   UNL     1      -2.433  -2.269   8.478  1.00  0.00     0.167 HD
ATOM     44  C   UNL     1      -5.235  -0.014   6.049  1.00  0.00     0.031 A 
ATOM     45  C   UNL     1      -1.498  -3.353  10.880  1.00  0.00     0.031 A 
ATOM     46  C   UNL     1      -5.834  -0.051   7.357  1.00  0.00     0.049 A 
ATOM     47  C   UNL     1      -2.791  -2.676  11.220  1.00  0.00     0.074 A 
ATOM     48  C   UNL     1      -7.058   0.457   7.761  1.00  0.00     0.029 A 
ATOM     49  N   UNL     1      -5.246  -0.613   8.477  1.00  0.00    -0.354 N 
ATOM     50  N   UNL     1      -3.615  -2.034  10.431  1.00  0.00    -0.248 NA
ATOM     51  C   UNL     1      -3.209  -2.724  12.628  1.00  0.00     0.031 C 
ATOM     52  C   UNL     1      -7.192   0.235   9.137  1.00  0.00     0.029 A 
ATOM     53  C   UNL     1      -6.068  -0.442   9.578  1.00  0.00     0.049 A 
ATOM     54  H   UNL     1      -4.372  -1.067   8.489  1.00  0.00     0.167 HD
ATOM     55  C   UNL     1      -4.656  -1.608  11.243  1.00  0.00     0.074 A 
ATOM     56  C   UNL     1      -4.365  -2.075  12.584  1.00  0.00     0.031 C 
ATOM     57  C   UNL     1      -5.757  -0.895  10.907  1.00  0.00     0.031 A 
BRANCH  44  58
ATOM     58  C   UNL     1      -6.000   0.663   4.950  1.00  0.00    -0.014 A 
ATOM     59  C   UNL     1      -6.723  -0.090   4.012  1.00  0.00     0.009 A 
ATOM     60  C   UNL     1      -6.057   2.063   4.893  1.00  0.00     0.009 A 
ATOM     61  C   UNL     1      -7.480   0.550   3.028  1.00  0.00     0.001 A 
ATOM     62  C   UNL     1      -6.824   2.700   3.915  1.00  0.00     0.001 A 
ATOM     63  C   UNL     1      -7.533   1.943   2.983  1.00  0.00     0.000 A 
ENDBRANCH  44  58
BRANCH  45  64
ATOM     64  C   UNL     1      -0.702  -4.040  11.924  1.00  0.00    -0.014 A 
ATOM     65  C   UNL     1      -1.092  -5.299  12.402  1.00  0.00     0.009 A 
ATOM     66  C   UNL     1       0.467  -3.447  12.426  1.00  0.00     0.009 A 
ATOM     67  C   UNL     1      -0.328  -5.948  13.373  1.00  0.00     0.001 A 
ATOM     68  C   UNL     1       1.238  -4.108  13.382  1.00  0.00     0.001 A 
ATOM     69  C   UNL     1       0.838  -5.356  13.858  1.00  0.00     0.000 A 
ENDBRANCH  45  64
BRANCH  57  70
ATOM     70  C   UNL     1      -6.728  -0.592  12.008  1.00  0.00    -0.014 A 
ATOM     71  C   UNL     1      -6.473   0.436  12.927  1.00  0.00     0.009 A 
ATOM     72  C   UNL     1      -7.911  -1.336  12.120  1.00  0.00     0.009 A 
ATOM     73  C   UNL     1      -7.376   0.695  13.960  1.00  0.00     0.001 A 
ATOM     74  C   UNL     1      -8.819  -1.064  13.144  1.00  0.00     0.001 A 
ATOM     75  C   UNL     1      -8.547  -0.055  14.067  1.00  0.00     0.000 A 
ENDBRANCH  57  70
ENDBRANCH  31  32
ENDBRANCH  24  26
ENDBRANCH  23  24
ENDBRANCH  22  23
ENDBRANCH   1  22
TORSDOF 16
