REMARK SMILES O=C(C[N@H+]1CCCC[C@H]1C(=O)OCCOC(=O)c1ccc(-c2c3nc(c(-c4ccccc4)c4ccc([nH]4)c(-c4ccccc4)c4nc(c(-c5ccccc5)c5ccc2[nH]5)C=C4)C=C3)cc1)NC1CCCCC1
REMARK SMILES IDX 13 1 12 2 10 3 11 4 9 5 4 6 5 7 6 9 8 10 7 11 3 12 2 13 1 14
REMARK SMILES IDX 66 15 67 17 68 18 72 19 69 20 71 21 70 22 14 23 15 24 16 25
REMARK SMILES IDX 17 26 18 27 19 28 65 29 20 30 64 31 21 32 22 33 23 34 58 35
REMARK SMILES IDX 24 36 63 37 57 38 59 39 25 40 62 41 56 42 55 43 26 45 48 46
REMARK SMILES IDX 33 47 47 48 34 49 37 50 46 51 60 52 35 53 36 54 45 56 61 57
REMARK SMILES IDX 38 58 27 59 28 60 32 61 29 62 31 63 30 64 49 65 50 66 54 67
REMARK SMILES IDX 51 68 53 69 52 70 39 71 40 72 44 73 41 74 43 75 42 76
REMARK H PARENT 4 8 66 16 59 44 37 55
REMARK Flexibility Score: inf
ROOT
ATOM      1  C   UNL     1       6.304   4.082  -2.462  1.00  0.00     0.274 C 
ENDROOT
BRANCH   1   2
ATOM      2  O   UNL     1       5.863   3.542  -1.198  1.00  0.00    -0.458 OA
BRANCH   2   3
ATOM      3  C   UNL     1       4.589   3.833  -0.819  1.00  0.00     0.365 C 
ATOM      4  O   UNL     1       3.778   4.424  -1.525  1.00  0.00    -0.245 OA
BRANCH   3   5
ATOM      5  C   UNL     1       4.265   3.389   0.620  1.00  0.00     0.295 C 
ATOM      6  N   UNL     1       4.251   1.925   0.862  1.00  0.00    -0.315 N 
ATOM      7  C   UNL     1       5.576   1.318   0.940  1.00  0.00     0.263 C 
ATOM      8  H   UNL     1       3.873   1.821   1.804  1.00  0.00     0.349 HD
ATOM      9  C   UNL     1       6.427   1.999   2.011  1.00  0.00     0.062 C 
ATOM     10  C   UNL     1       5.143   4.128   1.637  1.00  0.00     0.078 C 
ATOM     11  C   UNL     1       6.526   3.504   1.802  1.00  0.00     0.013 C 
BRANCH   6  12
ATOM     12  C   UNL     1       3.323   1.203  -0.018  1.00  0.00     0.364 C 
BRANCH  12  13
ATOM     13  C   UNL     1       2.519   0.150   0.753  1.00  0.00     0.275 C 
ATOM     14  O   UNL     1       1.446   0.414   1.292  1.00  0.00    -0.268 OA
ATOM     15  N   UNL     1       3.069  -1.117   0.757  1.00  0.00    -0.348 N 
ATOM     16  H   UNL     1       3.931  -1.267   0.304  1.00  0.00     0.163 HD
BRANCH  15  17
ATOM     17  C   UNL     1       2.408  -2.236   1.414  1.00  0.00     0.082 C 
ATOM     18  C   UNL     1       2.937  -3.567   0.865  1.00  0.00     0.025 C 
ATOM     19  C   UNL     1       2.581  -2.166   2.937  1.00  0.00     0.025 C 
ATOM     20  C   UNL     1       2.299  -4.765   1.566  1.00  0.00     0.002 C 
ATOM     21  C   UNL     1       1.935  -3.363   3.632  1.00  0.00     0.002 C 
ATOM     22  C   UNL     1       2.462  -4.684   3.081  1.00  0.00     0.000 C 
ENDBRANCH  15  17
ENDBRANCH  12  13
ENDBRANCH   6  12
ENDBRANCH   3   5
ENDBRANCH   2   3
ENDBRANCH   1   2
BRANCH   1  23
ATOM     23  C   UNL     1       6.359   2.990  -3.525  1.00  0.00     0.275 C 
BRANCH  23  24
ATOM     24  O   UNL     1       5.025   2.520  -3.770  1.00  0.00    -0.458 OA
BRANCH  24  25
ATOM     25  C   UNL     1       4.869   1.181  -3.842  1.00  0.00     0.338 C 
ATOM     26  O   UNL     1       5.745   0.334  -3.823  1.00  0.00    -0.246 OA
BRANCH  25  27
ATOM     27  C   UNL     1       3.428   0.851  -3.901  1.00  0.00     0.060 A 
ATOM     28  C   UNL     1       2.492   1.610  -3.196  1.00  0.00     0.016 A 
ATOM     29  C   UNL     1       3.021  -0.303  -4.570  1.00  0.00     0.016 A 
ATOM     30  C   UNL     1       1.178   1.163  -3.069  1.00  0.00     0.010 A 
ATOM     31  C   UNL     1       1.677  -0.686  -4.536  1.00  0.00     0.010 A 
ATOM     32  C   UNL     1       0.745   0.025  -3.760  1.00  0.00    -0.014 A 
BRANCH  32  33
ATOM     33  C   UNL     1      -0.669  -0.434  -3.680  1.00  0.00     0.031 A 
ATOM     34  C   UNL     1      -0.985  -1.840  -3.247  1.00  0.00     0.074 A 
ATOM     35  C   UNL     1      -1.676   0.387  -4.036  1.00  0.00     0.049 A 
ATOM     36  N   UNL     1      -2.096  -2.519  -3.390  1.00  0.00    -0.248 NA
ATOM     37  C   UNL     1       0.098  -2.591  -2.592  1.00  0.00     0.031 C 
ATOM     38  C   UNL     1      -1.537   1.789  -4.434  1.00  0.00     0.029 A 
ATOM     39  N   UNL     1      -3.026   0.151  -4.128  1.00  0.00    -0.354 N 
ATOM     40  C   UNL     1      -1.821  -3.797  -2.920  1.00  0.00     0.074 A 
ATOM     41  C   UNL     1      -0.444  -3.795  -2.471  1.00  0.00     0.031 C 
ATOM     42  C   UNL     1      -2.750   2.296  -4.697  1.00  0.00     0.029 A 
ATOM     43  C   UNL     1      -3.740   1.232  -4.582  1.00  0.00     0.049 A 
ATOM     44  H   UNL     1      -3.441  -0.710  -3.892  1.00  0.00     0.167 HD
ATOM     45  C   UNL     1      -2.639  -4.875  -2.884  1.00  0.00     0.031 A 
ATOM     46  C   UNL     1      -5.035   1.351  -4.927  1.00  0.00     0.031 A 
ATOM     47  C   UNL     1      -4.027  -4.856  -3.266  1.00  0.00     0.049 A 
ATOM     48  C   UNL     1      -5.926   0.148  -4.872  1.00  0.00     0.074 A 
ATOM     49  C   UNL     1      -4.945  -5.892  -3.237  1.00  0.00     0.029 A 
ATOM     50  N   UNL     1      -4.704  -3.735  -3.720  1.00  0.00    -0.354 N 
ATOM     51  N   UNL     1      -5.633  -1.077  -4.511  1.00  0.00    -0.248 NA
ATOM     52  C   UNL     1      -7.320   0.339  -5.296  1.00  0.00     0.031 C 
ATOM     53  C   UNL     1      -6.173  -5.403  -3.700  1.00  0.00     0.029 A 
ATOM     54  C   UNL     1      -6.025  -4.055  -3.983  1.00  0.00     0.049 A 
ATOM     55  H   UNL     1      -4.304  -2.843  -3.838  1.00  0.00     0.167 HD
ATOM     56  C   UNL     1      -6.803  -1.805  -4.670  1.00  0.00     0.074 A 
ATOM     57  C   UNL     1      -7.816  -0.880  -5.136  1.00  0.00     0.031 C 
ATOM     58  C   UNL     1      -7.015  -3.126  -4.458  1.00  0.00     0.031 A 
BRANCH  45  59
ATOM     59  C   UNL     1      -2.041  -6.187  -2.463  1.00  0.00    -0.014 A 
ATOM     60  C   UNL     1      -1.750  -6.471  -1.121  1.00  0.00     0.009 A 
ATOM     61  C   UNL     1      -1.803  -7.173  -3.435  1.00  0.00     0.009 A 
ATOM     62  C   UNL     1      -1.208  -7.708  -0.765  1.00  0.00     0.001 A 
ATOM     63  C   UNL     1      -1.283  -8.416  -3.073  1.00  0.00     0.001 A 
ATOM     64  C   UNL     1      -0.979  -8.680  -1.739  1.00  0.00     0.000 A 
ENDBRANCH  45  59
BRANCH  46  65
ATOM     65  C   UNL     1      -5.538   2.655  -5.426  1.00  0.00    -0.014 A 
ATOM     66  C   UNL     1      -6.349   3.462  -4.616  1.00  0.00     0.009 A 
ATOM     67  C   UNL     1      -5.168   3.117  -6.699  1.00  0.00     0.009 A 
ATOM     68  C   UNL     1      -6.783   4.708  -5.075  1.00  0.00     0.001 A 
ATOM     69  C   UNL     1      -5.582   4.373  -7.144  1.00  0.00     0.001 A 
ATOM     70  C   UNL     1      -6.392   5.166  -6.333  1.00  0.00     0.000 A 
ENDBRANCH  46  65
BRANCH  58  71
ATOM     71  C   UNL     1      -8.399  -3.639  -4.720  1.00  0.00    -0.014 A 
ATOM     72  C   UNL     1      -8.840  -3.879  -6.030  1.00  0.00     0.009 A 
ATOM     73  C   UNL     1      -9.261  -3.904  -3.646  1.00  0.00     0.009 A 
ATOM     74  C   UNL     1     -10.134  -4.351  -6.261  1.00  0.00     0.001 A 
ATOM     75  C   UNL     1     -10.547  -4.392  -3.880  1.00  0.00     0.001 A 
ATOM     76  C   UNL     1     -10.985  -4.608  -5.186  1.00  0.00     0.000 A 
ENDBRANCH  58  71
ENDBRANCH  32  33
ENDBRANCH  25  27
ENDBRANCH  24  25
ENDBRANCH  23  24
ENDBRANCH   1  23
TORSDOF 14
