REMARK SMILES O=C(OCCOC(=O)c1ccc(-c2c3nc(c(-c4ccccc4)c4ccc([nH]4)c(-c4ccccc4)c4nc(c(-c5ccccc5)c5ccc2[nH]5)C=C4)C=C3)cc1)C1=Cc2cc(OC(F)(F)F)ccc2O[C@@H]1C(F)(F)F
REMARK SMILES IDX 4 1 3 2 2 3 1 4 57 5 58 6 71 7 59 8 70 9 60 10 69 11 61 12
REMARK SMILES IDX 68 13 67 14 72 15 73 16 74 17 75 18 62 19 63 20 64 21 65 22
REMARK SMILES IDX 66 23 5 24 6 25 7 26 8 27 9 28 10 29 56 30 11 31 55 32 12 33
REMARK SMILES IDX 13 34 14 35 49 36 15 37 54 38 48 39 50 40 16 41 53 42 47 43
REMARK SMILES IDX 46 44 17 46 39 47 24 48 38 49 25 50 28 51 37 52 51 53 26 54
REMARK SMILES IDX 27 55 36 57 52 58 29 59 18 60 19 61 23 62 20 63 22 64 21 65
REMARK SMILES IDX 40 66 41 67 45 68 42 69 44 70 43 71 30 72 31 73 35 74 32 75
REMARK SMILES IDX 34 76 33 77
REMARK H PARENT 50 45 28 56
REMARK Flexibility Score: inf
ROOT
ATOM      1  C   UNL     1       3.788  -0.861  -1.017  1.00  0.00     0.275 C 
ENDROOT
BRANCH   1   2
ATOM      2  O   UNL     1       2.946  -2.160  -1.281  1.00  0.00    -0.459 OA
BRANCH   2   3
ATOM      3  C   UNL     1       3.089  -3.086  -0.328  1.00  0.00     0.338 C 
ATOM      4  O   UNL     1       2.546  -4.148  -0.165  1.00  0.00    -0.246 OA
BRANCH   3   5
ATOM      5  C   UNL     1       3.860  -2.246   0.545  1.00  0.00     0.087 C 
ATOM      6  C   UNL     1       5.256  -2.169   0.070  1.00  0.00     0.027 C 
ATOM      7  C   UNL     1       2.626  -0.758   0.616  1.00  0.00     0.316 C 
ATOM      8  C   UNL     1       5.963  -0.679  -0.660  1.00  0.00     0.021 A 
ATOM      9  O   UNL     1       3.367   0.830  -0.186  1.00  0.00    -0.475 OA
ATOM     10  C   UNL     1       7.175  -0.796  -1.272  1.00  0.00     0.058 A 
ATOM     11  C   UNL     1       5.051   0.775  -0.881  1.00  0.00     0.128 A 
ATOM     12  C   UNL     1       7.574   0.292  -2.068  1.00  0.00     0.130 A 
ATOM     13  C   UNL     1       5.511   1.805  -1.656  1.00  0.00     0.051 A 
ATOM     14  C   UNL     1       6.790   1.517  -2.248  1.00  0.00     0.050 A 
BRANCH   7  15
ATOM     15  C   UNL     1       1.969  -1.046   2.007  1.00  0.00     0.430 C 
ATOM     16  F   UNL     1       0.768  -0.463   2.128  1.00  0.00    -0.167 F 
ATOM     17  F   UNL     1       1.703  -2.386   2.078  1.00  0.00    -0.167 F 
ATOM     18  F   UNL     1       2.727  -0.836   3.096  1.00  0.00    -0.167 F 
ENDBRANCH   7  15
BRANCH  12  19
ATOM     19  O   UNL     1       8.790  -0.004  -2.635  1.00  0.00    -0.406 OA
BRANCH  19  20
ATOM     20  C   UNL     1       9.348   0.809  -3.640  1.00  0.00     0.573 C 
ATOM     21  F   UNL     1       8.525   0.899  -4.702  1.00  0.00    -0.132 F 
ATOM     22  F   UNL     1       9.626   2.037  -3.163  1.00  0.00    -0.132 F 
ATOM     23  F   UNL     1      10.504   0.236  -4.045  1.00  0.00    -0.132 F 
ENDBRANCH  19  20
ENDBRANCH  12  19
ENDBRANCH   3   5
ENDBRANCH   2   3
ENDBRANCH   1   2
BRANCH   1  24
ATOM     24  C   UNL     1       4.527  -0.191   0.895  1.00  0.00     0.275 C 
BRANCH  24  25
ATOM     25  O   UNL     1       3.732   0.847   1.982  1.00  0.00    -0.458 OA
BRANCH  25  26
ATOM     26  C   UNL     1       3.006   2.001   2.080  1.00  0.00     0.338 C 
ATOM     27  O   UNL     1       2.712   2.820   1.233  1.00  0.00    -0.246 OA
BRANCH  26  28
ATOM     28  C   UNL     1       2.319   1.885   3.404  1.00  0.00     0.060 A 
ATOM     29  C   UNL     1       0.931   1.669   3.421  1.00  0.00     0.016 A 
ATOM     30  C   UNL     1       3.084   1.586   4.533  1.00  0.00     0.016 A 
ATOM     31  C   UNL     1       0.357   0.935   4.473  1.00  0.00     0.010 A 
ATOM     32  C   UNL     1       2.505   0.879   5.589  1.00  0.00     0.010 A 
ATOM     33  C   UNL     1       1.155   0.488   5.537  1.00  0.00    -0.014 A 
BRANCH  33  34
ATOM     34  C   UNL     1       0.545  -0.146   6.734  1.00  0.00     0.031 A 
ATOM     35  C   UNL     1       0.078   0.803   7.796  1.00  0.00     0.074 A 
ATOM     36  C   UNL     1       0.463  -1.479   6.928  1.00  0.00     0.049 A 
ATOM     37  N   UNL     1      -0.456   0.561   8.962  1.00  0.00    -0.248 NA
ATOM     38  C   UNL     1       0.270   2.234   7.496  1.00  0.00     0.031 C 
ATOM     39  C   UNL     1       0.884  -2.520   5.990  1.00  0.00     0.029 A 
ATOM     40  N   UNL     1      -0.004  -2.188   8.014  1.00  0.00    -0.354 N 
ATOM     41  C   UNL     1      -0.667   1.810   9.527  1.00  0.00     0.074 A 
ATOM     42  C   UNL     1      -0.145   2.798   8.614  1.00  0.00     0.031 C 
ATOM     43  C   UNL     1       0.656  -3.730   6.541  1.00  0.00     0.029 A 
ATOM     44  C   UNL     1       0.086  -3.555   7.876  1.00  0.00     0.049 A 
ATOM     45  H   UNL     1      -0.369  -1.754   8.819  1.00  0.00     0.167 HD
ATOM     46  C   UNL     1      -1.266   2.122  10.697  1.00  0.00     0.031 A 
ATOM     47  C   UNL     1      -0.261  -4.540   8.735  1.00  0.00     0.031 A 
ATOM     48  C   UNL     1      -1.736   1.151  11.636  1.00  0.00     0.049 A 
ATOM     49  C   UNL     1      -0.855  -4.169  10.077  1.00  0.00     0.074 A 
ATOM     50  C   UNL     1      -2.348   1.354  12.857  1.00  0.00     0.029 A 
ATOM     51  N   UNL     1      -1.624  -0.219  11.457  1.00  0.00    -0.354 N 
ATOM     52  N   UNL     1      -1.132  -2.983  10.566  1.00  0.00    -0.248 NA
ATOM     53  C   UNL     1      -1.202  -5.280  10.981  1.00  0.00     0.031 C 
ATOM     54  C   UNL     1      -2.567   0.102  13.441  1.00  0.00     0.029 A 
ATOM     55  C   UNL     1      -2.141  -0.878  12.556  1.00  0.00     0.049 A 
ATOM     56  H   UNL     1      -1.234  -0.657  10.666  1.00  0.00     0.167 HD
ATOM     57  C   UNL     1      -1.727  -3.207  11.804  1.00  0.00     0.074 A 
ATOM     58  C   UNL     1      -1.776  -4.642  11.991  1.00  0.00     0.031 C 
ATOM     59  C   UNL     1      -2.199  -2.309  12.704  1.00  0.00     0.031 A 
BRANCH  46  60
ATOM     60  C   UNL     1      -1.388   3.587  10.996  1.00  0.00    -0.014 A 
ATOM     61  C   UNL     1      -2.243   4.404  10.235  1.00  0.00     0.009 A 
ATOM     62  C   UNL     1      -0.561   4.174  11.962  1.00  0.00     0.009 A 
ATOM     63  C   UNL     1      -2.216   5.790  10.391  1.00  0.00     0.001 A 
ATOM     64  C   UNL     1      -0.562   5.558  12.139  1.00  0.00     0.001 A 
ATOM     65  C   UNL     1      -1.374   6.365  11.341  1.00  0.00     0.000 A 
ENDBRANCH  46  60
BRANCH  47  66
ATOM     66  C   UNL     1      -0.098  -5.982   8.382  1.00  0.00    -0.014 A 
ATOM     67  C   UNL     1      -1.228  -6.797   8.188  1.00  0.00     0.009 A 
ATOM     68  C   UNL     1       1.171  -6.579   8.332  1.00  0.00     0.009 A 
ATOM     69  C   UNL     1      -1.094  -8.176   7.993  1.00  0.00     0.001 A 
ATOM     70  C   UNL     1       1.304  -7.956   8.110  1.00  0.00     0.001 A 
ATOM     71  C   UNL     1       0.172  -8.755   7.954  1.00  0.00     0.000 A 
ENDBRANCH  47  66
BRANCH  59  72
ATOM     72  C   UNL     1      -2.869  -2.842  13.940  1.00  0.00    -0.014 A 
ATOM     73  C   UNL     1      -2.134  -3.434  14.977  1.00  0.00     0.009 A 
ATOM     74  C   UNL     1      -4.253  -2.667  14.099  1.00  0.00     0.009 A 
ATOM     75  C   UNL     1      -2.778  -3.863  16.140  1.00  0.00     0.001 A 
ATOM     76  C   UNL     1      -4.889  -3.067  15.274  1.00  0.00     0.001 A 
ATOM     77  C   UNL     1      -4.152  -3.671  16.291  1.00  0.00     0.000 A 
ENDBRANCH  59  72
ENDBRANCH  33  34
ENDBRANCH  26  28
ENDBRANCH  25  26
ENDBRANCH  24  25
ENDBRANCH   1  24
TORSDOF 14
