REMARK SMILES CCc1cc(/C=C/C(=O)OCCOC(=O)c2ccc(-c3c4nc(c(-c5ccccc5)c5ccc([nH]5)c(-c5ccccc5)c5nc(c(-c6ccccc6)c6ccc3[nH]6)C=C5)C=C4)cc2)cc(C(=O)c2ccccc2)c1
REMARK SMILES IDX 11 1 10 2 8 3 9 4 7 5 6 6 5 7 3 8 4 9 74 10 65 11 64 12 2 13
REMARK SMILES IDX 1 14 66 15 67 16 68 17 69 18 73 19 70 20 72 21 71 22 12 23
REMARK SMILES IDX 13 24 14 25 15 26 16 27 17 28 63 29 18 30 62 31 19 32 20 33
REMARK SMILES IDX 21 34 56 35 22 36 61 37 55 38 57 39 23 40 60 41 54 42 53 43
REMARK SMILES IDX 24 45 46 46 31 47 45 48 32 49 35 50 44 51 58 52 33 53 34 54
REMARK SMILES IDX 43 56 59 57 36 58 25 59 26 60 30 61 27 62 29 63 28 64 47 65
REMARK SMILES IDX 48 66 52 67 49 68 51 69 50 70 37 71 38 72 42 73 39 74 41 75
REMARK SMILES IDX 40 76
REMARK H PARENT 57 44 35 55
REMARK Flexibility Score: inf
ROOT
ATOM      1  C   UNL     1       5.260  -2.872  -6.685  1.00  0.00     0.275 C 
ENDROOT
BRANCH   1   2
ATOM      2  O   UNL     1       4.388  -1.844  -6.180  1.00  0.00    -0.459 OA
BRANCH   2   3
ATOM      3  C   UNL     1       3.201  -2.266  -5.685  1.00  0.00     0.330 C 
ATOM      4  O   UNL     1       2.772  -3.411  -5.710  1.00  0.00    -0.247 OA
BRANCH   3   5
ATOM      5  C   UNL     1       2.458  -1.192  -4.994  1.00  0.00     0.094 C 
ATOM      6  C   UNL     1       2.886   0.070  -4.826  1.00  0.00     0.015 C 
BRANCH   6   7
ATOM      7  C   UNL     1       2.161   1.051  -4.003  1.00  0.00    -0.024 A 
ATOM      8  C   UNL     1       0.968   1.629  -1.942  1.00  0.00    -0.047 A 
ATOM      9  C   UNL     1       1.619   0.694  -2.757  1.00  0.00     0.011 A 
ATOM     10  C   UNL     1       0.844   2.947  -2.409  1.00  0.00     0.016 A 
ATOM     11  C   UNL     1       1.415   3.338  -3.628  1.00  0.00     0.023 A 
ATOM     12  C   UNL     1       2.070   2.383  -4.420  1.00  0.00     0.020 A 
BRANCH   8  13
ATOM     13  C   UNL     1       0.364   1.276  -0.599  1.00  0.00     0.032 C 
ATOM     14  C   UNL     1       0.834  -0.027   0.037  1.00  0.00     0.009 C 
ENDBRANCH   8  13
BRANCH  11  15
ATOM     15  C   UNL     1       1.305   4.731  -4.149  1.00  0.00     0.193 C 
ATOM     16  O   UNL     1       1.474   4.943  -5.348  1.00  0.00    -0.289 OA
BRANCH  15  17
ATOM     17  C   UNL     1       0.966   5.883  -3.276  1.00  0.00     0.022 A 
ATOM     18  C   UNL     1       0.051   6.828  -3.757  1.00  0.00     0.012 A 
ATOM     19  C   UNL     1       1.562   6.066  -2.023  1.00  0.00     0.012 A 
ATOM     20  C   UNL     1      -0.300   7.926  -2.971  1.00  0.00     0.001 A 
ATOM     21  C   UNL     1       1.204   7.165  -1.238  1.00  0.00     0.001 A 
ATOM     22  C   UNL     1       0.271   8.089  -1.709  1.00  0.00     0.000 A 
ENDBRANCH  15  17
ENDBRANCH  11  15
ENDBRANCH   6   7
ENDBRANCH   3   5
ENDBRANCH   2   3
ENDBRANCH   1   2
BRANCH   1  23
ATOM     23  C   UNL     1       6.369  -3.201  -5.679  1.00  0.00     0.275 C 
BRANCH  23  24
ATOM     24  O   UNL     1       5.848  -3.816  -4.485  1.00  0.00    -0.458 OA
BRANCH  24  25
ATOM     25  C   UNL     1       5.537  -2.952  -3.490  1.00  0.00     0.338 C 
ATOM     26  O   UNL     1       5.681  -1.740  -3.497  1.00  0.00    -0.246 OA
BRANCH  25  27
ATOM     27  C   UNL     1       4.879  -3.658  -2.374  1.00  0.00     0.060 A 
ATOM     28  C   UNL     1       3.731  -3.075  -1.829  1.00  0.00     0.016 A 
ATOM     29  C   UNL     1       5.421  -4.814  -1.804  1.00  0.00     0.016 A 
ATOM     30  C   UNL     1       3.135  -3.627  -0.697  1.00  0.00     0.010 A 
ATOM     31  C   UNL     1       4.823  -5.367  -0.665  1.00  0.00     0.010 A 
ATOM     32  C   UNL     1       3.691  -4.762  -0.091  1.00  0.00    -0.014 A 
BRANCH  32  33
ATOM     33  C   UNL     1       3.117  -5.252   1.186  1.00  0.00     0.031 A 
ATOM     34  C   UNL     1       3.794  -4.923   2.487  1.00  0.00     0.074 A 
ATOM     35  C   UNL     1       1.961  -5.940   1.187  1.00  0.00     0.049 A 
ATOM     36  N   UNL     1       3.411  -5.194   3.710  1.00  0.00    -0.248 NA
ATOM     37  C   UNL     1       5.068  -4.192   2.403  1.00  0.00     0.031 C 
ATOM     38  C   UNL     1       1.196  -6.308  -0.003  1.00  0.00     0.029 A 
ATOM     39  N   UNL     1       1.225  -6.440   2.232  1.00  0.00    -0.354 N 
ATOM     40  C   UNL     1       4.396  -4.673   4.539  1.00  0.00     0.074 A 
ATOM     41  C   UNL     1       5.407  -4.094   3.680  1.00  0.00     0.031 C 
ATOM     42  C   UNL     1       0.088  -6.966   0.379  1.00  0.00     0.029 A 
ATOM     43  C   UNL     1       0.078  -7.082   1.835  1.00  0.00     0.049 A 
ATOM     44  H   UNL     1       1.493  -6.347   3.174  1.00  0.00     0.167 HD
ATOM     45  C   UNL     1       4.452  -4.669   5.893  1.00  0.00     0.031 A 
ATOM     46  C   UNL     1      -0.873  -7.697   2.563  1.00  0.00     0.031 A 
ATOM     47  C   UNL     1       3.455  -5.250   6.753  1.00  0.00     0.049 A 
ATOM     48  C   UNL     1      -0.770  -7.711   4.063  1.00  0.00     0.074 A 
ATOM     49  C   UNL     1       3.416  -5.271   8.137  1.00  0.00     0.029 A 
ATOM     50  N   UNL     1       2.325  -5.920   6.311  1.00  0.00    -0.354 N 
ATOM     51  N   UNL     1       0.144  -7.174   4.833  1.00  0.00    -0.248 NA
ATOM     52  C   UNL     1      -1.841  -8.407   4.792  1.00  0.00     0.031 C 
ATOM     53  C   UNL     1       2.284  -5.993   8.533  1.00  0.00     0.029 A 
ATOM     54  C   UNL     1       1.595  -6.379   7.395  1.00  0.00     0.049 A 
ATOM     55  H   UNL     1       2.079  -6.050   5.367  1.00  0.00     0.167 HD
ATOM     56  C   UNL     1      -0.252  -7.447   6.137  1.00  0.00     0.074 A 
ATOM     57  C   UNL     1      -1.496  -8.184   6.053  1.00  0.00     0.031 C 
ATOM     58  C   UNL     1       0.362  -7.116   7.299  1.00  0.00     0.031 A 
BRANCH  45  59
ATOM     59  C   UNL     1       5.657  -4.035   6.527  1.00  0.00    -0.014 A 
ATOM     60  C   UNL     1       5.820  -2.641   6.548  1.00  0.00     0.009 A 
ATOM     61  C   UNL     1       6.629  -4.844   7.135  1.00  0.00     0.009 A 
ATOM     62  C   UNL     1       6.951  -2.072   7.136  1.00  0.00     0.001 A 
ATOM     63  C   UNL     1       7.748  -4.270   7.742  1.00  0.00     0.001 A 
ATOM     64  C   UNL     1       7.912  -2.886   7.734  1.00  0.00     0.000 A 
ENDBRANCH  45  59
BRANCH  46  65
ATOM     65  C   UNL     1      -2.016  -8.354   1.879  1.00  0.00    -0.014 A 
ATOM     66  C   UNL     1      -3.301  -7.796   1.937  1.00  0.00     0.009 A 
ATOM     67  C   UNL     1      -1.823  -9.549   1.168  1.00  0.00     0.009 A 
ATOM     68  C   UNL     1      -4.376  -8.433   1.311  1.00  0.00     0.001 A 
ATOM     69  C   UNL     1      -2.894 -10.169   0.523  1.00  0.00     0.001 A 
ATOM     70  C   UNL     1      -4.171  -9.615   0.602  1.00  0.00     0.000 A 
ENDBRANCH  46  65
BRANCH  58  71
ATOM     71  C   UNL     1      -0.319  -7.525   8.574  1.00  0.00    -0.014 A 
ATOM     72  C   UNL     1      -0.325  -8.862   8.999  1.00  0.00     0.009 A 
ATOM     73  C   UNL     1      -0.938  -6.553   9.376  1.00  0.00     0.009 A 
ATOM     74  C   UNL     1      -0.967  -9.223  10.186  1.00  0.00     0.001 A 
ATOM     75  C   UNL     1      -1.558  -6.913  10.574  1.00  0.00     0.001 A 
ATOM     76  C   UNL     1      -1.580  -8.248  10.973  1.00  0.00     0.000 A 
ENDBRANCH  58  71
ENDBRANCH  32  33
ENDBRANCH  25  27
ENDBRANCH  24  25
ENDBRANCH  23  24
ENDBRANCH   1  23
TORSDOF 15
