REMARK SMILES O=C(OCCOC(=O)c1ccc(-c2c3nc(c(-c4ccccc4)c4ccc([nH]4)c(-c4ccccc4)c4nc(c(-c5ccccc5)c5ccc2[nH]5)C=C4)C=C3)cc1)c1ccc(NC(=O)[C@H]2CCS(=O)(=O)C2)cc1
REMARK SMILES IDX 4 1 3 2 2 3 1 4 57 5 58 6 72 7 59 8 71 9 60 10 61 11 62 12
REMARK SMILES IDX 63 14 64 15 65 16 70 17 66 18 67 19 68 20 69 21 5 22 6 23
REMARK SMILES IDX 7 24 8 25 9 26 10 27 56 28 11 29 55 30 12 31 13 32 14 33
REMARK SMILES IDX 49 34 15 35 54 36 48 37 50 38 16 39 53 40 47 41 46 42 17 44
REMARK SMILES IDX 39 45 24 46 38 47 25 48 28 49 37 50 51 51 26 52 27 53 36 55
REMARK SMILES IDX 52 56 29 57 18 58 19 59 23 60 20 61 22 62 21 63 40 64 41 65
REMARK SMILES IDX 45 66 42 67 44 68 43 69 30 70 31 71 35 72 32 73 34 74 33 75
REMARK H PARENT 61 13 50 43 28 54
REMARK Flexibility Score: inf
ROOT
ATOM      1  C   UNL     1       8.619  -1.760  -6.811  1.00  0.00     0.275 C 
ENDROOT
BRANCH   1   2
ATOM      2  O   UNL     1       7.722  -0.633  -6.880  1.00  0.00    -0.458 OA
BRANCH   2   3
ATOM      3  C   UNL     1       6.488  -0.433  -6.354  1.00  0.00     0.338 C 
ATOM      4  O   UNL     1       5.859   0.567  -6.695  1.00  0.00    -0.246 OA
BRANCH   3   5
ATOM      5  C   UNL     1       5.898  -1.275  -5.263  1.00  0.00     0.060 A 
ATOM      6  C   UNL     1       6.300  -2.556  -4.921  1.00  0.00     0.018 A 
ATOM      7  C   UNL     1       4.878  -0.711  -4.482  1.00  0.00     0.018 A 
ATOM      8  C   UNL     1       5.887  -3.154  -3.725  1.00  0.00     0.027 A 
ATOM      9  C   UNL     1       4.434  -1.339  -3.305  1.00  0.00     0.027 A 
ATOM     10  C   UNL     1       5.037  -2.507  -2.843  1.00  0.00     0.041 A 
BRANCH  10  11
ATOM     11  N   UNL     1       4.764  -2.898  -1.514  1.00  0.00    -0.326 N 
ATOM     12  C   UNL     1       5.338  -3.797  -0.651  1.00  0.00     0.228 C 
ATOM     13  H   UNL     1       3.995  -2.423  -1.122  1.00  0.00     0.169 HD
ATOM     14  O   UNL     1       4.889  -3.879   0.494  1.00  0.00    -0.274 OA
BRANCH  12  15
ATOM     15  C   UNL     1       6.527  -4.631  -1.062  1.00  0.00     0.095 C 
ATOM     16  C   UNL     1       7.819  -3.806  -1.112  1.00  0.00     0.030 C 
ATOM     17  C   UNL     1       6.872  -5.791  -0.135  1.00  0.00     0.150 C 
ATOM     18  C   UNL     1       8.961  -4.763  -1.428  1.00  0.00     0.138 C 
ATOM     19  S   UNL     1       8.431  -6.354  -0.817  1.00  0.00     0.151 S 
ATOM     20  O   UNL     1       8.145  -7.186  -1.972  1.00  0.00    -0.229 OA
ATOM     21  O   UNL     1       9.310  -6.776   0.247  1.00  0.00    -0.229 OA
ENDBRANCH  12  15
ENDBRANCH  10  11
ENDBRANCH   3   5
ENDBRANCH   2   3
ENDBRANCH   1   2
BRANCH   1  22
ATOM     22  C   UNL     1       9.557  -1.775  -5.594  1.00  0.00     0.275 C 
BRANCH  22  23
ATOM     23  O   UNL     1       8.940  -1.315  -4.381  1.00  0.00    -0.458 OA
BRANCH  23  24
ATOM     24  C   UNL     1       9.046   0.024  -4.154  1.00  0.00     0.338 C 
ATOM     25  O   UNL     1       9.669   0.828  -4.820  1.00  0.00    -0.246 OA
BRANCH  24  26
ATOM     26  C   UNL     1       8.164   0.396  -3.023  1.00  0.00     0.060 A 
ATOM     27  C   UNL     1       7.305   1.491  -3.161  1.00  0.00     0.016 A 
ATOM     28  C   UNL     1       8.174  -0.329  -1.833  1.00  0.00     0.016 A 
ATOM     29  C   UNL     1       6.443   1.851  -2.112  1.00  0.00     0.010 A 
ATOM     30  C   UNL     1       7.280   0.001  -0.807  1.00  0.00     0.010 A 
ATOM     31  C   UNL     1       6.419   1.111  -0.921  1.00  0.00    -0.014 A 
BRANCH  31  32
ATOM     32  C   UNL     1       5.612   1.534   0.265  1.00  0.00     0.031 A 
ATOM     33  C   UNL     1       6.324   1.991   1.510  1.00  0.00     0.074 A 
ATOM     34  C   UNL     1       4.266   1.472   0.291  1.00  0.00     0.049 A 
ATOM     35  N   UNL     1       5.830   2.298   2.683  1.00  0.00    -0.248 NA
ATOM     36  C   UNL     1       7.786   2.118   1.417  1.00  0.00     0.031 C 
ATOM     37  C   UNL     1       3.410   1.136  -0.838  1.00  0.00     0.029 A 
ATOM     38  N   UNL     1       3.380   1.662   1.328  1.00  0.00    -0.354 N 
ATOM     39  C   UNL     1       6.920   2.648   3.469  1.00  0.00     0.074 A 
ATOM     40  C   UNL     1       8.103   2.452   2.658  1.00  0.00     0.031 C 
ATOM     41  C   UNL     1       2.135   1.054  -0.422  1.00  0.00     0.029 A 
ATOM     42  C   UNL     1       2.077   1.364   1.005  1.00  0.00     0.049 A 
ATOM     43  H   UNL     1       3.654   1.982   2.218  1.00  0.00     0.167 HD
ATOM     44  C   UNL     1       6.944   3.118   4.739  1.00  0.00     0.031 A 
ATOM     45  C   UNL     1       0.959   1.341   1.759  1.00  0.00     0.031 A 
ATOM     46  C   UNL     1       5.783   3.317   5.563  1.00  0.00     0.049 A 
ATOM     47  C   UNL     1       1.009   1.774   3.200  1.00  0.00     0.074 A 
ATOM     48  C   UNL     1       5.719   3.839   6.844  1.00  0.00     0.029 A 
ATOM     49  N   UNL     1       4.487   2.988   5.202  1.00  0.00    -0.354 N 
ATOM     50  N   UNL     1       2.039   2.172   3.905  1.00  0.00    -0.248 NA
ATOM     51  C   UNL     1      -0.265   1.793   3.937  1.00  0.00     0.031 C 
ATOM     52  C   UNL     1       4.395   3.756   7.285  1.00  0.00     0.029 A 
ATOM     53  C   UNL     1       3.622   3.255   6.251  1.00  0.00     0.049 A 
ATOM     54  H   UNL     1       4.220   2.619   4.329  1.00  0.00     0.167 HD
ATOM     55  C   UNL     1       1.532   2.533   5.149  1.00  0.00     0.074 A 
ATOM     56  C   UNL     1       0.104   2.301   5.106  1.00  0.00     0.031 C 
ATOM     57  C   UNL     1       2.199   3.029   6.220  1.00  0.00     0.031 A 
BRANCH  44  58
ATOM     58  C   UNL     1       8.297   3.414   5.323  1.00  0.00    -0.014 A 
ATOM     59  C   UNL     1       9.089   4.470   4.841  1.00  0.00     0.009 A 
ATOM     60  C   UNL     1       8.791   2.612   6.362  1.00  0.00     0.009 A 
ATOM     61  C   UNL     1      10.375   4.673   5.344  1.00  0.00     0.001 A 
ATOM     62  C   UNL     1      10.062   2.842   6.889  1.00  0.00     0.001 A 
ATOM     63  C   UNL     1      10.859   3.860   6.368  1.00  0.00     0.000 A 
ENDBRANCH  44  58
BRANCH  45  64
ATOM     64  C   UNL     1      -0.328   0.906   1.152  1.00  0.00    -0.014 A 
ATOM     65  C   UNL     1      -1.340   1.836   0.867  1.00  0.00     0.009 A 
ATOM     66  C   UNL     1      -0.550  -0.449   0.861  1.00  0.00     0.009 A 
ATOM     67  C   UNL     1      -2.555   1.413   0.322  1.00  0.00     0.001 A 
ATOM     68  C   UNL     1      -1.757  -0.865   0.292  1.00  0.00     0.001 A 
ATOM     69  C   UNL     1      -2.761   0.066   0.030  1.00  0.00     0.000 A 
ENDBRANCH  45  64
BRANCH  57  70
ATOM     70  C   UNL     1       1.402   3.411   7.439  1.00  0.00    -0.014 A 
ATOM     71  C   UNL     1       0.828   2.445   8.279  1.00  0.00     0.009 A 
ATOM     72  C   UNL     1       1.296   4.766   7.796  1.00  0.00     0.009 A 
ATOM     73  C   UNL     1       0.151   2.830   9.441  1.00  0.00     0.001 A 
ATOM     74  C   UNL     1       0.645   5.146   8.972  1.00  0.00     0.001 A 
ATOM     75  C   UNL     1       0.069   4.178   9.790  1.00  0.00     0.000 A 
ENDBRANCH  57  70
ENDBRANCH  31  32
ENDBRANCH  24  26
ENDBRANCH  23  24
ENDBRANCH  22  23
ENDBRANCH   1  22
TORSDOF 13
