REMARK SMILES O=C(OCCOC(=O)[C@H]1[C@H]2CC[C@H](CC2)[C@@H]1C(=O)Nc1ccc(Cc2ccncc2)cc1)c1ccc(-c2c3nc(c(-c4ccccc4)c4ccc([nH]4)c(-c4ccccc4)c4nc(c(-c5ccccc5)c5ccc2[nH]5)C=C4)C=C3)cc1
REMARK SMILES IDX 5 1 4 2 3 3 2 4 1 5 33 6 34 7 80 8 35 9 79 10 36 11 37 12
REMARK SMILES IDX 38 13 73 14 39 15 78 16 72 17 74 18 40 19 77 20 71 21 70 22
REMARK SMILES IDX 41 24 63 25 48 26 62 27 49 28 52 29 61 30 75 31 50 32 51 33
REMARK SMILES IDX 60 35 76 36 53 37 42 38 43 39 47 40 44 41 46 42 45 43 64 44
REMARK SMILES IDX 65 45 69 46 66 47 68 48 67 49 54 50 55 51 59 52 56 53 58 54
REMARK SMILES IDX 57 55 6 56 7 57 8 58 9 59 10 60 16 61 15 62 11 63 13 64
REMARK SMILES IDX 14 65 12 66 17 67 18 68 19 69 20 71 21 72 32 73 22 74 31 75
REMARK SMILES IDX 23 76 24 77 25 78 26 79 30 80 27 81 29 82 28 83
REMARK H PARENT 74 23 52 34 19 70
REMARK Flexibility Score: inf
ROOT
ATOM      1  C   UNL     1       3.937   1.122  -1.277  1.00  0.00     0.274 C 
ENDROOT
BRANCH   1   2
ATOM      2  C   UNL     1       4.211  -0.374  -1.411  1.00  0.00     0.275 C 
BRANCH   2   3
ATOM      3  O   UNL     1       3.198  -1.212  -0.816  1.00  0.00    -0.458 OA
BRANCH   3   4
ATOM      4  C   UNL     1       2.914  -1.521   0.472  1.00  0.00     0.338 C 
ATOM      5  O   UNL     1       1.844  -2.094   0.688  1.00  0.00    -0.246 OA
BRANCH   4   6
ATOM      6  C   UNL     1       3.761  -1.190   1.681  1.00  0.00     0.060 A 
ATOM      7  C   UNL     1       5.068  -0.689   1.688  1.00  0.00     0.016 A 
ATOM      8  C   UNL     1       3.127  -1.316   2.939  1.00  0.00     0.016 A 
ATOM      9  C   UNL     1       5.673  -0.222   2.882  1.00  0.00     0.010 A 
ATOM     10  C   UNL     1       3.725  -0.847   4.128  1.00  0.00     0.010 A 
ATOM     11  C   UNL     1       4.997  -0.254   4.111  1.00  0.00    -0.014 A 
BRANCH  11  12
ATOM     12  C   UNL     1       5.686   0.143   5.388  1.00  0.00     0.031 A 
ATOM     13  C   UNL     1       6.268  -0.954   6.199  1.00  0.00     0.074 A 
ATOM     14  C   UNL     1       5.819   1.405   5.857  1.00  0.00     0.049 A 
ATOM     15  N   UNL     1       6.960  -0.863   7.298  1.00  0.00    -0.248 NA
ATOM     16  C   UNL     1       6.026  -2.325   5.723  1.00  0.00     0.031 C 
ATOM     17  C   UNL     1       5.233   2.544   5.214  1.00  0.00     0.029 A 
ATOM     18  N   UNL     1       6.427   1.987   6.948  1.00  0.00    -0.354 N 
ATOM     19  C   UNL     1       7.266  -2.164   7.633  1.00  0.00     0.074 A 
ATOM     20  C   UNL     1       6.617  -3.029   6.671  1.00  0.00     0.031 C 
ATOM     21  C   UNL     1       5.501   3.688   5.843  1.00  0.00     0.029 A 
ATOM     22  C   UNL     1       6.272   3.366   7.013  1.00  0.00     0.049 A 
ATOM     23  H   UNL     1       6.928   1.472   7.621  1.00  0.00     0.167 HD
ATOM     24  C   UNL     1       8.049  -2.592   8.643  1.00  0.00     0.031 A 
ATOM     25  C   UNL     1       6.666   4.295   7.904  1.00  0.00     0.031 A 
ATOM     26  C   UNL     1       8.606  -1.726   9.641  1.00  0.00     0.049 A 
ATOM     27  C   UNL     1       7.446   3.789   9.066  1.00  0.00     0.074 A 
ATOM     28  C   UNL     1       9.383  -2.059  10.732  1.00  0.00     0.029 A 
ATOM     29  N   UNL     1       8.413  -0.348   9.688  1.00  0.00    -0.354 N 
ATOM     30  N   UNL     1       7.784   2.550   9.324  1.00  0.00    -0.248 NA
ATOM     31  C   UNL     1       7.907   4.774  10.047  1.00  0.00     0.031 C 
ATOM     32  C   UNL     1       9.615  -0.892  11.468  1.00  0.00     0.029 A 
ATOM     33  C   UNL     1       9.041   0.181  10.803  1.00  0.00     0.049 A 
ATOM     34  H   UNL     1       7.904   0.173   9.026  1.00  0.00     0.167 HD
ATOM     35  C   UNL     1       8.518   2.600  10.489  1.00  0.00     0.074 A 
ATOM     36  C   UNL     1       8.593   3.999  10.875  1.00  0.00     0.031 C 
ATOM     37  C   UNL     1       9.079   1.576  11.170  1.00  0.00     0.031 A 
BRANCH  24  38
ATOM     38  C   UNL     1       8.259  -4.072   8.687  1.00  0.00    -0.014 A 
ATOM     39  C   UNL     1       9.008  -4.718   7.685  1.00  0.00     0.009 A 
ATOM     40  C   UNL     1       7.571  -4.841   9.632  1.00  0.00     0.009 A 
ATOM     41  C   UNL     1       9.005  -6.109   7.591  1.00  0.00     0.001 A 
ATOM     42  C   UNL     1       7.597  -6.234   9.554  1.00  0.00     0.001 A 
ATOM     43  C   UNL     1       8.297  -6.865   8.525  1.00  0.00     0.000 A 
ENDBRANCH  24  38
BRANCH  25  44
ATOM     44  C   UNL     1       6.338   5.748   7.744  1.00  0.00    -0.014 A 
ATOM     45  C   UNL     1       7.344   6.696   7.495  1.00  0.00     0.009 A 
ATOM     46  C   UNL     1       5.011   6.205   7.843  1.00  0.00     0.009 A 
ATOM     47  C   UNL     1       7.037   8.059   7.382  1.00  0.00     0.001 A 
ATOM     48  C   UNL     1       4.702   7.563   7.698  1.00  0.00     0.001 A 
ATOM     49  C   UNL     1       5.716   8.491   7.479  1.00  0.00     0.000 A 
ENDBRANCH  25  44
BRANCH  37  50
ATOM     50  C   UNL     1       9.860   1.961  12.385  1.00  0.00    -0.014 A 
ATOM     51  C   UNL     1       9.224   2.407  13.552  1.00  0.00     0.009 A 
ATOM     52  C   UNL     1      11.259   1.871  12.348  1.00  0.00     0.009 A 
ATOM     53  C   UNL     1       9.983   2.788  14.656  1.00  0.00     0.001 A 
ATOM     54  C   UNL     1      12.012   2.220  13.465  1.00  0.00     0.001 A 
ATOM     55  C   UNL     1      11.374   2.687  14.614  1.00  0.00     0.000 A 
ENDBRANCH  37  50
ENDBRANCH  11  12
ENDBRANCH   4   6
ENDBRANCH   3   4
ENDBRANCH   2   3
ENDBRANCH   1   2
BRANCH   1  56
ATOM     56  O   UNL     1       3.310   1.385  -0.022  1.00  0.00    -0.462 OA
BRANCH  56  57
ATOM     57  C   UNL     1       2.269   2.266   0.024  1.00  0.00     0.310 C 
ATOM     58  O   UNL     1       1.773   2.812  -0.944  1.00  0.00    -0.252 OA
BRANCH  57  59
ATOM     59  C   UNL     1       1.830   2.506   1.475  1.00  0.00     0.115 C 
ATOM     60  C   UNL     1       2.915   2.096   2.473  1.00  0.00     0.004 C 
ATOM     61  C   UNL     1       1.587   3.999   1.754  1.00  0.00     0.096 C 
ATOM     62  C   UNL     1       4.164   2.999   2.205  1.00  0.00     0.005 C 
ATOM     63  C   UNL     1       2.251   2.209   3.866  1.00  0.00     0.005 C 
ATOM     64  C   UNL     1       2.389   4.532   2.996  1.00  0.00     0.002 C 
ATOM     65  C   UNL     1       3.877   4.426   2.642  1.00  0.00     0.005 C 
ATOM     66  C   UNL     1       2.079   3.674   4.231  1.00  0.00     0.005 C 
BRANCH  61  67
ATOM     67  C   UNL     1       0.119   4.351   1.965  1.00  0.00     0.228 C 
ATOM     68  O   UNL     1      -0.688   3.559   2.451  1.00  0.00    -0.274 OA
ATOM     69  N   UNL     1      -0.216   5.677   1.804  1.00  0.00    -0.326 N 
ATOM     70  H   UNL     1      -1.090   5.977   2.147  1.00  0.00     0.169 HD
BRANCH  69  71
ATOM     71  C   UNL     1       0.605   6.626   1.185  1.00  0.00     0.041 A 
ATOM     72  C   UNL     1       0.957   7.770   1.891  1.00  0.00     0.026 A 
ATOM     73  C   UNL     1       1.176   6.359  -0.064  1.00  0.00     0.026 A 
ATOM     74  C   UNL     1       1.966   8.589   1.389  1.00  0.00     0.006 A 
ATOM     75  C   UNL     1       2.188   7.166  -0.559  1.00  0.00     0.006 A 
ATOM     76  C   UNL     1       2.585   8.295   0.161  1.00  0.00    -0.043 A 
BRANCH  76  77
ATOM     77  C   UNL     1       3.518   9.291  -0.489  1.00  0.00     0.071 C 
BRANCH  77  78
ATOM     78  C   UNL     1       2.719  10.210  -1.383  1.00  0.00    -0.041 A 
ATOM     79  C   UNL     1       1.809  11.115  -0.824  1.00  0.00     0.024 A 
ATOM     80  C   UNL     1       2.754  10.078  -2.772  1.00  0.00     0.024 A 
ATOM     81  C   UNL     1       0.963  11.818  -1.663  1.00  0.00     0.111 A 
ATOM     82  C   UNL     1       1.879  10.841  -3.529  1.00  0.00     0.111 A 
ATOM     83  N   UNL     1       0.983  11.707  -3.006  1.00  0.00    -0.265 NA
ENDBRANCH  77  78
ENDBRANCH  76  77
ENDBRANCH  69  71
ENDBRANCH  61  67
ENDBRANCH  57  59
ENDBRANCH  56  57
ENDBRANCH   1  56
TORSDOF 15
