REMARK SMILES O=C(OCCOC(=O)[C@@]1([NH2+]C2CC2)CCC[C@@H]([NH+]2CCS(=O)(=O)CC2)C1)c1ccc(-c2c3nc(c(-c4ccccc4)c4ccc([nH]4)c(-c4ccccc4)c4nc(c(-c5ccccc5)c5ccc2[nH]5)C=C4)C=C3)cc1
REMARK SMILES IDX 4 1 3 2 2 3 1 4 27 5 28 6 74 7 29 8 73 9 30 10 31 11 32 12
REMARK SMILES IDX 67 13 33 14 72 15 66 16 68 17 34 18 71 19 65 20 64 21 35 23
REMARK SMILES IDX 57 24 42 25 56 26 43 27 46 28 55 29 69 30 44 31 45 32 54 34
REMARK SMILES IDX 70 35 47 36 36 37 37 38 41 39 38 40 40 41 39 42 58 43 59 44
REMARK SMILES IDX 63 45 60 46 62 47 61 48 48 49 49 50 53 51 50 52 52 53 51 54
REMARK SMILES IDX 5 55 6 56 7 57 8 58 9 59 14 60 26 61 15 62 17 63 16 64 10 65
REMARK SMILES IDX 11 68 12 69 13 70 18 71 19 72 25 73 20 75 24 76 21 77 22 78
REMARK SMILES IDX 23 79
REMARK H PARENT 68 22 46 33 10 66 10 67 18 74
REMARK Flexibility Score: inf
ROOT
ATOM      1  C   UNL     1       4.626   1.579  -0.303  1.00  0.00     0.275 C 
ENDROOT
BRANCH   1   2
ATOM      2  O   UNL     1       3.999   0.761  -1.308  1.00  0.00    -0.458 OA
BRANCH   2   3
ATOM      3  C   UNL     1       3.760  -0.569  -1.291  1.00  0.00     0.338 C 
ATOM      4  O   UNL     1       2.840  -1.020  -1.971  1.00  0.00    -0.246 OA
BRANCH   3   5
ATOM      5  C   UNL     1       4.553  -1.528  -0.459  1.00  0.00     0.060 A 
ATOM      6  C   UNL     1       5.825  -1.299   0.066  1.00  0.00     0.016 A 
ATOM      7  C   UNL     1       3.958  -2.769  -0.193  1.00  0.00     0.016 A 
ATOM      8  C   UNL     1       6.423  -2.219   0.943  1.00  0.00     0.010 A 
ATOM      9  C   UNL     1       4.530  -3.662   0.725  1.00  0.00     0.010 A 
ATOM     10  C   UNL     1       5.764  -3.389   1.333  1.00  0.00    -0.014 A 
BRANCH  10  11
ATOM     11  C   UNL     1       6.371  -4.344   2.307  1.00  0.00     0.031 A 
ATOM     12  C   UNL     1       6.671  -5.750   1.883  1.00  0.00     0.074 A 
ATOM     13  C   UNL     1       6.763  -3.989   3.551  1.00  0.00     0.049 A 
ATOM     14  N   UNL     1       7.363  -6.647   2.539  1.00  0.00    -0.248 NA
ATOM     15  C   UNL     1       6.242  -6.177   0.543  1.00  0.00     0.031 C 
ATOM     16  C   UNL     1       6.783  -2.633   4.085  1.00  0.00     0.029 A 
ATOM     17  N   UNL     1       7.237  -4.749   4.604  1.00  0.00    -0.354 N 
ATOM     18  C   UNL     1       7.596  -7.657   1.629  1.00  0.00     0.074 A 
ATOM     19  C   UNL     1       6.793  -7.377   0.460  1.00  0.00     0.031 C 
ATOM     20  C   UNL     1       7.179  -2.672   5.367  1.00  0.00     0.029 A 
ATOM     21  C   UNL     1       7.365  -4.042   5.777  1.00  0.00     0.049 A 
ATOM     22  H   UNL     1       7.461  -5.704   4.523  1.00  0.00     0.167 HD
ATOM     23  C   UNL     1       8.518  -8.643   1.698  1.00  0.00     0.031 A 
ATOM     24  C   UNL     1       7.618  -4.406   7.047  1.00  0.00     0.031 A 
ATOM     25  C   UNL     1       9.289  -8.964   2.865  1.00  0.00     0.049 A 
ATOM     26  C   UNL     1       8.293  -5.717   7.247  1.00  0.00     0.074 A 
ATOM     27  C   UNL     1      10.223  -9.970   3.028  1.00  0.00     0.029 A 
ATOM     28  N   UNL     1       9.193  -8.305   4.082  1.00  0.00    -0.354 N 
ATOM     29  N   UNL     1       8.585  -6.611   6.340  1.00  0.00    -0.248 NA
ATOM     30  C   UNL     1       8.836  -5.987   8.583  1.00  0.00     0.031 C 
ATOM     31  C   UNL     1      10.639  -9.966   4.366  1.00  0.00     0.029 A 
ATOM     32  C   UNL     1      10.005  -8.924   5.021  1.00  0.00     0.049 A 
ATOM     33  H   UNL     1       8.631  -7.516   4.254  1.00  0.00     0.167 HD
ATOM     34  C   UNL     1       9.457  -7.487   6.958  1.00  0.00     0.074 A 
ATOM     35  C   UNL     1       9.601  -7.040   8.332  1.00  0.00     0.031 C 
ATOM     36  C   UNL     1      10.126  -8.521   6.400  1.00  0.00     0.031 A 
BRANCH  23  37
ATOM     37  C   UNL     1       8.741  -9.384   0.417  1.00  0.00    -0.014 A 
ATOM     38  C   UNL     1       9.393  -8.749  -0.657  1.00  0.00     0.009 A 
ATOM     39  C   UNL     1       8.216 -10.668   0.241  1.00  0.00     0.009 A 
ATOM     40  C   UNL     1       9.463  -9.368  -1.904  1.00  0.00     0.001 A 
ATOM     41  C   UNL     1       8.310 -11.294  -1.002  1.00  0.00     0.001 A 
ATOM     42  C   UNL     1       8.918 -10.639  -2.075  1.00  0.00     0.000 A 
ENDBRANCH  23  37
BRANCH  24  43
ATOM     43  C   UNL     1       7.360  -3.498   8.199  1.00  0.00    -0.014 A 
ATOM     44  C   UNL     1       8.386  -2.779   8.828  1.00  0.00     0.009 A 
ATOM     45  C   UNL     1       6.059  -3.409   8.725  1.00  0.00     0.009 A 
ATOM     46  C   UNL     1       8.122  -2.020   9.975  1.00  0.00     0.001 A 
ATOM     47  C   UNL     1       5.794  -2.636   9.861  1.00  0.00     0.001 A 
ATOM     48  C   UNL     1       6.829  -1.950  10.491  1.00  0.00     0.000 A 
ENDBRANCH  24  43
BRANCH  36  49
ATOM     49  C   UNL     1      11.102  -9.232   7.285  1.00  0.00    -0.014 A 
ATOM     50  C   UNL     1      10.670  -9.993   8.382  1.00  0.00     0.009 A 
ATOM     51  C   UNL     1      12.478  -9.113   7.035  1.00  0.00     0.009 A 
ATOM     52  C   UNL     1      11.599 -10.579   9.241  1.00  0.00     0.001 A 
ATOM     53  C   UNL     1      13.403  -9.733   7.872  1.00  0.00     0.001 A 
ATOM     54  C   UNL     1      12.964 -10.453   8.982  1.00  0.00     0.000 A 
ENDBRANCH  36  49
ENDBRANCH  10  11
ENDBRANCH   3   5
ENDBRANCH   2   3
ENDBRANCH   1   2
BRANCH   1  55
ATOM     55  C   UNL     1       3.892   1.677   1.033  1.00  0.00     0.274 C 
BRANCH  55  56
ATOM     56  O   UNL     1       3.368   0.428   1.524  1.00  0.00    -0.457 OA
BRANCH  56  57
ATOM     57  C   UNL     1       2.028   0.438   1.837  1.00  0.00     0.368 C 
ATOM     58  O   UNL     1       1.280   1.366   1.551  1.00  0.00    -0.245 OA
BRANCH  57  59
ATOM     59  C   UNL     1       1.643  -0.753   2.785  1.00  0.00     0.200 C 
ATOM     60  C   UNL     1       2.282  -2.092   2.424  1.00  0.00     0.081 C 
ATOM     61  C   UNL     1       2.197  -0.321   4.166  1.00  0.00     0.146 C 
ATOM     62  C   UNL     1       2.049  -3.183   3.462  1.00  0.00     0.013 C 
ATOM     63  C   UNL     1       2.327  -1.389   5.272  1.00  0.00     0.191 C 
ATOM     64  C   UNL     1       2.739  -2.790   4.755  1.00  0.00     0.065 C 
BRANCH  59  65
ATOM     65  N   UNL     1       0.176  -0.885   2.894  1.00  0.00    -0.329 N 
ATOM     66  H   UNL     1      -0.152  -0.078   3.425  1.00  0.00     0.347 HD
ATOM     67  H   UNL     1       0.057  -1.808   3.312  1.00  0.00     0.347 HD
BRANCH  65  68
ATOM     68  C   UNL     1      -0.653  -0.960   1.687  1.00  0.00     0.183 C 
ATOM     69  C   UNL     1      -0.214  -1.317   0.295  1.00  0.00     0.071 C 
ATOM     70  C   UNL     1      -0.957  -2.325   1.118  1.00  0.00     0.071 C 
ENDBRANCH  65  68
ENDBRANCH  59  65
BRANCH  63  71
ATOM     71  N   UNL     1       3.148  -0.968   6.437  1.00  0.00    -0.331 N 
ATOM     72  C   UNL     1       2.773   0.264   7.129  1.00  0.00     0.278 C 
ATOM     73  C   UNL     1       4.601  -1.091   6.366  1.00  0.00     0.278 C 
ATOM     74  H   UNL     1       2.844  -1.746   7.023  1.00  0.00     0.348 HD
ATOM     75  C   UNL     1       3.255   1.577   6.530  1.00  0.00     0.198 C 
ATOM     76  C   UNL     1       5.299  -0.059   5.507  1.00  0.00     0.198 C 
ATOM     77  S   UNL     1       4.966   1.574   6.072  1.00  0.00     0.161 S 
ATOM     78  O   UNL     1       5.128   2.449   4.927  1.00  0.00    -0.228 OA
ATOM     79  O   UNL     1       5.758   1.783   7.273  1.00  0.00    -0.228 OA
ENDBRANCH  63  71
ENDBRANCH  57  59
ENDBRANCH  56  57
ENDBRANCH  55  56
ENDBRANCH   1  55
TORSDOF 14
