REMARK SMILES C[C@H](NC(=O)OCc1ccccc1)C(=O)NCC(=O)N1CCC[C@H]1C(=O)OCCOC(=O)c1ccc(-c2c3nc(c(-c4ccccc4)c4ccc([nH]4)c(-c4ccccc4)c4nc(c(-c5ccccc5)c5ccc2[nH]5)C=C4)C=C3)cc1
REMARK SMILES IDX 20 1 21 2 22 3 23 4 24 5 18 6 19 7 17 8 16 9 14 10 15 11
REMARK SMILES IDX 2 13 1 14 3 15 4 16 5 18 6 19 7 20 8 21 9 22 13 23 10 24
REMARK SMILES IDX 12 25 11 26 25 27 26 28 27 29 28 30 29 31 30 32 31 33 32 34
REMARK SMILES IDX 33 35 34 36 80 37 35 38 79 39 36 40 37 41 38 42 73 43 39 44
REMARK SMILES IDX 78 45 72 46 74 47 40 48 77 49 71 50 70 51 41 53 63 54 48 55
REMARK SMILES IDX 62 56 49 57 52 58 61 59 75 60 50 61 51 62 60 64 76 65 53 66
REMARK SMILES IDX 42 67 43 68 47 69 44 70 46 71 45 72 64 73 65 74 69 75 66 76
REMARK SMILES IDX 68 77 67 78 54 79 55 80 59 81 56 82 58 83 57 84
REMARK H PARENT 16 12 3 17 74 52 52 63
REMARK Flexibility Score: inf
ROOT
ATOM      1  N   UNL     1      -1.530   1.001  -1.785  1.00  0.00    -0.327 N 
ATOM      2  C   UNL     1      -1.844  -0.362  -1.397  1.00  0.00     0.120 C 
ATOM      3  C   UNL     1      -0.799  -1.180  -2.123  1.00  0.00     0.024 C 
ATOM      4  C   UNL     1      -0.628  -0.440  -3.436  1.00  0.00     0.039 C 
ATOM      5  C   UNL     1      -1.103   1.008  -3.185  1.00  0.00     0.195 C 
ENDROOT
BRANCH   1   6
ATOM      6  C   UNL     1      -1.513   2.179  -1.085  1.00  0.00     0.242 C 
ATOM      7  O   UNL     1      -1.352   3.253  -1.682  1.00  0.00    -0.273 OA
BRANCH   6   8
ATOM      8  C   UNL     1      -1.611   2.242   0.449  1.00  0.00     0.216 C 
BRANCH   8   9
ATOM      9  N   UNL     1      -1.833   1.063   1.252  1.00  0.00    -0.345 N 
ATOM     10  C   UNL     1      -0.966   0.203   1.845  1.00  0.00     0.242 C 
ATOM     11  O   UNL     1      -1.474  -0.730   2.479  1.00  0.00    -0.273 OA
ATOM     12  H   UNL     1      -2.782   0.844   1.395  1.00  0.00     0.164 HD
BRANCH  10  13
ATOM     13  C   UNL     1       0.572   0.348   1.799  1.00  0.00     0.171 C 
ATOM     14  C   UNL     1       1.075   1.415   2.756  1.00  0.00     0.042 C 
BRANCH  13  15
ATOM     15  N   UNL     1       1.153   0.335   0.460  1.00  0.00    -0.310 N 
ATOM     16  C   UNL     1       1.576   1.328  -0.365  1.00  0.00     0.408 C 
ATOM     17  H   UNL     1       1.258  -0.567   0.082  1.00  0.00     0.167 HD
ATOM     18  O   UNL     1       1.871   1.083  -1.525  1.00  0.00    -0.225 OA
BRANCH  16  19
ATOM     19  O   UNL     1       1.614   2.542   0.224  1.00  0.00    -0.445 OA
BRANCH  19  20
ATOM     20  C   UNL     1       1.990   3.634  -0.629  1.00  0.00     0.270 C 
BRANCH  20  21
ATOM     21  C   UNL     1       3.466   3.658  -0.943  1.00  0.00    -0.011 A 
ATOM     22  C   UNL     1       4.424   3.268   0.003  1.00  0.00     0.007 A 
ATOM     23  C   UNL     1       3.895   4.099  -2.203  1.00  0.00     0.007 A 
ATOM     24  C   UNL     1       5.782   3.279  -0.322  1.00  0.00     0.000 A 
ATOM     25  C   UNL     1       5.253   4.116  -2.523  1.00  0.00     0.000 A 
ATOM     26  C   UNL     1       6.195   3.699  -1.585  1.00  0.00     0.000 A 
ENDBRANCH  20  21
ENDBRANCH  19  20
ENDBRANCH  16  19
ENDBRANCH  13  15
ENDBRANCH  10  13
ENDBRANCH   8   9
ENDBRANCH   6   8
ENDBRANCH   1   6
BRANCH   5  27
ATOM     27  C   UNL     1      -2.276   1.359  -4.120  1.00  0.00     0.328 C 
ATOM     28  O   UNL     1      -3.193   0.590  -4.389  1.00  0.00    -0.250 OA
BRANCH  27  29
ATOM     29  O   UNL     1      -2.168   2.632  -4.587  1.00  0.00    -0.461 OA
BRANCH  29  30
ATOM     30  C   UNL     1      -3.166   3.080  -5.523  1.00  0.00     0.274 C 
BRANCH  30  31
ATOM     31  C   UNL     1      -2.485   3.516  -6.821  1.00  0.00     0.275 C 
BRANCH  31  32
ATOM     32  O   UNL     1      -1.839   2.392  -7.456  1.00  0.00    -0.458 OA
BRANCH  32  33
ATOM     33  C   UNL     1      -0.512   2.283  -7.210  1.00  0.00     0.338 C 
ATOM     34  O   UNL     1       0.195   3.042  -6.569  1.00  0.00    -0.246 OA
BRANCH  33  35
ATOM     35  C   UNL     1      -0.031   0.975  -7.674  1.00  0.00     0.060 A 
ATOM     36  C   UNL     1       0.028  -0.034  -6.722  1.00  0.00     0.016 A 
ATOM     37  C   UNL     1       0.488   0.760  -8.944  1.00  0.00     0.016 A 
ATOM     38  C   UNL     1       0.638  -1.253  -6.993  1.00  0.00     0.010 A 
ATOM     39  C   UNL     1       1.054  -0.490  -9.245  1.00  0.00     0.010 A 
ATOM     40  C   UNL     1       1.150  -1.504  -8.268  1.00  0.00    -0.014 A 
BRANCH  40  41
ATOM     41  C   UNL     1       1.819  -2.803  -8.560  1.00  0.00     0.031 A 
ATOM     42  C   UNL     1       3.271  -2.827  -8.956  1.00  0.00     0.074 A 
ATOM     43  C   UNL     1       1.141  -3.965  -8.451  1.00  0.00     0.049 A 
ATOM     44  N   UNL     1       3.982  -3.816  -9.436  1.00  0.00    -0.248 NA
ATOM     45  C   UNL     1       4.021  -1.571  -8.792  1.00  0.00     0.031 C 
ATOM     46  C   UNL     1      -0.242  -4.106  -7.990  1.00  0.00     0.029 A 
ATOM     47  N   UNL     1       1.528  -5.255  -8.728  1.00  0.00    -0.354 N 
ATOM     48  C   UNL     1       5.250  -3.295  -9.664  1.00  0.00     0.074 A 
ATOM     49  C   UNL     1       5.206  -1.898  -9.288  1.00  0.00     0.031 C 
ATOM     50  C   UNL     1      -0.586  -5.403  -8.015  1.00  0.00     0.029 A 
ATOM     51  C   UNL     1       0.517  -6.175  -8.575  1.00  0.00     0.049 A 
ATOM     52  H   UNL     1       2.440  -5.497  -9.009  1.00  0.00     0.167 HD
ATOM     53  C   UNL     1       6.351  -3.924 -10.141  1.00  0.00     0.031 A 
ATOM     54  C   UNL     1       0.458  -7.480  -8.905  1.00  0.00     0.031 A 
ATOM     55  C   UNL     1       6.394  -5.316 -10.505  1.00  0.00     0.049 A 
ATOM     56  C   UNL     1       1.657  -8.126  -9.545  1.00  0.00     0.074 A 
ATOM     57  C   UNL     1       7.454  -6.040 -11.024  1.00  0.00     0.029 A 
ATOM     58  N   UNL     1       5.331  -6.197 -10.380  1.00  0.00    -0.354 N 
ATOM     59  N   UNL     1       2.835  -7.612  -9.803  1.00  0.00    -0.248 NA
ATOM     60  C   UNL     1       1.514  -9.533  -9.949  1.00  0.00     0.031 C 
ATOM     61  C   UNL     1       7.016  -7.346 -11.262  1.00  0.00     0.029 A 
ATOM     62  C   UNL     1       5.705  -7.453 -10.829  1.00  0.00     0.049 A 
ATOM     63  H   UNL     1       4.443  -5.965 -10.024  1.00  0.00     0.167 HD
ATOM     64  C   UNL     1       3.579  -8.639 -10.371  1.00  0.00     0.074 A 
ATOM     65  C   UNL     1       2.729  -9.810 -10.398  1.00  0.00     0.031 C 
ATOM     66  C   UNL     1       4.852  -8.612 -10.836  1.00  0.00     0.031 A 
BRANCH  53  67
ATOM     67  C   UNL     1       7.597  -3.104 -10.331  1.00  0.00    -0.014 A 
ATOM     68  C   UNL     1       8.347  -2.646  -9.237  1.00  0.00     0.009 A 
ATOM     69  C   UNL     1       8.057  -2.829 -11.630  1.00  0.00     0.009 A 
ATOM     70  C   UNL     1       9.514  -1.905  -9.440  1.00  0.00     0.001 A 
ATOM     71  C   UNL     1       9.240  -2.115 -11.830  1.00  0.00     0.001 A 
ATOM     72  C   UNL     1       9.963  -1.647 -10.735  1.00  0.00     0.000 A 
ENDBRANCH  53  67
BRANCH  54  73
ATOM     73  C   UNL     1      -0.804  -8.251  -8.723  1.00  0.00    -0.014 A 
ATOM     74  C   UNL     1      -0.862  -9.348  -7.850  1.00  0.00     0.009 A 
ATOM     75  C   UNL     1      -1.948  -7.924  -9.470  1.00  0.00     0.009 A 
ATOM     76  C   UNL     1      -2.021 -10.123  -7.761  1.00  0.00     0.001 A 
ATOM     77  C   UNL     1      -3.119  -8.675  -9.348  1.00  0.00     0.001 A 
ATOM     78  C   UNL     1      -3.149  -9.784  -8.506  1.00  0.00     0.000 A 
ENDBRANCH  54  73
BRANCH  66  79
ATOM     79  C   UNL     1       5.420  -9.900 -11.363  1.00  0.00    -0.014 A 
ATOM     80  C   UNL     1       4.987 -10.448 -12.581  1.00  0.00     0.009 A 
ATOM     81  C   UNL     1       6.436 -10.553 -10.647  1.00  0.00     0.009 A 
ATOM     82  C   UNL     1       5.538 -11.642 -13.053  1.00  0.00     0.001 A 
ATOM     83  C   UNL     1       7.009 -11.727 -11.138  1.00  0.00     0.001 A 
ATOM     84  C   UNL     1       6.552 -12.275 -12.335  1.00  0.00     0.000 A 
ENDBRANCH  66  79
ENDBRANCH  40  41
ENDBRANCH  33  35
ENDBRANCH  32  33
ENDBRANCH  31  32
ENDBRANCH  30  31
ENDBRANCH  29  30
ENDBRANCH  27  29
ENDBRANCH   5  27
TORSDOF 19
