REMARK SMILES CCc1c(C(=O)OCCOC(=O)c2ccc(-c3c4nc(c(-c5ccccc5)c5ccc([nH]5)c(-c5ccccc5)c5nc(c(-c6ccccc6)c6ccc3[nH]6)C=C5)C=C4)cc2)nnn1-c1ccc(OC)cc1
REMARK SMILES IDX 8 1 7 2 5 3 6 4 4 5 3 6 63 7 61 8 62 9 2 10 1 11 64 12 65 13
REMARK SMILES IDX 71 14 66 15 70 16 67 17 68 18 69 19 9 20 10 21 11 22 12 23
REMARK SMILES IDX 13 24 14 25 60 26 15 27 59 28 16 29 17 30 18 31 53 32 19 33
REMARK SMILES IDX 58 34 52 35 54 36 20 37 57 38 51 39 50 40 21 42 43 43 28 44
REMARK SMILES IDX 42 45 29 46 32 47 41 48 55 49 30 50 31 51 40 53 56 54 33 55
REMARK SMILES IDX 22 56 23 57 27 58 24 59 26 60 25 61 44 62 45 63 49 64 46 65
REMARK SMILES IDX 48 66 47 67 34 68 35 69 39 70 36 71 38 72 37 73
REMARK H PARENT 54 41 32 52
REMARK Flexibility Score: inf
ROOT
ATOM      1  C   UNL     1      -1.108   5.221   1.394  1.00  0.00     0.275 C 
ENDROOT
BRANCH   1   2
ATOM      2  O   UNL     1      -0.621   4.147   0.575  1.00  0.00    -0.457 OA
BRANCH   2   3
ATOM      3  C   UNL     1      -0.456   4.430  -0.757  1.00  0.00     0.360 C 
ATOM      4  O   UNL     1      -0.886   5.437  -1.292  1.00  0.00    -0.244 OA
BRANCH   3   5
ATOM      5  C   UNL     1       0.346   3.422  -1.450  1.00  0.00     0.194 A 
ATOM      6  C   UNL     1       0.635   2.106  -1.088  1.00  0.00     0.079 A 
ATOM      7  N   UNL     1       1.402   1.654  -2.153  1.00  0.00    -0.217 N 
ATOM      8  N   UNL     1       1.025   3.735  -2.601  1.00  0.00    -0.122 NA
ATOM      9  N   UNL     1       1.754   2.689  -2.948  1.00  0.00    -0.061 NA
BRANCH   6  10
ATOM     10  C   UNL     1       0.290   1.391   0.186  1.00  0.00     0.055 C 
ATOM     11  C   UNL     1       1.003   0.097   0.529  1.00  0.00     0.011 C 
ENDBRANCH   6  10
BRANCH   7  12
ATOM     12  C   UNL     1       1.728   0.344  -2.553  1.00  0.00     0.067 A 
ATOM     13  C   UNL     1       3.020   0.061  -3.006  1.00  0.00     0.032 A 
ATOM     14  C   UNL     1       0.749  -0.652  -2.537  1.00  0.00     0.032 A 
ATOM     15  C   UNL     1       3.350  -1.253  -3.341  1.00  0.00     0.048 A 
ATOM     16  C   UNL     1       1.083  -1.958  -2.899  1.00  0.00     0.048 A 
ATOM     17  C   UNL     1       2.393  -2.270  -3.270  1.00  0.00     0.119 A 
BRANCH  17  18
ATOM     18  O   UNL     1       2.850  -3.518  -3.593  1.00  0.00    -0.497 OA
ATOM     19  C   UNL     1       1.974  -4.604  -3.315  1.00  0.00     0.278 C 
ENDBRANCH  17  18
ENDBRANCH   7  12
ENDBRANCH   3   5
ENDBRANCH   2   3
ENDBRANCH   1   2
BRANCH   1  20
ATOM     20  C   UNL     1       0.035   6.086   1.906  1.00  0.00     0.275 C 
BRANCH  20  21
ATOM     21  O   UNL     1       0.589   6.909   0.878  1.00  0.00    -0.458 OA
BRANCH  21  22
ATOM     22  C   UNL     1       1.715   6.426   0.303  1.00  0.00     0.338 C 
ATOM     23  O   UNL     1       2.097   5.268   0.302  1.00  0.00    -0.246 OA
BRANCH  22  24
ATOM     24  C   UNL     1       2.551   7.554  -0.130  1.00  0.00     0.060 A 
ATOM     25  C   UNL     1       3.641   7.294  -0.965  1.00  0.00     0.016 A 
ATOM     26  C   UNL     1       2.379   8.808   0.475  1.00  0.00     0.016 A 
ATOM     27  C   UNL     1       4.612   8.270  -1.118  1.00  0.00     0.010 A 
ATOM     28  C   UNL     1       3.354   9.772   0.336  1.00  0.00     0.010 A 
ATOM     29  C   UNL     1       4.484   9.481  -0.423  1.00  0.00    -0.014 A 
BRANCH  29  30
ATOM     30  C   UNL     1       5.499  10.502  -0.618  1.00  0.00     0.031 A 
ATOM     31  C   UNL     1       5.437  11.161  -1.939  1.00  0.00     0.074 A 
ATOM     32  C   UNL     1       6.314  10.951   0.355  1.00  0.00     0.049 A 
ATOM     33  N   UNL     1       6.318  11.122  -2.880  1.00  0.00    -0.248 NA
ATOM     34  C   UNL     1       4.196  11.869  -2.294  1.00  0.00     0.031 C 
ATOM     35  C   UNL     1       6.234  10.635   1.784  1.00  0.00     0.029 A 
ATOM     36  N   UNL     1       7.317  11.878   0.291  1.00  0.00    -0.354 N 
ATOM     37  C   UNL     1       5.838  11.974  -3.868  1.00  0.00     0.074 A 
ATOM     38  C   UNL     1       4.465  12.260  -3.539  1.00  0.00     0.031 C 
ATOM     39  C   UNL     1       6.996  11.513   2.474  1.00  0.00     0.029 A 
ATOM     40  C   UNL     1       7.725  12.346   1.531  1.00  0.00     0.049 A 
ATOM     41  H   UNL     1       7.712  12.184  -0.557  1.00  0.00     0.167 HD
ATOM     42  C   UNL     1       6.696  12.634  -4.690  1.00  0.00     0.031 A 
ATOM     43  C   UNL     1       8.578  13.366   1.781  1.00  0.00     0.031 A 
ATOM     44  C   UNL     1       8.022  12.079  -4.644  1.00  0.00     0.049 A 
ATOM     45  C   UNL     1       9.410  13.599   0.583  1.00  0.00     0.074 A 
ATOM     46  C   UNL     1       8.690  10.991  -5.158  1.00  0.00     0.029 A 
ATOM     47  N   UNL     1       8.795  12.596  -3.641  1.00  0.00    -0.354 N 
ATOM     48  N   UNL     1      10.309  12.758   0.161  1.00  0.00    -0.248 NA
ATOM     49  C   UNL     1       9.071  14.672  -0.346  1.00  0.00     0.031 C 
ATOM     50  C   UNL     1       9.833  10.792  -4.324  1.00  0.00     0.029 A 
ATOM     51  C   UNL     1       9.840  11.769  -3.332  1.00  0.00     0.049 A 
ATOM     52  H   UNL     1       8.620  13.457  -3.197  1.00  0.00     0.167 HD
ATOM     53  C   UNL     1      10.319  12.934  -1.208  1.00  0.00     0.074 A 
ATOM     54  C   UNL     1       9.702  14.232  -1.437  1.00  0.00     0.031 C 
ATOM     55  C   UNL     1      10.499  11.876  -2.049  1.00  0.00     0.031 A 
BRANCH  42  56
ATOM     56  C   UNL     1       6.495  14.081  -5.088  1.00  0.00    -0.014 A 
ATOM     57  C   UNL     1       7.433  14.666  -5.958  1.00  0.00     0.009 A 
ATOM     58  C   UNL     1       5.634  14.961  -4.404  1.00  0.00     0.009 A 
ATOM     59  C   UNL     1       7.539  16.056  -6.088  1.00  0.00     0.001 A 
ATOM     60  C   UNL     1       5.712  16.348  -4.560  1.00  0.00     0.001 A 
ATOM     61  C   UNL     1       6.682  16.897  -5.384  1.00  0.00     0.000 A 
ENDBRANCH  42  56
BRANCH  43  62
ATOM     62  C   UNL     1       8.640  14.265   2.948  1.00  0.00    -0.014 A 
ATOM     63  C   UNL     1       9.822  14.951   3.264  1.00  0.00     0.009 A 
ATOM     64  C   UNL     1       7.455  14.656   3.598  1.00  0.00     0.009 A 
ATOM     65  C   UNL     1       9.812  16.021   4.165  1.00  0.00     0.001 A 
ATOM     66  C   UNL     1       7.446  15.722   4.501  1.00  0.00     0.001 A 
ATOM     67  C   UNL     1       8.621  16.416   4.772  1.00  0.00     0.000 A 
ENDBRANCH  43  62
BRANCH  55  68
ATOM     68  C   UNL     1      11.235  10.683  -1.516  1.00  0.00    -0.014 A 
ATOM     69  C   UNL     1      10.762   9.891  -0.457  1.00  0.00     0.009 A 
ATOM     70  C   UNL     1      12.436  10.320  -2.142  1.00  0.00     0.009 A 
ATOM     71  C   UNL     1      11.495   8.785  -0.016  1.00  0.00     0.001 A 
ATOM     72  C   UNL     1      13.155   9.203  -1.716  1.00  0.00     0.001 A 
ATOM     73  C   UNL     1      12.689   8.440  -0.648  1.00  0.00     0.000 A 
ENDBRANCH  55  68
ENDBRANCH  29  30
ENDBRANCH  22  24
ENDBRANCH  21  22
ENDBRANCH  20  21
ENDBRANCH   1  20
TORSDOF 14
