REMARK SMILES CS(=O)(=O)c1ccc(C2=NN(c3ccc(C(=O)OCCOC(=O)c4ccc(-c5c6nc(c(-c7ccccc7)c7ccc([nH]7)c(-c7ccccc7)c7nc(c(-c8ccccc8)c8ccc5[nH]8)C=C7)C=C6)cc4)cc3)[C@H](c3cccs3)C2)cc1
REMARK SMILES IDX 19 1 18 2 16 3 17 4 15 5 12 6 13 7 73 8 14 9 72 10 11 11
REMARK SMILES IDX 9 12 10 13 80 14 74 15 8 16 5 17 6 18 82 19 7 20 81 21 2 22
REMARK SMILES IDX 1 23 3 24 4 25 75 26 76 27 79 28 77 29 78 30 20 31 21 32
REMARK SMILES IDX 22 33 23 34 24 35 25 36 71 37 26 38 70 39 27 40 28 41 29 42
REMARK SMILES IDX 64 43 30 44 69 45 63 46 65 47 31 48 68 49 62 50 61 51 32 53
REMARK SMILES IDX 54 54 39 55 53 56 40 57 43 58 52 59 66 60 41 61 42 62 51 64
REMARK SMILES IDX 67 65 44 66 33 67 34 68 38 69 35 70 37 71 36 72 55 73 56 74
REMARK SMILES IDX 60 75 57 76 59 77 58 78 45 79 46 80 50 81 47 82 49 83 48 84
REMARK H PARENT 65 52 43 63
REMARK Flexibility Score: inf
ROOT
ATOM      1  C   UNL     1       7.991  -6.408  12.085  1.00  0.00     0.275 C 
ENDROOT
BRANCH   1   2
ATOM      2  O   UNL     1       6.858  -5.817  11.420  1.00  0.00    -0.458 OA
BRANCH   2   3
ATOM      3  C   UNL     1       6.876  -4.467  11.304  1.00  0.00     0.338 C 
ATOM      4  O   UNL     1       7.730  -3.713  11.745  1.00  0.00    -0.246 OA
BRANCH   3   5
ATOM      5  C   UNL     1       5.739  -3.991  10.477  1.00  0.00     0.060 A 
ATOM      6  C   UNL     1       3.627  -2.972   8.924  1.00  0.00     0.060 A 
ATOM      7  C   UNL     1       4.822  -2.259   9.044  1.00  0.00     0.029 A 
ATOM      8  C   UNL     1       3.512  -4.212   9.568  1.00  0.00     0.029 A 
ATOM      9  C   UNL     1       5.855  -2.747   9.842  1.00  0.00     0.018 A 
ATOM     10  C   UNL     1       4.563  -4.731  10.331  1.00  0.00     0.018 A 
BRANCH   6  11
ATOM     11  N   UNL     1       2.519  -2.414   8.280  1.00  0.00    -0.257 N 
ATOM     12  C   UNL     1       1.770  -1.085   6.793  1.00  0.00     0.071 C 
ATOM     13  N   UNL     1       2.614  -2.053   6.972  1.00  0.00    -0.176 NA
ATOM     14  C   UNL     1       1.064  -0.582   8.022  1.00  0.00     0.091 C 
ATOM     15  C   UNL     1       1.667  -1.515   9.075  1.00  0.00     0.154 C 
BRANCH  12  16
ATOM     16  C   UNL     1       1.464  -0.533   5.465  1.00  0.00    -0.002 A 
ATOM     17  C   UNL     1       0.762   0.411   2.945  1.00  0.00     0.067 A 
ATOM     18  C   UNL     1       0.827  -0.967   3.170  1.00  0.00     0.021 A 
ATOM     19  C   UNL     1       1.059   1.318   3.971  1.00  0.00     0.021 A 
ATOM     20  C   UNL     1       1.196  -1.437   4.430  1.00  0.00     0.011 A 
ATOM     21  C   UNL     1       1.399   0.844   5.242  1.00  0.00     0.011 A 
BRANCH  17  22
ATOM     22  S   UNL     1       0.280   1.036   1.351  1.00  0.00     0.175 S 
ATOM     23  C   UNL     1       1.074  -0.007   0.158  1.00  0.00     0.163 C 
ATOM     24  O   UNL     1       0.866   2.357   1.218  1.00  0.00    -0.224 OA
ATOM     25  O   UNL     1      -1.153   0.838   1.250  1.00  0.00    -0.224 OA
ENDBRANCH  17  22
ENDBRANCH  12  16
BRANCH  15  26
ATOM     26  C   UNL     1       0.697  -2.236   9.985  1.00  0.00     0.030 A 
ATOM     27  C   UNL     1       0.929  -2.598  11.303  1.00  0.00     0.017 A 
ATOM     28  S   UNL     1      -0.809  -2.847   9.441  1.00  0.00    -0.147 S 
ATOM     29  C   UNL     1      -0.124  -3.381  11.854  1.00  0.00     0.012 A 
ATOM     30  C   UNL     1      -1.143  -3.574  10.950  1.00  0.00     0.065 A 
ENDBRANCH  15  26
ENDBRANCH   6  11
ENDBRANCH   3   5
ENDBRANCH   2   3
ENDBRANCH   1   2
BRANCH   1  31
ATOM     31  C   UNL     1       8.986  -6.969  11.071  1.00  0.00     0.275 C 
BRANCH  31  32
ATOM     32  O   UNL     1       9.613  -5.903  10.334  1.00  0.00    -0.458 OA
BRANCH  32  33
ATOM     33  C   UNL     1       9.208  -5.766   9.051  1.00  0.00     0.338 C 
ATOM     34  O   UNL     1       8.412  -6.456   8.440  1.00  0.00    -0.246 OA
BRANCH  33  35
ATOM     35  C   UNL     1       9.872  -4.601   8.452  1.00  0.00     0.060 A 
ATOM     36  C   UNL     1       9.354  -3.329   8.689  1.00  0.00     0.016 A 
ATOM     37  C   UNL     1      10.921  -4.777   7.553  1.00  0.00     0.016 A 
ATOM     38  C   UNL     1       9.831  -2.230   7.978  1.00  0.00     0.010 A 
ATOM     39  C   UNL     1      11.448  -3.663   6.892  1.00  0.00     0.010 A 
ATOM     40  C   UNL     1      10.888  -2.383   7.073  1.00  0.00    -0.014 A 
BRANCH  40  41
ATOM     41  C   UNL     1      11.386  -1.233   6.270  1.00  0.00     0.031 A 
ATOM     42  C   UNL     1      11.319  -1.294   4.767  1.00  0.00     0.074 A 
ATOM     43  C   UNL     1      11.923  -0.151   6.867  1.00  0.00     0.049 A 
ATOM     44  N   UNL     1      11.923  -0.545   3.880  1.00  0.00    -0.248 NA
ATOM     45  C   UNL     1      10.470  -2.348   4.186  1.00  0.00     0.031 C 
ATOM     46  C   UNL     1      11.994   0.082   8.311  1.00  0.00     0.029 A 
ATOM     47  N   UNL     1      12.529   0.957   6.323  1.00  0.00    -0.354 N 
ATOM     48  C   UNL     1      11.586  -1.081   2.642  1.00  0.00     0.074 A 
ATOM     49  C   UNL     1      10.712  -2.207   2.890  1.00  0.00     0.031 C 
ATOM     50  C   UNL     1      12.601   1.258   8.537  1.00  0.00     0.029 A 
ATOM     51  C   UNL     1      13.039   1.819   7.264  1.00  0.00     0.049 A 
ATOM     52  H   UNL     1      12.592   1.116   5.354  1.00  0.00     0.167 HD
ATOM     53  C   UNL     1      11.983  -0.676   1.413  1.00  0.00     0.031 A 
ATOM     54  C   UNL     1      13.821   2.907   7.125  1.00  0.00     0.031 A 
ATOM     55  C   UNL     1      12.807   0.476   1.167  1.00  0.00     0.049 A 
ATOM     56  C   UNL     1      14.275   3.317   5.752  1.00  0.00     0.074 A 
ATOM     57  C   UNL     1      13.247   0.977  -0.046  1.00  0.00     0.029 A 
ATOM     58  N   UNL     1      13.297   1.317   2.152  1.00  0.00    -0.354 N 
ATOM     59  N   UNL     1      13.996   2.772   4.593  1.00  0.00    -0.248 NA
ATOM     60  C   UNL     1      15.168   4.483   5.670  1.00  0.00     0.031 C 
ATOM     61  C   UNL     1      14.033   2.105   0.207  1.00  0.00     0.029 A 
ATOM     62  C   UNL     1      14.044   2.329   1.574  1.00  0.00     0.049 A 
ATOM     63  H   UNL     1      13.139   1.212   3.117  1.00  0.00     0.167 HD
ATOM     64  C   UNL     1      14.656   3.542   3.645  1.00  0.00     0.074 A 
ATOM     65  C   UNL     1      15.341   4.598   4.361  1.00  0.00     0.031 C 
ATOM     66  C   UNL     1      14.695   3.386   2.301  1.00  0.00     0.031 A 
BRANCH  53  67
ATOM     67  C   UNL     1      11.571  -1.508   0.232  1.00  0.00    -0.014 A 
ATOM     68  C   UNL     1      10.266  -1.466  -0.279  1.00  0.00     0.009 A 
ATOM     69  C   UNL     1      12.534  -2.294  -0.421  1.00  0.00     0.009 A 
ATOM     70  C   UNL     1       9.930  -2.213  -1.412  1.00  0.00     0.001 A 
ATOM     71  C   UNL     1      12.202  -3.020  -1.565  1.00  0.00     0.001 A 
ATOM     72  C   UNL     1      10.899  -2.983  -2.057  1.00  0.00     0.000 A 
ENDBRANCH  53  67
BRANCH  54  73
ATOM     73  C   UNL     1      14.287   3.651   8.326  1.00  0.00    -0.014 A 
ATOM     74  C   UNL     1      13.828   4.951   8.585  1.00  0.00     0.009 A 
ATOM     75  C   UNL     1      15.211   3.069   9.208  1.00  0.00     0.009 A 
ATOM     76  C   UNL     1      14.305   5.661   9.690  1.00  0.00     0.001 A 
ATOM     77  C   UNL     1      15.662   3.769  10.328  1.00  0.00     0.001 A 
ATOM     78  C   UNL     1      15.217   5.068  10.562  1.00  0.00     0.000 A 
ENDBRANCH  54  73
BRANCH  66  79
ATOM     79  C   UNL     1      15.450   4.411   1.508  1.00  0.00    -0.014 A 
ATOM     80  C   UNL     1      16.851   4.401   1.452  1.00  0.00     0.009 A 
ATOM     81  C   UNL     1      14.741   5.364   0.761  1.00  0.00     0.009 A 
ATOM     82  C   UNL     1      17.530   5.343   0.676  1.00  0.00     0.001 A 
ATOM     83  C   UNL     1      15.421   6.290  -0.031  1.00  0.00     0.001 A 
ATOM     84  C   UNL     1      16.815   6.282  -0.068  1.00  0.00     0.000 A 
ENDBRANCH  66  79
ENDBRANCH  40  41
ENDBRANCH  33  35
ENDBRANCH  32  33
ENDBRANCH  31  32
ENDBRANCH   1  31
TORSDOF 15
