REMARK SMILES Cc1ccc(Nc2c(F)cccc2I)c(CC(=O)OCCOC(=O)c2ccc(-c3c4nc(c(-c5ccccc5)c5ccc([nH]5)c(-c5ccccc5)c5nc(c(-c6ccccc6)c6ccc3[nH]6)C=C5)C=C4)cc2)c1
REMARK SMILES IDX 20 1 19 2 17 3 18 4 16 5 15 6 1 7 2 8 3 9 73 10 4 11 5 12
REMARK SMILES IDX 6 13 7 15 8 16 13 17 9 18 10 19 12 20 14 21 11 22 21 23
REMARK SMILES IDX 22 24 23 25 24 26 25 27 26 28 72 29 27 30 71 31 28 32 29 33
REMARK SMILES IDX 30 34 65 35 31 36 70 37 64 38 66 39 32 40 69 41 63 42 62 43
REMARK SMILES IDX 33 45 55 46 40 47 54 48 41 49 44 50 53 51 67 52 42 53 43 54
REMARK SMILES IDX 52 56 68 57 45 58 34 59 35 60 39 61 36 62 38 63 37 64 56 65
REMARK SMILES IDX 57 66 61 67 58 68 60 69 59 70 46 71 47 72 51 73 48 74 50 75
REMARK SMILES IDX 49 76
REMARK H PARENT 6 14 66 44 44 55
REMARK Flexibility Score: inf
ROOT
ATOM      1  C   UNL     1      -2.105   0.991  -3.679  1.00  0.00     0.274 C 
ENDROOT
BRANCH   1   2
ATOM      2  O   UNL     1      -1.860   0.860  -2.288  1.00  0.00    -0.462 OA
BRANCH   2   3
ATOM      3  C   UNL     1      -1.014   1.749  -1.700  1.00  0.00     0.310 C 
ATOM      4  O   UNL     1      -0.365   2.594  -2.263  1.00  0.00    -0.252 OA
BRANCH   3   5
ATOM      5  C   UNL     1      -1.028   1.490  -0.206  1.00  0.00     0.160 C 
BRANCH   5   6
ATOM      6  C   UNL     1      -0.394   0.153   0.063  1.00  0.00    -0.013 A 
ATOM      7  C   UNL     1       3.239  -0.941   0.180  1.00  0.00     0.044 C 
ATOM      8  C   UNL     1       1.743  -0.996   0.201  1.00  0.00    -0.051 A 
ATOM      9  C   UNL     1       1.062  -2.213   0.154  1.00  0.00     0.005 A 
ATOM     10  C   UNL     1       1.007   0.180   0.190  1.00  0.00     0.009 A 
ATOM     11  C   UNL     1      -0.335  -2.251   0.070  1.00  0.00     0.026 A 
ATOM     12  C   UNL     1      -1.091  -1.078  -0.005  1.00  0.00     0.042 A 
BRANCH  12  13
ATOM     13  N   UNL     1      -2.473  -1.155  -0.282  1.00  0.00    -0.352 N 
ATOM     14  H   UNL     1      -2.846  -0.372  -0.748  1.00  0.00     0.167 HD
BRANCH  13  15
ATOM     15  C   UNL     1      -3.410  -2.184   0.006  1.00  0.00     0.088 A 
ATOM     16  C   UNL     1      -3.753  -2.462   1.336  1.00  0.00     0.147 A 
ATOM     17  C   UNL     1      -4.237  -2.742  -0.987  1.00  0.00     0.040 A 
ATOM     18  F   UNL     1      -2.998  -1.983   2.338  1.00  0.00    -0.205 F 
ATOM     19  C   UNL     1      -4.879  -3.218   1.667  1.00  0.00     0.041 A 
ATOM     20  C   UNL     1      -5.427  -3.411  -0.663  1.00  0.00     0.017 A 
ATOM     21  I   UNL     1      -3.604  -2.950  -2.973  1.00  0.00    -0.042 I 
ATOM     22  C   UNL     1      -5.747  -3.649   0.669  1.00  0.00     0.004 A 
ENDBRANCH  13  15
ENDBRANCH  12  13
ENDBRANCH   5   6
ENDBRANCH   3   5
ENDBRANCH   2   3
ENDBRANCH   1   2
BRANCH   1  23
ATOM     23  C   UNL     1      -3.546   0.547  -3.965  1.00  0.00     0.275 C 
BRANCH  23  24
ATOM     24  O   UNL     1      -4.455   0.357  -2.806  1.00  0.00    -0.458 OA
BRANCH  24  25
ATOM     25  C   UNL     1      -4.691   1.144  -1.713  1.00  0.00     0.338 C 
ATOM     26  O   UNL     1      -5.119   0.705  -0.655  1.00  0.00    -0.246 OA
BRANCH  25  27
ATOM     27  C   UNL     1      -4.315   2.556  -1.824  1.00  0.00     0.060 A 
ATOM     28  C   UNL     1      -3.799   3.303  -0.751  1.00  0.00     0.016 A 
ATOM     29  C   UNL     1      -4.325   3.065  -3.099  1.00  0.00     0.016 A 
ATOM     30  C   UNL     1      -3.163   4.513  -1.025  1.00  0.00     0.010 A 
ATOM     31  C   UNL     1      -3.408   4.017  -3.399  1.00  0.00     0.010 A 
ATOM     32  C   UNL     1      -2.954   4.835  -2.368  1.00  0.00    -0.014 A 
BRANCH  32  33
ATOM     33  C   UNL     1      -2.598   6.143  -2.884  1.00  0.00     0.031 A 
ATOM     34  C   UNL     1      -1.237   6.666  -2.719  1.00  0.00     0.074 A 
ATOM     35  C   UNL     1      -3.602   6.717  -3.600  1.00  0.00     0.049 A 
ATOM     36  N   UNL     1      -0.963   7.878  -2.385  1.00  0.00    -0.248 NA
ATOM     37  C   UNL     1      -0.040   5.838  -2.899  1.00  0.00     0.031 C 
ATOM     38  C   UNL     1      -3.631   7.915  -4.412  1.00  0.00     0.029 A 
ATOM     39  N   UNL     1      -4.941   6.287  -3.681  1.00  0.00    -0.354 N 
ATOM     40  C   UNL     1       0.361   8.065  -2.726  1.00  0.00     0.074 A 
ATOM     41  C   UNL     1       0.940   6.748  -2.822  1.00  0.00     0.031 C 
ATOM     42  C   UNL     1      -4.921   8.304  -4.537  1.00  0.00     0.029 A 
ATOM     43  C   UNL     1      -5.741   7.411  -3.722  1.00  0.00     0.049 A 
ATOM     44  H   UNL     1      -5.250   5.352  -3.705  1.00  0.00     0.167 HD
ATOM     45  C   UNL     1       0.765   9.271  -3.217  1.00  0.00     0.031 A 
ATOM     46  C   UNL     1      -6.498   7.731  -2.627  1.00  0.00     0.031 A 
ATOM     47  C   UNL     1      -0.388  10.152  -3.398  1.00  0.00     0.049 A 
ATOM     48  C   UNL     1      -5.948   8.992  -1.995  1.00  0.00     0.074 A 
ATOM     49  C   UNL     1      -1.142  10.452  -4.521  1.00  0.00     0.029 A 
ATOM     50  N   UNL     1      -1.160  10.509  -2.299  1.00  0.00    -0.354 N 
ATOM     51  N   UNL     1      -4.702   9.368  -2.110  1.00  0.00    -0.248 NA
ATOM     52  C   UNL     1      -6.752   9.948  -1.242  1.00  0.00     0.031 C 
ATOM     53  C   UNL     1      -2.410  10.920  -4.084  1.00  0.00     0.029 A 
ATOM     54  C   UNL     1      -2.424  10.903  -2.700  1.00  0.00     0.049 A 
ATOM     55  H   UNL     1      -0.850  10.486  -1.365  1.00  0.00     0.167 HD
ATOM     56  C   UNL     1      -4.555  10.624  -1.596  1.00  0.00     0.074 A 
ATOM     57  C   UNL     1      -5.857  10.930  -1.026  1.00  0.00     0.031 C 
ATOM     58  C   UNL     1      -3.397  11.338  -1.709  1.00  0.00     0.031 A 
BRANCH  45  59
ATOM     59  C   UNL     1       2.099   9.494  -3.883  1.00  0.00    -0.014 A 
ATOM     60  C   UNL     1       2.204  10.397  -4.959  1.00  0.00     0.009 A 
ATOM     61  C   UNL     1       3.290   8.862  -3.482  1.00  0.00     0.009 A 
ATOM     62  C   UNL     1       3.410  10.616  -5.636  1.00  0.00     0.001 A 
ATOM     63  C   UNL     1       4.498   9.061  -4.171  1.00  0.00     0.001 A 
ATOM     64  C   UNL     1       4.556   9.936  -5.250  1.00  0.00     0.000 A 
ENDBRANCH  45  59
BRANCH  46  65
ATOM     65  C   UNL     1      -7.070   6.554  -1.881  1.00  0.00    -0.014 A 
ATOM     66  C   UNL     1      -7.932   5.677  -2.581  1.00  0.00     0.009 A 
ATOM     67  C   UNL     1      -6.563   6.108  -0.650  1.00  0.00     0.009 A 
ATOM     68  C   UNL     1      -8.181   4.371  -2.133  1.00  0.00     0.001 A 
ATOM     69  C   UNL     1      -6.838   4.806  -0.189  1.00  0.00     0.001 A 
ATOM     70  C   UNL     1      -7.614   3.927  -0.946  1.00  0.00     0.000 A 
ENDBRANCH  46  65
BRANCH  58  71
ATOM     71  C   UNL     1      -3.077  12.593  -0.947  1.00  0.00    -0.014 A 
ATOM     72  C   UNL     1      -3.665  12.927   0.275  1.00  0.00     0.009 A 
ATOM     73  C   UNL     1      -2.005  13.404  -1.388  1.00  0.00     0.009 A 
ATOM     74  C   UNL     1      -3.240  14.046   0.997  1.00  0.00     0.001 A 
ATOM     75  C   UNL     1      -1.534  14.479  -0.640  1.00  0.00     0.001 A 
ATOM     76  C   UNL     1      -2.166  14.811   0.547  1.00  0.00     0.000 A 
ENDBRANCH  58  71
ENDBRANCH  32  33
ENDBRANCH  25  27
ENDBRANCH  24  25
ENDBRANCH  23  24
ENDBRANCH   1  23
TORSDOF 14
