REMARK SMILES CC(C)(C)c1cc(Nc2ccccc2C(=O)OCCOC(=O)c2ccc(-c3c4nc(c(-c5ccccc5)c5ccc([nH]5)c(-c5ccccc5)c5nc(c(-c6ccccc6)c6ccc3[nH]6)C=C5)C=C4)cc2)cc2c1OCC2(C)C
REMARK SMILES IDX 18 1 17 2 15 3 16 4 14 5 9 6 10 7 11 8 13 9 12 10 8 11 7 13
REMARK SMILES IDX 5 14 6 15 73 16 72 17 74 18 71 19 76 20 75 21 77 22 78 23
REMARK SMILES IDX 2 24 1 25 3 26 4 27 19 28 20 29 21 30 22 31 23 32 24 33
REMARK SMILES IDX 70 34 25 35 69 36 26 37 27 38 28 39 63 40 29 41 68 42 62 43
REMARK SMILES IDX 64 44 30 45 67 46 61 47 60 48 31 50 53 51 38 52 52 53 39 54
REMARK SMILES IDX 42 55 51 56 65 57 40 58 41 59 50 61 66 62 43 63 32 64 33 65
REMARK SMILES IDX 37 66 34 67 36 68 35 69 54 70 55 71 59 72 56 73 58 74 57 75
REMARK SMILES IDX 44 76 45 77 49 78 46 79 48 80 47 81
REMARK H PARENT 8 12 64 49 42 60
REMARK Flexibility Score: inf
ROOT
ATOM      1  C   UNL     1       2.596  -1.683   7.640  1.00  0.00     0.275 C 
ENDROOT
BRANCH   1   2
ATOM      2  O   UNL     1       3.089  -2.617   6.659  1.00  0.00    -0.458 OA
BRANCH   2   3
ATOM      3  C   UNL     1       4.135  -3.410   7.009  1.00  0.00     0.340 C 
ATOM      4  O   UNL     1       4.717  -3.388   8.075  1.00  0.00    -0.246 OA
BRANCH   3   5
ATOM      5  C   UNL     1       4.444  -4.403   5.932  1.00  0.00     0.083 A 
ATOM      6  C   UNL     1       4.096  -4.243   4.576  1.00  0.00     0.053 A 
ATOM      7  C   UNL     1       4.374  -5.307   3.694  1.00  0.00     0.027 A 
ATOM      8  C   UNL     1       4.934  -6.506   4.137  1.00  0.00     0.002 A 
ATOM      9  C   UNL     1       5.078  -5.589   6.355  1.00  0.00     0.018 A 
ATOM     10  C   UNL     1       5.288  -6.647   5.471  1.00  0.00     0.001 A 
BRANCH   6  11
ATOM     11  N   UNL     1       3.411  -3.101   4.106  1.00  0.00    -0.355 N 
ATOM     12  H   UNL     1       3.772  -2.239   4.417  1.00  0.00     0.167 HD
BRANCH  11  13
ATOM     13  C   UNL     1       2.290  -3.010   3.258  1.00  0.00     0.039 A 
ATOM     14  C   UNL     1       0.815  -1.576   1.866  1.00  0.00     0.002 A 
ATOM     15  C   UNL     1       1.898  -1.747   2.761  1.00  0.00     0.034 A 
ATOM     16  C   UNL     1       0.209  -2.756   1.429  1.00  0.00     0.127 A 
ATOM     17  C   UNL     1       0.573  -4.001   1.915  1.00  0.00     0.006 A 
ATOM     18  O   UNL     1      -0.762  -2.834   0.466  1.00  0.00    -0.492 OA
ATOM     19  C   UNL     1       1.583  -4.137   2.847  1.00  0.00     0.034 A 
ATOM     20  C   UNL     1      -0.209  -5.087   1.264  1.00  0.00     0.028 C 
ATOM     21  C   UNL     1      -1.144  -4.229   0.392  1.00  0.00     0.240 C 
ATOM     22  C   UNL     1       0.707  -5.982   0.419  1.00  0.00     0.020 C 
ATOM     23  C   UNL     1      -0.988  -5.933   2.276  1.00  0.00     0.020 C 
BRANCH  14  24
ATOM     24  C   UNL     1       0.365  -0.185   1.392  1.00  0.00    -0.009 C 
ATOM     25  C   UNL     1       0.870   0.047  -0.044  1.00  0.00     0.016 C 
ATOM     26  C   UNL     1       0.911   0.966   2.276  1.00  0.00     0.016 C 
ATOM     27  C   UNL     1      -1.175  -0.041   1.425  1.00  0.00     0.016 C 
ENDBRANCH  14  24
ENDBRANCH  11  13
ENDBRANCH   6  11
ENDBRANCH   3   5
ENDBRANCH   2   3
ENDBRANCH   1   2
BRANCH   1  28
ATOM     28  C   UNL     1       1.232  -2.122   8.178  1.00  0.00     0.275 C 
BRANCH  28  29
ATOM     29  O   UNL     1       1.386  -3.253   9.056  1.00  0.00    -0.458 OA
BRANCH  29  30
ATOM     30  C   UNL     1       1.087  -4.454   8.515  1.00  0.00     0.338 C 
ATOM     31  O   UNL     1       0.586  -4.680   7.423  1.00  0.00    -0.246 OA
BRANCH  30  32
ATOM     32  C   UNL     1       1.650  -5.505   9.374  1.00  0.00     0.060 A 
ATOM     33  C   UNL     1       1.234  -5.697  10.691  1.00  0.00     0.016 A 
ATOM     34  C   UNL     1       2.615  -6.340   8.806  1.00  0.00     0.016 A 
ATOM     35  C   UNL     1       1.812  -6.727  11.442  1.00  0.00     0.010 A 
ATOM     36  C   UNL     1       3.200  -7.355   9.557  1.00  0.00     0.010 A 
ATOM     37  C   UNL     1       2.800  -7.562  10.881  1.00  0.00    -0.014 A 
BRANCH  37  38
ATOM     38  C   UNL     1       3.304  -8.739  11.629  1.00  0.00     0.031 A 
ATOM     39  C   UNL     1       4.696  -8.796  12.183  1.00  0.00     0.074 A 
ATOM     40  C   UNL     1       2.485  -9.799  11.765  1.00  0.00     0.049 A 
ATOM     41  N   UNL     1       5.220  -9.690  12.985  1.00  0.00    -0.248 NA
ATOM     42  C   UNL     1       5.629  -7.737  11.772  1.00  0.00     0.031 C 
ATOM     43  C   UNL     1       1.149  -9.905  11.175  1.00  0.00     0.029 A 
ATOM     44  N   UNL     1       2.644 -10.976  12.451  1.00  0.00    -0.354 N 
ATOM     45  C   UNL     1       6.535  -9.294  13.190  1.00  0.00     0.074 A 
ATOM     46  C   UNL     1       6.748  -8.113  12.380  1.00  0.00     0.031 C 
ATOM     47  C   UNL     1       0.585 -11.053  11.576  1.00  0.00     0.029 A 
ATOM     48  C   UNL     1       1.522 -11.768  12.438  1.00  0.00     0.049 A 
ATOM     49  H   UNL     1       3.479 -11.228  12.908  1.00  0.00     0.167 HD
ATOM     50  C   UNL     1       7.466  -9.854  14.000  1.00  0.00     0.031 A 
ATOM     51  C   UNL     1       1.257 -12.921  13.079  1.00  0.00     0.031 A 
ATOM     52  C   UNL     1       7.244 -11.039  14.791  1.00  0.00     0.049 A 
ATOM     53  C   UNL     1       2.287 -13.500  14.006  1.00  0.00     0.074 A 
ATOM     54  C   UNL     1       8.095 -11.633  15.708  1.00  0.00     0.029 A 
ATOM     55  N   UNL     1       6.097 -11.817  14.751  1.00  0.00    -0.354 N 
ATOM     56  N   UNL     1       3.479 -13.042  14.300  1.00  0.00    -0.248 NA
ATOM     57  C   UNL     1       1.925 -14.738  14.708  1.00  0.00     0.031 C 
ATOM     58  C   UNL     1       7.491 -12.805  16.172  1.00  0.00     0.029 A 
ATOM     59  C   UNL     1       6.233 -12.904  15.601  1.00  0.00     0.049 A 
ATOM     60  H   UNL     1       5.303 -11.626  14.201  1.00  0.00     0.167 HD
ATOM     61  C   UNL     1       4.008 -13.930  15.227  1.00  0.00     0.074 A 
ATOM     62  C   UNL     1       2.992 -14.933  15.472  1.00  0.00     0.031 C 
ATOM     63  C   UNL     1       5.229 -13.916  15.817  1.00  0.00     0.031 A 
BRANCH  50  64
ATOM     64  C   UNL     1       8.810  -9.184  14.110  1.00  0.00    -0.014 A 
ATOM     65  C   UNL     1       9.970  -9.850  13.681  1.00  0.00     0.009 A 
ATOM     66  C   UNL     1       8.944  -7.941  14.750  1.00  0.00     0.009 A 
ATOM     67  C   UNL     1      11.233  -9.295  13.905  1.00  0.00     0.001 A 
ATOM     68  C   UNL     1      10.206  -7.375  14.946  1.00  0.00     0.001 A 
ATOM     69  C   UNL     1      11.349  -8.057  14.534  1.00  0.00     0.000 A 
ENDBRANCH  50  64
BRANCH  51  70
ATOM     70  C   UNL     1      -0.086 -13.539  12.927  1.00  0.00    -0.014 A 
ATOM     71  C   UNL     1      -0.479 -14.113  11.708  1.00  0.00     0.009 A 
ATOM     72  C   UNL     1      -1.009 -13.488  13.982  1.00  0.00     0.009 A 
ATOM     73  C   UNL     1      -1.777 -14.599  11.540  1.00  0.00     0.001 A 
ATOM     74  C   UNL     1      -2.297 -14.003  13.822  1.00  0.00     0.001 A 
ATOM     75  C   UNL     1      -2.683 -14.547  12.598  1.00  0.00     0.000 A 
ENDBRANCH  51  70
BRANCH  63  76
ATOM     76  C   UNL     1       5.552 -15.033  16.771  1.00  0.00    -0.014 A 
ATOM     77  C   UNL     1       5.729 -14.763  18.138  1.00  0.00     0.009 A 
ATOM     78  C   UNL     1       5.752 -16.344  16.309  1.00  0.00     0.009 A 
ATOM     79  C   UNL     1       6.104 -15.779  19.020  1.00  0.00     0.001 A 
ATOM     80  C   UNL     1       6.093 -17.365  17.198  1.00  0.00     0.001 A 
ATOM     81  C   UNL     1       6.277 -17.080  18.551  1.00  0.00     0.000 A 
ENDBRANCH  63  76
ENDBRANCH  37  38
ENDBRANCH  30  32
ENDBRANCH  29  30
ENDBRANCH  28  29
ENDBRANCH   1  28
TORSDOF 14
