REMARK SMILES Cc1ccc(F)c(-c2ncccc2C(=O)OCCOC(=O)c2ccc(-c3c4nc(c(-c5ccccc5)c5ccc([nH]5)c(-c5ccccc5)c5nc(c(-c6ccccc6)c6ccc3[nH]6)C=C5)C=C4)cc2)c1
REMARK SMILES IDX 18 1 17 2 16 3 14 4 15 5 13 6 8 7 9 8 10 9 12 10 11 11 7 12
REMARK SMILES IDX 1 13 2 14 3 15 70 16 4 17 5 18 6 19 19 20 20 21 21 22 22 23
REMARK SMILES IDX 23 24 69 25 24 26 68 27 25 28 26 29 27 30 62 31 28 32 67 33
REMARK SMILES IDX 61 34 63 35 29 36 66 37 60 38 59 39 30 41 52 42 37 43 51 44
REMARK SMILES IDX 38 45 41 46 50 47 64 48 39 49 40 50 49 52 65 53 42 54 31 55
REMARK SMILES IDX 32 56 36 57 33 58 35 59 34 60 53 61 54 62 58 63 55 64 57 65
REMARK SMILES IDX 56 66 43 67 44 68 48 69 45 70 47 71 46 72
REMARK H PARENT 63 40 41 51
REMARK Flexibility Score: inf
ROOT
ATOM      1  C   UNL     1       1.829  -3.680   4.225  1.00  0.00     0.275 C 
ENDROOT
BRANCH   1   2
ATOM      2  C   UNL     1       0.335  -3.987   4.243  1.00  0.00     0.275 C 
BRANCH   2   3
ATOM      3  O   UNL     1      -0.133  -4.242   2.896  1.00  0.00    -0.458 OA
BRANCH   3   4
ATOM      4  C   UNL     1      -1.088  -3.394   2.434  1.00  0.00     0.340 C 
ATOM      5  O   UNL     1      -1.624  -2.506   3.074  1.00  0.00    -0.246 OA
BRANCH   4   6
ATOM      6  C   UNL     1      -1.468  -3.750   1.052  1.00  0.00     0.086 A 
ATOM      7  C   UNL     1      -1.318  -2.898  -0.065  1.00  0.00     0.088 A 
ATOM      8  N   UNL     1      -1.811  -3.233  -1.285  1.00  0.00    -0.255 NA
ATOM      9  C   UNL     1      -2.501  -4.399  -1.378  1.00  0.00     0.112 A 
ATOM     10  C   UNL     1      -2.149  -4.963   0.905  1.00  0.00     0.019 A 
ATOM     11  C   UNL     1      -2.689  -5.287  -0.329  1.00  0.00     0.021 A 
BRANCH   7  12
ATOM     12  C   UNL     1      -0.723  -1.552   0.024  1.00  0.00     0.037 A 
ATOM     13  C   UNL     1       3.324   1.080   0.570  1.00  0.00     0.044 C 
ATOM     14  C   UNL     1       1.931   0.356   0.525  1.00  0.00    -0.050 A 
ATOM     15  C   UNL     1       0.917   1.361   1.642  1.00  0.00     0.006 A 
ATOM     16  C   UNL     1       1.016  -1.211  -0.386  1.00  0.00     0.016 A 
ATOM     17  C   UNL     1      -0.768   0.953   1.872  1.00  0.00     0.040 A 
ATOM     18  C   UNL     1      -1.540  -0.425   1.100  1.00  0.00     0.132 A 
ATOM     19  F   UNL     1      -2.833  -0.648   1.390  1.00  0.00    -0.206 F 
ENDBRANCH   7  12
ENDBRANCH   4   6
ENDBRANCH   3   4
ENDBRANCH   2   3
ENDBRANCH   1   2
BRANCH   1  20
ATOM     20  O   UNL     1       2.029  -2.520   3.404  1.00  0.00    -0.458 OA
BRANCH  20  21
ATOM     21  C   UNL     1       2.510  -2.785   2.174  1.00  0.00     0.338 C 
ATOM     22  O   UNL     1       3.017  -3.815   1.765  1.00  0.00    -0.246 OA
BRANCH  21  23
ATOM     23  C   UNL     1       2.226  -1.656   1.299  1.00  0.00     0.060 A 
ATOM     24  C   UNL     1       0.679  -0.753   1.411  1.00  0.00     0.016 A 
ATOM     25  C   UNL     1       3.202  -1.457  -0.141  1.00  0.00     0.016 A 
ATOM     26  C   UNL     1       0.151   0.431  -0.143  1.00  0.00     0.010 A 
ATOM     27  C   UNL     1       2.765  -0.356  -1.474  1.00  0.00     0.010 A 
ATOM     28  C   UNL     1       1.287   0.622  -1.537  1.00  0.00    -0.014 A 
BRANCH  28  29
ATOM     29  C   UNL     1       1.151   1.760  -2.560  1.00  0.00     0.031 A 
ATOM     30  C   UNL     1       1.828   1.703  -3.927  1.00  0.00     0.074 A 
ATOM     31  C   UNL     1       0.546   2.939  -2.262  1.00  0.00     0.049 A 
ATOM     32  N   UNL     1       2.095   2.683  -4.766  1.00  0.00    -0.248 NA
ATOM     33  C   UNL     1       2.331   0.403  -4.384  1.00  0.00     0.031 C 
ATOM     34  C   UNL     1      -0.062   3.299  -0.992  1.00  0.00     0.029 A 
ATOM     35  N   UNL     1       0.341   4.088  -3.011  1.00  0.00    -0.354 N 
ATOM     36  C   UNL     1       2.880   2.133  -5.778  1.00  0.00     0.074 A 
ATOM     37  C   UNL     1       3.090   0.747  -5.417  1.00  0.00     0.031 C 
ATOM     38  C   UNL     1      -0.680   4.478  -1.066  1.00  0.00     0.029 A 
ATOM     39  C   UNL     1      -0.381   5.065  -2.352  1.00  0.00     0.049 A 
ATOM     40  H   UNL     1       0.679   4.197  -3.929  1.00  0.00     0.167 HD
ATOM     41  C   UNL     1       3.351   2.699  -6.922  1.00  0.00     0.031 A 
ATOM     42  C   UNL     1      -0.738   6.324  -2.669  1.00  0.00     0.031 A 
ATOM     43  C   UNL     1       3.032   4.033  -7.374  1.00  0.00     0.049 A 
ATOM     44  C   UNL     1      -0.280   6.903  -3.964  1.00  0.00     0.074 A 
ATOM     45  C   UNL     1       3.380   4.645  -8.569  1.00  0.00     0.029 A 
ATOM     46  N   UNL     1       2.249   4.942  -6.680  1.00  0.00    -0.354 N 
ATOM     47  N   UNL     1       0.481   6.359  -4.878  1.00  0.00    -0.248 NA
ATOM     48  C   UNL     1      -0.716   8.273  -4.266  1.00  0.00     0.031 C 
ATOM     49  C   UNL     1       2.819   5.928  -8.591  1.00  0.00     0.029 A 
ATOM     50  C   UNL     1       2.091   6.100  -7.428  1.00  0.00     0.049 A 
ATOM     51  H   UNL     1       1.863   4.789  -5.787  1.00  0.00     0.167 HD
ATOM     52  C   UNL     1       0.598   7.311  -5.877  1.00  0.00     0.074 A 
ATOM     53  C   UNL     1      -0.188   8.456  -5.468  1.00  0.00     0.031 C 
ATOM     54  C   UNL     1       1.304   7.236  -7.027  1.00  0.00     0.031 A 
BRANCH  41  55
ATOM     55  C   UNL     1       4.241   1.858  -7.810  1.00  0.00    -0.014 A 
ATOM     56  C   UNL     1       3.744   0.736  -8.494  1.00  0.00     0.009 A 
ATOM     57  C   UNL     1       5.586   2.219  -8.007  1.00  0.00     0.009 A 
ATOM     58  C   UNL     1       4.583  -0.041  -9.297  1.00  0.00     0.001 A 
ATOM     59  C   UNL     1       6.414   1.463  -8.842  1.00  0.00     0.001 A 
ATOM     60  C   UNL     1       5.917   0.325  -9.473  1.00  0.00     0.000 A 
ENDBRANCH  41  55
BRANCH  42  61
ATOM     61  C   UNL     1      -1.565   7.133  -1.726  1.00  0.00    -0.014 A 
ATOM     62  C   UNL     1      -2.898   7.440  -2.039  1.00  0.00     0.009 A 
ATOM     63  C   UNL     1      -1.040   7.580  -0.501  1.00  0.00     0.009 A 
ATOM     64  C   UNL     1      -3.679   8.194  -1.160  1.00  0.00     0.001 A 
ATOM     65  C   UNL     1      -1.837   8.298   0.395  1.00  0.00     0.001 A 
ATOM     66  C   UNL     1      -3.152   8.614   0.060  1.00  0.00     0.000 A 
ENDBRANCH  42  61
BRANCH  54  67
ATOM     67  C   UNL     1       1.202   8.411  -7.952  1.00  0.00    -0.014 A 
ATOM     68  C   UNL     1       1.834   9.629  -7.658  1.00  0.00     0.009 A 
ATOM     69  C   UNL     1       0.444   8.300  -9.127  1.00  0.00     0.009 A 
ATOM     70  C   UNL     1       1.677  10.726  -8.507  1.00  0.00     0.001 A 
ATOM     71  C   UNL     1       0.312   9.390  -9.988  1.00  0.00     0.001 A 
ATOM     72  C   UNL     1       0.920  10.604  -9.672  1.00  0.00     0.000 A 
ENDBRANCH  54  67
ENDBRANCH  28  29
ENDBRANCH  21  23
ENDBRANCH  20  21
ENDBRANCH   1  20
TORSDOF 12
