REMARK SMILES Cc1ccc(C#N)cc1Nc1cc(C)c(N)c(C(=O)OCCOC(=O)c2ccc(-c3c4nc(c(-c5ccccc5)c5ccc([nH]5)c(-c5ccccc5)c5nc(c(-c6ccccc6)c6ccc3[nH]6)C=C5)C=C4)cc2)c1
REMARK SMILES IDX 21 1 20 2 18 3 19 4 17 5 11 6 12 7 74 8 13 9 14 10 15 11
REMARK SMILES IDX 10 12 9 14 1 15 2 16 3 17 4 18 8 19 5 20 6 21 7 22 16 23
REMARK SMILES IDX 22 26 23 27 24 28 25 29 26 30 27 31 73 32 28 33 72 34 29 35
REMARK SMILES IDX 30 36 31 37 66 38 32 39 71 40 65 41 67 42 33 43 70 44 64 45
REMARK SMILES IDX 63 46 34 48 56 49 41 50 55 51 42 52 45 53 54 54 68 55 43 56
REMARK SMILES IDX 44 57 53 59 69 60 46 61 35 62 36 63 40 64 37 65 39 66 38 67
REMARK SMILES IDX 57 68 58 69 62 70 59 71 61 72 60 73 47 74 48 75 52 76 49 77
REMARK SMILES IDX 51 78 50 79
REMARK H PARENT 10 13 16 24 16 25 67 47 45 58
REMARK Flexibility Score: inf
ROOT
ATOM      1  C   UNL     1       4.204   6.577   4.228  1.00  0.00     0.275 C 
ENDROOT
BRANCH   1   2
ATOM      2  O   UNL     1       4.298   5.563   3.202  1.00  0.00    -0.458 OA
BRANCH   2   3
ATOM      3  C   UNL     1       4.301   6.014   1.921  1.00  0.00     0.340 C 
ATOM      4  O   UNL     1       4.158   7.177   1.577  1.00  0.00    -0.246 OA
BRANCH   3   5
ATOM      5  C   UNL     1       4.428   4.892   0.955  1.00  0.00     0.085 A 
ATOM      6  C   UNL     1       3.388   2.939  -0.003  1.00  0.00     0.040 A 
ATOM      7  C   UNL     1       4.164   3.098  -1.154  1.00  0.00     0.031 A 
ATOM      8  C   UNL     1       3.501   3.859   1.041  1.00  0.00     0.044 A 
ATOM      9  C   UNL     1       5.099   4.127  -1.259  1.00  0.00    -0.025 A 
ATOM     10  C   UNL     1       5.843   4.277  -2.559  1.00  0.00     0.047 C 
ATOM     11  C   UNL     1       5.301   4.965  -0.153  1.00  0.00     0.049 A 
BRANCH   6  12
ATOM     12  N   UNL     1       2.367   1.981  -0.018  1.00  0.00    -0.355 N 
ATOM     13  H   UNL     1       2.648   1.042  -0.107  1.00  0.00     0.167 HD
BRANCH  12  14
ATOM     14  C   UNL     1       0.982   2.215   0.082  1.00  0.00     0.043 A 
ATOM     15  C   UNL     1       0.526  -0.297   0.190  1.00  0.00     0.046 C 
ATOM     16  C   UNL     1       0.084   1.142   0.214  1.00  0.00    -0.027 A 
ATOM     17  C   UNL     1      -1.293   1.411   0.312  1.00  0.00     0.007 A 
ATOM     18  C   UNL     1      -1.775   2.723   0.313  1.00  0.00     0.020 A 
ATOM     19  C   UNL     1       0.477   3.529   0.097  1.00  0.00     0.045 A 
ATOM     20  C   UNL     1      -0.887   3.788   0.208  1.00  0.00     0.054 A 
BRANCH  20  21
ATOM     21  C   UNL     1      -1.353   5.145   0.199  1.00  0.00     0.099 C 
ATOM     22  N   UNL     1      -1.718   6.244   0.188  1.00  0.00    -0.192 NA
ENDBRANCH  20  21
ENDBRANCH  12  14
ENDBRANCH   6  12
BRANCH  11  23
ATOM     23  N   UNL     1       6.458   5.726  -0.097  1.00  0.00    -0.398 N 
ATOM     24  H   UNL     1       7.058   5.767  -0.877  1.00  0.00     0.156 HD
ATOM     25  H   UNL     1       6.680   6.225   0.722  1.00  0.00     0.156 HD
ENDBRANCH  11  23
ENDBRANCH   3   5
ENDBRANCH   2   3
ENDBRANCH   1   2
BRANCH   1  26
ATOM     26  C   UNL     1       5.563   6.792   4.897  1.00  0.00     0.275 C 
BRANCH  26  27
ATOM     27  O   UNL     1       6.442   7.550   4.045  1.00  0.00    -0.458 OA
BRANCH  27  28
ATOM     28  C   UNL     1       7.267   6.809   3.279  1.00  0.00     0.338 C 
ATOM     29  O   UNL     1       7.380   5.593   3.248  1.00  0.00    -0.246 OA
BRANCH  28  30
ATOM     30  C   UNL     1       7.992   7.661   2.333  1.00  0.00     0.060 A 
ATOM     31  C   UNL     1       9.375   7.800   2.406  1.00  0.00     0.016 A 
ATOM     32  C   UNL     1       7.314   8.049   1.188  1.00  0.00     0.016 A 
ATOM     33  C   UNL     1      10.065   8.357   1.321  1.00  0.00     0.010 A 
ATOM     34  C   UNL     1       8.033   8.369   0.047  1.00  0.00     0.010 A 
ATOM     35  C   UNL     1       9.406   8.615   0.105  1.00  0.00    -0.014 A 
BRANCH  35  36
ATOM     36  C   UNL     1      10.075   9.201  -1.095  1.00  0.00     0.031 A 
ATOM     37  C   UNL     1       9.428  10.379  -1.805  1.00  0.00     0.074 A 
ATOM     38  C   UNL     1      11.211   8.667  -1.592  1.00  0.00     0.049 A 
ATOM     39  N   UNL     1       9.792  10.977  -2.911  1.00  0.00    -0.248 NA
ATOM     40  C   UNL     1       8.170  10.915  -1.245  1.00  0.00     0.031 C 
ATOM     41  C   UNL     1      11.895   7.481  -1.070  1.00  0.00     0.029 A 
ATOM     42  N   UNL     1      12.006   9.064  -2.642  1.00  0.00    -0.354 N 
ATOM     43  C   UNL     1       8.787  11.901  -3.184  1.00  0.00     0.074 A 
ATOM     44  C   UNL     1       7.741  11.699  -2.218  1.00  0.00     0.031 C 
ATOM     45  C   UNL     1      13.046   7.304  -1.738  1.00  0.00     0.029 A 
ATOM     46  C   UNL     1      13.155   8.319  -2.782  1.00  0.00     0.049 A 
ATOM     47  H   UNL     1      11.774   9.811  -3.239  1.00  0.00     0.167 HD
ATOM     48  C   UNL     1       8.764  12.893  -4.101  1.00  0.00     0.031 A 
ATOM     49  C   UNL     1      14.188   8.444  -3.642  1.00  0.00     0.031 A 
ATOM     50  C   UNL     1       9.855  13.160  -4.990  1.00  0.00     0.049 A 
ATOM     51  C   UNL     1      14.167   9.573  -4.640  1.00  0.00     0.074 A 
ATOM     52  C   UNL     1       9.986  14.198  -5.891  1.00  0.00     0.029 A 
ATOM     53  N   UNL     1      11.009  12.398  -5.068  1.00  0.00    -0.354 N 
ATOM     54  N   UNL     1      13.252  10.496  -4.816  1.00  0.00    -0.248 NA
ATOM     55  C   UNL     1      15.318   9.692  -5.548  1.00  0.00     0.031 C 
ATOM     56  C   UNL     1      11.184  14.017  -6.577  1.00  0.00     0.029 A 
ATOM     57  C   UNL     1      11.845  12.927  -6.031  1.00  0.00     0.049 A 
ATOM     58  H   UNL     1      11.204  11.603  -4.521  1.00  0.00     0.167 HD
ATOM     59  C   UNL     1      13.728  11.321  -5.827  1.00  0.00     0.074 A 
ATOM     60  C   UNL     1      15.020  10.799  -6.220  1.00  0.00     0.031 C 
ATOM     61  C   UNL     1      13.144  12.410  -6.382  1.00  0.00     0.031 A 
BRANCH  48  62
ATOM     62  C   UNL     1       7.565  13.805  -4.152  1.00  0.00    -0.014 A 
ATOM     63  C   UNL     1       6.801  13.892  -5.326  1.00  0.00     0.009 A 
ATOM     64  C   UNL     1       7.248  14.656  -3.079  1.00  0.00     0.009 A 
ATOM     65  C   UNL     1       5.766  14.822  -5.435  1.00  0.00     0.001 A 
ATOM     66  C   UNL     1       6.183  15.553  -3.172  1.00  0.00     0.001 A 
ATOM     67  C   UNL     1       5.454  15.647  -4.356  1.00  0.00     0.000 A 
ENDBRANCH  48  62
BRANCH  49  68
ATOM     68  C   UNL     1      15.350   7.515  -3.534  1.00  0.00    -0.014 A 
ATOM     69  C   UNL     1      15.202   6.140  -3.784  1.00  0.00     0.009 A 
ATOM     70  C   UNL     1      16.601   7.984  -3.100  1.00  0.00     0.009 A 
ATOM     71  C   UNL     1      16.260   5.254  -3.561  1.00  0.00     0.001 A 
ATOM     72  C   UNL     1      17.670   7.101  -2.916  1.00  0.00     0.001 A 
ATOM     73  C   UNL     1      17.494   5.735  -3.130  1.00  0.00     0.000 A 
ENDBRANCH  49  68
BRANCH  61  74
ATOM     74  C   UNL     1      13.874  13.160  -7.461  1.00  0.00    -0.014 A 
ATOM     75  C   UNL     1      14.261  14.492  -7.229  1.00  0.00     0.009 A 
ATOM     76  C   UNL     1      13.975  12.635  -8.756  1.00  0.00     0.009 A 
ATOM     77  C   UNL     1      14.678  15.301  -8.286  1.00  0.00     0.001 A 
ATOM     78  C   UNL     1      14.431  13.437  -9.804  1.00  0.00     0.001 A 
ATOM     79  C   UNL     1      14.760  14.773  -9.572  1.00  0.00     0.000 A 
ENDBRANCH  61  74
ENDBRANCH  35  36
ENDBRANCH  28  30
ENDBRANCH  27  28
ENDBRANCH  26  27
ENDBRANCH   1  26
TORSDOF 15
