REMARK SMILES COc1ccc(OCCNc2c(Cl)cccc2C(=O)OCCOC(=O)c2ccc(-c3c4nc(c(-c5ccccc5)c5ccc([nH]5)c(-c5ccccc5)c5nc(c(-c6ccccc6)c6ccc3[nH]6)C=C5)C=C4)cc2)cc1
REMARK SMILES IDX 18 1 19 2 17 3 11 4 12 5 13 6 14 7 16 8 15 9 10 10 9 12 8 13
REMARK SMILES IDX 7 14 6 15 3 16 4 17 75 18 5 19 74 20 2 21 1 22 20 23 21 24
REMARK SMILES IDX 22 25 23 26 24 27 25 28 26 29 27 30 73 31 28 32 72 33 29 34
REMARK SMILES IDX 30 35 31 36 66 37 32 38 71 39 65 40 67 41 33 42 70 43 64 44
REMARK SMILES IDX 63 45 34 47 56 48 41 49 55 50 42 51 45 52 54 53 68 54 43 55
REMARK SMILES IDX 44 56 53 58 69 59 46 60 35 61 36 62 40 63 37 64 39 65 38 66
REMARK SMILES IDX 57 67 58 68 62 69 59 70 61 71 60 72 47 73 48 74 52 75 49 76
REMARK SMILES IDX 51 77 50 78
REMARK H PARENT 10 11 67 46 45 57
REMARK Flexibility Score: inf
ROOT
ATOM      1  C   UNL     1       5.579   5.153   3.005  1.00  0.00     0.340 C 
ATOM      2  O   UNL     1       6.597   5.810   3.140  1.00  0.00    -0.246 OA
ENDROOT
BRANCH   1   3
ATOM      3  C   UNL     1       5.597   3.889   2.243  1.00  0.00     0.084 A 
ATOM      4  C   UNL     1       5.087   3.793   0.944  1.00  0.00     0.068 A 
ATOM      5  C   UNL     1       5.517   2.666   0.188  1.00  0.00     0.065 A 
ATOM      6  Cl  UNL     1       5.164   2.524  -1.504  1.00  0.00    -0.082 Cl
ATOM      7  C   UNL     1       6.302   1.641   0.725  1.00  0.00     0.023 A 
ATOM      8  C   UNL     1       6.367   2.839   2.784  1.00  0.00     0.018 A 
ATOM      9  C   UNL     1       6.693   1.706   2.046  1.00  0.00     0.003 A 
BRANCH   4  10
ATOM     10  N   UNL     1       4.059   4.568   0.433  1.00  0.00    -0.380 N 
ATOM     11  H   UNL     1       3.393   4.074  -0.098  1.00  0.00     0.160 HD
BRANCH  10  12
ATOM     12  C   UNL     1       3.804   5.995   0.554  1.00  0.00     0.154 C 
BRANCH  12  13
ATOM     13  C   UNL     1       3.085   6.519  -0.715  1.00  0.00     0.250 C 
BRANCH  13  14
ATOM     14  O   UNL     1       1.669   6.252  -0.751  1.00  0.00    -0.492 OA
BRANCH  14  15
ATOM     15  C   UNL     1       1.237   4.979  -1.000  1.00  0.00     0.119 A 
ATOM     16  C   UNL     1       0.306   2.336  -1.022  1.00  0.00     0.119 A 
ATOM     17  C   UNL     1      -0.531   3.365  -0.603  1.00  0.00     0.050 A 
ATOM     18  C   UNL     1       1.549   2.642  -1.563  1.00  0.00     0.050 A 
ATOM     19  C   UNL     1      -0.059   4.683  -0.577  1.00  0.00     0.050 A 
ATOM     20  C   UNL     1       1.990   3.970  -1.592  1.00  0.00     0.050 A 
BRANCH  16  21
ATOM     21  O   UNL     1      -0.166   1.055  -0.950  1.00  0.00    -0.497 OA
ATOM     22  C   UNL     1       0.683   0.207  -0.172  1.00  0.00     0.278 C 
ENDBRANCH  16  21
ENDBRANCH  14  15
ENDBRANCH  13  14
ENDBRANCH  12  13
ENDBRANCH  10  12
ENDBRANCH   4  10
ENDBRANCH   1   3
BRANCH   1  23
ATOM     23  O   UNL     1       4.362   5.436   3.528  1.00  0.00    -0.458 OA
BRANCH  23  24
ATOM     24  C   UNL     1       4.254   6.723   4.182  1.00  0.00     0.275 C 
BRANCH  24  25
ATOM     25  C   UNL     1       3.908   6.569   5.660  1.00  0.00     0.275 C 
BRANCH  25  26
ATOM     26  O   UNL     1       5.012   5.950   6.340  1.00  0.00    -0.458 OA
BRANCH  26  27
ATOM     27  C   UNL     1       4.826   4.658   6.672  1.00  0.00     0.338 C 
ATOM     28  O   UNL     1       3.800   3.995   6.581  1.00  0.00    -0.246 OA
BRANCH  27  29
ATOM     29  C   UNL     1       6.106   4.065   7.068  1.00  0.00     0.060 A 
ATOM     30  C   UNL     1       7.080   3.914   6.090  1.00  0.00     0.016 A 
ATOM     31  C   UNL     1       6.268   3.469   8.314  1.00  0.00     0.016 A 
ATOM     32  C   UNL     1       8.119   3.013   6.280  1.00  0.00     0.010 A 
ATOM     33  C   UNL     1       7.412   2.702   8.561  1.00  0.00     0.010 A 
ATOM     34  C   UNL     1       8.323   2.409   7.527  1.00  0.00    -0.014 A 
BRANCH  34  35
ATOM     35  C   UNL     1       9.459   1.462   7.734  1.00  0.00     0.031 A 
ATOM     36  C   UNL     1       9.216   0.097   8.329  1.00  0.00     0.074 A 
ATOM     37  C   UNL     1      10.714   1.811   7.382  1.00  0.00     0.049 A 
ATOM     38  N   UNL     1      10.082  -0.768   8.797  1.00  0.00    -0.248 NA
ATOM     39  C   UNL     1       7.816  -0.346   8.436  1.00  0.00     0.031 C 
ATOM     40  C   UNL     1      11.106   3.072   6.746  1.00  0.00     0.029 A 
ATOM     41  N   UNL     1      11.900   1.127   7.503  1.00  0.00    -0.354 N 
ATOM     42  C   UNL     1       9.330  -1.809   9.331  1.00  0.00     0.074 A 
ATOM     43  C   UNL     1       7.938  -1.474   9.122  1.00  0.00     0.031 C 
ATOM     44  C   UNL     1      12.418   3.047   6.479  1.00  0.00     0.029 A 
ATOM     45  C   UNL     1      12.987   1.831   7.042  1.00  0.00     0.049 A 
ATOM     46  H   UNL     1      11.965   0.221   7.883  1.00  0.00     0.167 HD
ATOM     47  C   UNL     1       9.762  -2.933   9.953  1.00  0.00     0.031 A 
ATOM     48  C   UNL     1      14.306   1.574   7.119  1.00  0.00     0.031 A 
ATOM     49  C   UNL     1      11.149  -3.289  10.103  1.00  0.00     0.049 A 
ATOM     50  C   UNL     1      14.763   0.337   7.829  1.00  0.00     0.074 A 
ATOM     51  C   UNL     1      11.693  -4.420  10.689  1.00  0.00     0.029 A 
ATOM     52  N   UNL     1      12.213  -2.525   9.647  1.00  0.00    -0.354 N 
ATOM     53  N   UNL     1      14.044  -0.603   8.391  1.00  0.00    -0.248 NA
ATOM     54  C   UNL     1      16.214   0.139   7.936  1.00  0.00     0.031 C 
ATOM     55  C   UNL     1      13.087  -4.316  10.630  1.00  0.00     0.029 A 
ATOM     56  C   UNL     1      13.411  -3.149   9.957  1.00  0.00     0.049 A 
ATOM     57  H   UNL     1      12.130  -1.667   9.173  1.00  0.00     0.167 HD
ATOM     58  C   UNL     1      14.953  -1.508   8.918  1.00  0.00     0.074 A 
ATOM     59  C   UNL     1      16.275  -1.018   8.581  1.00  0.00     0.031 C 
ATOM     60  C   UNL     1      14.716  -2.639   9.625  1.00  0.00     0.031 A 
BRANCH  47  61
ATOM     61  C   UNL     1       8.725  -3.831  10.573  1.00  0.00    -0.014 A 
ATOM     62  C   UNL     1       7.856  -4.615   9.800  1.00  0.00     0.009 A 
ATOM     63  C   UNL     1       8.638  -3.907  11.974  1.00  0.00     0.009 A 
ATOM     64  C   UNL     1       6.896  -5.425  10.416  1.00  0.00     0.001 A 
ATOM     65  C   UNL     1       7.699  -4.739  12.587  1.00  0.00     0.001 A 
ATOM     66  C   UNL     1       6.821  -5.488  11.807  1.00  0.00     0.000 A 
ENDBRANCH  47  61
BRANCH  48  67
ATOM     67  C   UNL     1      15.279   2.558   6.574  1.00  0.00    -0.014 A 
ATOM     68  C   UNL     1      16.040   2.259   5.435  1.00  0.00     0.009 A 
ATOM     69  C   UNL     1      15.422   3.821   7.174  1.00  0.00     0.009 A 
ATOM     70  C   UNL     1      16.928   3.203   4.912  1.00  0.00     0.001 A 
ATOM     71  C   UNL     1      16.283   4.774   6.628  1.00  0.00     0.001 A 
ATOM     72  C   UNL     1      17.041   4.462   5.502  1.00  0.00     0.000 A 
ENDBRANCH  48  67
BRANCH  60  73
ATOM     73  C   UNL     1      15.916  -3.431  10.056  1.00  0.00    -0.014 A 
ATOM     74  C   UNL     1      16.751  -2.979  11.090  1.00  0.00     0.009 A 
ATOM     75  C   UNL     1      16.206  -4.651   9.428  1.00  0.00     0.009 A 
ATOM     76  C   UNL     1      17.876  -3.718  11.460  1.00  0.00     0.001 A 
ATOM     77  C   UNL     1      17.315  -5.402   9.820  1.00  0.00     0.001 A 
ATOM     78  C   UNL     1      18.154  -4.930  10.828  1.00  0.00     0.000 A 
ENDBRANCH  60  73
ENDBRANCH  34  35
ENDBRANCH  27  29
ENDBRANCH  26  27
ENDBRANCH  25  26
ENDBRANCH  24  25
ENDBRANCH  23  24
ENDBRANCH   1  23
TORSDOF 17
