REMARK SMILES NC(=O)N[C@@H](C(=O)N[C@@H](CO)C(=O)OCCOC(=O)c1ccc(-c2c3nc(c(-c4ccccc4)c4ccc([nH]4)c(-c4ccccc4)c4nc(c(-c5ccccc5)c5ccc2[nH]5)C=C4)C=C3)cc1)c1ccccc1
REMARK SMILES IDX 15 1 14 2 12 3 13 4 9 5 8 6 6 7 7 8 5 10 4 11 1 12 2 13 3 16
REMARK SMILES IDX 68 18 69 19 73 20 70 21 72 22 71 23 10 24 11 25 16 27 17 28
REMARK SMILES IDX 18 29 19 30 20 31 21 32 67 33 22 34 66 35 23 36 24 37 25 38
REMARK SMILES IDX 60 39 26 40 65 41 59 42 61 43 27 44 64 45 58 46 57 47 28 49
REMARK SMILES IDX 50 50 35 51 49 52 36 53 39 54 48 55 62 56 37 57 38 58 47 60
REMARK SMILES IDX 63 61 40 62 29 63 30 64 34 65 31 66 33 67 32 68 51 69 52 70
REMARK SMILES IDX 56 71 53 72 55 73 54 74 41 75 42 76 46 77 43 78 45 79 44 80
REMARK H PARENT 8 9 1 14 1 15 4 17 11 26 61 48 39 59
REMARK Flexibility Score: inf
ROOT
ATOM      1  C   UNL     1       3.854   3.508   4.121  1.00  0.00     0.274 C 
ENDROOT
BRANCH   1   2
ATOM      2  O   UNL     1       3.232   2.211   4.195  1.00  0.00    -0.460 OA
BRANCH   2   3
ATOM      3  C   UNL     1       2.055   2.073   3.525  1.00  0.00     0.331 C 
ATOM      4  O   UNL     1       1.468   2.978   2.943  1.00  0.00    -0.250 OA
BRANCH   3   5
ATOM      5  C   UNL     1       1.529   0.634   3.555  1.00  0.00     0.218 C 
BRANCH   5   6
ATOM      6  N   UNL     1       2.500  -0.363   4.033  1.00  0.00    -0.339 N 
ATOM      7  C   UNL     1       2.869  -1.564   3.478  1.00  0.00     0.248 C 
ATOM      8  O   UNL     1       3.742  -2.208   4.062  1.00  0.00    -0.272 OA
ATOM      9  H   UNL     1       2.952  -0.135   4.878  1.00  0.00     0.164 HD
BRANCH   7  10
ATOM     10  C   UNL     1       2.239  -2.011   2.126  1.00  0.00     0.203 C 
BRANCH  10  11
ATOM     11  N   UNL     1       0.785  -2.069   2.272  1.00  0.00    -0.322 N 
ATOM     12  N   UNL     1       0.201  -1.203   0.223  1.00  0.00    -0.352 N 
ATOM     13  C   UNL     1      -0.175  -1.629   1.439  1.00  0.00     0.313 C 
ATOM     14  H   UNL     1      -0.474  -0.874  -0.414  1.00  0.00     0.161 HD
ATOM     15  H   UNL     1       1.151  -1.220  -0.032  1.00  0.00     0.161 HD
ATOM     16  O   UNL     1      -1.342  -1.568   1.804  1.00  0.00    -0.249 OA
ATOM     17  H   UNL     1       0.462  -2.491   3.100  1.00  0.00     0.166 HD
ENDBRANCH  10  11
BRANCH  10  18
ATOM     18  C   UNL     1       2.810  -3.307   1.568  1.00  0.00    -0.016 A 
ATOM     19  C   UNL     1       2.160  -4.544   1.723  1.00  0.00     0.006 A 
ATOM     20  C   UNL     1       4.039  -3.284   0.885  1.00  0.00     0.006 A 
ATOM     21  C   UNL     1       2.712  -5.715   1.197  1.00  0.00     0.000 A 
ATOM     22  C   UNL     1       4.590  -4.457   0.362  1.00  0.00     0.000 A 
ATOM     23  C   UNL     1       3.925  -5.671   0.516  1.00  0.00     0.000 A 
ENDBRANCH  10  18
ENDBRANCH   7  10
ENDBRANCH   5   6
BRANCH   5  24
ATOM     24  C   UNL     1       0.250   0.605   4.397  1.00  0.00     0.193 C 
BRANCH  24  25
ATOM     25  O   UNL     1       0.550   0.768   5.785  1.00  0.00    -0.394 OA
ATOM     26  H   UNL     1       1.123   0.043   6.079  1.00  0.00     0.210 HD
ENDBRANCH  24  25
ENDBRANCH   5  24
ENDBRANCH   3   5
ENDBRANCH   2   3
ENDBRANCH   1   2
BRANCH   1  27
ATOM     27  C   UNL     1       5.090   3.456   3.222  1.00  0.00     0.275 C 
BRANCH  27  28
ATOM     28  O   UNL     1       4.731   3.156   1.859  1.00  0.00    -0.458 OA
BRANCH  28  29
ATOM     29  C   UNL     1       4.799   1.850   1.524  1.00  0.00     0.338 C 
ATOM     30  O   UNL     1       5.122   0.905   2.225  1.00  0.00    -0.246 OA
BRANCH  29  31
ATOM     31  C   UNL     1       4.314   1.662   0.155  1.00  0.00     0.060 A 
ATOM     32  C   UNL     1       2.968   1.352  -0.034  1.00  0.00     0.016 A 
ATOM     33  C   UNL     1       5.207   1.638  -0.915  1.00  0.00     0.016 A 
ATOM     34  C   UNL     1       2.521   0.955  -1.289  1.00  0.00     0.010 A 
ATOM     35  C   UNL     1       4.739   1.297  -2.188  1.00  0.00     0.010 A 
ATOM     36  C   UNL     1       3.397   0.924  -2.383  1.00  0.00    -0.014 A 
BRANCH  36  37
ATOM     37  C   UNL     1       2.915   0.473  -3.715  1.00  0.00     0.031 A 
ATOM     38  C   UNL     1       3.521  -0.740  -4.369  1.00  0.00     0.074 A 
ATOM     39  C   UNL     1       1.917   1.131  -4.337  1.00  0.00     0.049 A 
ATOM     40  N   UNL     1       3.367  -1.183  -5.591  1.00  0.00    -0.248 NA
ATOM     41  C   UNL     1       4.420  -1.561  -3.541  1.00  0.00     0.031 C 
ATOM     42  C   UNL     1       1.187   2.278  -3.794  1.00  0.00     0.029 A 
ATOM     43  N   UNL     1       1.339   0.922  -5.564  1.00  0.00    -0.354 N 
ATOM     44  C   UNL     1       4.193  -2.295  -5.698  1.00  0.00     0.074 A 
ATOM     45  C   UNL     1       4.839  -2.467  -4.414  1.00  0.00     0.031 C 
ATOM     46  C   UNL     1       0.235   2.646  -4.665  1.00  0.00     0.029 A 
ATOM     47  C   UNL     1       0.351   1.827  -5.866  1.00  0.00     0.049 A 
ATOM     48  H   UNL     1       1.606   0.193  -6.170  1.00  0.00     0.167 HD
ATOM     49  C   UNL     1       4.401  -3.093  -6.773  1.00  0.00     0.031 A 
ATOM     50  C   UNL     1      -0.351   2.017  -7.000  1.00  0.00     0.031 A 
ATOM     51  C   UNL     1       3.733  -2.943  -8.038  1.00  0.00     0.049 A 
ATOM     52  C   UNL     1      -0.059   1.159  -8.196  1.00  0.00     0.074 A 
ATOM     53  C   UNL     1       3.881  -3.701  -9.188  1.00  0.00     0.029 A 
ATOM     54  N   UNL     1       2.777  -1.978  -8.316  1.00  0.00    -0.354 N 
ATOM     55  N   UNL     1       0.779   0.159  -8.308  1.00  0.00    -0.248 NA
ATOM     56  C   UNL     1      -0.793   1.475  -9.430  1.00  0.00     0.031 C 
ATOM     57  C   UNL     1       3.043  -3.168 -10.174  1.00  0.00     0.029 A 
ATOM     58  C   UNL     1       2.339  -2.110  -9.623  1.00  0.00     0.049 A 
ATOM     59  H   UNL     1       2.458  -1.299  -7.678  1.00  0.00     0.167 HD
ATOM     60  C   UNL     1       0.670  -0.280  -9.621  1.00  0.00     0.074 A 
ATOM     61  C   UNL     1      -0.332   0.549 -10.260  1.00  0.00     0.031 C 
ATOM     62  C   UNL     1       1.345  -1.276 -10.243  1.00  0.00     0.031 A 
BRANCH  49  63
ATOM     63  C   UNL     1       5.438  -4.173  -6.645  1.00  0.00    -0.014 A 
ATOM     64  C   UNL     1       5.199  -5.342  -5.909  1.00  0.00     0.009 A 
ATOM     65  C   UNL     1       6.665  -4.029  -7.314  1.00  0.00     0.009 A 
ATOM     66  C   UNL     1       6.180  -6.333  -5.822  1.00  0.00     0.001 A 
ATOM     67  C   UNL     1       7.633  -5.032  -7.245  1.00  0.00     0.001 A 
ATOM     68  C   UNL     1       7.393  -6.179  -6.493  1.00  0.00     0.000 A 
ENDBRANCH  49  63
BRANCH  50  69
ATOM     69  C   UNL     1      -1.351   3.114  -7.075  1.00  0.00    -0.014 A 
ATOM     70  C   UNL     1      -2.721   2.828  -7.151  1.00  0.00     0.009 A 
ATOM     71  C   UNL     1      -0.936   4.456  -7.062  1.00  0.00     0.009 A 
ATOM     72  C   UNL     1      -3.655   3.865  -7.223  1.00  0.00     0.001 A 
ATOM     73  C   UNL     1      -1.873   5.489  -7.102  1.00  0.00     0.001 A 
ATOM     74  C   UNL     1      -3.232   5.193  -7.190  1.00  0.00     0.000 A 
ENDBRANCH  50  69
BRANCH  62  75
ATOM     75  C   UNL     1       1.003  -1.540 -11.680  1.00  0.00    -0.014 A 
ATOM     76  C   UNL     1       1.456  -0.691 -12.701  1.00  0.00     0.009 A 
ATOM     77  C   UNL     1       0.252  -2.677 -12.019  1.00  0.00     0.009 A 
ATOM     78  C   UNL     1       1.142  -0.963 -14.034  1.00  0.00     0.001 A 
ATOM     79  C   UNL     1      -0.041  -2.958 -13.354  1.00  0.00     0.001 A 
ATOM     80  C   UNL     1       0.399  -2.098 -14.359  1.00  0.00     0.000 A 
ENDBRANCH  62  75
ENDBRANCH  36  37
ENDBRANCH  29  31
ENDBRANCH  28  29
ENDBRANCH  27  28
ENDBRANCH   1  27
TORSDOF 17
