REMARK SMILES CN(Cc1ccc(C(=O)OCCOC(=O)c2ccc(-c3c4nc(c(-c5ccccc5)c5ccc([nH]5)c(-c5ccccc5)c5nc(c(-c6ccccc6)c6ccc3[nH]6)C=C5)C=C4)cc2)cc1)c1ccccc1N
REMARK SMILES IDX 11 1 10 2 8 3 9 4 7 5 4 6 5 7 65 8 6 9 64 10 3 11 2 12 1 13
REMARK SMILES IDX 66 14 67 15 71 16 68 17 70 18 69 19 72 20 12 23 13 24 14 25
REMARK SMILES IDX 15 26 16 27 17 28 63 29 18 30 62 31 19 32 20 33 21 34 56 35
REMARK SMILES IDX 22 36 61 37 55 38 57 39 23 40 60 41 54 42 53 43 24 45 46 46
REMARK SMILES IDX 31 47 45 48 32 49 35 50 44 51 58 52 33 53 34 54 43 56 59 57
REMARK SMILES IDX 36 58 25 59 26 60 30 61 27 62 29 63 28 64 47 65 48 66 52 67
REMARK SMILES IDX 49 68 51 69 50 70 37 71 38 72 42 73 39 74 41 75 40 76
REMARK H PARENT 72 21 72 22 57 44 35 55
REMARK Flexibility Score: inf
ROOT
ATOM      1  C   UNL     1      -7.176   2.032   3.207  1.00  0.00     0.275 C 
ENDROOT
BRANCH   1   2
ATOM      2  O   UNL     1      -5.923   1.794   2.535  1.00  0.00    -0.458 OA
BRANCH   2   3
ATOM      3  C   UNL     1      -5.623   2.641   1.519  1.00  0.00     0.338 C 
ATOM      4  O   UNL     1      -6.305   3.576   1.127  1.00  0.00    -0.246 OA
BRANCH   3   5
ATOM      5  C   UNL     1      -4.264   2.362   0.991  1.00  0.00     0.060 A 
ATOM      6  C   UNL     1      -1.607   1.987   0.139  1.00  0.00    -0.029 A 
ATOM      7  C   UNL     1      -2.223   3.241   0.016  1.00  0.00     0.006 A 
ATOM      8  C   UNL     1      -2.367   0.908   0.620  1.00  0.00     0.006 A 
ATOM      9  C   UNL     1      -3.545   3.421   0.422  1.00  0.00     0.016 A 
ATOM     10  C   UNL     1      -3.681   1.096   1.063  1.00  0.00     0.016 A 
BRANCH   6  11
ATOM     11  C   UNL     1      -0.143   1.838  -0.231  1.00  0.00     0.151 C 
BRANCH  11  12
ATOM     12  N   UNL     1       0.634   1.070   0.744  1.00  0.00    -0.369 N 
ATOM     13  C   UNL     1       1.008  -0.295   0.411  1.00  0.00     0.144 C 
BRANCH  12  14
ATOM     14  C   UNL     1       1.129   1.676   1.901  1.00  0.00     0.060 A 
ATOM     15  C   UNL     1       0.254   2.375   2.756  1.00  0.00     0.028 A 
ATOM     16  C   UNL     1       2.493   1.615   2.293  1.00  0.00     0.055 A 
ATOM     17  C   UNL     1       0.676   2.947   3.960  1.00  0.00     0.002 A 
ATOM     18  C   UNL     1       2.895   2.143   3.533  1.00  0.00     0.027 A 
ATOM     19  C   UNL     1       1.998   2.820   4.355  1.00  0.00     0.002 A 
BRANCH  16  20
ATOM     20  N   UNL     1       3.461   0.971   1.513  1.00  0.00    -0.397 N 
ATOM     21  H   UNL     1       3.215   0.589   0.640  1.00  0.00     0.156 HD
ATOM     22  H   UNL     1       4.387   0.900   1.839  1.00  0.00     0.156 HD
ENDBRANCH  16  20
ENDBRANCH  12  14
ENDBRANCH  11  12
ENDBRANCH   6  11
ENDBRANCH   3   5
ENDBRANCH   2   3
ENDBRANCH   1   2
BRANCH   1  23
ATOM     23  C   UNL     1      -6.964   2.789   4.517  1.00  0.00     0.275 C 
BRANCH  23  24
ATOM     24  O   UNL     1      -6.445   4.103   4.246  1.00  0.00    -0.458 OA
BRANCH  24  25
ATOM     25  C   UNL     1      -5.295   4.423   4.880  1.00  0.00     0.338 C 
ATOM     26  O   UNL     1      -4.679   3.760   5.696  1.00  0.00    -0.246 OA
BRANCH  25  27
ATOM     27  C   UNL     1      -4.841   5.749   4.432  1.00  0.00     0.060 A 
ATOM     28  C   UNL     1      -4.373   5.903   3.130  1.00  0.00     0.016 A 
ATOM     29  C   UNL     1      -4.745   6.800   5.343  1.00  0.00     0.016 A 
ATOM     30  C   UNL     1      -3.738   7.084   2.749  1.00  0.00     0.010 A 
ATOM     31  C   UNL     1      -4.176   8.012   4.937  1.00  0.00     0.010 A 
ATOM     32  C   UNL     1      -3.629   8.156   3.647  1.00  0.00    -0.014 A 
BRANCH  32  33
ATOM     33  C   UNL     1      -2.887   9.394   3.271  1.00  0.00     0.031 A 
ATOM     34  C   UNL     1      -1.677   9.820   4.065  1.00  0.00     0.074 A 
ATOM     35  C   UNL     1      -3.270  10.138   2.214  1.00  0.00     0.049 A 
ATOM     36  N   UNL     1      -1.004  10.943   4.014  1.00  0.00    -0.248 NA
ATOM     37  C   UNL     1      -1.165   8.860   5.056  1.00  0.00     0.031 C 
ATOM     38  C   UNL     1      -4.381   9.830   1.313  1.00  0.00     0.029 A 
ATOM     39  N   UNL     1      -2.754  11.310   1.714  1.00  0.00    -0.354 N 
ATOM     40  C   UNL     1      -0.034  10.850   5.005  1.00  0.00     0.074 A 
ATOM     41  C   UNL     1      -0.204   9.561   5.641  1.00  0.00     0.031 C 
ATOM     42  C   UNL     1      -4.438  10.763   0.350  1.00  0.00     0.029 A 
ATOM     43  C   UNL     1      -3.426  11.781   0.612  1.00  0.00     0.049 A 
ATOM     44  H   UNL     1      -1.977  11.768   2.108  1.00  0.00     0.167 HD
ATOM     45  C   UNL     1       0.910  11.755   5.359  1.00  0.00     0.031 A 
ATOM     46  C   UNL     1      -3.277  12.921  -0.089  1.00  0.00     0.031 A 
ATOM     47  C   UNL     1       1.118  13.016   4.698  1.00  0.00     0.049 A 
ATOM     48  C   UNL     1      -2.245  13.925   0.339  1.00  0.00     0.074 A 
ATOM     49  C   UNL     1       2.058  13.994   4.980  1.00  0.00     0.029 A 
ATOM     50  N   UNL     1       0.389  13.466   3.609  1.00  0.00    -0.354 N 
ATOM     51  N   UNL     1      -1.380  13.852   1.321  1.00  0.00    -0.248 NA
ATOM     52  C   UNL     1      -2.183  15.178  -0.427  1.00  0.00     0.031 C 
ATOM     53  C   UNL     1       1.873  15.052   4.082  1.00  0.00     0.029 A 
ATOM     54  C   UNL     1       0.850  14.711   3.214  1.00  0.00     0.049 A 
ATOM     55  H   UNL     1      -0.347  12.973   3.180  1.00  0.00     0.167 HD
ATOM     56  C   UNL     1      -0.666  15.043   1.285  1.00  0.00     0.074 A 
ATOM     57  C   UNL     1      -1.184  15.811   0.171  1.00  0.00     0.031 C 
ATOM     58  C   UNL     1       0.325  15.465   2.106  1.00  0.00     0.031 A 
BRANCH  45  59
ATOM     59  C   UNL     1       1.768  11.431   6.550  1.00  0.00    -0.014 A 
ATOM     60  C   UNL     1       2.787  10.469   6.487  1.00  0.00     0.009 A 
ATOM     61  C   UNL     1       1.570  12.133   7.751  1.00  0.00     0.009 A 
ATOM     62  C   UNL     1       3.566  10.191   7.613  1.00  0.00     0.001 A 
ATOM     63  C   UNL     1       2.368  11.872   8.866  1.00  0.00     0.001 A 
ATOM     64  C   UNL     1       3.359  10.895   8.799  1.00  0.00     0.000 A 
ENDBRANCH  45  59
BRANCH  46  65
ATOM     65  C   UNL     1      -4.167  13.200  -1.246  1.00  0.00    -0.014 A 
ATOM     66  C   UNL     1      -3.664  13.181  -2.555  1.00  0.00     0.009 A 
ATOM     67  C   UNL     1      -5.528  13.481  -1.045  1.00  0.00     0.009 A 
ATOM     68  C   UNL     1      -4.504  13.450  -3.638  1.00  0.00     0.001 A 
ATOM     69  C   UNL     1      -6.371  13.720  -2.131  1.00  0.00     0.001 A 
ATOM     70  C   UNL     1      -5.857  13.711  -3.426  1.00  0.00     0.000 A 
ENDBRANCH  46  65
BRANCH  58  71
ATOM     71  C   UNL     1       0.934  16.805   1.811  1.00  0.00    -0.014 A 
ATOM     72  C   UNL     1       0.255  17.994   2.118  1.00  0.00     0.009 A 
ATOM     73  C   UNL     1       2.216  16.877   1.245  1.00  0.00     0.009 A 
ATOM     74  C   UNL     1       0.837  19.231   1.834  1.00  0.00     0.001 A 
ATOM     75  C   UNL     1       2.805  18.115   0.984  1.00  0.00     0.001 A 
ATOM     76  C   UNL     1       2.112  19.290   1.271  1.00  0.00     0.000 A 
ENDBRANCH  58  71
ENDBRANCH  32  33
ENDBRANCH  25  27
ENDBRANCH  24  25
ENDBRANCH  23  24
ENDBRANCH   1  23
TORSDOF 15
