REMARK SMILES Cn1ncc(C(=O)OCCOC(=O)c2ccc(-c3c4nc(c(-c5ccccc5)c5ccc([nH]5)c(-c5ccccc5)c5nc(c(-c6ccccc6)c6ccc3[nH]6)C=C5)C=C4)cc2)c1C(=O)Nc1ccccn1
REMARK SMILES IDX 9 1 8 2 6 3 7 4 5 5 1 6 2 7 3 8 62 9 4 10 63 11 64 12 65 13
REMARK SMILES IDX 66 15 67 16 71 17 68 18 70 19 69 20 10 21 11 22 12 23 13 24
REMARK SMILES IDX 14 25 15 26 61 27 16 28 60 29 17 30 18 31 19 32 54 33 20 34
REMARK SMILES IDX 59 35 53 36 55 37 21 38 58 39 52 40 51 41 22 43 44 44 29 45
REMARK SMILES IDX 43 46 30 47 33 48 42 49 56 50 31 51 32 52 41 54 57 55 34 56
REMARK SMILES IDX 23 57 24 58 28 59 25 60 27 61 26 62 45 63 46 64 50 65 47 66
REMARK SMILES IDX 49 67 48 68 35 69 36 70 40 71 37 72 39 73 38 74
REMARK H PARENT 65 14 55 42 33 53
REMARK Flexibility Score: inf
ROOT
ATOM      1  C   UNL     1       3.639  -3.506  -0.194  1.00  0.00     0.275 C 
ENDROOT
BRANCH   1   2
ATOM      2  O   UNL     1       2.432  -2.723  -0.299  1.00  0.00    -0.458 OA
BRANCH   2   3
ATOM      3  C   UNL     1       2.327  -1.676   0.564  1.00  0.00     0.342 C 
ATOM      4  O   UNL     1       3.196  -1.358   1.372  1.00  0.00    -0.246 OA
BRANCH   3   5
ATOM      5  C   UNL     1       1.146  -0.850   0.379  1.00  0.00     0.111 A 
ATOM      6  C   UNL     1      -2.030   0.319   1.285  1.00  0.00     0.174 C 
ATOM      7  N   UNL     1      -0.851   0.002   0.510  1.00  0.00    -0.262 N 
ATOM      8  N   UNL     1      -0.074   1.063   0.234  1.00  0.00    -0.180 NA
ATOM      9  C   UNL     1      -0.209  -1.212   0.320  1.00  0.00     0.140 A 
ATOM     10  C   UNL     1       1.144   0.559   0.357  1.00  0.00     0.151 A 
BRANCH   9  11
ATOM     11  C   UNL     1      -0.734  -2.567   0.346  1.00  0.00     0.275 C 
ATOM     12  O   UNL     1      -0.011  -3.521   0.646  1.00  0.00    -0.267 OA
ATOM     13  N   UNL     1      -2.054  -2.883   0.154  1.00  0.00    -0.305 N 
ATOM     14  H   UNL     1      -2.255  -3.837   0.291  1.00  0.00     0.171 HD
BRANCH  13  15
ATOM     15  C   UNL     1      -3.158  -2.127  -0.195  1.00  0.00     0.132 A 
ATOM     16  C   UNL     1      -3.171  -1.230  -1.251  1.00  0.00     0.047 A 
ATOM     17  N   UNL     1      -4.194  -2.284   0.654  1.00  0.00    -0.239 NA
ATOM     18  C   UNL     1      -4.278  -0.389  -1.382  1.00  0.00     0.005 A 
ATOM     19  C   UNL     1      -5.229  -1.428   0.536  1.00  0.00     0.113 A 
ATOM     20  C   UNL     1      -5.309  -0.462  -0.449  1.00  0.00     0.020 A 
ENDBRANCH  13  15
ENDBRANCH   9  11
ENDBRANCH   3   5
ENDBRANCH   2   3
ENDBRANCH   1   2
BRANCH   1  21
ATOM     21  C   UNL     1       4.566  -3.237  -1.379  1.00  0.00     0.275 C 
BRANCH  21  22
ATOM     22  O   UNL     1       5.054  -1.882  -1.341  1.00  0.00    -0.458 OA
BRANCH  22  23
ATOM     23  C   UNL     1       4.441  -1.031  -2.195  1.00  0.00     0.338 C 
ATOM     24  O   UNL     1       3.571  -1.286  -3.006  1.00  0.00    -0.246 OA
BRANCH  23  25
ATOM     25  C   UNL     1       4.896   0.345  -1.947  1.00  0.00     0.060 A 
ATOM     26  C   UNL     1       4.336   1.024  -0.875  1.00  0.00     0.016 A 
ATOM     27  C   UNL     1       5.689   1.026  -2.863  1.00  0.00     0.016 A 
ATOM     28  C   UNL     1       4.427   2.409  -0.792  1.00  0.00     0.010 A 
ATOM     29  C   UNL     1       5.906   2.401  -2.692  1.00  0.00     0.010 A 
ATOM     30  C   UNL     1       5.237   3.122  -1.683  1.00  0.00    -0.014 A 
BRANCH  30  31
ATOM     31  C   UNL     1       5.364   4.605  -1.562  1.00  0.00     0.031 A 
ATOM     32  C   UNL     1       5.074   5.497  -2.745  1.00  0.00     0.074 A 
ATOM     33  C   UNL     1       5.728   5.168  -0.390  1.00  0.00     0.049 A 
ATOM     34  N   UNL     1       5.304   6.780  -2.891  1.00  0.00    -0.248 NA
ATOM     35  C   UNL     1       4.460   4.864  -3.923  1.00  0.00     0.031 C 
ATOM     36  C   UNL     1       5.983   4.447   0.861  1.00  0.00     0.029 A 
ATOM     37  N   UNL     1       5.941   6.484  -0.054  1.00  0.00    -0.354 N 
ATOM     38  C   UNL     1       4.921   7.090  -4.191  1.00  0.00     0.074 A 
ATOM     39  C   UNL     1       4.455   5.861  -4.796  1.00  0.00     0.031 C 
ATOM     40  C   UNL     1       6.270   5.327   1.831  1.00  0.00     0.029 A 
ATOM     41  C   UNL     1       6.332   6.662   1.252  1.00  0.00     0.049 A 
ATOM     42  H   UNL     1       5.823   7.228  -0.689  1.00  0.00     0.167 HD
ATOM     43  C   UNL     1       4.955   8.289  -4.824  1.00  0.00     0.031 A 
ATOM     44  C   UNL     1       6.753   7.760   1.907  1.00  0.00     0.031 A 
ATOM     45  C   UNL     1       5.385   9.518  -4.209  1.00  0.00     0.049 A 
ATOM     46  C   UNL     1       6.853   9.060   1.163  1.00  0.00     0.074 A 
ATOM     47  C   UNL     1       5.441  10.786  -4.763  1.00  0.00     0.029 A 
ATOM     48  N   UNL     1       5.820   9.637  -2.898  1.00  0.00    -0.354 N 
ATOM     49  N   UNL     1       6.529   9.329  -0.077  1.00  0.00    -0.248 NA
ATOM     50  C   UNL     1       7.393  10.206   1.909  1.00  0.00     0.031 C 
ATOM     51  C   UNL     1       5.967  11.660  -3.807  1.00  0.00     0.029 A 
ATOM     52  C   UNL     1       6.174  10.951  -2.635  1.00  0.00     0.049 A 
ATOM     53  H   UNL     1       5.871   8.898  -2.250  1.00  0.00     0.167 HD
ATOM     54  C   UNL     1       6.806  10.678  -0.256  1.00  0.00     0.074 A 
ATOM     55  C   UNL     1       7.301  11.176   1.011  1.00  0.00     0.031 C 
ATOM     56  C   UNL     1       6.666  11.434  -1.371  1.00  0.00     0.031 A 
BRANCH  43  57
ATOM     57  C   UNL     1       4.562   8.325  -6.277  1.00  0.00    -0.014 A 
ATOM     58  C   UNL     1       3.232   8.151  -6.690  1.00  0.00     0.009 A 
ATOM     59  C   UNL     1       5.543   8.582  -7.250  1.00  0.00     0.009 A 
ATOM     60  C   UNL     1       2.901   8.196  -8.047  1.00  0.00     0.001 A 
ATOM     61  C   UNL     1       5.204   8.659  -8.602  1.00  0.00     0.001 A 
ATOM     62  C   UNL     1       3.885   8.456  -9.000  1.00  0.00     0.000 A 
ENDBRANCH  43  57
BRANCH  44  63
ATOM     63  C   UNL     1       7.179   7.664   3.330  1.00  0.00    -0.014 A 
ATOM     64  C   UNL     1       6.454   8.312   4.341  1.00  0.00     0.009 A 
ATOM     65  C   UNL     1       8.323   6.928   3.684  1.00  0.00     0.009 A 
ATOM     66  C   UNL     1       6.879   8.245   5.670  1.00  0.00     0.001 A 
ATOM     67  C   UNL     1       8.723   6.831   5.018  1.00  0.00     0.001 A 
ATOM     68  C   UNL     1       8.007   7.499   6.008  1.00  0.00     0.000 A 
ENDBRANCH  44  63
BRANCH  56  69
ATOM     69  C   UNL     1       7.015  12.891  -1.257  1.00  0.00    -0.014 A 
ATOM     70  C   UNL     1       8.347  13.316  -1.131  1.00  0.00     0.009 A 
ATOM     71  C   UNL     1       5.995  13.854  -1.305  1.00  0.00     0.009 A 
ATOM     72  C   UNL     1       8.646  14.676  -1.019  1.00  0.00     0.001 A 
ATOM     73  C   UNL     1       6.299  15.213  -1.225  1.00  0.00     0.001 A 
ATOM     74  C   UNL     1       7.623  15.623  -1.071  1.00  0.00     0.000 A 
ENDBRANCH  56  69
ENDBRANCH  30  31
ENDBRANCH  23  25
ENDBRANCH  22  23
ENDBRANCH  21  22
ENDBRANCH   1  21
TORSDOF 13
