REMARK SMILES Cc1ccccc1[C@@H]1[NH2+][C@H](C(=O)OCCOC(=O)c2ccc(-c3c4nc(c(-c5ccccc5)c5ccc([nH]5)c(-c5ccccc5)c5nc(c(-c6ccccc6)c6ccc3[nH]6)C=C5)C=C4)cc2)CC2=c3ccccc3=N[C@H]21
REMARK SMILES IDX 15 1 14 2 13 3 11 4 12 5 10 6 8 7 9 8 76 9 68 12 75 13 67 14
REMARK SMILES IDX 69 15 74 16 70 17 73 18 71 19 72 20 7 21 1 22 2 23 3 24 4 25
REMARK SMILES IDX 6 26 5 27 16 28 17 29 18 30 19 31 20 32 66 33 21 34 65 35
REMARK SMILES IDX 22 36 23 37 24 38 59 39 25 40 64 41 58 42 60 43 26 44 63 45
REMARK SMILES IDX 57 46 56 47 27 49 49 50 34 51 48 52 35 53 38 54 47 55 61 56
REMARK SMILES IDX 36 57 37 58 46 60 62 61 39 62 28 63 29 64 33 65 30 66 32 67
REMARK SMILES IDX 31 68 50 69 51 70 55 71 52 72 54 73 53 74 40 75 41 76 45 77
REMARK SMILES IDX 42 78 44 79 43 80
REMARK H PARENT 9 10 9 11 60 48 38 59
REMARK Flexibility Score: inf
ROOT
ATOM      1  C   UNL     1      -2.152   7.180  -3.334  1.00  0.00     0.275 C 
ENDROOT
BRANCH   1   2
ATOM      2  C   UNL     1      -2.630   6.902  -1.910  1.00  0.00     0.274 C 
BRANCH   2   3
ATOM      3  O   UNL     1      -1.757   5.995  -1.236  1.00  0.00    -0.458 OA
BRANCH   3   4
ATOM      4  C   UNL     1      -2.389   5.228  -0.315  1.00  0.00     0.365 C 
ATOM      5  O   UNL     1      -3.585   5.318  -0.041  1.00  0.00    -0.245 OA
BRANCH   4   6
ATOM      6  C   UNL     1      -1.477   4.327   0.481  1.00  0.00     0.298 C 
ATOM      7  C   UNL     1       0.527   2.937   0.745  1.00  0.00     0.243 C 
ATOM      8  N   UNL     1      -0.237   3.843  -0.179  1.00  0.00    -0.326 N 
ATOM      9  C   UNL     1       0.682   3.436   2.241  1.00  0.00     0.196 C 
ATOM     10  H   UNL     1      -0.485   3.329  -1.025  1.00  0.00     0.347 HD
ATOM     11  H   UNL     1       0.347   4.645  -0.415  1.00  0.00     0.347 HD
ATOM     12  C   UNL     1      -0.577   4.135   2.658  1.00  0.00    -0.024 C 
ATOM     13  N   UNL     1       0.776   2.279   3.191  1.00  0.00    -0.270 NA
ATOM     14  C   UNL     1      -1.127   5.138   1.728  1.00  0.00     0.111 C 
ATOM     15  C   UNL     1      -1.220   3.486   3.617  1.00  0.00     0.002 A 
ATOM     16  C   UNL     1      -0.310   2.370   3.898  1.00  0.00     0.066 A 
ATOM     17  C   UNL     1      -2.554   3.539   4.117  1.00  0.00     0.010 A 
ATOM     18  C   UNL     1      -0.770   1.422   4.934  1.00  0.00     0.028 A 
ATOM     19  C   UNL     1      -2.948   2.574   4.961  1.00  0.00     0.001 A 
ATOM     20  C   UNL     1      -2.024   1.542   5.408  1.00  0.00     0.002 A 
BRANCH   7  21
ATOM     21  C   UNL     1       1.901   2.558   0.189  1.00  0.00     0.015 A 
ATOM     22  C   UNL     1       2.678   4.983  -0.197  1.00  0.00     0.045 C 
ATOM     23  C   UNL     1       2.893   3.494  -0.181  1.00  0.00    -0.042 A 
ATOM     24  C   UNL     1       4.192   3.034  -0.473  1.00  0.00     0.004 A 
ATOM     25  C   UNL     1       4.505   1.676  -0.453  1.00  0.00     0.000 A 
ATOM     26  C   UNL     1       2.233   1.184   0.168  1.00  0.00     0.010 A 
ATOM     27  C   UNL     1       3.519   0.748  -0.151  1.00  0.00     0.001 A 
ENDBRANCH   7  21
ENDBRANCH   4   6
ENDBRANCH   3   4
ENDBRANCH   2   3
ENDBRANCH   1   2
BRANCH   1  28
ATOM     28  O   UNL     1      -1.405   6.137  -4.027  1.00  0.00    -0.458 OA
BRANCH  28  29
ATOM     29  C   UNL     1      -1.573   4.785  -4.038  1.00  0.00     0.338 C 
ATOM     30  O   UNL     1      -0.711   4.025  -4.412  1.00  0.00    -0.246 OA
BRANCH  29  31
ATOM     31  C   UNL     1      -2.860   4.248  -3.554  1.00  0.00     0.060 A 
ATOM     32  C   UNL     1      -2.875   3.099  -2.741  1.00  0.00     0.016 A 
ATOM     33  C   UNL     1      -4.037   4.907  -3.875  1.00  0.00     0.016 A 
ATOM     34  C   UNL     1      -4.067   2.683  -2.141  1.00  0.00     0.010 A 
ATOM     35  C   UNL     1      -5.189   4.559  -3.208  1.00  0.00     0.010 A 
ATOM     36  C   UNL     1      -5.218   3.440  -2.355  1.00  0.00    -0.014 A 
BRANCH  36  37
ATOM     37  C   UNL     1      -6.570   3.018  -2.003  1.00  0.00     0.031 A 
ATOM     38  C   UNL     1      -7.188   3.123  -0.667  1.00  0.00     0.074 A 
ATOM     39  C   UNL     1      -7.310   2.687  -3.084  1.00  0.00     0.049 A 
ATOM     40  N   UNL     1      -8.270   2.493  -0.346  1.00  0.00    -0.248 NA
ATOM     41  C   UNL     1      -6.660   3.920   0.433  1.00  0.00     0.031 C 
ATOM     42  C   UNL     1      -8.751   2.599  -3.229  1.00  0.00     0.029 A 
ATOM     43  N   UNL     1      -6.818   2.211  -4.304  1.00  0.00    -0.354 N 
ATOM     44  C   UNL     1      -8.750   3.047   0.820  1.00  0.00     0.074 A 
ATOM     45  C   UNL     1      -7.657   3.842   1.328  1.00  0.00     0.031 C 
ATOM     46  C   UNL     1      -9.022   1.845  -4.309  1.00  0.00     0.029 A 
ATOM     47  C   UNL     1      -7.754   1.293  -4.771  1.00  0.00     0.049 A 
ATOM     48  H   UNL     1      -5.977   2.473  -4.744  1.00  0.00     0.167 HD
ATOM     49  C   UNL     1     -10.070   2.896   1.131  1.00  0.00     0.031 A 
ATOM     50  C   UNL     1      -7.457  -0.032  -4.909  1.00  0.00     0.031 A 
ATOM     51  C   UNL     1     -10.753   2.064   0.142  1.00  0.00     0.049 A 
ATOM     52  C   UNL     1      -8.389  -0.879  -4.078  1.00  0.00     0.074 A 
ATOM     53  C   UNL     1     -11.572   2.372  -0.932  1.00  0.00     0.029 A 
ATOM     54  N   UNL     1     -10.389   0.733   0.001  1.00  0.00    -0.354 N 
ATOM     55  N   UNL     1      -8.972  -0.460  -2.989  1.00  0.00    -0.248 NA
ATOM     56  C   UNL     1      -8.750  -2.248  -4.419  1.00  0.00     0.031 C 
ATOM     57  C   UNL     1     -11.654   1.223  -1.758  1.00  0.00     0.029 A 
ATOM     58  C   UNL     1     -10.909   0.216  -1.167  1.00  0.00     0.049 A 
ATOM     59  H   UNL     1      -9.839   0.229   0.643  1.00  0.00     0.167 HD
ATOM     60  C   UNL     1      -9.852  -1.414  -2.552  1.00  0.00     0.074 A 
ATOM     61  C   UNL     1      -9.643  -2.533  -3.454  1.00  0.00     0.031 C 
ATOM     62  C   UNL     1     -10.706  -1.184  -1.511  1.00  0.00     0.031 A 
BRANCH  49  63
ATOM     63  C   UNL     1     -10.838   3.695   2.162  1.00  0.00    -0.014 A 
ATOM     64  C   UNL     1     -12.238   3.830   2.025  1.00  0.00     0.009 A 
ATOM     65  C   UNL     1     -10.268   4.354   3.262  1.00  0.00     0.009 A 
ATOM     66  C   UNL     1     -13.008   4.626   2.883  1.00  0.00     0.001 A 
ATOM     67  C   UNL     1     -11.032   5.166   4.119  1.00  0.00     0.001 A 
ATOM     68  C   UNL     1     -12.400   5.310   3.923  1.00  0.00     0.000 A 
ENDBRANCH  49  63
BRANCH  50  69
ATOM     69  C   UNL     1      -6.008  -0.320  -5.133  1.00  0.00    -0.014 A 
ATOM     70  C   UNL     1      -5.412   0.156  -6.321  1.00  0.00     0.009 A 
ATOM     71  C   UNL     1      -5.167  -0.677  -4.066  1.00  0.00     0.009 A 
ATOM     72  C   UNL     1      -4.030   0.365  -6.402  1.00  0.00     0.001 A 
ATOM     73  C   UNL     1      -3.781  -0.477  -4.158  1.00  0.00     0.001 A 
ATOM     74  C   UNL     1      -3.218   0.071  -5.311  1.00  0.00     0.000 A 
ENDBRANCH  50  69
BRANCH  62  75
ATOM     75  C   UNL     1     -11.526  -2.207  -0.761  1.00  0.00    -0.014 A 
ATOM     76  C   UNL     1     -11.352  -3.591  -0.853  1.00  0.00     0.009 A 
ATOM     77  C   UNL     1     -12.456  -1.755   0.209  1.00  0.00     0.009 A 
ATOM     78  C   UNL     1     -12.088  -4.474  -0.050  1.00  0.00     0.001 A 
ATOM     79  C   UNL     1     -13.154  -2.627   1.044  1.00  0.00     0.001 A 
ATOM     80  C   UNL     1     -12.977  -3.993   0.905  1.00  0.00     0.000 A 
ENDBRANCH  62  75
ENDBRANCH  36  37
ENDBRANCH  29  31
ENDBRANCH  28  29
ENDBRANCH   1  28
TORSDOF 12
