REMARK SMILES O=C(OCCOC(=O)c1cccc(COc2ccccc2C=C2C(=O)c3ccccc3C2=O)c1)c1ccc(-c2c3nc(c(-c4ccccc4)c4ccc([nH]4)c(-c4ccccc4)c4nc(c(-c5ccccc5)c5ccc2[nH]5)C=C4)C=C3)cc1
REMARK SMILES IDX 5 1 4 2 3 3 2 4 1 5 35 6 36 7 82 8 37 9 81 10 38 11 39 12
REMARK SMILES IDX 40 13 75 14 41 15 80 16 74 17 76 18 42 19 79 20 73 21 72 22
REMARK SMILES IDX 43 24 65 25 50 26 64 27 51 28 54 29 63 30 77 31 52 32 53 33
REMARK SMILES IDX 62 35 78 36 55 37 44 38 45 39 49 40 46 41 48 42 47 43 66 44
REMARK SMILES IDX 67 45 71 46 68 47 70 48 69 49 56 50 57 51 61 52 58 53 60 54
REMARK SMILES IDX 59 55 6 56 7 57 8 58 9 59 10 60 34 61 11 62 13 63 12 64
REMARK SMILES IDX 14 65 15 66 16 67 17 68 21 69 18 70 20 71 19 72 22 73 23 74
REMARK SMILES IDX 24 75 32 76 25 77 26 78 31 79 33 80 27 81 30 82 28 83 29 84
REMARK H PARENT 76 23 54 34
REMARK Flexibility Score: inf
ROOT
ATOM      1  C   UNL     1       4.412   1.502  -1.336  1.00  0.00     0.275 C 
ENDROOT
BRANCH   1   2
ATOM      2  C   UNL     1       4.536  -0.028  -1.438  1.00  0.00     0.275 C 
BRANCH   2   3
ATOM      3  O   UNL     1       3.479  -0.814  -0.854  1.00  0.00    -0.458 OA
BRANCH   3   4
ATOM      4  C   UNL     1       3.384  -1.332   0.395  1.00  0.00     0.338 C 
ATOM      5  O   UNL     1       2.584  -2.235   0.628  1.00  0.00    -0.246 OA
BRANCH   4   6
ATOM      6  C   UNL     1       4.080  -0.699   1.549  1.00  0.00     0.060 A 
ATOM      7  C   UNL     1       5.378  -0.189   1.522  1.00  0.00     0.016 A 
ATOM      8  C   UNL     1       3.345  -0.586   2.739  1.00  0.00     0.016 A 
ATOM      9  C   UNL     1       5.877   0.557   2.590  1.00  0.00     0.010 A 
ATOM     10  C   UNL     1       3.833   0.171   3.807  1.00  0.00     0.010 A 
ATOM     11  C   UNL     1       5.102   0.759   3.732  1.00  0.00    -0.014 A 
BRANCH  11  12
ATOM     12  C   UNL     1       5.726   1.358   4.929  1.00  0.00     0.031 A 
ATOM     13  C   UNL     1       6.154   0.412   6.009  1.00  0.00     0.074 A 
ATOM     14  C   UNL     1       5.995   2.674   5.019  1.00  0.00     0.049 A 
ATOM     15  N   UNL     1       6.867   0.652   7.076  1.00  0.00    -0.248 NA
ATOM     16  C   UNL     1       5.771  -1.001   5.841  1.00  0.00     0.031 C 
ATOM     17  C   UNL     1       5.726   3.671   3.986  1.00  0.00     0.029 A 
ATOM     18  N   UNL     1       6.562   3.402   6.034  1.00  0.00    -0.354 N 
ATOM     19  C   UNL     1       7.070  -0.589   7.660  1.00  0.00     0.074 A 
ATOM     20  C   UNL     1       6.316  -1.559   6.905  1.00  0.00     0.031 C 
ATOM     21  C   UNL     1       6.063   4.891   4.442  1.00  0.00     0.029 A 
ATOM     22  C   UNL     1       6.608   4.755   5.787  1.00  0.00     0.049 A 
ATOM     23  H   UNL     1       6.906   2.995   6.862  1.00  0.00     0.167 HD
ATOM     24  C   UNL     1       7.871  -0.905   8.700  1.00  0.00     0.031 A 
ATOM     25  C   UNL     1       7.061   5.761   6.558  1.00  0.00     0.031 A 
ATOM     26  C   UNL     1       8.572   0.070   9.479  1.00  0.00     0.049 A 
ATOM     27  C   UNL     1       7.768   5.410   7.839  1.00  0.00     0.074 A 
ATOM     28  C   UNL     1       9.394  -0.122  10.570  1.00  0.00     0.029 A 
ATOM     29  N   UNL     1       8.501   1.439   9.255  1.00  0.00    -0.354 N 
ATOM     30  N   UNL     1       8.024   4.223   8.338  1.00  0.00    -0.248 NA
ATOM     31  C   UNL     1       8.307   6.526   8.627  1.00  0.00     0.031 C 
ATOM     32  C   UNL     1       9.768   1.138  11.050  1.00  0.00     0.029 A 
ATOM     33  C   UNL     1       9.232   2.110  10.216  1.00  0.00     0.049 A 
ATOM     34  H   UNL     1       8.004   1.867   8.521  1.00  0.00     0.167 HD
ATOM     35  C   UNL     1       8.813   4.444   9.458  1.00  0.00     0.074 A 
ATOM     36  C   UNL     1       8.977   5.881   9.572  1.00  0.00     0.031 C 
ATOM     37  C   UNL     1       9.376   3.542  10.299  1.00  0.00     0.031 A 
BRANCH  24  38
ATOM     38  C   UNL     1       7.970  -2.364   9.032  1.00  0.00    -0.014 A 
ATOM     39  C   UNL     1       8.621  -3.260   8.163  1.00  0.00     0.009 A 
ATOM     40  C   UNL     1       7.322  -2.866  10.167  1.00  0.00     0.009 A 
ATOM     41  C   UNL     1       8.568  -4.635   8.396  1.00  0.00     0.001 A 
ATOM     42  C   UNL     1       7.297  -4.239  10.414  1.00  0.00     0.001 A 
ATOM     43  C   UNL     1       7.905  -5.123   9.521  1.00  0.00     0.000 A 
ENDBRANCH  24  38
BRANCH  25  44
ATOM     44  C   UNL     1       6.914   7.178   6.126  1.00  0.00    -0.014 A 
ATOM     45  C   UNL     1       8.026   7.935   5.726  1.00  0.00     0.009 A 
ATOM     46  C   UNL     1       5.653   7.797   6.151  1.00  0.00     0.009 A 
ATOM     47  C   UNL     1       7.885   9.286   5.392  1.00  0.00     0.001 A 
ATOM     48  C   UNL     1       5.511   9.142   5.797  1.00  0.00     0.001 A 
ATOM     49  C   UNL     1       6.628   9.888   5.428  1.00  0.00     0.000 A 
ENDBRANCH  25  44
BRANCH  37  50
ATOM     50  C   UNL     1      10.268   4.081  11.380  1.00  0.00    -0.014 A 
ATOM     51  C   UNL     1       9.750   4.777  12.481  1.00  0.00     0.009 A 
ATOM     52  C   UNL     1      11.649   3.835  11.313  1.00  0.00     0.009 A 
ATOM     53  C   UNL     1      10.604   5.246  13.479  1.00  0.00     0.001 A 
ATOM     54  C   UNL     1      12.495   4.274  12.329  1.00  0.00     0.001 A 
ATOM     55  C   UNL     1      11.974   4.988  13.406  1.00  0.00     0.000 A 
ENDBRANCH  37  50
ENDBRANCH  11  12
ENDBRANCH   4   6
ENDBRANCH   3   4
ENDBRANCH   2   3
ENDBRANCH   1   2
BRANCH   1  56
ATOM     56  O   UNL     1       4.097   2.028  -0.036  1.00  0.00    -0.458 OA
BRANCH  56  57
ATOM     57  C   UNL     1       2.771   1.999   0.239  1.00  0.00     0.338 C 
ATOM     58  O   UNL     1       1.912   1.508  -0.472  1.00  0.00    -0.246 OA
BRANCH  57  59
ATOM     59  C   UNL     1       2.449   2.536   1.570  1.00  0.00     0.060 A 
ATOM     60  C   UNL     1       1.534   1.823   2.356  1.00  0.00     0.016 A 
ATOM     61  C   UNL     1       2.896   3.784   1.986  1.00  0.00     0.023 A 
ATOM     62  C   UNL     1       1.182   2.268   3.626  1.00  0.00     0.001 A 
ATOM     63  C   UNL     1       2.448   4.285   3.218  1.00  0.00    -0.010 A 
ATOM     64  C   UNL     1       1.661   3.490   4.069  1.00  0.00     0.007 A 
BRANCH  63  65
ATOM     65  C   UNL     1       2.556   5.751   3.526  1.00  0.00     0.265 C 
BRANCH  65  66
ATOM     66  O   UNL     1       1.219   6.263   3.376  1.00  0.00    -0.488 OA
BRANCH  66  67
ATOM     67  C   UNL     1       1.008   6.848   2.152  1.00  0.00     0.127 A 
ATOM     68  C   UNL     1       1.469   8.164   2.014  1.00  0.00     0.047 A 
ATOM     69  C   UNL     1       0.253   6.225   1.134  1.00  0.00     0.017 A 
ATOM     70  C   UNL     1       1.188   8.886   0.859  1.00  0.00     0.004 A 
ATOM     71  C   UNL     1      -0.068   7.006   0.014  1.00  0.00     0.012 A 
ATOM     72  C   UNL     1       0.410   8.309  -0.136  1.00  0.00     0.001 A 
BRANCH  69  73
ATOM     73  C   UNL     1      -0.295   4.848   1.217  1.00  0.00     0.028 C 
ATOM     74  C   UNL     1      -0.378   3.936   0.227  1.00  0.00     0.071 C 
ATOM     75  C   UNL     1       0.132   3.999  -1.180  1.00  0.00     0.197 C 
ATOM     76  C   UNL     1      -1.022   2.592   0.408  1.00  0.00     0.197 C 
ATOM     77  O   UNL     1       0.816   4.843  -1.715  1.00  0.00    -0.288 OA
ATOM     78  C   UNL     1      -0.293   2.749  -1.821  1.00  0.00     0.034 A 
ATOM     79  C   UNL     1      -0.919   1.916  -0.899  1.00  0.00     0.034 A 
ATOM     80  O   UNL     1      -1.538   2.138   1.405  1.00  0.00    -0.288 OA
ATOM     81  C   UNL     1      -0.032   2.342  -3.119  1.00  0.00     0.013 A 
ATOM     82  C   UNL     1      -1.278   0.621  -1.235  1.00  0.00     0.013 A 
ATOM     83  C   UNL     1      -0.407   1.047  -3.480  1.00  0.00     0.001 A 
ATOM     84  C   UNL     1      -1.015   0.189  -2.542  1.00  0.00     0.001 A 
ENDBRANCH  69  73
ENDBRANCH  66  67
ENDBRANCH  65  66
ENDBRANCH  63  65
ENDBRANCH  57  59
ENDBRANCH  56  57
ENDBRANCH   1  56
TORSDOF 15
