REMARK SMILES O=C(Cc1cccc(Oc2ncnc3c2CCCC3)c1)OCCOC(=O)c1ccc(-c2c3nc(c(-c4ccccc4)c4ccc([nH]4)c(-c4ccccc4)c4nc(c(-c5ccccc5)c5ccc2[nH]5)C=C4)C=C3)cc1
REMARK SMILES IDX 22 1 21 2 2 3 1 4 3 5 4 6 5 7 20 8 6 9 8 10 7 11 9 12 10 13
REMARK SMILES IDX 11 14 15 15 12 16 14 17 16 18 13 19 19 20 17 21 18 22 23 23
REMARK SMILES IDX 24 24 25 25 26 26 27 27 28 28 74 29 29 30 73 31 30 32 31 33
REMARK SMILES IDX 32 34 67 35 33 36 72 37 66 38 68 39 34 40 71 41 65 42 64 43
REMARK SMILES IDX 35 45 57 46 42 47 56 48 43 49 46 50 55 51 69 52 44 53 45 54
REMARK SMILES IDX 54 56 70 57 47 58 36 59 37 60 41 61 38 62 40 63 39 64 58 65
REMARK SMILES IDX 59 66 63 67 60 68 62 69 61 70 48 71 49 72 53 73 50 74 52 75
REMARK SMILES IDX 51 76
REMARK H PARENT 68 44 46 55
REMARK Flexibility Score: inf
ROOT
ATOM      1  C   UNL     1       3.727   1.235  -0.429  1.00  0.00     0.274 C 
ENDROOT
BRANCH   1   2
ATOM      2  O   UNL     1       2.414   0.643  -0.401  1.00  0.00    -0.462 OA
BRANCH   2   3
ATOM      3  C   UNL     1       2.259  -0.693  -0.615  1.00  0.00     0.310 C 
ATOM      4  O   UNL     1       1.420  -1.105  -1.413  1.00  0.00    -0.252 OA
BRANCH   3   5
ATOM      5  C   UNL     1       3.022  -1.630   0.302  1.00  0.00     0.158 C 
BRANCH   5   6
ATOM      6  C   UNL     1       4.029  -2.511  -0.385  1.00  0.00    -0.033 A 
ATOM      7  C   UNL     1       3.728  -3.823  -0.756  1.00  0.00     0.004 A 
ATOM      8  C   UNL     1       5.311  -2.013  -0.648  1.00  0.00     0.051 A 
ATOM      9  C   UNL     1       4.695  -4.608  -1.388  1.00  0.00     0.004 A 
ATOM     10  C   UNL     1       6.249  -2.753  -1.363  1.00  0.00     0.129 A 
ATOM     11  C   UNL     1       5.946  -4.069  -1.706  1.00  0.00     0.047 A 
BRANCH  10  12
ATOM     12  O   UNL     1       7.476  -2.269  -1.770  1.00  0.00    -0.439 OA
BRANCH  12  13
ATOM     13  C   UNL     1       7.637  -0.892  -1.778  1.00  0.00     0.225 A 
ATOM     14  N   UNL     1       7.972  -0.328  -0.599  1.00  0.00    -0.201 NA
ATOM     15  C   UNL     1       7.516  -0.194  -2.970  1.00  0.00     0.036 A 
ATOM     16  C   UNL     1       8.171   0.992  -0.631  1.00  0.00     0.226 A 
ATOM     17  C   UNL     1       7.782   1.166  -2.881  1.00  0.00     0.051 A 
ATOM     18  C   UNL     1       7.189  -0.865  -4.272  1.00  0.00     0.043 C 
ATOM     19  N   UNL     1       8.076   1.777  -1.712  1.00  0.00    -0.241 NA
ATOM     20  C   UNL     1       7.737   2.058  -4.095  1.00  0.00     0.057 C 
ATOM     21  C   UNL     1       6.873   0.117  -5.404  1.00  0.00     0.005 C 
ATOM     22  C   UNL     1       7.857   1.280  -5.403  1.00  0.00     0.007 C 
ENDBRANCH  12  13
ENDBRANCH  10  12
ENDBRANCH   5   6
ENDBRANCH   3   5
ENDBRANCH   2   3
ENDBRANCH   1   2
BRANCH   1  23
ATOM     23  C   UNL     1       4.148   1.856   0.908  1.00  0.00     0.275 C 
BRANCH  23  24
ATOM     24  O   UNL     1       3.848   0.993   2.015  1.00  0.00    -0.458 OA
BRANCH  24  25
ATOM     25  C   UNL     1       2.599   1.159   2.520  1.00  0.00     0.338 C 
ATOM     26  O   UNL     1       1.819   2.059   2.254  1.00  0.00    -0.246 OA
BRANCH  25  27
ATOM     27  C   UNL     1       2.217  -0.022   3.323  1.00  0.00     0.060 A 
ATOM     28  C   UNL     1       0.908  -0.499   3.183  1.00  0.00     0.016 A 
ATOM     29  C   UNL     1       3.103  -0.646   4.207  1.00  0.00     0.016 A 
ATOM     30  C   UNL     1       0.456  -1.547   3.983  1.00  0.00     0.010 A 
ATOM     31  C   UNL     1       2.648  -1.699   5.011  1.00  0.00     0.010 A 
ATOM     32  C   UNL     1       1.308  -2.118   4.938  1.00  0.00    -0.014 A 
BRANCH  32  33
ATOM     33  C   UNL     1       0.721  -2.985   5.989  1.00  0.00     0.031 A 
ATOM     34  C   UNL     1       0.331  -2.356   7.301  1.00  0.00     0.074 A 
ATOM     35  C   UNL     1       0.467  -4.288   5.772  1.00  0.00     0.049 A 
ATOM     36  N   UNL     1      -0.316  -2.877   8.312  1.00  0.00    -0.248 NA
ATOM     37  C   UNL     1       0.718  -0.948   7.494  1.00  0.00     0.031 C 
ATOM     38  C   UNL     1       0.775  -5.022   4.547  1.00  0.00     0.029 A 
ATOM     39  N   UNL     1      -0.127  -5.220   6.586  1.00  0.00    -0.354 N 
ATOM     40  C   UNL     1      -0.424  -1.860   9.252  1.00  0.00     0.074 A 
ATOM     41  C   UNL     1       0.264  -0.707   8.714  1.00  0.00     0.031 C 
ATOM     42  C   UNL     1       0.355  -6.293   4.686  1.00  0.00     0.029 A 
ATOM     43  C   UNL     1      -0.243  -6.461   6.010  1.00  0.00     0.049 A 
ATOM     44  H   UNL     1      -0.441  -5.018   7.497  1.00  0.00     0.167 HD
ATOM     45  C   UNL     1      -1.053  -1.870  10.451  1.00  0.00     0.031 A 
ATOM     46  C   UNL     1      -0.782  -7.598   6.492  1.00  0.00     0.031 A 
ATOM     47  C   UNL     1      -1.722  -3.013  11.008  1.00  0.00     0.049 A 
ATOM     48  C   UNL     1      -1.422  -7.603   7.857  1.00  0.00     0.074 A 
ATOM     49  C   UNL     1      -2.405  -3.113  12.208  1.00  0.00     0.029 A 
ATOM     50  N   UNL     1      -1.779  -4.260  10.408  1.00  0.00    -0.354 N 
ATOM     51  N   UNL     1      -1.581  -6.614   8.703  1.00  0.00    -0.248 NA
ATOM     52  C   UNL     1      -1.980  -8.884   8.319  1.00  0.00     0.031 C 
ATOM     53  C   UNL     1      -2.833  -4.437  12.357  1.00  0.00     0.029 A 
ATOM     54  C   UNL     1      -2.464  -5.144  11.224  1.00  0.00     0.049 A 
ATOM     55  H   UNL     1      -1.390  -4.484   9.532  1.00  0.00     0.167 HD
ATOM     56  C   UNL     1      -2.292  -7.143   9.775  1.00  0.00     0.074 A 
ATOM     57  C   UNL     1      -2.539  -8.536   9.470  1.00  0.00     0.031 C 
ATOM     58  C   UNL     1      -2.712  -6.526  10.907  1.00  0.00     0.031 A 
BRANCH  45  59
ATOM     59  C   UNL     1      -1.022  -0.599  11.249  1.00  0.00    -0.014 A 
ATOM     60  C   UNL     1      -1.782   0.518  10.864  1.00  0.00     0.009 A 
ATOM     61  C   UNL     1      -0.233  -0.520  12.406  1.00  0.00     0.009 A 
ATOM     62  C   UNL     1      -1.723   1.701  11.603  1.00  0.00     0.001 A 
ATOM     63  C   UNL     1      -0.196   0.655  13.158  1.00  0.00     0.001 A 
ATOM     64  C   UNL     1      -0.933   1.767  12.750  1.00  0.00     0.000 A 
ENDBRANCH  45  59
BRANCH  46  65
ATOM     65  C   UNL     1      -0.769  -8.839   5.674  1.00  0.00    -0.014 A 
ATOM     66  C   UNL     1      -1.959  -9.350   5.134  1.00  0.00     0.009 A 
ATOM     67  C   UNL     1       0.427  -9.543   5.470  1.00  0.00     0.009 A 
ATOM     68  C   UNL     1      -1.957 -10.560   4.435  1.00  0.00     0.001 A 
ATOM     69  C   UNL     1       0.431 -10.739   4.749  1.00  0.00     0.001 A 
ATOM     70  C   UNL     1      -0.762 -11.251   4.242  1.00  0.00     0.000 A 
ENDBRANCH  46  65
BRANCH  58  71
ATOM     71  C   UNL     1      -3.526  -7.336  11.878  1.00  0.00    -0.014 A 
ATOM     72  C   UNL     1      -2.945  -8.343  12.663  1.00  0.00     0.009 A 
ATOM     73  C   UNL     1      -4.893  -7.055  12.035  1.00  0.00     0.009 A 
ATOM     74  C   UNL     1      -3.724  -9.077  13.560  1.00  0.00     0.001 A 
ATOM     75  C   UNL     1      -5.663  -7.771  12.953  1.00  0.00     0.001 A 
ATOM     76  C   UNL     1      -5.081  -8.788  13.707  1.00  0.00     0.000 A 
ENDBRANCH  58  71
ENDBRANCH  32  33
ENDBRANCH  25  27
ENDBRANCH  24  25
ENDBRANCH  23  24
ENDBRANCH   1  23
TORSDOF 14
