REMARK SMILES CC[NH2+][C@@]1(C(=O)OCCOC(=O)c2ccc(-c3c4nc(c(-c5ccccc5)c5ccc([nH]5)c(-c5ccccc5)c5nc(c(-c6ccccc6)c6ccc3[nH]6)C=C5)C=C4)cc2)CC[C@H](Oc2ccc3c(c2)OCO3)C1
REMARK SMILES IDX 8 1 7 2 5 3 6 4 4 5 61 6 74 7 62 8 63 9 3 10 2 13 1 14 64 15
REMARK SMILES IDX 65 16 66 17 70 18 67 19 69 20 68 21 71 22 73 23 72 24 9 25
REMARK SMILES IDX 10 26 11 27 12 28 13 29 14 30 60 31 15 32 59 33 16 34 17 35
REMARK SMILES IDX 18 36 53 37 19 38 58 39 52 40 54 41 20 42 57 43 51 44 50 45
REMARK SMILES IDX 21 47 43 48 28 49 42 50 29 51 32 52 41 53 55 54 30 55 31 56
REMARK SMILES IDX 40 58 56 59 33 60 22 61 23 62 27 63 24 64 26 65 25 66 44 67
REMARK SMILES IDX 45 68 49 69 46 70 48 71 47 72 34 73 35 74 39 75 36 76 38 77
REMARK SMILES IDX 37 78
REMARK H PARENT 3 11 3 12 54 46 32 57
REMARK Flexibility Score: inf
ROOT
ATOM      1  C   UNL     1      -2.825   0.033  -4.727  1.00  0.00     0.274 C 
ENDROOT
BRANCH   1   2
ATOM      2  O   UNL     1      -1.395   0.193  -4.654  1.00  0.00    -0.457 OA
BRANCH   2   3
ATOM      3  C   UNL     1      -0.885   0.696  -3.498  1.00  0.00     0.368 C 
ATOM      4  O   UNL     1      -1.585   1.000  -2.536  1.00  0.00    -0.245 OA
BRANCH   3   5
ATOM      5  C   UNL     1       0.672   0.926  -3.571  1.00  0.00     0.198 C 
ATOM      6  C   UNL     1       0.974   2.371  -3.978  1.00  0.00     0.085 C 
ATOM      7  C   UNL     1       1.363   0.131  -4.702  1.00  0.00     0.126 C 
ATOM      8  C   UNL     1       0.800   2.380  -5.489  1.00  0.00     0.052 C 
ATOM      9  C   UNL     1       1.248   0.994  -5.974  1.00  0.00     0.180 C 
BRANCH   5  10
ATOM     10  N   UNL     1       1.292   0.536  -2.274  1.00  0.00    -0.332 N 
ATOM     11  H   UNL     1       0.908  -0.369  -2.000  1.00  0.00     0.347 HD
ATOM     12  H   UNL     1       2.299   0.519  -2.436  1.00  0.00     0.347 HD
BRANCH  10  13
ATOM     13  C   UNL     1       1.073   1.473  -1.169  1.00  0.00     0.257 C 
ATOM     14  C   UNL     1       1.469   0.803   0.137  1.00  0.00     0.071 C 
ENDBRANCH  10  13
ENDBRANCH   5  10
BRANCH   9  15
ATOM     15  O   UNL     1       0.294   0.361  -6.822  1.00  0.00    -0.490 OA
BRANCH  15  16
ATOM     16  C   UNL     1      -0.045   0.928  -8.012  1.00  0.00     0.123 A 
ATOM     17  C   UNL     1       0.669   1.937  -8.680  1.00  0.00     0.050 A 
ATOM     18  C   UNL     1      -1.219   0.408  -8.567  1.00  0.00     0.097 A 
ATOM     19  C   UNL     1       0.198   2.452  -9.895  1.00  0.00     0.054 A 
ATOM     20  C   UNL     1      -1.652   0.922  -9.767  1.00  0.00     0.169 A 
ATOM     21  C   UNL     1      -0.963   1.920 -10.413  1.00  0.00     0.166 A 
ATOM     22  O   UNL     1      -2.763   0.530 -10.446  1.00  0.00    -0.453 OA
ATOM     23  O   UNL     1      -1.554   2.278 -11.584  1.00  0.00    -0.454 OA
ATOM     24  C   UNL     1      -2.627   1.314 -11.648  1.00  0.00     0.468 C 
ENDBRANCH  15  16
ENDBRANCH   9  15
ENDBRANCH   3   5
ENDBRANCH   2   3
ENDBRANCH   1   2
BRANCH   1  25
ATOM     25  C   UNL     1      -3.216  -1.444  -4.723  1.00  0.00     0.275 C 
BRANCH  25  26
ATOM     26  O   UNL     1      -2.769  -2.086  -3.515  1.00  0.00    -0.458 OA
BRANCH  26  27
ATOM     27  C   UNL     1      -1.638  -2.818  -3.648  1.00  0.00     0.338 C 
ATOM     28  O   UNL     1      -1.039  -3.082  -4.677  1.00  0.00    -0.246 OA
BRANCH  27  29
ATOM     29  C   UNL     1      -1.104  -3.146  -2.317  1.00  0.00     0.060 A 
ATOM     30  C   UNL     1       0.167  -2.659  -2.009  1.00  0.00     0.016 A 
ATOM     31  C   UNL     1      -1.788  -3.965  -1.416  1.00  0.00     0.016 A 
ATOM     32  C   UNL     1       0.761  -2.975  -0.792  1.00  0.00     0.010 A 
ATOM     33  C   UNL     1      -1.180  -4.301  -0.198  1.00  0.00     0.010 A 
ATOM     34  C   UNL     1       0.101  -3.812   0.115  1.00  0.00    -0.014 A 
BRANCH  34  35
ATOM     35  C   UNL     1       0.818  -4.226   1.343  1.00  0.00     0.031 A 
ATOM     36  C   UNL     1       1.598  -5.509   1.345  1.00  0.00     0.074 A 
ATOM     37  C   UNL     1       0.864  -3.407   2.409  1.00  0.00     0.049 A 
ATOM     38  N   UNL     1       2.342  -6.022   2.292  1.00  0.00    -0.248 NA
ATOM     39  C   UNL     1       1.543  -6.314   0.115  1.00  0.00     0.031 C 
ATOM     40  C   UNL     1       0.209  -2.103   2.501  1.00  0.00     0.029 A 
ATOM     41  N   UNL     1       1.516  -3.542   3.609  1.00  0.00    -0.354 N 
ATOM     42  C   UNL     1       2.855  -7.202   1.769  1.00  0.00     0.074 A 
ATOM     43  C   UNL     1       2.316  -7.343   0.432  1.00  0.00     0.031 C 
ATOM     44  C   UNL     1       0.512  -1.546   3.686  1.00  0.00     0.029 A 
ATOM     45  C   UNL     1       1.347  -2.470   4.450  1.00  0.00     0.049 A 
ATOM     46  H   UNL     1       2.054  -4.332   3.844  1.00  0.00     0.167 HD
ATOM     47  C   UNL     1       3.701  -8.087   2.347  1.00  0.00     0.031 A 
ATOM     48  C   UNL     1       1.804  -2.265   5.700  1.00  0.00     0.031 A 
ATOM     49  C   UNL     1       4.210  -7.972   3.687  1.00  0.00     0.049 A 
ATOM     50  C   UNL     1       2.655  -3.319   6.356  1.00  0.00     0.074 A 
ATOM     51  C   UNL     1       5.023  -8.852   4.381  1.00  0.00     0.029 A 
ATOM     52  N   UNL     1       3.952  -6.910   4.538  1.00  0.00    -0.354 N 
ATOM     53  N   UNL     1       3.115  -4.441   5.858  1.00  0.00    -0.248 NA
ATOM     54  C   UNL     1       3.049  -3.075   7.752  1.00  0.00     0.031 C 
ATOM     55  C   UNL     1       5.226  -8.339   5.667  1.00  0.00     0.029 A 
ATOM     56  C   UNL     1       4.579  -7.117   5.755  1.00  0.00     0.049 A 
ATOM     57  H   UNL     1       3.404  -6.124   4.312  1.00  0.00     0.167 HD
ATOM     58  C   UNL     1       3.868  -5.024   6.871  1.00  0.00     0.074 A 
ATOM     59  C   UNL     1       3.824  -4.120   8.001  1.00  0.00     0.031 C 
ATOM     60  C   UNL     1       4.531  -6.206   6.868  1.00  0.00     0.031 A 
BRANCH  47  61
ATOM     61  C   UNL     1       4.101  -9.282   1.532  1.00  0.00    -0.014 A 
ATOM     62  C   UNL     1       5.029  -9.165   0.486  1.00  0.00     0.009 A 
ATOM     63  C   UNL     1       3.564 -10.543   1.831  1.00  0.00     0.009 A 
ATOM     64  C   UNL     1       5.392 -10.286  -0.263  1.00  0.00     0.001 A 
ATOM     65  C   UNL     1       3.946 -11.666   1.095  1.00  0.00     0.001 A 
ATOM     66  C   UNL     1       4.854 -11.535   0.045  1.00  0.00     0.000 A 
ENDBRANCH  47  61
BRANCH  48  67
ATOM     67  C   UNL     1       1.439  -1.032   6.447  1.00  0.00    -0.014 A 
ATOM     68  C   UNL     1       2.416  -0.088   6.798  1.00  0.00     0.009 A 
ATOM     69  C   UNL     1       0.116  -0.826   6.869  1.00  0.00     0.009 A 
ATOM     70  C   UNL     1       2.083   1.015   7.590  1.00  0.00     0.001 A 
ATOM     71  C   UNL     1      -0.220   0.292   7.633  1.00  0.00     0.001 A 
ATOM     72  C   UNL     1       0.766   1.204   8.005  1.00  0.00     0.000 A 
ENDBRANCH  48  67
BRANCH  60  73
ATOM     73  C   UNL     1       5.289  -6.568   8.114  1.00  0.00    -0.014 A 
ATOM     74  C   UNL     1       4.622  -6.965   9.284  1.00  0.00     0.009 A 
ATOM     75  C   UNL     1       6.692  -6.534   8.109  1.00  0.00     0.009 A 
ATOM     76  C   UNL     1       5.345  -7.283  10.435  1.00  0.00     0.001 A 
ATOM     77  C   UNL     1       7.413  -6.879   9.253  1.00  0.00     0.001 A 
ATOM     78  C   UNL     1       6.739  -7.243  10.418  1.00  0.00     0.000 A 
ENDBRANCH  60  73
ENDBRANCH  34  35
ENDBRANCH  27  29
ENDBRANCH  26  27
ENDBRANCH  25  26
ENDBRANCH   1  25
TORSDOF 15
