REMARK SMILES O=C(OCCOC(=O)[C@@H]1[C@@H](C(=O)NCc2ccccc2Br)[C@H]2C=C[C@@H]1O2)c1ccc(-c2c3nc(c(-c4ccccc4)c4ccc([nH]4)c(-c4ccccc4)c4nc(c(-c5ccccc5)c5ccc2[nH]5)C=C4)C=C3)cc1
REMARK SMILES IDX 5 1 4 2 3 3 2 4 1 5 27 6 28 7 74 8 29 9 73 10 30 11 31 12
REMARK SMILES IDX 32 13 67 14 33 15 72 16 66 17 68 18 34 19 71 20 65 21 64 22
REMARK SMILES IDX 35 24 57 25 42 26 56 27 43 28 46 29 55 30 69 31 44 32 45 33
REMARK SMILES IDX 54 35 70 36 47 37 36 38 37 39 41 40 38 41 40 42 39 43 58 44
REMARK SMILES IDX 59 45 63 46 60 47 62 48 61 49 48 50 49 51 53 52 50 53 52 54
REMARK SMILES IDX 51 55 6 56 7 57 8 58 9 59 10 60 25 61 22 62 24 63 26 64
REMARK SMILES IDX 23 65 11 66 12 67 13 68 14 70 15 71 16 72 20 73 17 74 19 75
REMARK SMILES IDX 21 76 18 77
REMARK H PARENT 68 23 46 34 13 69
REMARK Flexibility Score: inf
ROOT
ATOM      1  C   UNL     1       3.641  -1.799   0.280  1.00  0.00     0.274 C 
ENDROOT
BRANCH   1   2
ATOM      2  C   UNL     1       3.660  -0.660   1.300  1.00  0.00     0.275 C 
BRANCH   2   3
ATOM      3  O   UNL     1       2.508   0.202   1.196  1.00  0.00    -0.458 OA
BRANCH   3   4
ATOM      4  C   UNL     1       2.463   1.531   0.909  1.00  0.00     0.338 C 
ATOM      5  O   UNL     1       1.622   2.233   1.467  1.00  0.00    -0.246 OA
BRANCH   4   6
ATOM      6  C   UNL     1       3.205   2.118  -0.263  1.00  0.00     0.060 A 
ATOM      7  C   UNL     1       4.506   1.822  -0.652  1.00  0.00     0.016 A 
ATOM      8  C   UNL     1       2.539   3.084  -1.039  1.00  0.00     0.016 A 
ATOM      9  C   UNL     1       5.027   2.311  -1.881  1.00  0.00     0.010 A 
ATOM     10  C   UNL     1       3.058   3.542  -2.280  1.00  0.00     0.010 A 
ATOM     11  C   UNL     1       4.258   3.045  -2.811  1.00  0.00    -0.014 A 
BRANCH  11  12
ATOM     12  C   UNL     1       4.785   3.552  -4.167  1.00  0.00     0.031 A 
ATOM     13  C   UNL     1       5.540   4.829  -4.100  1.00  0.00     0.074 A 
ATOM     14  C   UNL     1       4.668   3.035  -5.428  1.00  0.00     0.049 A 
ATOM     15  N   UNL     1       6.048   5.532  -5.072  1.00  0.00    -0.248 NA
ATOM     16  C   UNL     1       5.724   5.383  -2.755  1.00  0.00     0.031 C 
ATOM     17  C   UNL     1       4.077   1.766  -5.739  1.00  0.00     0.029 A 
ATOM     18  N   UNL     1       5.061   3.450  -6.701  1.00  0.00    -0.354 N 
ATOM     19  C   UNL     1       6.583   6.642  -4.458  1.00  0.00     0.074 A 
ATOM     20  C   UNL     1       6.307   6.528  -3.042  1.00  0.00     0.031 C 
ATOM     21  C   UNL     1       4.191   1.428  -7.027  1.00  0.00     0.029 A 
ATOM     22  C   UNL     1       4.787   2.543  -7.727  1.00  0.00     0.049 A 
ATOM     23  H   UNL     1       5.498   4.317  -6.863  1.00  0.00     0.167 HD
ATOM     24  C   UNL     1       7.244   7.676  -5.017  1.00  0.00     0.031 A 
ATOM     25  C   UNL     1       4.964   2.550  -9.072  1.00  0.00     0.031 A 
ATOM     26  C   UNL     1       7.495   7.837  -6.417  1.00  0.00     0.049 A 
ATOM     27  C   UNL     1       5.639   3.735  -9.687  1.00  0.00     0.074 A 
ATOM     28  C   UNL     1       8.109   8.903  -7.046  1.00  0.00     0.029 A 
ATOM     29  N   UNL     1       7.144   6.931  -7.407  1.00  0.00    -0.354 N 
ATOM     30  N   UNL     1       6.128   4.780  -9.071  1.00  0.00    -0.248 NA
ATOM     31  C   UNL     1       5.819   3.752 -11.148  1.00  0.00     0.031 C 
ATOM     32  C   UNL     1       8.081   8.672  -8.423  1.00  0.00     0.029 A 
ATOM     33  C   UNL     1       7.508   7.431  -8.648  1.00  0.00     0.049 A 
ATOM     34  H   UNL     1       6.704   6.065  -7.252  1.00  0.00     0.167 HD
ATOM     35  C   UNL     1       6.697   5.565 -10.056  1.00  0.00     0.074 A 
ATOM     36  C   UNL     1       6.512   4.872 -11.315  1.00  0.00     0.031 C 
ATOM     37  C   UNL     1       7.320   6.755  -9.907  1.00  0.00     0.031 A 
BRANCH  24  38
ATOM     38  C   UNL     1       7.612   8.754  -4.050  1.00  0.00    -0.014 A 
ATOM     39  C   UNL     1       8.582   8.540  -3.056  1.00  0.00     0.009 A 
ATOM     40  C   UNL     1       6.835   9.919  -4.024  1.00  0.00     0.009 A 
ATOM     41  C   UNL     1       8.700   9.438  -1.998  1.00  0.00     0.001 A 
ATOM     42  C   UNL     1       6.990  10.837  -2.990  1.00  0.00     0.001 A 
ATOM     43  C   UNL     1       7.903  10.583  -1.966  1.00  0.00     0.000 A 
ENDBRANCH  24  38
BRANCH  25  44
ATOM     44  C   UNL     1       4.534   1.393  -9.936  1.00  0.00    -0.014 A 
ATOM     45  C   UNL     1       5.481   0.596 -10.606  1.00  0.00     0.009 A 
ATOM     46  C   UNL     1       3.175   1.068 -10.100  1.00  0.00     0.009 A 
ATOM     47  C   UNL     1       5.084  -0.487 -11.404  1.00  0.00     0.001 A 
ATOM     48  C   UNL     1       2.781  -0.033 -10.875  1.00  0.00     0.001 A 
ATOM     49  C   UNL     1       3.735  -0.809 -11.528  1.00  0.00     0.000 A 
ENDBRANCH  25  44
BRANCH  37  50
ATOM     50  C   UNL     1       7.865   7.407 -11.140  1.00  0.00    -0.014 A 
ATOM     51  C   UNL     1       7.014   8.001 -12.083  1.00  0.00     0.009 A 
ATOM     52  C   UNL     1       9.254   7.503 -11.310  1.00  0.00     0.009 A 
ATOM     53  C   UNL     1       7.548   8.674 -13.182  1.00  0.00     0.001 A 
ATOM     54  C   UNL     1       9.784   8.199 -12.395  1.00  0.00     0.001 A 
ATOM     55  C   UNL     1       8.931   8.782 -13.331  1.00  0.00     0.000 A 
ENDBRANCH  37  50
ENDBRANCH  11  12
ENDBRANCH   4   6
ENDBRANCH   3   4
ENDBRANCH   2   3
ENDBRANCH   1   2
BRANCH   1  56
ATOM     56  O   UNL     1       3.183  -1.367  -0.999  1.00  0.00    -0.462 OA
BRANCH  56  57
ATOM     57  C   UNL     1       1.848  -1.520  -1.266  1.00  0.00     0.312 C 
ATOM     58  O   UNL     1       1.043  -2.057  -0.530  1.00  0.00    -0.252 OA
BRANCH  57  59
ATOM     59  C   UNL     1       1.550  -1.073  -2.672  1.00  0.00     0.147 C 
ATOM     60  C   UNL     1       2.574  -0.005  -3.163  1.00  0.00     0.128 C 
ATOM     61  C   UNL     1       0.209  -0.336  -2.799  1.00  0.00     0.157 C 
ATOM     62  C   UNL     1       1.599   1.079  -3.667  1.00  0.00     0.155 C 
ATOM     63  C   UNL     1      -0.166  -0.191  -4.252  1.00  0.00     0.004 C 
ATOM     64  O   UNL     1       0.638   1.032  -2.568  1.00  0.00    -0.365 OA
ATOM     65  C   UNL     1       0.697   0.684  -4.779  1.00  0.00     0.004 C 
BRANCH  60  66
ATOM     66  C   UNL     1       3.550  -0.729  -4.083  1.00  0.00     0.227 C 
ATOM     67  O   UNL     1       3.162  -1.347  -5.075  1.00  0.00    -0.275 OA
ATOM     68  N   UNL     1       4.859  -0.903  -3.731  1.00  0.00    -0.352 N 
ATOM     69  H   UNL     1       5.035  -1.749  -3.259  1.00  0.00     0.163 HD
BRANCH  68  70
ATOM     70  C   UNL     1       6.070  -0.060  -3.924  1.00  0.00     0.152 C 
BRANCH  70  71
ATOM     71  C   UNL     1       7.305  -0.715  -3.319  1.00  0.00    -0.015 A 
ATOM     72  C   UNL     1       7.149  -1.930  -2.628  1.00  0.00     0.007 A 
ATOM     73  C   UNL     1       8.619  -0.273  -3.558  1.00  0.00     0.022 A 
ATOM     74  C   UNL     1       8.222  -2.785  -2.408  1.00  0.00     0.000 A 
ATOM     75  C   UNL     1       9.710  -1.119  -3.299  1.00  0.00     0.016 A 
ATOM     76  Br  UNL     1       9.002   1.461  -4.229  1.00  0.00    -0.050 Br
ATOM     77  C   UNL     1       9.500  -2.398  -2.782  1.00  0.00     0.001 A 
ENDBRANCH  70  71
ENDBRANCH  68  70
ENDBRANCH  60  66
ENDBRANCH  57  59
ENDBRANCH  56  57
ENDBRANCH   1  56
TORSDOF 14
