REMARK SMILES O=C(OCCOC(=O)c1cc(S(=O)(=O)Nc2ccc(F)c(C(F)(F)F)c2)c[nH]1)c1ccc(-c2c3nc(c(-c4ccccc4)c4ccc([nH]4)c(-c4ccccc4)c4nc(c(-c5ccccc5)c5ccc2[nH]5)C=C4)C=C3)cc1
REMARK SMILES IDX 5 1 4 2 3 3 2 4 1 5 29 6 30 7 76 8 31 9 75 10 32 11 33 12
REMARK SMILES IDX 34 13 69 14 35 15 74 16 68 17 70 18 36 19 73 20 67 21 66 22
REMARK SMILES IDX 37 24 59 25 44 26 58 27 45 28 48 29 57 30 71 31 46 32 47 33
REMARK SMILES IDX 56 35 72 36 49 37 38 38 39 39 43 40 40 41 42 42 41 43 60 44
REMARK SMILES IDX 61 45 65 46 62 47 64 48 63 49 50 50 51 51 55 52 52 53 54 54
REMARK SMILES IDX 53 55 6 56 7 57 8 58 9 59 10 60 28 61 11 62 27 63 12 65
REMARK SMILES IDX 13 66 14 67 15 68 16 70 17 71 26 72 18 73 21 74 19 75 20 76
REMARK SMILES IDX 22 77 23 78 24 79 25 80
REMARK H PARENT 70 23 48 34 28 64 15 69
REMARK Flexibility Score: inf
ROOT
ATOM      1  C   UNL     1       4.649   0.560  -1.549  1.00  0.00     0.275 C 
ENDROOT
BRANCH   1   2
ATOM      2  C   UNL     1       4.419  -0.884  -1.094  1.00  0.00     0.275 C 
BRANCH   2   3
ATOM      3  O   UNL     1       3.034  -1.246  -0.906  1.00  0.00    -0.458 OA
BRANCH   3   4
ATOM      4  C   UNL     1       2.212  -0.613  -0.037  1.00  0.00     0.338 C 
ATOM      5  O   UNL     1       1.159  -0.091  -0.390  1.00  0.00    -0.246 OA
BRANCH   4   6
ATOM      6  C   UNL     1       2.464  -0.818   1.409  1.00  0.00     0.060 A 
ATOM      7  C   UNL     1       3.706  -0.633   2.016  1.00  0.00     0.016 A 
ATOM      8  C   UNL     1       1.347  -1.135   2.202  1.00  0.00     0.016 A 
ATOM      9  C   UNL     1       3.853  -0.844   3.382  1.00  0.00     0.010 A 
ATOM     10  C   UNL     1       1.481  -1.312   3.577  1.00  0.00     0.010 A 
ATOM     11  C   UNL     1       2.742  -1.177   4.164  1.00  0.00    -0.014 A 
BRANCH  11  12
ATOM     12  C   UNL     1       2.935  -1.250   5.628  1.00  0.00     0.031 A 
ATOM     13  C   UNL     1       3.025   0.116   6.293  1.00  0.00     0.074 A 
ATOM     14  C   UNL     1       3.093  -2.487   6.176  1.00  0.00     0.049 A 
ATOM     15  N   UNL     1       3.657   0.466   7.371  1.00  0.00    -0.248 NA
ATOM     16  C   UNL     1       2.382   1.277   5.626  1.00  0.00     0.031 C 
ATOM     17  C   UNL     1       2.986  -3.740   5.408  1.00  0.00     0.029 A 
ATOM     18  N   UNL     1       3.382  -2.950   7.444  1.00  0.00    -0.354 N 
ATOM     19  C   UNL     1       3.372   1.826   7.599  1.00  0.00     0.074 A 
ATOM     20  C   UNL     1       2.671   2.295   6.439  1.00  0.00     0.031 C 
ATOM     21  C   UNL     1       3.253  -4.801   6.193  1.00  0.00     0.029 A 
ATOM     22  C   UNL     1       3.554  -4.350   7.539  1.00  0.00     0.049 A 
ATOM     23  H   UNL     1       3.462  -2.352   8.222  1.00  0.00     0.167 HD
ATOM     24  C   UNL     1       3.607   2.454   8.786  1.00  0.00     0.031 A 
ATOM     25  C   UNL     1       3.947  -5.111   8.603  1.00  0.00     0.031 A 
ATOM     26  C   UNL     1       4.289   1.601   9.702  1.00  0.00     0.049 A 
ATOM     27  C   UNL     1       4.088  -4.218   9.767  1.00  0.00     0.074 A 
ATOM     28  C   UNL     1       5.563   1.104   9.791  1.00  0.00     0.029 A 
ATOM     29  N   UNL     1       3.504   0.935  10.610  1.00  0.00    -0.354 N 
ATOM     30  N   UNL     1       3.102  -3.688  10.423  1.00  0.00    -0.248 NA
ATOM     31  C   UNL     1       5.432  -3.849  10.231  1.00  0.00     0.031 C 
ATOM     32  C   UNL     1       5.416  -0.136  10.461  1.00  0.00     0.029 A 
ATOM     33  C   UNL     1       4.069  -0.303  10.792  1.00  0.00     0.049 A 
ATOM     34  H   UNL     1       2.692   1.279  11.048  1.00  0.00     0.167 HD
ATOM     35  C   UNL     1       3.707  -2.652  11.095  1.00  0.00     0.074 A 
ATOM     36  C   UNL     1       5.109  -2.988  11.194  1.00  0.00     0.031 C 
ATOM     37  C   UNL     1       3.167  -1.409  11.028  1.00  0.00     0.031 A 
BRANCH  24  38
ATOM     38  C   UNL     1       3.026   3.736   9.328  1.00  0.00    -0.014 A 
ATOM     39  C   UNL     1       3.579   4.252  10.524  1.00  0.00     0.009 A 
ATOM     40  C   UNL     1       1.804   4.275   8.910  1.00  0.00     0.009 A 
ATOM     41  C   UNL     1       2.896   5.176  11.317  1.00  0.00     0.001 A 
ATOM     42  C   UNL     1       1.137   5.237   9.684  1.00  0.00     0.001 A 
ATOM     43  C   UNL     1       1.665   5.659  10.901  1.00  0.00     0.000 A 
ENDBRANCH  24  38
BRANCH  25  44
ATOM     44  C   UNL     1       4.310  -6.557   8.820  1.00  0.00    -0.014 A 
ATOM     45  C   UNL     1       4.173  -7.581   7.878  1.00  0.00     0.009 A 
ATOM     46  C   UNL     1       4.876  -6.947  10.063  1.00  0.00     0.009 A 
ATOM     47  C   UNL     1       4.647  -8.883   8.129  1.00  0.00     0.001 A 
ATOM     48  C   UNL     1       5.375  -8.230  10.310  1.00  0.00     0.001 A 
ATOM     49  C   UNL     1       5.270  -9.201   9.332  1.00  0.00     0.000 A 
ENDBRANCH  25  44
BRANCH  37  50
ATOM     50  C   UNL     1       1.687  -1.388  10.681  1.00  0.00    -0.014 A 
ATOM     51  C   UNL     1       0.739  -1.966  11.536  1.00  0.00     0.009 A 
ATOM     52  C   UNL     1       1.227  -0.903   9.444  1.00  0.00     0.009 A 
ATOM     53  C   UNL     1      -0.607  -2.070  11.157  1.00  0.00     0.001 A 
ATOM     54  C   UNL     1      -0.116  -0.995   9.064  1.00  0.00     0.001 A 
ATOM     55  C   UNL     1      -1.034  -1.586   9.922  1.00  0.00     0.000 A 
ENDBRANCH  37  50
ENDBRANCH  11  12
ENDBRANCH   4   6
ENDBRANCH   3   4
ENDBRANCH   2   3
ENDBRANCH   1   2
BRANCH   1  56
ATOM     56  O   UNL     1       4.137   1.510  -0.601  1.00  0.00    -0.457 OA
BRANCH  56  57
ATOM     57  C   UNL     1       2.999   2.150  -0.990  1.00  0.00     0.354 C 
ATOM     58  O   UNL     1       2.450   2.028  -2.079  1.00  0.00    -0.244 OA
BRANCH  57  59
ATOM     59  C   UNL     1       2.507   2.992   0.064  1.00  0.00     0.126 A 
ATOM     60  C   UNL     1       3.186   3.818   0.942  1.00  0.00     0.057 A 
ATOM     61  N   UNL     1       1.161   3.184   0.293  1.00  0.00    -0.354 N 
ATOM     62  C   UNL     1       2.234   4.759   1.421  1.00  0.00     0.106 A 
ATOM     63  C   UNL     1       0.981   4.285   1.091  1.00  0.00     0.105 A 
ATOM     64  H   UNL     1       0.438   2.617  -0.062  1.00  0.00     0.166 HD
BRANCH  62  65
ATOM     65  S   UNL     1       2.644   6.290   2.117  1.00  0.00     0.263 S 
ATOM     66  O   UNL     1       1.384   6.864   2.551  1.00  0.00    -0.201 OA
ATOM     67  O   UNL     1       3.709   6.003   3.045  1.00  0.00    -0.201 OA
BRANCH  65  68
ATOM     68  N   UNL     1       3.264   7.311   0.888  1.00  0.00    -0.280 N 
ATOM     69  H   UNL     1       2.918   8.221   0.743  1.00  0.00     0.180 HD
BRANCH  68  70
ATOM     70  C   UNL     1       4.314   6.763   0.086  1.00  0.00     0.050 A 
ATOM     71  C   UNL     1       3.974   6.152  -1.124  1.00  0.00     0.030 A 
ATOM     72  C   UNL     1       5.631   6.716   0.547  1.00  0.00     0.043 A 
ATOM     73  C   UNL     1       4.944   5.471  -1.859  1.00  0.00     0.042 A 
ATOM     74  C   UNL     1       6.619   6.038  -0.196  1.00  0.00     0.093 A 
ATOM     75  C   UNL     1       6.254   5.420  -1.391  1.00  0.00     0.135 A 
ATOM     76  F   UNL     1       7.159   4.745  -2.111  1.00  0.00    -0.206 F 
BRANCH  74  77
ATOM     77  C   UNL     1       8.040   6.005   0.283  1.00  0.00     0.419 C 
ATOM     78  F   UNL     1       8.663   7.203   0.108  1.00  0.00    -0.166 F 
ATOM     79  F   UNL     1       8.127   5.736   1.617  1.00  0.00    -0.166 F 
ATOM     80  F   UNL     1       8.829   5.079  -0.325  1.00  0.00    -0.166 F 
ENDBRANCH  74  77
ENDBRANCH  68  70
ENDBRANCH  65  68
ENDBRANCH  62  65
ENDBRANCH  57  59
ENDBRANCH  56  57
ENDBRANCH   1  56
TORSDOF 15
