REMARK SMILES Cc1ccccc1C(=O)Nc1ccc(N2CCC(n3c(C)nc4cccnc43)CC2)c(C(=O)OCCOC(=O)c2ccc(-c3c4nc(c(-c5ccccc5)c5ccc([nH]5)c(-c5ccccc5)c5nc(c(-c6ccccc6)c6ccc3[nH]6)C=C5)C=C4)cc2)c1
REMARK SMILES IDX 35 1 34 2 32 3 33 4 31 5 11 6 12 7 88 8 13 9 14 10 10 11
REMARK SMILES IDX 8 12 9 13 7 15 1 16 2 17 3 18 4 19 6 20 5 21 15 22 16 23
REMARK SMILES IDX 30 24 17 25 29 26 18 27 19 28 20 29 28 30 21 31 22 32 23 33
REMARK SMILES IDX 27 34 24 35 26 36 25 37 36 38 37 39 38 40 39 41 40 42 41 43
REMARK SMILES IDX 87 44 42 45 86 46 43 47 44 48 45 49 80 50 46 51 85 52 79 53
REMARK SMILES IDX 81 54 47 55 84 56 78 57 77 58 48 60 70 61 55 62 69 63 56 64
REMARK SMILES IDX 59 65 68 66 82 67 57 68 58 69 67 71 83 72 60 73 49 74 50 75
REMARK SMILES IDX 54 76 51 77 53 78 52 79 71 80 72 81 76 82 73 83 75 84 74 85
REMARK SMILES IDX 61 86 62 87 66 88 63 89 65 90 64 91
REMARK H PARENT 10 14 81 59 59 70
REMARK Flexibility Score: inf
ROOT
ATOM      1  C   UNL     1       8.854  -1.131   0.236  1.00  0.00     0.275 C 
ENDROOT
BRANCH   1   2
ATOM      2  O   UNL     1       7.884  -0.527  -0.639  1.00  0.00    -0.458 OA
BRANCH   2   3
ATOM      3  C   UNL     1       6.640  -0.576  -0.126  1.00  0.00     0.340 C 
ATOM      4  O   UNL     1       6.342  -0.925   1.009  1.00  0.00    -0.246 OA
BRANCH   3   5
ATOM      5  C   UNL     1       5.535  -0.356  -1.040  1.00  0.00     0.085 A 
ATOM      6  C   UNL     1       3.495   0.922  -1.264  1.00  0.00     0.042 A 
ATOM      7  C   UNL     1       2.942  -0.114  -2.009  1.00  0.00     0.028 A 
ATOM      8  C   UNL     1       4.842   0.856  -0.895  1.00  0.00     0.044 A 
ATOM      9  C   UNL     1       3.653  -1.310  -2.176  1.00  0.00     0.029 A 
ATOM     10  C   UNL     1       4.906  -1.495  -1.575  1.00  0.00     0.051 A 
BRANCH   6  11
ATOM     11  N   UNL     1       2.749   1.985  -0.730  1.00  0.00    -0.322 N 
ATOM     12  C   UNL     1       1.431   2.096  -0.333  1.00  0.00     0.255 C 
ATOM     13  O   UNL     1       1.028   3.211   0.009  1.00  0.00    -0.269 OA
ATOM     14  H   UNL     1       3.267   2.814  -0.616  1.00  0.00     0.170 HD
BRANCH  12  15
ATOM     15  C   UNL     1       0.473   0.956  -0.229  1.00  0.00     0.043 A 
ATOM     16  C   UNL     1       1.990  -0.636   1.116  1.00  0.00     0.045 C 
ATOM     17  C   UNL     1       0.729  -0.289   0.379  1.00  0.00    -0.038 A 
ATOM     18  C   UNL     1      -0.279  -1.277   0.364  1.00  0.00     0.004 A 
ATOM     19  C   UNL     1      -1.556  -0.999  -0.120  1.00  0.00     0.000 A 
ATOM     20  C   UNL     1      -0.838   1.234  -0.666  1.00  0.00     0.014 A 
ATOM     21  C   UNL     1      -1.847   0.271  -0.599  1.00  0.00     0.001 A 
ENDBRANCH  12  15
ENDBRANCH   6  11
BRANCH  10  22
ATOM     22  N   UNL     1       5.293  -2.806  -1.301  1.00  0.00    -0.371 N 
ATOM     23  C   UNL     1       6.343  -3.455  -2.063  1.00  0.00     0.118 C 
ATOM     24  C   UNL     1       5.226  -3.228   0.100  1.00  0.00     0.118 C 
ATOM     25  C   UNL     1       6.062  -4.963  -2.061  1.00  0.00     0.047 C 
ATOM     26  C   UNL     1       4.808  -4.671   0.127  1.00  0.00     0.047 C 
ATOM     27  C   UNL     1       5.781  -5.564  -0.650  1.00  0.00     0.094 C 
BRANCH  27  28
ATOM     28  N   UNL     1       5.355  -6.972  -0.727  1.00  0.00    -0.310 N 
ATOM     29  C   UNL     1       4.232  -7.615  -0.218  1.00  0.00     0.108 A 
ATOM     30  C   UNL     1       6.096  -7.944  -1.371  1.00  0.00     0.160 A 
ATOM     31  C   UNL     1       3.214  -7.059   0.703  1.00  0.00     0.088 C 
ATOM     32  N   UNL     1       4.175  -8.873  -0.616  1.00  0.00    -0.232 NA
ATOM     33  C   UNL     1       5.317  -9.090  -1.319  1.00  0.00     0.108 A 
ATOM     34  N   UNL     1       7.304  -7.811  -1.958  1.00  0.00    -0.237 NA
ATOM     35  C   UNL     1       5.782 -10.243  -1.954  1.00  0.00     0.034 A 
ATOM     36  C   UNL     1       7.713  -8.954  -2.562  1.00  0.00     0.113 A 
ATOM     37  C   UNL     1       7.015 -10.158  -2.596  1.00  0.00     0.022 A 
ENDBRANCH  27  28
ENDBRANCH  10  22
ENDBRANCH   3   5
ENDBRANCH   2   3
ENDBRANCH   1   2
BRANCH   1  38
ATOM     38  C   UNL     1       9.867  -0.148   0.823  1.00  0.00     0.275 C 
BRANCH  38  39
ATOM     39  O   UNL     1       9.402   1.176   1.200  1.00  0.00    -0.458 OA
BRANCH  39  40
ATOM     40  C   UNL     1       8.367   1.593   1.975  1.00  0.00     0.338 C 
ATOM     41  O   UNL     1       7.968   2.741   1.917  1.00  0.00    -0.246 OA
BRANCH  40  42
ATOM     42  C   UNL     1       7.673   0.624   2.851  1.00  0.00     0.060 A 
ATOM     43  C   UNL     1       6.284   0.771   3.042  1.00  0.00     0.016 A 
ATOM     44  C   UNL     1       8.344  -0.465   3.395  1.00  0.00     0.016 A 
ATOM     45  C   UNL     1       5.553  -0.238   3.674  1.00  0.00     0.010 A 
ATOM     46  C   UNL     1       7.614  -1.517   3.910  1.00  0.00     0.010 A 
ATOM     47  C   UNL     1       6.224  -1.397   4.078  1.00  0.00    -0.014 A 
BRANCH  47  48
ATOM     48  C   UNL     1       5.689  -2.337   5.065  1.00  0.00     0.031 A 
ATOM     49  C   UNL     1       4.832  -3.483   4.679  1.00  0.00     0.074 A 
ATOM     50  C   UNL     1       6.070  -1.983   6.311  1.00  0.00     0.049 A 
ATOM     51  N   UNL     1       5.010  -4.733   4.982  1.00  0.00    -0.248 NA
ATOM     52  C   UNL     1       3.644  -3.238   3.849  1.00  0.00     0.031 C 
ATOM     53  C   UNL     1       5.873  -2.607   7.596  1.00  0.00     0.029 A 
ATOM     54  N   UNL     1       6.535  -0.716   6.648  1.00  0.00    -0.354 N 
ATOM     55  C   UNL     1       3.882  -5.442   4.546  1.00  0.00     0.074 A 
ATOM     56  C   UNL     1       3.128  -4.465   3.746  1.00  0.00     0.031 C 
ATOM     57  C   UNL     1       5.883  -1.636   8.538  1.00  0.00     0.029 A 
ATOM     58  C   UNL     1       6.007  -0.339   7.862  1.00  0.00     0.049 A 
ATOM     59  H   UNL     1       7.147  -0.172   6.102  1.00  0.00     0.167 HD
ATOM     60  C   UNL     1       3.134  -6.137   5.459  1.00  0.00     0.031 A 
ATOM     61  C   UNL     1       5.069   0.659   7.872  1.00  0.00     0.031 A 
ATOM     62  C   UNL     1       3.046  -5.468   6.731  1.00  0.00     0.049 A 
ATOM     63  C   UNL     1       3.722   0.076   8.211  1.00  0.00     0.074 A 
ATOM     64  C   UNL     1       3.811  -5.520   7.877  1.00  0.00     0.029 A 
ATOM     65  N   UNL     1       2.185  -4.393   6.855  1.00  0.00    -0.354 N 
ATOM     66  N   UNL     1       3.282  -1.069   7.759  1.00  0.00    -0.248 NA
ATOM     67  C   UNL     1       2.814   0.716   9.155  1.00  0.00     0.031 C 
ATOM     68  C   UNL     1       3.429  -4.430   8.691  1.00  0.00     0.029 A 
ATOM     69  C   UNL     1       2.437  -3.726   8.030  1.00  0.00     0.049 A 
ATOM     70  H   UNL     1       1.494  -4.142   6.200  1.00  0.00     0.167 HD
ATOM     71  C   UNL     1       2.155  -1.395   8.472  1.00  0.00     0.074 A 
ATOM     72  C   UNL     1       1.859  -0.221   9.273  1.00  0.00     0.031 C 
ATOM     73  C   UNL     1       1.591  -2.635   8.463  1.00  0.00     0.031 A 
BRANCH  60  74
ATOM     74  C   UNL     1       3.050  -7.623   5.264  1.00  0.00    -0.014 A 
ATOM     75  C   UNL     1       3.333  -8.523   6.305  1.00  0.00     0.009 A 
ATOM     76  C   UNL     1       2.690  -8.180   4.028  1.00  0.00     0.009 A 
ATOM     77  C   UNL     1       3.335  -9.909   6.098  1.00  0.00     0.001 A 
ATOM     78  C   UNL     1       2.712  -9.564   3.806  1.00  0.00     0.001 A 
ATOM     79  C   UNL     1       3.047 -10.429   4.842  1.00  0.00     0.000 A 
ENDBRANCH  60  74
BRANCH  61  80
ATOM     80  C   UNL     1       5.258   1.808   6.918  1.00  0.00    -0.014 A 
ATOM     81  C   UNL     1       6.527   2.426   6.827  1.00  0.00     0.009 A 
ATOM     82  C   UNL     1       4.277   2.221   6.005  1.00  0.00     0.009 A 
ATOM     83  C   UNL     1       6.832   3.340   5.811  1.00  0.00     0.001 A 
ATOM     84  C   UNL     1       4.576   3.159   4.998  1.00  0.00     0.001 A 
ATOM     85  C   UNL     1       5.858   3.697   4.887  1.00  0.00     0.000 A 
ENDBRANCH  61  80
BRANCH  73  86
ATOM     86  C   UNL     1       0.249  -2.992   9.036  1.00  0.00    -0.014 A 
ATOM     87  C   UNL     1      -0.797  -2.075   9.177  1.00  0.00     0.009 A 
ATOM     88  C   UNL     1      -0.044  -4.349   9.308  1.00  0.00     0.009 A 
ATOM     89  C   UNL     1      -2.057  -2.485   9.629  1.00  0.00     0.001 A 
ATOM     90  C   UNL     1      -1.310  -4.768   9.710  1.00  0.00     0.001 A 
ATOM     91  C   UNL     1      -2.314  -3.829   9.886  1.00  0.00     0.000 A 
ENDBRANCH  73  86
ENDBRANCH  47  48
ENDBRANCH  40  42
ENDBRANCH  39  40
ENDBRANCH  38  39
ENDBRANCH   1  38
TORSDOF 15
