REMARK SMILES O=C(OCCOC(=O)[C@@H](Cc1cccc(F)c1)[C@H]1CCOC2(CCC2)C1)c1ccc(-c2c3nc(c(-c4ccccc4)c4ccc([nH]4)c(-c4ccccc4)c4nc(c(-c5ccccc5)c5ccc2[nH]5)C=C4)C=C3)cc1
REMARK SMILES IDX 4 1 3 2 2 3 1 4 27 5 28 6 74 7 29 8 73 9 30 10 31 11 32 12
REMARK SMILES IDX 67 13 33 14 72 15 66 16 68 17 34 18 71 19 65 20 64 21 35 23
REMARK SMILES IDX 57 24 42 25 56 26 43 27 46 28 55 29 69 30 44 31 45 32 54 34
REMARK SMILES IDX 70 35 47 36 36 37 37 38 41 39 38 40 40 41 39 42 58 43 59 44
REMARK SMILES IDX 63 45 60 46 62 47 61 48 48 49 49 50 53 51 50 52 52 53 51 54
REMARK SMILES IDX 5 55 6 56 7 57 8 58 9 59 10 60 11 61 12 62 17 63 13 64 15 65
REMARK SMILES IDX 14 66 16 67 18 68 19 69 26 70 20 71 22 72 21 73 23 74 25 75
REMARK SMILES IDX 24 76
REMARK H PARENT 68 22 46 33
REMARK Flexibility Score: inf
ROOT
ATOM      1  C   UNL     1      -0.251   8.535  -1.842  1.00  0.00     0.275 C 
ENDROOT
BRANCH   1   2
ATOM      2  O   UNL     1       0.730   9.099  -0.966  1.00  0.00    -0.458 OA
BRANCH   2   3
ATOM      3  C   UNL     1       1.298   8.506   0.106  1.00  0.00     0.338 C 
ATOM      4  O   UNL     1       2.254   9.052   0.652  1.00  0.00    -0.246 OA
BRANCH   3   5
ATOM      5  C   UNL     1       0.893   7.171   0.647  1.00  0.00     0.060 A 
ATOM      6  C   UNL     1      -0.298   6.121  -0.096  1.00  0.00     0.016 A 
ATOM      7  C   UNL     1       1.936   6.630   1.999  1.00  0.00     0.016 A 
ATOM      8  C   UNL     1      -0.435   4.437   0.461  1.00  0.00     0.010 A 
ATOM      9  C   UNL     1       1.960   4.977   2.614  1.00  0.00     0.010 A 
ATOM     10  C   UNL     1       0.795   3.763   1.931  1.00  0.00    -0.014 A 
BRANCH  10  11
ATOM     11  C   UNL     1       1.088   2.420   2.763  1.00  0.00     0.031 A 
ATOM     12  C   UNL     1       0.577   2.414   4.173  1.00  0.00     0.074 A 
ATOM     13  C   UNL     1       1.745   1.304   2.336  1.00  0.00     0.049 A 
ATOM     14  N   UNL     1       0.273   1.394   4.925  1.00  0.00    -0.248 NA
ATOM     15  C   UNL     1       0.394   3.718   4.831  1.00  0.00     0.031 C 
ATOM     16  C   UNL     1       2.562   1.196   1.137  1.00  0.00     0.029 A 
ATOM     17  N   UNL     1       1.660  -0.021   2.741  1.00  0.00    -0.354 N 
ATOM     18  C   UNL     1      -0.188   1.945   6.109  1.00  0.00     0.074 A 
ATOM     19  C   UNL     1      -0.046   3.372   6.022  1.00  0.00     0.031 C 
ATOM     20  C   UNL     1       2.561  -0.072   0.707  1.00  0.00     0.029 A 
ATOM     21  C   UNL     1       2.021  -0.917   1.740  1.00  0.00     0.049 A 
ATOM     22  H   UNL     1       1.375  -0.297   3.642  1.00  0.00     0.167 HD
ATOM     23  C   UNL     1      -0.712   1.308   7.174  1.00  0.00     0.031 A 
ATOM     24  C   UNL     1       1.964  -2.263   1.630  1.00  0.00     0.031 A 
ATOM     25  C   UNL     1      -0.713  -0.118   7.282  1.00  0.00     0.049 A 
ATOM     26  C   UNL     1       1.450  -2.972   2.835  1.00  0.00     0.074 A 
ATOM     27  C   UNL     1      -1.130  -0.903   8.335  1.00  0.00     0.029 A 
ATOM     28  N   UNL     1      -0.217  -0.972   6.301  1.00  0.00    -0.354 N 
ATOM     29  N   UNL     1       0.938  -2.433   3.914  1.00  0.00    -0.248 NA
ATOM     30  C   UNL     1       1.523  -4.434   2.844  1.00  0.00     0.031 C 
ATOM     31  C   UNL     1      -0.794  -2.225   8.032  1.00  0.00     0.029 A 
ATOM     32  C   UNL     1      -0.276  -2.278   6.744  1.00  0.00     0.049 A 
ATOM     33  H   UNL     1       0.126  -0.687   5.423  1.00  0.00     0.167 HD
ATOM     34  C   UNL     1       0.620  -3.486   4.741  1.00  0.00     0.074 A 
ATOM     35  C   UNL     1       0.957  -4.700   4.013  1.00  0.00     0.031 C 
ATOM     36  C   UNL     1       0.101  -3.447   5.991  1.00  0.00     0.031 A 
BRANCH  23  37
ATOM     37  C   UNL     1      -1.177   2.190   8.296  1.00  0.00    -0.014 A 
ATOM     38  C   UNL     1      -2.256   3.081   8.134  1.00  0.00     0.009 A 
ATOM     39  C   UNL     1      -0.424   2.244   9.476  1.00  0.00     0.009 A 
ATOM     40  C   UNL     1      -2.523   4.051   9.102  1.00  0.00     0.001 A 
ATOM     41  C   UNL     1      -0.718   3.190  10.458  1.00  0.00     0.001 A 
ATOM     42  C   UNL     1      -1.753   4.104  10.263  1.00  0.00     0.000 A 
ENDBRANCH  23  37
BRANCH  24  43
ATOM     43  C   UNL     1       2.433  -3.005   0.404  1.00  0.00    -0.014 A 
ATOM     44  C   UNL     1       1.568  -3.817  -0.352  1.00  0.00     0.009 A 
ATOM     45  C   UNL     1       3.763  -2.887  -0.044  1.00  0.00     0.009 A 
ATOM     46  C   UNL     1       2.013  -4.465  -1.517  1.00  0.00     0.001 A 
ATOM     47  C   UNL     1       4.195  -3.497  -1.229  1.00  0.00     0.001 A 
ATOM     48  C   UNL     1       3.321  -4.291  -1.964  1.00  0.00     0.000 A 
ENDBRANCH  24  43
BRANCH  36  49
ATOM     49  C   UNL     1      -0.178  -4.776   6.605  1.00  0.00    -0.014 A 
ATOM     50  C   UNL     1       0.856  -5.641   6.987  1.00  0.00     0.009 A 
ATOM     51  C   UNL     1      -1.514  -5.153   6.791  1.00  0.00     0.009 A 
ATOM     52  C   UNL     1       0.547  -6.901   7.491  1.00  0.00     0.001 A 
ATOM     53  C   UNL     1      -1.817  -6.390   7.344  1.00  0.00     0.001 A 
ATOM     54  C   UNL     1      -0.787  -7.269   7.675  1.00  0.00     0.000 A 
ENDBRANCH  36  49
ENDBRANCH  10  11
ENDBRANCH   3   5
ENDBRANCH   2   3
ENDBRANCH   1   2
BRANCH   1  55
ATOM     55  C   UNL     1       0.349   7.537  -2.854  1.00  0.00     0.274 C 
BRANCH  55  56
ATOM     56  O   UNL     1       1.178   6.508  -2.259  1.00  0.00    -0.462 OA
BRANCH  56  57
ATOM     57  C   UNL     1       2.526   6.668  -2.255  1.00  0.00     0.309 C 
ATOM     58  O   UNL     1       3.101   7.608  -2.788  1.00  0.00    -0.252 OA
BRANCH  57  59
ATOM     59  C   UNL     1       3.265   5.540  -1.518  1.00  0.00     0.107 C 
BRANCH  59  60
ATOM     60  C   UNL     1       2.873   5.396  -0.018  1.00  0.00     0.051 C 
BRANCH  60  61
ATOM     61  C   UNL     1       1.406   4.901   0.504  1.00  0.00    -0.044 A 
ATOM     62  C   UNL     1       1.098   3.217  -0.143  1.00  0.00     0.004 A 
ATOM     63  C   UNL     1       0.060   5.525   1.895  1.00  0.00     0.043 A 
ATOM     64  C   UNL     1      -0.258   2.255   0.474  1.00  0.00     0.003 A 
ATOM     65  C   UNL     1      -1.279   4.435   2.380  1.00  0.00     0.123 A 
ATOM     66  C   UNL     1      -1.388   2.849   1.684  1.00  0.00     0.039 A 
ATOM     67  F   UNL     1      -2.260   4.901   3.163  1.00  0.00    -0.207 F 
ENDBRANCH  60  61
ENDBRANCH  59  60
BRANCH  59  68
ATOM     68  C   UNL     1       3.370   4.172  -2.204  1.00  0.00     0.009 C 
ATOM     69  C   UNL     1       2.488   4.004  -3.438  1.00  0.00     0.033 C 
ATOM     70  C   UNL     1       4.780   3.562  -2.342  1.00  0.00     0.040 C 
ATOM     71  C   UNL     1       2.483   2.553  -3.875  1.00  0.00     0.161 C 
ATOM     72  C   UNL     1       4.670   2.126  -2.900  1.00  0.00     0.069 C 
ATOM     73  O   UNL     1       3.828   2.135  -4.085  1.00  0.00    -0.375 OA
ATOM     74  C   UNL     1       6.041   1.405  -3.081  1.00  0.00     0.035 C 
ATOM     75  C   UNL     1       4.345   0.959  -1.910  1.00  0.00     0.035 C 
ATOM     76  C   UNL     1       5.329   0.090  -2.707  1.00  0.00     0.006 C 
ENDBRANCH  59  68
ENDBRANCH  57  59
ENDBRANCH  56  57
ENDBRANCH  55  56
ENDBRANCH   1  55
TORSDOF 14
