REMARK SMILES C[C@](C(=O)OCCOC(=O)c1ccc(-c2c3nc(c(-c4ccccc4)c4ccc([nH]4)c(-c4ccccc4)c4nc(c(-c5ccccc5)c5ccc2[nH]5)C=C4)C=C3)cc1)(c1cc(F)cc(F)c1)[NH+]1CCCC1
REMARK SMILES IDX 7 1 6 2 5 3 3 4 4 5 2 6 1 7 59 8 60 9 66 10 61 11 64 12
REMARK SMILES IDX 62 13 63 14 65 15 67 16 68 17 71 18 69 20 70 21 8 22 9 23
REMARK SMILES IDX 10 24 11 25 12 26 58 27 13 28 57 29 14 30 15 31 16 32 51 33
REMARK SMILES IDX 17 34 56 35 50 36 52 37 18 38 55 39 49 40 48 41 19 43 41 44
REMARK SMILES IDX 26 45 40 46 27 47 30 48 39 49 53 50 28 51 29 52 38 54 54 55
REMARK SMILES IDX 31 56 20 57 21 58 25 59 22 60 24 61 23 62 42 63 43 64 47 65
REMARK SMILES IDX 44 66 46 67 45 68 32 69 33 70 37 71 34 72 36 73 35 74
REMARK H PARENT 67 19 52 42 30 53
REMARK Flexibility Score: inf
ROOT
ATOM      1  C   UNL     1       3.547  -0.954  -0.660  1.00  0.00     0.275 C 
ENDROOT
BRANCH   1   2
ATOM      2  C   UNL     1       2.110  -1.462  -0.777  1.00  0.00     0.274 C 
BRANCH   2   3
ATOM      3  O   UNL     1       1.236  -0.357  -1.091  1.00  0.00    -0.457 OA
BRANCH   3   4
ATOM      4  C   UNL     1       0.443   0.121  -0.084  1.00  0.00     0.372 C 
ATOM      5  O   UNL     1       0.333  -0.435   1.007  1.00  0.00    -0.244 OA
BRANCH   4   6
ATOM      6  C   UNL     1      -0.316   1.457  -0.490  1.00  0.00     0.218 C 
ATOM      7  C   UNL     1       0.263   1.949  -1.844  1.00  0.00     0.098 C 
BRANCH   6   8
ATOM      8  C   UNL     1      -1.845   1.240  -0.652  1.00  0.00     0.029 A 
ATOM      9  C   UNL     1      -2.689   2.340  -0.918  1.00  0.00     0.050 A 
ATOM     10  C   UNL     1      -2.466   0.006  -0.388  1.00  0.00     0.050 A 
ATOM     11  C   UNL     1      -4.074   2.221  -0.834  1.00  0.00     0.126 A 
ATOM     12  C   UNL     1      -3.858  -0.090  -0.320  1.00  0.00     0.126 A 
ATOM     13  F   UNL     1      -4.835   3.308  -1.015  1.00  0.00    -0.207 F 
ATOM     14  C   UNL     1      -4.670   1.013  -0.523  1.00  0.00     0.078 A 
ATOM     15  F   UNL     1      -4.416  -1.268  -0.010  1.00  0.00    -0.207 F 
ENDBRANCH   6   8
BRANCH   6  16
ATOM     16  N   UNL     1      -0.036   2.425   0.617  1.00  0.00    -0.317 N 
ATOM     17  C   UNL     1      -0.789   2.264   1.865  1.00  0.00     0.263 C 
ATOM     18  C   UNL     1       0.176   3.839   0.335  1.00  0.00     0.263 C 
ATOM     19  H   UNL     1       0.906   2.062   0.756  1.00  0.00     0.349 HD
ATOM     20  C   UNL     1      -1.301   3.651   2.207  1.00  0.00     0.067 C 
ATOM     21  C   UNL     1      -0.289   4.583   1.576  1.00  0.00     0.067 C 
ENDBRANCH   6  16
ENDBRANCH   4   6
ENDBRANCH   3   4
ENDBRANCH   2   3
ENDBRANCH   1   2
BRANCH   1  22
ATOM     22  O   UNL     1       3.615  -0.039   0.447  1.00  0.00    -0.458 OA
BRANCH  22  23
ATOM     23  C   UNL     1       4.223   1.151   0.224  1.00  0.00     0.338 C 
ATOM     24  O   UNL     1       4.852   1.476  -0.769  1.00  0.00    -0.246 OA
BRANCH  23  25
ATOM     25  C   UNL     1       3.987   2.055   1.376  1.00  0.00     0.060 A 
ATOM     26  C   UNL     1       2.852   1.915   2.170  1.00  0.00     0.016 A 
ATOM     27  C   UNL     1       4.858   3.121   1.617  1.00  0.00     0.016 A 
ATOM     28  C   UNL     1       2.549   2.873   3.137  1.00  0.00     0.010 A 
ATOM     29  C   UNL     1       4.591   4.032   2.652  1.00  0.00     0.010 A 
ATOM     30  C   UNL     1       3.410   3.942   3.409  1.00  0.00    -0.014 A 
BRANCH  30  31
ATOM     31  C   UNL     1       3.047   4.975   4.430  1.00  0.00     0.031 A 
ATOM     32  C   UNL     1       3.066   6.442   4.073  1.00  0.00     0.074 A 
ATOM     33  C   UNL     1       2.655   4.630   5.675  1.00  0.00     0.049 A 
ATOM     34  N   UNL     1       3.047   7.486   4.864  1.00  0.00    -0.248 NA
ATOM     35  C   UNL     1       3.124   6.779   2.641  1.00  0.00     0.031 C 
ATOM     36  C   UNL     1       2.483   3.264   6.175  1.00  0.00     0.029 A 
ATOM     37  N   UNL     1       2.309   5.415   6.752  1.00  0.00    -0.354 N 
ATOM     38  C   UNL     1       3.184   8.594   4.036  1.00  0.00     0.074 A 
ATOM     39  C   UNL     1       3.255   8.098   2.678  1.00  0.00     0.031 C 
ATOM     40  C   UNL     1       2.003   3.307   7.426  1.00  0.00     0.029 A 
ATOM     41  C   UNL     1       1.960   4.694   7.869  1.00  0.00     0.049 A 
ATOM     42  H   UNL     1       2.313   6.399   6.724  1.00  0.00     0.167 HD
ATOM     43  C   UNL     1       3.264   9.903   4.378  1.00  0.00     0.031 A 
ATOM     44  C   UNL     1       1.698   5.085   9.131  1.00  0.00     0.031 A 
ATOM     45  C   UNL     1       3.121  10.408   5.719  1.00  0.00     0.049 A 
ATOM     46  C   UNL     1       1.836   6.532   9.501  1.00  0.00     0.074 A 
ATOM     47  C   UNL     1       3.199  11.718   6.161  1.00  0.00     0.029 A 
ATOM     48  N   UNL     1       2.838   9.629   6.828  1.00  0.00    -0.354 N 
ATOM     49  N   UNL     1       2.114   7.556   8.733  1.00  0.00    -0.248 NA
ATOM     50  C   UNL     1       1.666   6.869  10.922  1.00  0.00     0.031 C 
ATOM     51  C   UNL     1       2.992  11.728   7.545  1.00  0.00     0.029 A 
ATOM     52  C   UNL     1       2.744  10.429   7.955  1.00  0.00     0.049 A 
ATOM     53  H   UNL     1       2.722   8.652   6.818  1.00  0.00     0.167 HD
ATOM     54  C   UNL     1       2.160   8.657   9.578  1.00  0.00     0.074 A 
ATOM     55  C   UNL     1       1.850   8.181  10.910  1.00  0.00     0.031 C 
ATOM     56  C   UNL     1       2.446   9.946   9.276  1.00  0.00     0.031 A 
BRANCH  43  57
ATOM     57  C   UNL     1       3.584  10.889   3.290  1.00  0.00    -0.014 A 
ATOM     58  C   UNL     1       2.624  11.301   2.356  1.00  0.00     0.009 A 
ATOM     59  C   UNL     1       4.869  11.456   3.242  1.00  0.00     0.009 A 
ATOM     60  C   UNL     1       2.953  12.245   1.379  1.00  0.00     0.001 A 
ATOM     61  C   UNL     1       5.187  12.416   2.280  1.00  0.00     0.001 A 
ATOM     62  C   UNL     1       4.231  12.804   1.345  1.00  0.00     0.000 A 
ENDBRANCH  43  57
BRANCH  44  63
ATOM     63  C   UNL     1       1.376   4.069  10.168  1.00  0.00    -0.014 A 
ATOM     64  C   UNL     1       0.088   3.993  10.717  1.00  0.00     0.009 A 
ATOM     65  C   UNL     1       2.357   3.164  10.606  1.00  0.00     0.009 A 
ATOM     66  C   UNL     1      -0.209   3.032  11.688  1.00  0.00     0.001 A 
ATOM     67  C   UNL     1       2.048   2.185  11.551  1.00  0.00     0.001 A 
ATOM     68  C   UNL     1       0.768   2.124  12.096  1.00  0.00     0.000 A 
ENDBRANCH  44  63
BRANCH  56  69
ATOM     69  C   UNL     1       2.418  10.932  10.406  1.00  0.00    -0.014 A 
ATOM     70  C   UNL     1       3.465  10.992  11.338  1.00  0.00     0.009 A 
ATOM     71  C   UNL     1       1.340  11.821  10.530  1.00  0.00     0.009 A 
ATOM     72  C   UNL     1       3.417  11.906  12.393  1.00  0.00     0.001 A 
ATOM     73  C   UNL     1       1.305  12.747  11.573  1.00  0.00     0.001 A 
ATOM     74  C   UNL     1       2.339  12.783  12.508  1.00  0.00     0.000 A 
ENDBRANCH  56  69
ENDBRANCH  30  31
ENDBRANCH  23  25
ENDBRANCH  22  23
ENDBRANCH   1  22
TORSDOF 13
