REMARK SMILES CC(=O)N1CCC[C@H]1COCC(=O)OCCOC(=O)c1ccc(-c2c3nc(c(-c4ccccc4)c4ccc([nH]4)c(-c4ccccc4)c4nc(c(-c5ccccc5)c5ccc2[nH]5)C=C4)C=C3)cc1
REMARK SMILES IDX 15 1 14 2 12 3 13 4 11 5 10 6 9 7 8 8 4 9 5 10 6 11 7 12
REMARK SMILES IDX 2 13 1 14 3 15 16 16 17 17 18 18 19 19 20 20 21 21 67 22
REMARK SMILES IDX 22 23 66 24 23 25 24 26 25 27 60 28 26 29 65 30 59 31 61 32
REMARK SMILES IDX 27 33 64 34 58 35 57 36 28 38 50 39 35 40 49 41 36 42 39 43
REMARK SMILES IDX 48 44 62 45 37 46 38 47 47 49 63 50 40 51 29 52 30 53 34 54
REMARK SMILES IDX 31 55 33 56 32 57 51 58 52 59 56 60 53 61 55 62 54 63 41 64
REMARK SMILES IDX 42 65 46 66 43 67 45 68 44 69
REMARK H PARENT 61 37 39 48
REMARK Flexibility Score: inf
ROOT
ATOM      1  C   UNL     1       2.335  -1.598  -7.782  1.00  0.00     0.274 C 
ENDROOT
BRANCH   1   2
ATOM      2  O   UNL     1       1.757  -1.730  -6.468  1.00  0.00    -0.460 OA
BRANCH   2   3
ATOM      3  C   UNL     1       2.576  -1.391  -5.438  1.00  0.00     0.332 C 
ATOM      4  O   UNL     1       3.725  -0.976  -5.563  1.00  0.00    -0.250 OA
BRANCH   3   5
ATOM      5  C   UNL     1       1.919  -1.536  -4.064  1.00  0.00     0.282 C 
BRANCH   5   6
ATOM      6  O   UNL     1       0.602  -2.022  -3.920  1.00  0.00    -0.368 OA
BRANCH   6   7
ATOM      7  C   UNL     1      -0.429  -1.064  -4.150  1.00  0.00     0.186 C 
BRANCH   7   8
ATOM      8  C   UNL     1      -0.722  -0.044  -3.011  1.00  0.00     0.111 C 
ATOM      9  N   UNL     1       0.206   0.012  -1.877  1.00  0.00    -0.338 N 
ATOM     10  C   UNL     1       0.790   1.335  -1.736  1.00  0.00     0.120 C 
ATOM     11  C   UNL     1      -0.235   2.239  -2.393  1.00  0.00     0.024 C 
ATOM     12  C   UNL     1      -0.739   1.395  -3.555  1.00  0.00     0.029 C 
BRANCH   9  13
ATOM     13  C   UNL     1       0.220  -0.980  -0.916  1.00  0.00     0.219 C 
ATOM     14  C   UNL     1       1.164  -0.776   0.242  1.00  0.00     0.114 C 
ATOM     15  O   UNL     1      -0.510  -1.968  -0.967  1.00  0.00    -0.275 OA
ENDBRANCH   9  13
ENDBRANCH   7   8
ENDBRANCH   6   7
ENDBRANCH   5   6
ENDBRANCH   3   5
ENDBRANCH   2   3
ENDBRANCH   1   2
BRANCH   1  16
ATOM     16  C   UNL     1       1.908  -0.290  -8.445  1.00  0.00     0.275 C 
BRANCH  16  17
ATOM     17  O   UNL     1       2.268   0.835  -7.622  1.00  0.00    -0.458 OA
BRANCH  17  18
ATOM     18  C   UNL     1       1.242   1.623  -7.236  1.00  0.00     0.338 C 
ATOM     19  O   UNL     1       0.061   1.499  -7.524  1.00  0.00    -0.246 OA
BRANCH  18  20
ATOM     20  C   UNL     1       1.718   2.721  -6.375  1.00  0.00     0.060 A 
ATOM     21  C   UNL     1       2.486   2.462  -5.239  1.00  0.00     0.016 A 
ATOM     22  C   UNL     1       1.243   4.012  -6.620  1.00  0.00     0.016 A 
ATOM     23  C   UNL     1       2.697   3.479  -4.303  1.00  0.00     0.010 A 
ATOM     24  C   UNL     1       1.525   5.043  -5.720  1.00  0.00     0.010 A 
ATOM     25  C   UNL     1       2.212   4.781  -4.524  1.00  0.00    -0.014 A 
BRANCH  25  26
ATOM     26  C   UNL     1       2.378   5.854  -3.500  1.00  0.00     0.031 A 
ATOM     27  C   UNL     1       1.176   6.553  -2.905  1.00  0.00     0.074 A 
ATOM     28  C   UNL     1       3.608   6.213  -3.082  1.00  0.00     0.049 A 
ATOM     29  N   UNL     1       1.137   7.581  -2.092  1.00  0.00    -0.248 NA
ATOM     30  C   UNL     1      -0.152   6.029  -3.263  1.00  0.00     0.031 C 
ATOM     31  C   UNL     1       4.868   5.614  -3.525  1.00  0.00     0.029 A 
ATOM     32  N   UNL     1       3.998   7.171  -2.176  1.00  0.00    -0.354 N 
ATOM     33  C   UNL     1      -0.210   7.849  -1.876  1.00  0.00     0.074 A 
ATOM     34  C   UNL     1      -0.961   6.871  -2.634  1.00  0.00     0.031 C 
ATOM     35  C   UNL     1       5.883   6.181  -2.856  1.00  0.00     0.029 A 
ATOM     36  C   UNL     1       5.358   7.241  -2.001  1.00  0.00     0.049 A 
ATOM     37  H   UNL     1       3.362   7.751  -1.698  1.00  0.00     0.167 HD
ATOM     38  C   UNL     1      -0.778   8.822  -1.123  1.00  0.00     0.031 A 
ATOM     39  C   UNL     1       6.112   8.082  -1.270  1.00  0.00     0.031 A 
ATOM     40  C   UNL     1      -0.055   9.793  -0.348  1.00  0.00     0.049 A 
ATOM     41  C   UNL     1       5.465   9.200  -0.509  1.00  0.00     0.074 A 
ATOM     42  C   UNL     1      -0.559  10.802   0.457  1.00  0.00     0.029 A 
ATOM     43  N   UNL     1       1.324   9.879  -0.280  1.00  0.00    -0.354 N 
ATOM     44  N   UNL     1       4.192   9.468  -0.363  1.00  0.00    -0.248 NA
ATOM     45  C   UNL     1       6.365  10.151   0.159  1.00  0.00     0.031 C 
ATOM     46  C   UNL     1       0.519  11.524   0.982  1.00  0.00     0.029 A 
ATOM     47  C   UNL     1       1.690  10.940   0.532  1.00  0.00     0.049 A 
ATOM     48  H   UNL     1       1.952   9.276  -0.740  1.00  0.00     0.167 HD
ATOM     49  C   UNL     1       4.137  10.623   0.404  1.00  0.00     0.074 A 
ATOM     50  C   UNL     1       5.503  10.992   0.715  1.00  0.00     0.031 C 
ATOM     51  C   UNL     1       3.048  11.319   0.809  1.00  0.00     0.031 A 
BRANCH  38  52
ATOM     52  C   UNL     1      -2.277   8.918  -1.130  1.00  0.00    -0.014 A 
ATOM     53  C   UNL     1      -3.066   8.061  -0.348  1.00  0.00     0.009 A 
ATOM     54  C   UNL     1      -2.900   9.928  -1.880  1.00  0.00     0.009 A 
ATOM     55  C   UNL     1      -4.455   8.206  -0.331  1.00  0.00     0.001 A 
ATOM     56  C   UNL     1      -4.287  10.079  -1.848  1.00  0.00     0.001 A 
ATOM     57  C   UNL     1      -5.064   9.216  -1.077  1.00  0.00     0.000 A 
ENDBRANCH  38  52
BRANCH  39  58
ATOM     58  C   UNL     1       7.588   7.929  -1.273  1.00  0.00    -0.014 A 
ATOM     59  C   UNL     1       8.246   7.399  -0.155  1.00  0.00     0.009 A 
ATOM     60  C   UNL     1       8.338   8.289  -2.403  1.00  0.00     0.009 A 
ATOM     61  C   UNL     1       9.632   7.232  -0.169  1.00  0.00     0.001 A 
ATOM     62  C   UNL     1       9.720   8.100  -2.422  1.00  0.00     0.001 A 
ATOM     63  C   UNL     1      10.366   7.575  -1.305  1.00  0.00     0.000 A 
ENDBRANCH  39  58
BRANCH  51  64
ATOM     64  C   UNL     1       3.293  12.555   1.621  1.00  0.00    -0.014 A 
ATOM     65  C   UNL     1       3.701  13.748   1.004  1.00  0.00     0.009 A 
ATOM     66  C   UNL     1       3.096  12.535   3.010  1.00  0.00     0.009 A 
ATOM     67  C   UNL     1       3.933  14.892   1.769  1.00  0.00     0.001 A 
ATOM     68  C   UNL     1       3.313  13.686   3.769  1.00  0.00     0.001 A 
ATOM     69  C   UNL     1       3.738  14.861   3.150  1.00  0.00     0.000 A 
ENDBRANCH  51  64
ENDBRANCH  25  26
ENDBRANCH  18  20
ENDBRANCH  17  18
ENDBRANCH  16  17
ENDBRANCH   1  16
TORSDOF 15
