REMARK SMILES CC1CC[NH+]([C@H](c2ccc(F)cc2)c2ccc([C@@H](C)C(=O)OCCOC(=O)c3ccc(-c4c5nc(c(-c6ccccc6)c6ccc([nH]6)c(-c6ccccc6)c6nc(c(-c7ccccc7)c7ccc4[nH]7)C=C6)C=C5)cc3)cc2-c2ccc(C(F)(F)F)cc2)CC1
REMARK SMILES IDX 23 1 22 2 20 3 21 4 18 5 19 6 17 7 14 8 15 9 77 10 16 11
REMARK SMILES IDX 76 12 6 13 5 14 1 15 2 16 3 17 89 18 4 19 88 20 7 22 8 23
REMARK SMILES IDX 13 24 9 25 12 26 10 27 11 28 78 29 79 30 87 31 80 32 86 33
REMARK SMILES IDX 81 34 82 35 83 36 84 37 85 38 24 39 25 40 26 41 27 42 28 43
REMARK SMILES IDX 29 44 75 45 30 46 74 47 31 48 32 49 33 50 68 51 34 52 73 53
REMARK SMILES IDX 67 54 69 55 35 56 72 57 66 58 65 59 36 61 58 62 43 63 57 64
REMARK SMILES IDX 44 65 47 66 56 67 70 68 45 69 46 70 55 72 71 73 48 74 37 75
REMARK SMILES IDX 38 76 42 77 39 78 41 79 40 80 59 81 60 82 64 83 61 84 63 85
REMARK SMILES IDX 62 86 49 87 50 88 54 89 51 90 53 91 52 92
REMARK H PARENT 5 21 69 60 47 71
REMARK Flexibility Score: inf
ROOT
ATOM      1  C   UNL     1       2.625   7.329  -3.120  1.00  0.00     0.274 C 
ENDROOT
BRANCH   1   2
ATOM      2  O   UNL     1       3.065   6.053  -3.620  1.00  0.00    -0.462 OA
BRANCH   2   3
ATOM      3  C   UNL     1       4.385   5.901  -3.907  1.00  0.00     0.313 C 
ATOM      4  O   UNL     1       5.209   6.808  -3.862  1.00  0.00    -0.252 OA
BRANCH   3   5
ATOM      5  C   UNL     1       4.751   4.480  -4.344  1.00  0.00     0.126 C 
ATOM      6  C   UNL     1       4.707   4.380  -5.867  1.00  0.00     0.025 C 
BRANCH   5   7
ATOM      7  C   UNL     1       3.957   3.371  -3.669  1.00  0.00    -0.033 A 
ATOM      8  C   UNL     1       2.441   1.334  -2.332  1.00  0.00     0.022 A 
ATOM      9  C   UNL     1       1.851   2.289  -3.183  1.00  0.00     0.011 A 
ATOM     10  C   UNL     1       3.853   1.407  -2.163  1.00  0.00    -0.009 A 
ATOM     11  C   UNL     1       2.585   3.259  -3.857  1.00  0.00     0.005 A 
ATOM     12  C   UNL     1       4.577   2.431  -2.829  1.00  0.00     0.013 A 
BRANCH   8  13
ATOM     13  C   UNL     1       1.582   0.225  -1.655  1.00  0.00     0.247 C 
BRANCH  13  14
ATOM     14  N   UNL     1       0.147   0.088  -2.073  1.00  0.00    -0.325 N 
ATOM     15  C   UNL     1      -3.444   1.303  -4.305  1.00  0.00     0.008 C 
ATOM     16  C   UNL     1      -2.066   1.142  -3.673  1.00  0.00    -0.003 C 
ATOM     17  C   UNL     1      -1.415  -0.184  -4.063  1.00  0.00     0.065 C 
ATOM     18  C   UNL     1      -2.145   1.172  -2.151  1.00  0.00     0.065 C 
ATOM     19  C   UNL     1      -0.006  -0.307  -3.477  1.00  0.00     0.263 C 
ATOM     20  C   UNL     1      -0.750   1.111  -1.529  1.00  0.00     0.263 C 
ATOM     21  H   UNL     1      -0.230  -0.727  -1.590  1.00  0.00     0.348 HD
ENDBRANCH  13  14
BRANCH  13  22
ATOM     22  C   UNL     1       1.708   0.169  -0.123  1.00  0.00     0.014 A 
ATOM     23  C   UNL     1       1.634   1.326   0.675  1.00  0.00     0.013 A 
ATOM     24  C   UNL     1       1.881  -1.077   0.513  1.00  0.00     0.013 A 
ATOM     25  C   UNL     1       1.727   1.237   2.066  1.00  0.00     0.040 A 
ATOM     26  C   UNL     1       1.996  -1.160   1.901  1.00  0.00     0.040 A 
ATOM     27  C   UNL     1       1.913  -0.003   2.664  1.00  0.00     0.123 A 
ATOM     28  F   UNL     1       2.010  -0.085   3.998  1.00  0.00    -0.207 F 
ENDBRANCH  13  22
ENDBRANCH   8  13
BRANCH  10  29
ATOM     29  C   UNL     1       4.618   0.475  -1.311  1.00  0.00    -0.018 A 
ATOM     30  C   UNL     1       5.169   0.909  -0.094  1.00  0.00     0.009 A 
ATOM     31  C   UNL     1       4.815  -0.862  -1.687  1.00  0.00     0.009 A 
ATOM     32  C   UNL     1       5.853   0.022   0.745  1.00  0.00     0.014 A 
ATOM     33  C   UNL     1       5.493  -1.754  -0.847  1.00  0.00     0.014 A 
ATOM     34  C   UNL     1       6.005  -1.324   0.385  1.00  0.00     0.056 A 
BRANCH  34  35
ATOM     35  C   UNL     1       6.719  -2.280   1.310  1.00  0.00     0.416 C 
ATOM     36  F   UNL     1       8.063  -2.064   1.347  1.00  0.00    -0.166 F 
ATOM     37  F   UNL     1       6.290  -2.186   2.600  1.00  0.00    -0.166 F 
ATOM     38  F   UNL     1       6.561  -3.590   0.964  1.00  0.00    -0.166 F 
ENDBRANCH  34  35
ENDBRANCH  10  29
ENDBRANCH   5   7
ENDBRANCH   3   5
ENDBRANCH   2   3
ENDBRANCH   1   2
BRANCH   1  39
ATOM     39  C   UNL     1       2.442   7.279  -1.603  1.00  0.00     0.275 C 
BRANCH  39  40
ATOM     40  O   UNL     1       3.720   7.165  -0.952  1.00  0.00    -0.458 OA
BRANCH  40  41
ATOM     41  C   UNL     1       4.033   5.935  -0.488  1.00  0.00     0.338 C 
ATOM     42  O   UNL     1       3.336   4.938  -0.467  1.00  0.00    -0.246 OA
BRANCH  41  43
ATOM     43  C   UNL     1       5.448   5.938  -0.093  1.00  0.00     0.060 A 
ATOM     44  C   UNL     1       6.364   5.278  -0.913  1.00  0.00     0.016 A 
ATOM     45  C   UNL     1       5.857   6.534   1.099  1.00  0.00     0.016 A 
ATOM     46  C   UNL     1       7.703   5.202  -0.547  1.00  0.00     0.010 A 
ATOM     47  C   UNL     1       7.203   6.463   1.466  1.00  0.00     0.010 A 
ATOM     48  C   UNL     1       8.129   5.786   0.651  1.00  0.00    -0.014 A 
BRANCH  48  49
ATOM     49  C   UNL     1       9.536   5.631   1.080  1.00  0.00     0.031 A 
ATOM     50  C   UNL     1       9.874   4.673   2.183  1.00  0.00     0.074 A 
ATOM     51  C   UNL     1      10.505   6.340   0.475  1.00  0.00     0.049 A 
ATOM     52  N   UNL     1      11.028   4.445   2.753  1.00  0.00    -0.248 NA
ATOM     53  C   UNL     1       8.763   3.872   2.718  1.00  0.00     0.031 C 
ATOM     54  C   UNL     1      10.304   7.272  -0.634  1.00  0.00     0.029 A 
ATOM     55  N   UNL     1      11.854   6.388   0.718  1.00  0.00    -0.354 N 
ATOM     56  C   UNL     1      10.780   3.493   3.733  1.00  0.00     0.074 A 
ATOM     57  C   UNL     1       9.363   3.198   3.688  1.00  0.00     0.031 C 
ATOM     58  C   UNL     1      11.488   7.806  -0.973  1.00  0.00     0.029 A 
ATOM     59  C   UNL     1      12.519   7.286  -0.079  1.00  0.00     0.049 A 
ATOM     60  H   UNL     1      12.301   5.833   1.397  1.00  0.00     0.167 HD
ATOM     61  C   UNL     1      11.653   2.920   4.595  1.00  0.00     0.031 A 
ATOM     62  C   UNL     1      13.809   7.669  -0.069  1.00  0.00     0.031 A 
ATOM     63  C   UNL     1      13.059   3.218   4.640  1.00  0.00     0.049 A 
ATOM     64  C   UNL     1      14.752   7.055   0.926  1.00  0.00     0.074 A 
ATOM     65  C   UNL     1      14.032   2.675   5.461  1.00  0.00     0.029 A 
ATOM     66  N   UNL     1      13.693   4.150   3.832  1.00  0.00    -0.354 N 
ATOM     67  N   UNL     1      14.509   6.148   1.841  1.00  0.00    -0.248 NA
ATOM     68  C   UNL     1      16.147   7.517   0.888  1.00  0.00     0.031 C 
ATOM     69  C   UNL     1      15.246   3.313   5.181  1.00  0.00     0.029 A 
ATOM     70  C   UNL     1      15.038   4.218   4.152  1.00  0.00     0.049 A 
ATOM     71  H   UNL     1      13.251   4.684   3.132  1.00  0.00     0.167 HD
ATOM     72  C   UNL     1      15.720   5.922   2.482  1.00  0.00     0.074 A 
ATOM     73  C   UNL     1      16.700   6.774   1.838  1.00  0.00     0.031 C 
ATOM     74  C   UNL     1      15.995   5.084   3.512  1.00  0.00     0.031 A 
BRANCH  61  75
ATOM     75  C   UNL     1      11.086   1.953   5.595  1.00  0.00    -0.014 A 
ATOM     76  C   UNL     1      10.642   0.677   5.212  1.00  0.00     0.009 A 
ATOM     77  C   UNL     1      10.985   2.332   6.942  1.00  0.00     0.009 A 
ATOM     78  C   UNL     1      10.067  -0.181   6.152  1.00  0.00     0.001 A 
ATOM     79  C   UNL     1      10.435   1.462   7.884  1.00  0.00     0.001 A 
ATOM     80  C   UNL     1       9.966   0.211   7.487  1.00  0.00     0.000 A 
ENDBRANCH  61  75
BRANCH  62  81
ATOM     81  C   UNL     1      14.266   8.714  -1.018  1.00  0.00    -0.014 A 
ATOM     82  C   UNL     1      15.061   8.381  -2.124  1.00  0.00     0.009 A 
ATOM     83  C   UNL     1      13.875  10.051  -0.838  1.00  0.00     0.009 A 
ATOM     84  C   UNL     1      15.461   9.369  -3.027  1.00  0.00     0.001 A 
ATOM     85  C   UNL     1      14.256  11.031  -1.756  1.00  0.00     0.001 A 
ATOM     86  C   UNL     1      15.052  10.690  -2.847  1.00  0.00     0.000 A 
ENDBRANCH  62  81
BRANCH  74  87
ATOM     87  C   UNL     1      17.416   5.041   3.995  1.00  0.00    -0.014 A 
ATOM     88  C   UNL     1      17.950   6.084   4.767  1.00  0.00     0.009 A 
ATOM     89  C   UNL     1      18.217   3.925   3.708  1.00  0.00     0.009 A 
ATOM     90  C   UNL     1      19.271   6.023   5.217  1.00  0.00     0.001 A 
ATOM     91  C   UNL     1      19.529   3.856   4.179  1.00  0.00     0.001 A 
ATOM     92  C   UNL     1      20.057   4.908   4.927  1.00  0.00     0.000 A 
ENDBRANCH  74  87
ENDBRANCH  48  49
ENDBRANCH  41  43
ENDBRANCH  40  41
ENDBRANCH  39  40
ENDBRANCH   1  39
TORSDOF 17
