REMARK SMILES C[C@@H](C(=O)OCCOC(=O)c1ccc(-c2c3nc(c(-c4ccccc4)c4ccc([nH]4)c(-c4ccccc4)c4nc(c(-c5ccccc5)c5ccc2[nH]5)C=C4)C=C3)cc1)c1ccc(-c2ccc3[nH]ccc3c2)cc1
REMARK SMILES IDX 6 1 5 2 3 3 4 4 2 5 1 6 59 7 60 8 73 9 61 10 72 11 62 12
REMARK SMILES IDX 63 13 64 14 71 15 65 16 70 17 66 18 69 19 67 20 68 21 7 23
REMARK SMILES IDX 8 24 9 25 10 26 11 27 12 28 58 29 13 30 57 31 14 32 15 33
REMARK SMILES IDX 16 34 51 35 17 36 56 37 50 38 52 39 18 40 55 41 49 42 48 43
REMARK SMILES IDX 19 45 41 46 26 47 40 48 27 49 30 50 39 51 53 52 28 53 29 54
REMARK SMILES IDX 38 56 54 57 31 58 20 59 21 60 25 61 22 62 24 63 23 64 42 65
REMARK SMILES IDX 43 66 47 67 44 68 46 69 45 70 32 71 33 72 37 73 34 74 36 75
REMARK SMILES IDX 35 76
REMARK H PARENT 67 22 52 44 30 55
REMARK Flexibility Score: inf
ROOT
ATOM      1  C   UNL     1       2.658  -3.381   1.699  1.00  0.00     0.274 C 
ENDROOT
BRANCH   1   2
ATOM      2  O   UNL     1       2.181  -2.340   0.821  1.00  0.00    -0.462 OA
BRANCH   2   3
ATOM      3  C   UNL     1       1.085  -2.619   0.060  1.00  0.00     0.313 C 
ATOM      4  O   UNL     1       0.515  -3.704   0.071  1.00  0.00    -0.252 OA
BRANCH   3   5
ATOM      5  C   UNL     1       0.700  -1.447  -0.869  1.00  0.00     0.126 C 
ATOM      6  C   UNL     1       1.405  -0.144  -0.461  1.00  0.00     0.025 C 
BRANCH   5   7
ATOM      7  C   UNL     1      -0.820  -1.295  -1.050  1.00  0.00    -0.034 A 
ATOM      8  C   UNL     1      -1.521  -0.134  -0.686  1.00  0.00     0.005 A 
ATOM      9  C   UNL     1      -1.569  -2.350  -1.601  1.00  0.00     0.005 A 
ATOM     10  C   UNL     1      -2.911  -0.041  -0.847  1.00  0.00     0.009 A 
ATOM     11  C   UNL     1      -2.962  -2.261  -1.750  1.00  0.00     0.009 A 
ATOM     12  C   UNL     1      -3.655  -1.105  -1.372  1.00  0.00    -0.018 A 
BRANCH  12  13
ATOM     13  C   UNL     1      -5.117  -1.012  -1.493  1.00  0.00    -0.018 A 
ATOM     14  C   UNL     1      -5.738  -0.963  -2.749  1.00  0.00     0.011 A 
ATOM     15  C   UNL     1      -5.923  -0.954  -0.341  1.00  0.00     0.019 A 
ATOM     16  C   UNL     1      -7.131  -0.867  -2.890  1.00  0.00     0.027 A 
ATOM     17  C   UNL     1      -7.323  -0.861  -0.454  1.00  0.00    -0.000 A 
ATOM     18  C   UNL     1      -7.897  -0.825  -1.722  1.00  0.00     0.045 A 
ATOM     19  C   UNL     1      -8.384  -0.780   0.481  1.00  0.00     0.028 A 
ATOM     20  N   UNL     1      -9.261  -0.744  -1.546  1.00  0.00    -0.361 N 
ATOM     21  C   UNL     1      -9.566  -0.716  -0.214  1.00  0.00     0.083 A 
ATOM     22  H   UNL     1      -9.922  -0.711  -2.276  1.00  0.00     0.166 HD
ENDBRANCH  12  13
ENDBRANCH   5   7
ENDBRANCH   3   5
ENDBRANCH   2   3
ENDBRANCH   1   2
BRANCH   1  23
ATOM     23  C   UNL     1       2.315  -3.062   3.153  1.00  0.00     0.275 C 
BRANCH  23  24
ATOM     24  O   UNL     1       0.897  -3.186   3.363  1.00  0.00    -0.458 OA
BRANCH  24  25
ATOM     25  C   UNL     1       0.222  -2.027   3.528  1.00  0.00     0.338 C 
ATOM     26  O   UNL     1       0.671  -0.897   3.589  1.00  0.00    -0.246 OA
BRANCH  25  27
ATOM     27  C   UNL     1      -1.217  -2.322   3.529  1.00  0.00     0.060 A 
ATOM     28  C   UNL     1      -1.858  -2.418   2.299  1.00  0.00     0.016 A 
ATOM     29  C   UNL     1      -1.949  -2.398   4.713  1.00  0.00     0.016 A 
ATOM     30  C   UNL     1      -3.240  -2.539   2.241  1.00  0.00     0.010 A 
ATOM     31  C   UNL     1      -3.340  -2.569   4.653  1.00  0.00     0.010 A 
ATOM     32  C   UNL     1      -4.003  -2.613   3.413  1.00  0.00    -0.014 A 
BRANCH  32  33
ATOM     33  C   UNL     1      -5.490  -2.626   3.309  1.00  0.00     0.031 A 
ATOM     34  C   UNL     1      -6.283  -1.442   3.800  1.00  0.00     0.074 A 
ATOM     35  C   UNL     1      -6.123  -3.606   2.631  1.00  0.00     0.049 A 
ATOM     36  N   UNL     1      -7.582  -1.282   3.858  1.00  0.00    -0.248 NA
ATOM     37  C   UNL     1      -5.516  -0.275   4.262  1.00  0.00     0.031 C 
ATOM     38  C   UNL     1      -5.468  -4.741   1.977  1.00  0.00     0.029 A 
ATOM     39  N   UNL     1      -7.451  -3.765   2.316  1.00  0.00    -0.354 N 
ATOM     40  C   UNL     1      -7.787  -0.002   4.356  1.00  0.00     0.074 A 
ATOM     41  C   UNL     1      -6.481   0.553   4.641  1.00  0.00     0.031 C 
ATOM     42  C   UNL     1      -6.379  -5.419   1.261  1.00  0.00     0.029 A 
ATOM     43  C   UNL     1      -7.695  -4.825   1.475  1.00  0.00     0.049 A 
ATOM     44  H   UNL     1      -8.161  -3.176   2.660  1.00  0.00     0.167 HD
ATOM     45  C   UNL     1      -8.950   0.674   4.515  1.00  0.00     0.031 A 
ATOM     46  C   UNL     1      -8.847  -5.276   0.942  1.00  0.00     0.031 A 
ATOM     47  C   UNL     1     -10.249   0.183   4.133  1.00  0.00     0.049 A 
ATOM     48  C   UNL     1     -10.140  -4.588   1.286  1.00  0.00     0.074 A 
ATOM     49  C   UNL     1     -11.477   0.808   4.269  1.00  0.00     0.029 A 
ATOM     50  N   UNL     1     -10.486  -1.026   3.501  1.00  0.00    -0.354 N 
ATOM     51  N   UNL     1     -10.339  -3.482   1.958  1.00  0.00    -0.248 NA
ATOM     52  C   UNL     1     -11.376  -5.235   0.817  1.00  0.00     0.031 C 
ATOM     53  C   UNL     1     -12.459  -0.028   3.727  1.00  0.00     0.029 A 
ATOM     54  C   UNL     1     -11.835  -1.153   3.216  1.00  0.00     0.049 A 
ATOM     55  H   UNL     1      -9.797  -1.695   3.286  1.00  0.00     0.167 HD
ATOM     56  C   UNL     1     -11.713  -3.282   1.964  1.00  0.00     0.074 A 
ATOM     57  C   UNL     1     -12.303  -4.382   1.230  1.00  0.00     0.031 C 
ATOM     58  C   UNL     1     -12.420  -2.269   2.520  1.00  0.00     0.031 A 
BRANCH  45  59
ATOM     59  C   UNL     1      -8.874   2.037   5.140  1.00  0.00    -0.014 A 
ATOM     60  C   UNL     1      -8.440   3.155   4.414  1.00  0.00     0.009 A 
ATOM     61  C   UNL     1      -9.292   2.205   6.469  1.00  0.00     0.009 A 
ATOM     62  C   UNL     1      -8.398   4.413   5.019  1.00  0.00     0.001 A 
ATOM     63  C   UNL     1      -9.272   3.467   7.063  1.00  0.00     0.001 A 
ATOM     64  C   UNL     1      -8.818   4.569   6.340  1.00  0.00     0.000 A 
ENDBRANCH  45  59
BRANCH  46  65
ATOM     65  C   UNL     1      -8.851  -6.468   0.049  1.00  0.00    -0.014 A 
ATOM     66  C   UNL     1      -9.229  -6.350  -1.298  1.00  0.00     0.009 A 
ATOM     67  C   UNL     1      -8.517  -7.737   0.548  1.00  0.00     0.009 A 
ATOM     68  C   UNL     1      -9.295  -7.481  -2.117  1.00  0.00     0.001 A 
ATOM     69  C   UNL     1      -8.550  -8.859  -0.281  1.00  0.00     0.001 A 
ATOM     70  C   UNL     1      -8.951  -8.733  -1.610  1.00  0.00     0.000 A 
ENDBRANCH  46  65
BRANCH  58  71
ATOM     71  C   UNL     1     -13.912  -2.300   2.350  1.00  0.00    -0.014 A 
ATOM     72  C   UNL     1     -14.702  -3.199   3.082  1.00  0.00     0.009 A 
ATOM     73  C   UNL     1     -14.538  -1.400   1.473  1.00  0.00     0.009 A 
ATOM     74  C   UNL     1     -16.089  -3.214   2.919  1.00  0.00     0.001 A 
ATOM     75  C   UNL     1     -15.927  -1.401   1.331  1.00  0.00     0.001 A 
ATOM     76  C   UNL     1     -16.700  -2.312   2.048  1.00  0.00     0.000 A 
ENDBRANCH  58  71
ENDBRANCH  32  33
ENDBRANCH  25  27
ENDBRANCH  24  25
ENDBRANCH  23  24
ENDBRANCH   1  23
TORSDOF 13
