REMARK SMILES COc1ccccc1[C@@H]1CN(C(=O)c2cc(C(C)C)nc(N)n2)C[C@H]1C(=O)OCCOC(=O)c1ccc(-c2c3nc(c(-c4ccccc4)c4ccc([nH]4)c(-c4ccccc4)c4nc(c(-c5ccccc5)c5ccc2[nH]5)C=C4)C=C3)cc1
REMARK SMILES IDX 29 1 28 2 26 3 27 4 25 5 9 6 10 7 11 8 24 9 8 10 3 11 4 12
REMARK SMILES IDX 5 13 7 14 6 15 2 16 1 17 12 18 13 19 14 20 15 21 23 22 16 23
REMARK SMILES IDX 21 24 20 25 17 26 18 27 19 28 22 29 30 32 31 33 32 34 33 35
REMARK SMILES IDX 34 36 35 37 81 38 36 39 80 40 37 41 38 42 39 43 74 44 40 45
REMARK SMILES IDX 79 46 73 47 75 48 41 49 78 50 72 51 71 52 42 54 64 55 49 56
REMARK SMILES IDX 63 57 50 58 53 59 62 60 76 61 51 62 52 63 61 65 77 66 54 67
REMARK SMILES IDX 43 68 44 69 48 70 45 71 47 72 46 73 65 74 66 75 70 76 67 77
REMARK SMILES IDX 69 78 68 79 55 80 56 81 60 82 57 83 59 84 58 85
REMARK H PARENT 22 30 22 31 75 53 53 64
REMARK Flexibility Score: inf
ROOT
ATOM      1  C   UNL     1       4.433  -2.471   3.844  1.00  0.00     0.274 C 
ENDROOT
BRANCH   1   2
ATOM      2  O   UNL     1       4.164  -1.502   2.810  1.00  0.00    -0.462 OA
BRANCH   2   3
ATOM      3  C   UNL     1       3.236  -1.883   1.895  1.00  0.00     0.311 C 
ATOM      4  O   UNL     1       2.664  -2.969   1.889  1.00  0.00    -0.252 OA
BRANCH   3   5
ATOM      5  C   UNL     1       3.006  -0.874   0.801  1.00  0.00     0.128 C 
ATOM      6  C   UNL     1       3.337   0.602   1.085  1.00  0.00     0.058 C 
ATOM      7  C   UNL     1       3.787   1.129  -0.278  1.00  0.00     0.129 C 
ATOM      8  N   UNL     1       4.400  -0.021  -0.923  1.00  0.00    -0.336 N 
ATOM      9  C   UNL     1       3.903  -1.264  -0.370  1.00  0.00     0.136 C 
BRANCH   6  10
ATOM     10  C   UNL     1       2.249   1.427   1.746  1.00  0.00    -0.000 A 
ATOM     11  C   UNL     1       1.054   1.834   1.123  1.00  0.00     0.122 A 
ATOM     12  C   UNL     1       0.121   2.632   1.797  1.00  0.00     0.047 A 
ATOM     13  C   UNL     1       0.367   3.049   3.103  1.00  0.00     0.004 A 
ATOM     14  C   UNL     1       2.471   1.864   3.066  1.00  0.00     0.008 A 
ATOM     15  C   UNL     1       1.548   2.674   3.733  1.00  0.00     0.001 A 
BRANCH  11  16
ATOM     16  O   UNL     1       0.851   1.652  -0.218  1.00  0.00    -0.496 OA
ATOM     17  C   UNL     1       0.096   0.490  -0.538  1.00  0.00     0.278 C 
ENDBRANCH  11  16
ENDBRANCH   6  10
BRANCH   8  18
ATOM     18  C   UNL     1       5.200  -0.023  -2.057  1.00  0.00     0.272 C 
ATOM     19  O   UNL     1       5.520  -1.052  -2.646  1.00  0.00    -0.267 OA
BRANCH  18  20
ATOM     20  C   UNL     1       5.725   1.288  -2.516  1.00  0.00     0.134 A 
ATOM     21  C   UNL     1       6.508   2.010  -1.644  1.00  0.00     0.058 A 
ATOM     22  N   UNL     1       5.327   1.717  -3.727  1.00  0.00    -0.208 NA
ATOM     23  C   UNL     1       6.803   3.291  -2.038  1.00  0.00     0.049 A 
ATOM     24  C   UNL     1       5.723   2.944  -4.048  1.00  0.00     0.220 A 
ATOM     25  N   UNL     1       6.423   3.759  -3.246  1.00  0.00    -0.218 NA
BRANCH  23  26
ATOM     26  C   UNL     1       7.473   4.269  -1.094  1.00  0.00     0.032 C 
ATOM     27  C   UNL     1       6.517   4.655   0.041  1.00  0.00     0.014 C 
ATOM     28  C   UNL     1       8.790   3.730  -0.534  1.00  0.00     0.014 C 
ENDBRANCH  23  26
BRANCH  24  29
ATOM     29  N   UNL     1       5.385   3.412  -5.283  1.00  0.00    -0.368 N 
ATOM     30  H   UNL     1       5.660   4.316  -5.559  1.00  0.00     0.159 HD
ATOM     31  H   UNL     1       4.866   2.845  -5.899  1.00  0.00     0.159 HD
ENDBRANCH  24  29
ENDBRANCH  18  20
ENDBRANCH   8  18
ENDBRANCH   3   5
ENDBRANCH   2   3
ENDBRANCH   1   2
BRANCH   1  32
ATOM     32  C   UNL     1       3.595  -2.188   5.088  1.00  0.00     0.275 C 
BRANCH  32  33
ATOM     33  O   UNL     1       2.205  -2.099   4.732  1.00  0.00    -0.458 OA
BRANCH  33  34
ATOM     34  C   UNL     1       1.568  -0.975   5.135  1.00  0.00     0.338 C 
ATOM     35  O   UNL     1       2.017  -0.076   5.822  1.00  0.00    -0.246 OA
BRANCH  34  36
ATOM     36  C   UNL     1       0.174  -1.006   4.657  1.00  0.00     0.060 A 
ATOM     37  C   UNL     1      -0.120  -1.108   3.296  1.00  0.00     0.016 A 
ATOM     38  C   UNL     1      -0.853  -0.848   5.587  1.00  0.00     0.016 A 
ATOM     39  C   UNL     1      -1.442  -1.006   2.860  1.00  0.00     0.010 A 
ATOM     40  C   UNL     1      -2.179  -0.805   5.152  1.00  0.00     0.010 A 
ATOM     41  C   UNL     1      -2.485  -0.856   3.781  1.00  0.00    -0.014 A 
BRANCH  41  42
ATOM     42  C   UNL     1      -3.892  -0.709   3.325  1.00  0.00     0.031 A 
ATOM     43  C   UNL     1      -4.641   0.567   3.600  1.00  0.00     0.074 A 
ATOM     44  C   UNL     1      -4.510  -1.716   2.679  1.00  0.00     0.049 A 
ATOM     45  N   UNL     1      -5.916   0.826   3.451  1.00  0.00    -0.248 NA
ATOM     46  C   UNL     1      -3.853   1.696   4.118  1.00  0.00     0.031 C 
ATOM     47  C   UNL     1      -3.895  -2.987   2.295  1.00  0.00     0.029 A 
ATOM     48  N   UNL     1      -5.806  -1.826   2.237  1.00  0.00    -0.354 N 
ATOM     49  C   UNL     1      -6.092   2.127   3.905  1.00  0.00     0.074 A 
ATOM     50  C   UNL     1      -4.794   2.605   4.332  1.00  0.00     0.031 C 
ATOM     51  C   UNL     1      -4.807  -3.742   1.661  1.00  0.00     0.029 A 
ATOM     52  C   UNL     1      -6.086  -3.040   1.658  1.00  0.00     0.049 A 
ATOM     53  H   UNL     1      -6.470  -1.105   2.326  1.00  0.00     0.167 HD
ATOM     54  C   UNL     1      -7.233   2.855   3.965  1.00  0.00     0.031 A 
ATOM     55  C   UNL     1      -7.249  -3.550   1.212  1.00  0.00     0.031 A 
ATOM     56  C   UNL     1      -8.519   2.395   3.514  1.00  0.00     0.049 A 
ATOM     57  C   UNL     1      -8.509  -2.743   1.337  1.00  0.00     0.074 A 
ATOM     58  C   UNL     1      -9.728   3.070   3.522  1.00  0.00     0.029 A 
ATOM     59  N   UNL     1      -8.762   1.147   2.965  1.00  0.00    -0.354 N 
ATOM     60  N   UNL     1      -8.670  -1.531   1.807  1.00  0.00    -0.248 NA
ATOM     61  C   UNL     1      -9.752  -3.385   0.884  1.00  0.00     0.031 C 
ATOM     62  C   UNL     1     -10.711   2.216   3.010  1.00  0.00     0.029 A 
ATOM     63  C   UNL     1     -10.104   1.025   2.646  1.00  0.00     0.049 A 
ATOM     64  H   UNL     1      -8.082   0.449   2.823  1.00  0.00     0.167 HD
ATOM     65  C   UNL     1     -10.027  -1.259   1.693  1.00  0.00     0.074 A 
ATOM     66  C   UNL     1     -10.642  -2.426   1.095  1.00  0.00     0.031 C 
ATOM     67  C   UNL     1     -10.703  -0.142   2.055  1.00  0.00     0.031 A 
BRANCH  54  68
ATOM     68  C   UNL     1      -7.147   4.221   4.582  1.00  0.00    -0.014 A 
ATOM     69  C   UNL     1      -6.580   5.303   3.893  1.00  0.00     0.009 A 
ATOM     70  C   UNL     1      -7.682   4.434   5.863  1.00  0.00     0.009 A 
ATOM     71  C   UNL     1      -6.524   6.566   4.487  1.00  0.00     0.001 A 
ATOM     72  C   UNL     1      -7.645   5.702   6.445  1.00  0.00     0.001 A 
ATOM     73  C   UNL     1      -7.060   6.765   5.759  1.00  0.00     0.000 A 
ENDBRANCH  54  68
BRANCH  55  74
ATOM     74  C   UNL     1      -7.285  -4.921   0.641  1.00  0.00    -0.014 A 
ATOM     75  C   UNL     1      -7.478  -5.113  -0.734  1.00  0.00     0.009 A 
ATOM     76  C   UNL     1      -7.128  -6.042   1.471  1.00  0.00     0.009 A 
ATOM     77  C   UNL     1      -7.528  -6.403  -1.266  1.00  0.00     0.001 A 
ATOM     78  C   UNL     1      -7.153  -7.330   0.933  1.00  0.00     0.001 A 
ATOM     79  C   UNL     1      -7.360  -7.510  -0.434  1.00  0.00     0.000 A 
ENDBRANCH  55  74
BRANCH  67  80
ATOM     80  C   UNL     1     -12.179  -0.120   1.786  1.00  0.00    -0.014 A 
ATOM     81  C   UNL     1     -13.073  -0.837   2.595  1.00  0.00     0.009 A 
ATOM     82  C   UNL     1     -12.682   0.650   0.726  1.00  0.00     0.009 A 
ATOM     83  C   UNL     1     -14.444  -0.805   2.329  1.00  0.00     0.001 A 
ATOM     84  C   UNL     1     -14.054   0.697   0.476  1.00  0.00     0.001 A 
ATOM     85  C   UNL     1     -14.933  -0.036   1.273  1.00  0.00     0.000 A 
ENDBRANCH  67  80
ENDBRANCH  41  42
ENDBRANCH  34  36
ENDBRANCH  33  34
ENDBRANCH  32  33
ENDBRANCH   1  32
TORSDOF 17
