REMARK SMILES O=C(OCCOC(=O)c1ccc(-c2c3nc(c(-c4ccccc4)c4ccc([nH]4)c(-c4ccccc4)c4nc(c(-c5ccccc5)c5ccc2[nH]5)C=C4)C=C3)cc1)c1ccc(NS(=O)(=O)Cc2c(Cl)cccc2Cl)cc1
REMARK SMILES IDX 4 1 3 2 2 3 1 4 57 5 58 6 75 7 59 8 74 9 60 10 61 11 62 13
REMARK SMILES IDX 63 14 64 15 65 16 66 17 67 18 72 19 68 20 69 21 71 22 73 23
REMARK SMILES IDX 70 24 5 25 6 26 7 27 8 28 9 29 10 30 56 31 11 32 55 33 12 34
REMARK SMILES IDX 13 35 14 36 49 37 15 38 54 39 48 40 50 41 16 42 53 43 47 44
REMARK SMILES IDX 46 45 17 47 39 48 24 49 38 50 25 51 28 52 37 53 51 54 26 55
REMARK SMILES IDX 27 56 36 58 52 59 29 60 18 61 19 62 23 63 20 64 22 65 21 66
REMARK SMILES IDX 40 67 41 68 45 69 42 70 44 71 43 72 30 73 31 74 35 75 32 76
REMARK SMILES IDX 34 77 33 78
REMARK H PARENT 61 12 50 46 28 57
REMARK Flexibility Score: inf
ROOT
ATOM      1  C   UNL     1       3.557  -1.206  -0.714  1.00  0.00     0.275 C 
ENDROOT
BRANCH   1   2
ATOM      2  O   UNL     1       2.460  -0.770   0.120  1.00  0.00    -0.458 OA
BRANCH   2   3
ATOM      3  C   UNL     1       2.537   0.039   1.208  1.00  0.00     0.338 C 
ATOM      4  O   UNL     1       1.824  -0.185   2.183  1.00  0.00    -0.246 OA
BRANCH   3   5
ATOM      5  C   UNL     1       3.338   1.306   1.193  1.00  0.00     0.060 A 
ATOM      6  C   UNL     1       4.203   1.666   0.175  1.00  0.00     0.018 A 
ATOM      7  C   UNL     1       3.176   2.232   2.238  1.00  0.00     0.018 A 
ATOM      8  C   UNL     1       4.824   2.905   0.139  1.00  0.00     0.027 A 
ATOM      9  C   UNL     1       3.902   3.440   2.262  1.00  0.00     0.027 A 
ATOM     10  C   UNL     1       4.738   3.781   1.199  1.00  0.00     0.049 A 
BRANCH  10  11
ATOM     11  N   UNL     1       5.657   4.857   1.333  1.00  0.00    -0.283 N 
ATOM     12  H   UNL     1       5.753   5.273   2.220  1.00  0.00     0.180 HD
BRANCH  11  13
ATOM     13  S   UNL     1       6.582   5.462   0.083  1.00  0.00     0.237 S 
ATOM     14  O   UNL     1       5.768   5.483  -1.117  1.00  0.00    -0.206 OA
ATOM     15  O   UNL     1       7.108   6.709   0.605  1.00  0.00    -0.206 OA
BRANCH  13  16
ATOM     16  C   UNL     1       8.021   4.375  -0.201  1.00  0.00     0.198 C 
BRANCH  16  17
ATOM     17  C   UNL     1       7.916   2.954   0.316  1.00  0.00     0.006 A 
ATOM     18  C   UNL     1       7.820   1.843  -0.555  1.00  0.00     0.046 A 
ATOM     19  C   UNL     1       7.962   2.670   1.695  1.00  0.00     0.046 A 
ATOM     20  Cl  UNL     1       7.811   2.007  -2.279  1.00  0.00    -0.084 Cl
ATOM     21  C   UNL     1       7.697   0.532  -0.067  1.00  0.00     0.021 A 
ATOM     22  C   UNL     1       7.803   1.364   2.179  1.00  0.00     0.021 A 
ATOM     23  Cl  UNL     1       8.262   3.901   2.873  1.00  0.00    -0.084 Cl
ATOM     24  C   UNL     1       7.663   0.294   1.301  1.00  0.00     0.003 A 
ENDBRANCH  16  17
ENDBRANCH  13  16
ENDBRANCH  11  13
ENDBRANCH  10  11
ENDBRANCH   3   5
ENDBRANCH   2   3
ENDBRANCH   1   2
BRANCH   1  25
ATOM     25  C   UNL     1       3.361  -0.770  -2.183  1.00  0.00     0.275 C 
BRANCH  25  26
ATOM     26  O   UNL     1       3.067   0.640  -2.305  1.00  0.00    -0.458 OA
BRANCH  26  27
ATOM     27  C   UNL     1       1.753   0.974  -2.241  1.00  0.00     0.338 C 
ATOM     28  O   UNL     1       0.816   0.199  -2.354  1.00  0.00    -0.246 OA
BRANCH  27  29
ATOM     29  C   UNL     1       1.587   2.394  -1.819  1.00  0.00     0.060 A 
ATOM     30  C   UNL     1       0.489   2.698  -1.004  1.00  0.00     0.016 A 
ATOM     31  C   UNL     1       2.486   3.411  -2.157  1.00  0.00     0.016 A 
ATOM     32  C   UNL     1       0.267   4.008  -0.564  1.00  0.00     0.010 A 
ATOM     33  C   UNL     1       2.281   4.720  -1.683  1.00  0.00     0.010 A 
ATOM     34  C   UNL     1       1.149   5.041  -0.913  1.00  0.00    -0.014 A 
BRANCH  34  35
ATOM     35  C   UNL     1       0.805   6.456  -0.583  1.00  0.00     0.031 A 
ATOM     36  C   UNL     1       0.337   7.381  -1.679  1.00  0.00     0.074 A 
ATOM     37  C   UNL     1       0.843   6.926   0.681  1.00  0.00     0.049 A 
ATOM     38  N   UNL     1      -0.116   8.609  -1.592  1.00  0.00    -0.248 NA
ATOM     39  C   UNL     1       0.371   6.851  -3.051  1.00  0.00     0.031 C 
ATOM     40  C   UNL     1       1.247   6.167   1.861  1.00  0.00     0.029 A 
ATOM     41  N   UNL     1       0.526   8.170   1.179  1.00  0.00    -0.354 N 
ATOM     42  C   UNL     1      -0.434   8.988  -2.890  1.00  0.00     0.074 A 
ATOM     43  C   UNL     1      -0.069   7.885  -3.753  1.00  0.00     0.031 C 
ATOM     44  C   UNL     1       1.163   6.960   2.945  1.00  0.00     0.029 A 
ATOM     45  C   UNL     1       0.699   8.286   2.538  1.00  0.00     0.049 A 
ATOM     46  H   UNL     1       0.206   8.910   0.614  1.00  0.00     0.167 HD
ATOM     47  C   UNL     1      -1.006  10.132  -3.334  1.00  0.00     0.031 A 
ATOM     48  C   UNL     1       0.501   9.332   3.365  1.00  0.00     0.031 A 
ATOM     49  C   UNL     1      -1.368  11.251  -2.508  1.00  0.00     0.049 A 
ATOM     50  C   UNL     1      -0.048  10.631   2.834  1.00  0.00     0.074 A 
ATOM     51  C   UNL     1      -1.993  12.429  -2.881  1.00  0.00     0.029 A 
ATOM     52  N   UNL     1      -1.125  11.340  -1.149  1.00  0.00    -0.354 N 
ATOM     53  N   UNL     1      -0.429  10.934   1.619  1.00  0.00    -0.248 NA
ATOM     54  C   UNL     1      -0.219  11.726   3.805  1.00  0.00     0.031 C 
ATOM     55  C   UNL     1      -2.080  13.255  -1.755  1.00  0.00     0.029 A 
ATOM     56  C   UNL     1      -1.556  12.568  -0.673  1.00  0.00     0.049 A 
ATOM     57  H   UNL     1      -0.708  10.636  -0.602  1.00  0.00     0.167 HD
ATOM     58  C   UNL     1      -0.921  12.233   1.688  1.00  0.00     0.074 A 
ATOM     59  C   UNL     1      -0.796  12.661   3.064  1.00  0.00     0.031 C 
ATOM     60  C   UNL     1      -1.440  12.996   0.695  1.00  0.00     0.031 A 
BRANCH  47  61
ATOM     61  C   UNL     1      -1.278  10.229  -4.808  1.00  0.00    -0.014 A 
ATOM     62  C   UNL     1      -2.323   9.498  -5.395  1.00  0.00     0.009 A 
ATOM     63  C   UNL     1      -0.506  11.082  -5.609  1.00  0.00     0.009 A 
ATOM     64  C   UNL     1      -2.567   9.595  -6.766  1.00  0.00     0.001 A 
ATOM     65  C   UNL     1      -0.769  11.195  -6.975  1.00  0.00     0.001 A 
ATOM     66  C   UNL     1      -1.793  10.446  -7.553  1.00  0.00     0.000 A 
ENDBRANCH  47  61
BRANCH  48  67
ATOM     67  C   UNL     1       0.815   9.211   4.814  1.00  0.00    -0.014 A 
ATOM     68  C   UNL     1      -0.214   9.173   5.769  1.00  0.00     0.009 A 
ATOM     69  C   UNL     1       2.148   9.202   5.251  1.00  0.00     0.009 A 
ATOM     70  C   UNL     1       0.088   9.162   7.132  1.00  0.00     0.001 A 
ATOM     71  C   UNL     1       2.446   9.167   6.614  1.00  0.00     0.001 A 
ATOM     72  C   UNL     1       1.417   9.159   7.554  1.00  0.00     0.000 A 
ENDBRANCH  48  67
BRANCH  60  73
ATOM     73  C   UNL     1      -1.957  14.361   1.058  1.00  0.00    -0.014 A 
ATOM     74  C   UNL     1      -1.085  15.415   1.369  1.00  0.00     0.009 A 
ATOM     75  C   UNL     1      -3.340  14.608   1.039  1.00  0.00     0.009 A 
ATOM     76  C   UNL     1      -1.588  16.680   1.683  1.00  0.00     0.001 A 
ATOM     77  C   UNL     1      -3.838  15.880   1.326  1.00  0.00     0.001 A 
ATOM     78  C   UNL     1      -2.963  16.913   1.655  1.00  0.00     0.000 A 
ENDBRANCH  60  73
ENDBRANCH  34  35
ENDBRANCH  27  29
ENDBRANCH  26  27
ENDBRANCH  25  26
ENDBRANCH   1  25
TORSDOF 15
