REMARK SMILES CCCCCCCCNC(=O)Oc1cccc(-c2ccc([C@@H](C)C(=O)OCCOC(=O)c3ccc(-c4c5nc(c(-c6ccccc6)c6ccc([nH]6)c(-c6ccccc6)c6nc(c(-c7ccccc7)c7ccc4[nH]7)C=C6)C=C5)cc3)cc2F)c1
REMARK SMILES IDX 18 1 19 2 20 3 21 4 80 5 81 6 82 7 17 8 13 9 14 10 83 11
REMARK SMILES IDX 15 12 16 13 12 14 10 15 9 16 11 18 8 19 7 20 6 21 5 22 4 23
REMARK SMILES IDX 3 24 2 25 1 26 22 27 23 28 24 29 25 30 26 31 27 32 28 33
REMARK SMILES IDX 29 34 30 35 31 36 32 37 33 38 79 39 34 40 78 41 35 42 36 43
REMARK SMILES IDX 37 44 72 45 38 46 77 47 71 48 73 49 39 50 76 51 70 52 69 53
REMARK SMILES IDX 40 55 62 56 47 57 61 58 48 59 51 60 60 61 74 62 49 63 50 64
REMARK SMILES IDX 59 66 75 67 52 68 41 69 42 70 46 71 43 72 45 73 44 74 63 75
REMARK SMILES IDX 64 76 68 77 65 78 67 79 66 80 53 81 54 82 58 83 55 84 57 85
REMARK SMILES IDX 56 86
REMARK H PARENT 9 17 73 54 51 65
REMARK Flexibility Score: inf
ROOT
ATOM      1  C   UNL     1      -6.433 -10.718  -4.122  1.00  0.00     0.018 A 
ATOM      2  C   UNL     1      -7.626 -11.373  -3.779  1.00  0.00     0.012 A 
ATOM      3  C   UNL     1      -8.668 -11.522  -4.702  1.00  0.00     0.005 A 
ATOM      4  C   UNL     1      -8.557 -11.006  -6.000  1.00  0.00    -0.031 A 
ATOM      5  C   UNL     1      -7.374 -10.335  -6.344  1.00  0.00     0.044 A 
ATOM      6  C   UNL     1      -6.338 -10.196  -5.418  1.00  0.00     0.131 A 
ATOM      7  F   UNL     1      -5.221  -9.568  -5.818  1.00  0.00    -0.206 F 
ENDROOT
BRANCH   1   8
ATOM      8  C   UNL     1      -5.327 -10.617  -3.155  1.00  0.00    -0.012 A 
ATOM      9  C   UNL     1      -3.664  -9.331  -1.946  1.00  0.00     0.133 A 
ATOM     10  C   UNL     1      -3.197 -10.476  -1.306  1.00  0.00     0.047 A 
ATOM     11  C   UNL     1      -4.707  -9.390  -2.872  1.00  0.00     0.056 A 
ATOM     12  C   UNL     1      -3.800 -11.699  -1.576  1.00  0.00     0.004 A 
ATOM     13  C   UNL     1      -4.854 -11.767  -2.491  1.00  0.00     0.009 A 
BRANCH   9  14
ATOM     14  O   UNL     1      -2.960  -8.141  -1.712  1.00  0.00    -0.410 OA
BRANCH  14  15
ATOM     15  C   UNL     1      -3.675  -7.059  -1.224  1.00  0.00     0.412 C 
ATOM     16  N   UNL     1      -2.898  -5.950  -1.030  1.00  0.00    -0.321 N 
ATOM     17  H   UNL     1      -3.355  -5.144  -0.700  1.00  0.00     0.167 HD
ATOM     18  O   UNL     1      -4.871  -7.041  -0.958  1.00  0.00    -0.224 OA
BRANCH  16  19
ATOM     19  C   UNL     1      -1.472  -5.839  -1.261  1.00  0.00     0.119 C 
BRANCH  19  20
ATOM     20  C   UNL     1      -1.138  -4.768  -2.299  1.00  0.00     0.021 C 
BRANCH  20  21
ATOM     21  C   UNL     1      -1.541  -3.340  -1.906  1.00  0.00     0.002 C 
BRANCH  21  22
ATOM     22  C   UNL     1      -0.951  -2.828  -0.587  1.00  0.00     0.000 C 
BRANCH  22  23
ATOM     23  C   UNL     1       0.579  -2.776  -0.535  1.00  0.00    -0.000 C 
BRANCH  23  24
ATOM     24  C   UNL     1       1.233  -1.818  -1.537  1.00  0.00    -0.000 C 
BRANCH  24  25
ATOM     25  C   UNL     1       0.809  -0.351  -1.416  1.00  0.00    -0.003 C 
ATOM     26  C   UNL     1       1.132   0.263  -0.063  1.00  0.00     0.004 C 
ENDBRANCH  24  25
ENDBRANCH  23  24
ENDBRANCH  22  23
ENDBRANCH  21  22
ENDBRANCH  20  21
ENDBRANCH  19  20
ENDBRANCH  16  19
ENDBRANCH  14  15
ENDBRANCH   9  14
ENDBRANCH   1   8
BRANCH   4  27
ATOM     27  C   UNL     1      -9.669 -11.159  -7.026  1.00  0.00     0.126 C 
ATOM     28  C   UNL     1     -10.023 -12.621  -7.288  1.00  0.00     0.025 C 
BRANCH  27  29
ATOM     29  C   UNL     1     -10.936 -10.354  -6.763  1.00  0.00     0.313 C 
ATOM     30  O   UNL     1     -11.657  -9.960  -7.676  1.00  0.00    -0.252 OA
BRANCH  29  31
ATOM     31  O   UNL     1     -11.194 -10.156  -5.445  1.00  0.00    -0.462 OA
BRANCH  31  32
ATOM     32  C   UNL     1     -12.321  -9.320  -5.118  1.00  0.00     0.274 C 
BRANCH  32  33
ATOM     33  C   UNL     1     -11.874  -7.896  -4.784  1.00  0.00     0.275 C 
BRANCH  33  34
ATOM     34  O   UNL     1     -11.423  -7.201  -5.961  1.00  0.00    -0.458 OA
BRANCH  34  35
ATOM     35  C   UNL     1     -10.088  -7.241  -6.177  1.00  0.00     0.338 C 
ATOM     36  O   UNL     1      -9.234  -7.756  -5.481  1.00  0.00    -0.246 OA
BRANCH  35  37
ATOM     37  C   UNL     1      -9.795  -6.633  -7.479  1.00  0.00     0.060 A 
ATOM     38  C   UNL     1      -9.376  -7.458  -8.527  1.00  0.00     0.016 A 
ATOM     39  C   UNL     1      -9.858  -5.250  -7.639  1.00  0.00     0.016 A 
ATOM     40  C   UNL     1      -9.011  -6.901  -9.749  1.00  0.00     0.010 A 
ATOM     41  C   UNL     1      -9.501  -4.692  -8.867  1.00  0.00     0.010 A 
ATOM     42  C   UNL     1      -9.067  -5.513  -9.924  1.00  0.00    -0.014 A 
BRANCH  42  43
ATOM     43  C   UNL     1      -8.640  -4.894 -11.198  1.00  0.00     0.031 A 
ATOM     44  C   UNL     1      -7.350  -4.132 -11.252  1.00  0.00     0.074 A 
ATOM     45  C   UNL     1      -9.429  -4.979 -12.284  1.00  0.00     0.049 A 
ATOM     46  N   UNL     1      -6.889  -3.355 -12.198  1.00  0.00    -0.248 NA
ATOM     47  C   UNL     1      -6.465  -4.255 -10.083  1.00  0.00     0.031 C 
ATOM     48  C   UNL     1     -10.675  -5.740 -12.368  1.00  0.00     0.029 A 
ATOM     49  N   UNL     1      -9.305  -4.395 -13.519  1.00  0.00    -0.354 N 
ATOM     50  C   UNL     1      -5.677  -2.870 -11.726  1.00  0.00     0.074 A 
ATOM     51  C   UNL     1      -5.475  -3.437 -10.409  1.00  0.00     0.031 C 
ATOM     52  C   UNL     1     -11.212  -5.563 -13.586  1.00  0.00     0.029 A 
ATOM     53  C   UNL     1     -10.379  -4.632 -14.341  1.00  0.00     0.049 A 
ATOM     54  H   UNL     1      -8.525  -3.859 -13.788  1.00  0.00     0.167 HD
ATOM     55  C   UNL     1      -4.817  -2.020 -12.335  1.00  0.00     0.031 A 
ATOM     56  C   UNL     1     -10.680  -4.117 -15.548  1.00  0.00     0.031 A 
ATOM     57  C   UNL     1      -5.027  -1.462 -13.644  1.00  0.00     0.049 A 
ATOM     58  C   UNL     1      -9.748  -3.117 -16.173  1.00  0.00     0.074 A 
ATOM     59  C   UNL     1      -4.212  -0.598 -14.354  1.00  0.00     0.029 A 
ATOM     60  N   UNL     1      -6.134  -1.715 -14.438  1.00  0.00    -0.354 N 
ATOM     61  N   UNL     1      -8.612  -2.649 -15.714  1.00  0.00    -0.248 NA
ATOM     62  C   UNL     1     -10.143  -2.567 -17.477  1.00  0.00     0.031 C 
ATOM     63  C   UNL     1      -4.849  -0.294 -15.562  1.00  0.00     0.029 A 
ATOM     64  C   UNL     1      -6.035  -1.007 -15.623  1.00  0.00     0.049 A 
ATOM     65  H   UNL     1      -6.880  -2.309 -14.196  1.00  0.00     0.167 HD
ATOM     66  C   UNL     1      -8.144  -1.772 -16.682  1.00  0.00     0.074 A 
ATOM     67  C   UNL     1      -9.117  -1.774 -17.756  1.00  0.00     0.031 C 
ATOM     68  C   UNL     1      -7.009  -1.033 -16.683  1.00  0.00     0.031 A 
BRANCH  55  69
ATOM     69  C   UNL     1      -3.595  -1.606 -11.568  1.00  0.00    -0.014 A 
ATOM     70  C   UNL     1      -2.520  -2.487 -11.373  1.00  0.00     0.009 A 
ATOM     71  C   UNL     1      -3.507  -0.302 -11.057  1.00  0.00     0.009 A 
ATOM     72  C   UNL     1      -1.395  -2.078 -10.654  1.00  0.00     0.001 A 
ATOM     73  C   UNL     1      -2.371   0.112 -10.360  1.00  0.00     0.001 A 
ATOM     74  C   UNL     1      -1.320  -0.779 -10.152  1.00  0.00     0.000 A 
ENDBRANCH  55  69
BRANCH  56  75
ATOM     75  C   UNL     1     -11.944  -4.507 -16.222  1.00  0.00    -0.014 A 
ATOM     76  C   UNL     1     -11.923  -5.329 -17.358  1.00  0.00     0.009 A 
ATOM     77  C   UNL     1     -13.181  -4.066 -15.725  1.00  0.00     0.009 A 
ATOM     78  C   UNL     1     -13.115  -5.690 -17.991  1.00  0.00     0.001 A 
ATOM     79  C   UNL     1     -14.372  -4.449 -16.345  1.00  0.00     0.001 A 
ATOM     80  C   UNL     1     -14.337  -5.255 -17.481  1.00  0.00     0.000 A 
ENDBRANCH  56  75
BRANCH  68  81
ATOM     81  C   UNL     1      -6.728  -0.202 -17.901  1.00  0.00    -0.014 A 
ATOM     82  C   UNL     1      -7.399   1.009 -18.126  1.00  0.00     0.009 A 
ATOM     83  C   UNL     1      -5.728  -0.609 -18.799  1.00  0.00     0.009 A 
ATOM     84  C   UNL     1      -7.083   1.790 -19.240  1.00  0.00     0.001 A 
ATOM     85  C   UNL     1      -5.400   0.185 -19.898  1.00  0.00     0.001 A 
ATOM     86  C   UNL     1      -6.080   1.381 -20.120  1.00  0.00     0.000 A 
ENDBRANCH  68  81
ENDBRANCH  42  43
ENDBRANCH  35  37
ENDBRANCH  34  35
ENDBRANCH  33  34
ENDBRANCH  32  33
ENDBRANCH  31  32
ENDBRANCH  29  31
ENDBRANCH  27  29
ENDBRANCH   4  27
TORSDOF 22
