REMARK SMILES O=C(OCCOC(=O)[C@@H]1Sc2c(sc(=O)n2Cc2ccccc2)[C@H]2c3ccccc3OC(=O)[C@@H]21)c1ccc(-c2c3nc(c(-c4ccccc4)c4ccc([nH]4)c(-c4ccccc4)c4nc(c(-c5ccccc5)c5ccc2[nH]5)C=C4)C=C3)cc1
REMARK SMILES IDX 4 1 3 2 2 3 1 4 35 5 36 6 82 7 37 8 81 9 38 10 39 11 40 12
REMARK SMILES IDX 75 13 41 14 80 15 74 16 76 17 42 18 79 19 73 20 72 21 43 23
REMARK SMILES IDX 65 24 50 25 64 26 51 27 54 28 63 29 77 30 52 31 53 32 62 34
REMARK SMILES IDX 78 35 55 36 44 37 45 38 49 39 46 40 48 41 47 42 66 43 67 44
REMARK SMILES IDX 71 45 68 46 70 47 69 48 56 49 57 50 61 51 58 52 60 53 59 54
REMARK SMILES IDX 5 55 6 56 7 57 8 58 9 59 10 60 34 61 11 62 24 63 32 64 12 65
REMARK SMILES IDX 16 66 25 67 31 68 33 69 13 70 14 71 26 72 30 73 15 74 27 75
REMARK SMILES IDX 29 76 28 77 17 78 18 79 19 80 23 81 20 82 22 83 21 84
REMARK H PARENT 76 22 54 33
REMARK Flexibility Score: inf
ROOT
ATOM      1  C   UNL     1       6.710   4.069  -2.307  1.00  0.00     0.275 C 
ENDROOT
BRANCH   1   2
ATOM      2  O   UNL     1       6.675   3.554  -0.960  1.00  0.00    -0.458 OA
BRANCH   2   3
ATOM      3  C   UNL     1       5.802   3.916   0.017  1.00  0.00     0.338 C 
ATOM      4  O   UNL     1       5.824   3.418   1.135  1.00  0.00    -0.246 OA
BRANCH   3   5
ATOM      5  C   UNL     1       4.701   4.829  -0.344  1.00  0.00     0.060 A 
ATOM      6  C   UNL     1       3.413   4.323  -0.254  1.00  0.00     0.016 A 
ATOM      7  C   UNL     1       4.906   6.109  -0.857  1.00  0.00     0.016 A 
ATOM      8  C   UNL     1       2.397   4.973  -0.940  1.00  0.00     0.010 A 
ATOM      9  C   UNL     1       3.879   6.730  -1.577  1.00  0.00     0.010 A 
ATOM     10  C   UNL     1       2.664   6.068  -1.765  1.00  0.00    -0.014 A 
BRANCH  10  11
ATOM     11  C   UNL     1       1.679   6.336  -2.866  1.00  0.00     0.031 A 
ATOM     12  C   UNL     1       0.056   6.116  -2.298  1.00  0.00     0.074 A 
ATOM     13  C   UNL     1       2.185   6.663  -4.157  1.00  0.00     0.049 A 
ATOM     14  N   UNL     1      -0.970   5.440  -2.787  1.00  0.00    -0.248 NA
ATOM     15  C   UNL     1      -0.386   6.753  -1.044  1.00  0.00     0.031 C 
ATOM     16  C   UNL     1       3.572   6.934  -4.630  1.00  0.00     0.029 A 
ATOM     17  N   UNL     1       1.559   6.908  -5.388  1.00  0.00    -0.354 N 
ATOM     18  C   UNL     1      -2.199   5.873  -2.275  1.00  0.00     0.074 A 
ATOM     19  C   UNL     1      -1.712   6.493  -1.030  1.00  0.00     0.031 C 
ATOM     20  C   UNL     1       3.574   7.478  -5.885  1.00  0.00     0.029 A 
ATOM     21  C   UNL     1       2.226   7.497  -6.423  1.00  0.00     0.049 A 
ATOM     22  H   UNL     1       0.617   6.649  -5.508  1.00  0.00     0.167 HD
ATOM     23  C   UNL     1      -3.476   5.954  -2.905  1.00  0.00     0.031 A 
ATOM     24  C   UNL     1       1.577   8.106  -7.470  1.00  0.00     0.031 A 
ATOM     25  C   UNL     1      -3.945   5.380  -4.311  1.00  0.00     0.049 A 
ATOM     26  C   UNL     1       0.142   7.567  -7.838  1.00  0.00     0.074 A 
ATOM     27  C   UNL     1      -5.100   4.972  -5.004  1.00  0.00     0.029 A 
ATOM     28  N   UNL     1      -3.075   5.051  -5.338  1.00  0.00    -0.354 N 
ATOM     29  N   UNL     1      -0.213   6.313  -8.031  1.00  0.00    -0.248 NA
ATOM     30  C   UNL     1      -1.016   8.469  -7.958  1.00  0.00     0.031 C 
ATOM     31  C   UNL     1      -4.793   4.725  -6.446  1.00  0.00     0.029 A 
ATOM     32  C   UNL     1      -3.467   5.060  -6.682  1.00  0.00     0.049 A 
ATOM     33  H   UNL     1      -2.149   4.802  -5.115  1.00  0.00     0.167 HD
ATOM     34  C   UNL     1      -1.633   6.233  -8.026  1.00  0.00     0.074 A 
ATOM     35  C   UNL     1      -2.049   7.618  -8.076  1.00  0.00     0.031 C 
ATOM     36  C   UNL     1      -2.356   5.082  -7.713  1.00  0.00     0.031 A 
BRANCH  23  37
ATOM     37  C   UNL     1      -4.428   7.037  -2.311  1.00  0.00    -0.014 A 
ATOM     38  C   UNL     1      -3.957   8.251  -1.756  1.00  0.00     0.009 A 
ATOM     39  C   UNL     1      -5.816   6.978  -2.500  1.00  0.00     0.009 A 
ATOM     40  C   UNL     1      -4.799   9.298  -1.357  1.00  0.00     0.001 A 
ATOM     41  C   UNL     1      -6.665   8.052  -2.175  1.00  0.00     0.001 A 
ATOM     42  C   UNL     1      -6.159   9.205  -1.588  1.00  0.00     0.000 A 
ENDBRANCH  23  37
BRANCH  24  43
ATOM     43  C   UNL     1       2.018   9.469  -7.950  1.00  0.00    -0.014 A 
ATOM     44  C   UNL     1       2.768  10.322  -7.109  1.00  0.00     0.009 A 
ATOM     45  C   UNL     1       1.530  10.040  -9.138  1.00  0.00     0.009 A 
ATOM     46  C   UNL     1       3.009  11.665  -7.421  1.00  0.00     0.001 A 
ATOM     47  C   UNL     1       1.740  11.399  -9.437  1.00  0.00     0.001 A 
ATOM     48  C   UNL     1       2.476  12.211  -8.578  1.00  0.00     0.000 A 
ENDBRANCH  24  43
BRANCH  36  49
ATOM     49  C   UNL     1      -1.778   3.815  -8.317  1.00  0.00    -0.014 A 
ATOM     50  C   UNL     1      -2.632   2.993  -9.066  1.00  0.00     0.009 A 
ATOM     51  C   UNL     1      -0.404   3.490  -8.336  1.00  0.00     0.009 A 
ATOM     52  C   UNL     1      -2.126   1.941  -9.844  1.00  0.00     0.001 A 
ATOM     53  C   UNL     1       0.106   2.454  -9.125  1.00  0.00     0.001 A 
ATOM     54  C   UNL     1      -0.757   1.685  -9.890  1.00  0.00     0.000 A 
ENDBRANCH  36  49
ENDBRANCH  10  11
ENDBRANCH   3   5
ENDBRANCH   2   3
ENDBRANCH   1   2
BRANCH   1  55
ATOM     55  C   UNL     1       5.730   3.439  -3.297  1.00  0.00     0.274 C 
BRANCH  55  56
ATOM     56  O   UNL     1       4.519   2.942  -2.718  1.00  0.00    -0.461 OA
BRANCH  56  57
ATOM     57  C   UNL     1       4.190   1.671  -3.088  1.00  0.00     0.320 C 
ATOM     58  O   UNL     1       5.002   0.816  -3.421  1.00  0.00    -0.251 OA
BRANCH  57  59
ATOM     59  C   UNL     1       2.675   1.473  -3.217  1.00  0.00     0.178 C 
ATOM     60  S   UNL     1       1.982   3.154  -4.071  1.00  0.00    -0.091 SA
ATOM     61  C   UNL     1       1.882   0.853  -2.011  1.00  0.00     0.137 C 
ATOM     62  C   UNL     1       0.302   3.029  -3.720  1.00  0.00     0.094 A 
ATOM     63  C   UNL     1       0.817   1.833  -1.609  1.00  0.00     0.082 C 
ATOM     64  C   UNL     1       2.661   0.432  -0.777  1.00  0.00     0.317 C 
ATOM     65  C   UNL     1      -0.039   2.134  -2.786  1.00  0.00     0.049 A 
ATOM     66  N   UNL     1      -0.803   3.660  -4.371  1.00  0.00    -0.289 N 
ATOM     67  C   UNL     1       0.100   1.629  -0.308  1.00  0.00     0.004 A 
ATOM     68  O   UNL     1       1.891   0.153   0.363  1.00  0.00    -0.426 OA
ATOM     69  O   UNL     1       3.865   0.216  -0.777  1.00  0.00    -0.251 OA
ATOM     70  S   UNL     1      -1.585   1.487  -3.034  1.00  0.00    -0.077 S 
ATOM     71  C   UNL     1      -1.926   2.799  -4.147  1.00  0.00     0.308 A 
ATOM     72  C   UNL     1      -1.015   2.405   0.070  1.00  0.00     0.008 A 
ATOM     73  C   UNL     1       0.649   0.768   0.622  1.00  0.00     0.134 A 
ATOM     74  O   UNL     1      -3.068   2.801  -4.588  1.00  0.00    -0.257 OA
ATOM     75  C   UNL     1      -1.610   2.249   1.319  1.00  0.00     0.001 A 
ATOM     76  C   UNL     1       0.064   0.598   1.879  1.00  0.00     0.047 A 
ATOM     77  C   UNL     1      -1.075   1.337   2.222  1.00  0.00     0.004 A 
BRANCH  66  78
ATOM     78  C   UNL     1      -0.570   5.269  -5.068  1.00  0.00     0.163 C 
BRANCH  78  79
ATOM     79  C   UNL     1      -1.246   6.990  -4.772  1.00  0.00    -0.028 A 
ATOM     80  C   UNL     1      -0.578   8.067  -4.087  1.00  0.00     0.005 A 
ATOM     81  C   UNL     1      -2.433   7.581  -5.273  1.00  0.00     0.005 A 
ATOM     82  C   UNL     1      -1.039   9.393  -3.837  1.00  0.00     0.000 A 
ATOM     83  C   UNL     1      -2.961   8.884  -5.022  1.00  0.00     0.000 A 
ATOM     84  C   UNL     1      -2.265   9.798  -4.283  1.00  0.00     0.000 A 
ENDBRANCH  78  79
ENDBRANCH  66  78
ENDBRANCH  57  59
ENDBRANCH  56  57
ENDBRANCH  55  56
ENDBRANCH   1  55
TORSDOF 13
