REMARK SMILES C[C@H](C(=O)OCCOC(=O)c1ccc(-c2c3nc(c(-c4ccccc4)c4ccc([nH]4)c(-c4ccccc4)c4nc(c(-c5ccccc5)c5ccc2[nH]5)C=C4)C=C3)cc1)c1ccc2c(c1)OCCO2
REMARK SMILES IDX 7 1 6 2 5 3 3 4 4 5 2 6 1 7 59 8 60 9 64 10 61 11 63 12
REMARK SMILES IDX 62 13 65 14 68 15 66 16 67 17 8 18 9 19 10 20 11 21 12 22
REMARK SMILES IDX 58 23 13 24 57 25 14 26 15 27 16 28 51 29 17 30 56 31 50 32
REMARK SMILES IDX 52 33 18 34 55 35 49 36 48 37 19 39 41 40 26 41 40 42 27 43
REMARK SMILES IDX 30 44 39 45 53 46 28 47 29 48 38 50 54 51 31 52 20 53 21 54
REMARK SMILES IDX 25 55 22 56 24 57 23 58 42 59 43 60 47 61 44 62 46 63 45 64
REMARK SMILES IDX 32 65 33 66 37 67 34 68 36 69 35 70
REMARK H PARENT 52 38 30 49
REMARK Flexibility Score: inf
ROOT
ATOM      1  C   UNL     1       2.830   1.993   1.369  1.00  0.00     0.275 C 
ENDROOT
BRANCH   1   2
ATOM      2  C   UNL     1       1.449   2.232   0.758  1.00  0.00     0.274 C 
BRANCH   2   3
ATOM      3  O   UNL     1       0.617   1.091   1.036  1.00  0.00    -0.462 OA
BRANCH   3   4
ATOM      4  C   UNL     1       0.523   0.192   0.021  1.00  0.00     0.313 C 
ATOM      5  O   UNL     1       0.844   0.412  -1.143  1.00  0.00    -0.252 OA
BRANCH   4   6
ATOM      6  C   UNL     1       0.019  -1.160   0.487  1.00  0.00     0.126 C 
ATOM      7  C   UNL     1       0.586  -1.558   1.855  1.00  0.00     0.025 C 
BRANCH   6   8
ATOM      8  C   UNL     1      -1.468  -1.413   0.315  1.00  0.00    -0.030 A 
ATOM      9  C   UNL     1      -2.279  -0.623  -0.521  1.00  0.00     0.009 A 
ATOM     10  C   UNL     1      -1.989  -2.621   0.808  1.00  0.00     0.055 A 
ATOM     11  C   UNL     1      -3.524  -1.088  -0.952  1.00  0.00     0.051 A 
ATOM     12  C   UNL     1      -3.179  -3.121   0.308  1.00  0.00     0.161 A 
ATOM     13  C   UNL     1      -3.922  -2.371  -0.600  1.00  0.00     0.161 A 
ATOM     14  O   UNL     1      -3.470  -4.414   0.642  1.00  0.00    -0.486 OA
ATOM     15  O   UNL     1      -4.968  -2.938  -1.284  1.00  0.00    -0.486 OA
ATOM     16  C   UNL     1      -4.325  -5.067  -0.305  1.00  0.00     0.271 C 
ATOM     17  C   UNL     1      -4.558  -4.279  -1.591  1.00  0.00     0.271 C 
ENDBRANCH   6   8
ENDBRANCH   4   6
ENDBRANCH   3   4
ENDBRANCH   2   3
ENDBRANCH   1   2
BRANCH   1  18
ATOM     18  O   UNL     1       3.377   0.769   0.836  1.00  0.00    -0.458 OA
BRANCH  18  19
ATOM     19  C   UNL     1       4.095   0.020   1.709  1.00  0.00     0.338 C 
ATOM     20  O   UNL     1       4.426   0.348   2.836  1.00  0.00    -0.246 OA
BRANCH  19  21
ATOM     21  C   UNL     1       4.393  -1.321   1.137  1.00  0.00     0.060 A 
ATOM     22  C   UNL     1       3.648  -1.871   0.087  1.00  0.00     0.016 A 
ATOM     23  C   UNL     1       5.394  -2.090   1.736  1.00  0.00     0.016 A 
ATOM     24  C   UNL     1       3.858  -3.195  -0.312  1.00  0.00     0.010 A 
ATOM     25  C   UNL     1       5.666  -3.381   1.270  1.00  0.00     0.010 A 
ATOM     26  C   UNL     1       4.891  -3.959   0.250  1.00  0.00    -0.014 A 
BRANCH  26  27
ATOM     27  C   UNL     1       5.203  -5.340  -0.225  1.00  0.00     0.031 A 
ATOM     28  C   UNL     1       5.248  -6.493   0.746  1.00  0.00     0.074 A 
ATOM     29  C   UNL     1       5.519  -5.563  -1.517  1.00  0.00     0.049 A 
ATOM     30  N   UNL     1       5.763  -7.688   0.590  1.00  0.00    -0.248 NA
ATOM     31  C   UNL     1       4.651  -6.266   2.071  1.00  0.00     0.031 C 
ATOM     32  C   UNL     1       5.486  -4.567  -2.590  1.00  0.00     0.029 A 
ATOM     33  N   UNL     1       5.949  -6.708  -2.144  1.00  0.00    -0.354 N 
ATOM     34  C   UNL     1       5.613  -8.330   1.814  1.00  0.00     0.074 A 
ATOM     35  C   UNL     1       4.948  -7.396   2.699  1.00  0.00     0.031 C 
ATOM     36  C   UNL     1       5.851  -5.148  -3.742  1.00  0.00     0.029 A 
ATOM     37  C   UNL     1       6.239  -6.527  -3.475  1.00  0.00     0.049 A 
ATOM     38  H   UNL     1       6.040  -7.574  -1.685  1.00  0.00     0.167 HD
ATOM     39  C   UNL     1       6.005  -9.577   2.172  1.00  0.00     0.031 A 
ATOM     40  C   UNL     1       6.809  -7.350  -4.376  1.00  0.00     0.031 A 
ATOM     41  C   UNL     1       6.627 -10.525   1.283  1.00  0.00     0.049 A 
ATOM     42  C   UNL     1       7.271  -8.711  -3.949  1.00  0.00     0.074 A 
ATOM     43  C   UNL     1       7.034 -11.821   1.551  1.00  0.00     0.029 A 
ATOM     44  N   UNL     1       6.918 -10.284  -0.050  1.00  0.00    -0.354 N 
ATOM     45  N   UNL     1       7.179  -9.282  -2.774  1.00  0.00    -0.248 NA
ATOM     46  C   UNL     1       7.938  -9.531  -4.971  1.00  0.00     0.031 C 
ATOM     47  C   UNL     1       7.606 -12.352   0.390  1.00  0.00     0.029 A 
ATOM     48  C   UNL     1       7.513 -11.401  -0.613  1.00  0.00     0.049 A 
ATOM     49  H   UNL     1       6.731  -9.443  -0.526  1.00  0.00     0.167 HD
ATOM     50  C   UNL     1       7.766 -10.532  -2.916  1.00  0.00     0.074 A 
ATOM     51  C   UNL     1       8.194 -10.643  -4.295  1.00  0.00     0.031 C 
ATOM     52  C   UNL     1       7.939 -11.499  -1.983  1.00  0.00     0.031 A 
BRANCH  39  53
ATOM     53  C   UNL     1       5.814  -9.985   3.607  1.00  0.00    -0.014 A 
ATOM     54  C   UNL     1       4.550 -10.310   4.119  1.00  0.00     0.009 A 
ATOM     55  C   UNL     1       6.937 -10.098   4.444  1.00  0.00     0.009 A 
ATOM     56  C   UNL     1       4.411 -10.713   5.450  1.00  0.00     0.001 A 
ATOM     57  C   UNL     1       6.798 -10.525   5.766  1.00  0.00     0.001 A 
ATOM     58  C   UNL     1       5.534 -10.825   6.270  1.00  0.00     0.000 A 
ENDBRANCH  39  53
BRANCH  40  59
ATOM     59  C   UNL     1       7.028  -6.877  -5.767  1.00  0.00    -0.014 A 
ATOM     60  C   UNL     1       6.259  -7.391  -6.821  1.00  0.00     0.009 A 
ATOM     61  C   UNL     1       7.995  -5.898  -6.044  1.00  0.00     0.009 A 
ATOM     62  C   UNL     1       6.460  -6.939  -8.127  1.00  0.00     0.001 A 
ATOM     63  C   UNL     1       8.173  -5.427  -7.346  1.00  0.00     0.001 A 
ATOM     64  C   UNL     1       7.410  -5.952  -8.387  1.00  0.00     0.000 A 
ENDBRANCH  40  59
BRANCH  52  65
ATOM     65  C   UNL     1       8.590 -12.772  -2.437  1.00  0.00    -0.014 A 
ATOM     66  C   UNL     1       9.973 -12.838  -2.669  1.00  0.00     0.009 A 
ATOM     67  C   UNL     1       7.811 -13.925  -2.618  1.00  0.00     0.009 A 
ATOM     68  C   UNL     1      10.557 -14.028  -3.106  1.00  0.00     0.001 A 
ATOM     69  C   UNL     1       8.402 -15.119  -3.033  1.00  0.00     0.001 A 
ATOM     70  C   UNL     1       9.773 -15.168  -3.285  1.00  0.00     0.000 A 
ENDBRANCH  52  65
ENDBRANCH  26  27
ENDBRANCH  19  21
ENDBRANCH  18  19
ENDBRANCH   1  18
TORSDOF 12
