REMARK SMILES Cc1ccn2c([C@H]3C[C@@H]3C(=O)OCCOC(=O)c3ccc(-c4c5nc(c(-c6ccccc6)c6ccc([nH]6)c(-c6ccccc6)c6nc(c(-c7ccccc7)c7ccc4[nH]7)C=C6)C=C5)cc3)nnc2c1
REMARK SMILES IDX 14 1 13 2 12 3 10 4 11 5 9 6 7 7 8 8 6 9 1 10 2 11 3 12
REMARK SMILES IDX 69 13 4 14 68 15 5 16 67 17 66 18 15 19 16 20 17 21 18 22
REMARK SMILES IDX 19 23 65 24 20 25 64 26 21 27 22 28 23 29 58 30 24 31 63 32
REMARK SMILES IDX 57 33 59 34 25 35 62 36 56 37 55 38 26 40 48 41 33 42 47 43
REMARK SMILES IDX 34 44 37 45 46 46 60 47 35 48 36 49 45 51 61 52 38 53 27 54
REMARK SMILES IDX 28 55 32 56 29 57 31 58 30 59 49 60 50 61 54 62 51 63 53 64
REMARK SMILES IDX 52 65 39 66 40 67 44 68 41 69 43 70 42 71
REMARK H PARENT 59 39 37 50
REMARK Flexibility Score: inf
ROOT
ATOM      1  C   UNL     1       3.662  -5.819  -1.995  1.00  0.00     0.275 C 
ENDROOT
BRANCH   1   2
ATOM      2  C   UNL     1       3.045  -4.758  -1.079  1.00  0.00     0.274 C 
BRANCH   2   3
ATOM      3  O   UNL     1       2.282  -5.413  -0.047  1.00  0.00    -0.462 OA
BRANCH   3   4
ATOM      4  C   UNL     1       0.946  -5.202  -0.051  1.00  0.00     0.309 C 
ATOM      5  O   UNL     1       0.339  -4.405  -0.764  1.00  0.00    -0.252 OA
BRANCH   4   6
ATOM      6  C   UNL     1       0.221  -6.086   0.879  1.00  0.00     0.110 C 
ATOM      7  C   UNL     1       0.328  -5.920   2.366  1.00  0.00     0.073 C 
ATOM      8  C   UNL     1       0.880  -7.155   1.698  1.00  0.00     0.028 C 
BRANCH   7   9
ATOM      9  C   UNL     1      -0.922  -6.088   3.211  1.00  0.00     0.141 A 
ATOM     10  C   UNL     1      -1.984  -5.107   8.579  1.00  0.00     0.044 C 
ATOM     11  C   UNL     1      -1.712  -5.394   7.137  1.00  0.00    -0.046 A 
ATOM     12  C   UNL     1      -0.306  -5.321   6.737  1.00  0.00     0.022 A 
ATOM     13  C   UNL     1      -2.678  -5.705   6.241  1.00  0.00     0.053 A 
ATOM     14  C   UNL     1       0.015  -5.501   5.449  1.00  0.00     0.095 A 
ATOM     15  C   UNL     1      -2.320  -5.981   4.892  1.00  0.00     0.161 A 
ATOM     16  N   UNL     1      -0.993  -5.805   4.546  1.00  0.00    -0.286 N 
ATOM     17  N   UNL     1      -2.980  -6.445   3.851  1.00  0.00    -0.130 NA
ATOM     18  N   UNL     1      -2.081  -6.565   2.805  1.00  0.00    -0.134 NA
ENDBRANCH   7   9
ENDBRANCH   4   6
ENDBRANCH   3   4
ENDBRANCH   2   3
ENDBRANCH   1   2
BRANCH   1  19
ATOM     19  O   UNL     1       2.609  -6.450  -2.740  1.00  0.00    -0.458 OA
BRANCH  19  20
ATOM     20  C   UNL     1       2.223  -7.679  -2.312  1.00  0.00     0.338 C 
ATOM     21  O   UNL     1       2.897  -8.486  -1.697  1.00  0.00    -0.246 OA
BRANCH  20  22
ATOM     22  C   UNL     1       0.744  -7.722  -2.403  1.00  0.00     0.060 A 
ATOM     23  C   UNL     1       0.050  -6.883  -3.282  1.00  0.00     0.016 A 
ATOM     24  C   UNL     1       0.063  -8.410  -1.392  1.00  0.00     0.016 A 
ATOM     25  C   UNL     1      -1.286  -6.592  -3.033  1.00  0.00     0.010 A 
ATOM     26  C   UNL     1      -1.274  -8.112  -1.145  1.00  0.00     0.010 A 
ATOM     27  C   UNL     1      -1.923  -7.141  -1.914  1.00  0.00    -0.014 A 
BRANCH  27  28
ATOM     28  C   UNL     1      -3.337  -6.834  -1.706  1.00  0.00     0.031 A 
ATOM     29  C   UNL     1      -4.218  -7.681  -2.541  1.00  0.00     0.074 A 
ATOM     30  C   UNL     1      -3.886  -5.958  -0.837  1.00  0.00     0.049 A 
ATOM     31  N   UNL     1      -4.938  -7.295  -3.541  1.00  0.00    -0.248 NA
ATOM     32  C   UNL     1      -4.178  -9.135  -2.339  1.00  0.00     0.031 C 
ATOM     33  C   UNL     1      -3.254  -5.188   0.227  1.00  0.00     0.029 A 
ATOM     34  N   UNL     1      -5.209  -5.649  -0.673  1.00  0.00    -0.354 N 
ATOM     35  C   UNL     1      -5.563  -8.439  -4.015  1.00  0.00     0.074 A 
ATOM     36  C   UNL     1      -4.938  -9.553  -3.350  1.00  0.00     0.031 C 
ATOM     37  C   UNL     1      -4.195  -4.735   1.089  1.00  0.00     0.029 A 
ATOM     38  C   UNL     1      -5.500  -5.002   0.522  1.00  0.00     0.049 A 
ATOM     39  H   UNL     1      -5.896  -5.866  -1.345  1.00  0.00     0.167 HD
ATOM     40  C   UNL     1      -6.691  -8.378  -4.769  1.00  0.00     0.031 A 
ATOM     41  C   UNL     1      -6.727  -4.705   1.016  1.00  0.00     0.031 A 
ATOM     42  C   UNL     1      -6.916  -7.059  -5.299  1.00  0.00     0.049 A 
ATOM     43  C   UNL     1      -7.665  -4.679  -0.123  1.00  0.00     0.074 A 
ATOM     44  C   UNL     1      -6.239  -6.232  -6.171  1.00  0.00     0.029 A 
ATOM     45  N   UNL     1      -7.806  -6.260  -4.625  1.00  0.00    -0.354 N 
ATOM     46  N   UNL     1      -7.637  -3.780  -1.063  1.00  0.00    -0.248 NA
ATOM     47  C   UNL     1      -8.416  -5.884  -0.430  1.00  0.00     0.031 C 
ATOM     48  C   UNL     1      -6.447  -4.913  -5.674  1.00  0.00     0.029 A 
ATOM     49  C   UNL     1      -7.275  -4.998  -4.553  1.00  0.00     0.049 A 
ATOM     50  H   UNL     1      -8.674  -6.543  -4.258  1.00  0.00     0.167 HD
ATOM     51  C   UNL     1      -7.961  -4.475  -2.216  1.00  0.00     0.074 A 
ATOM     52  C   UNL     1      -8.563  -5.720  -1.747  1.00  0.00     0.031 C 
ATOM     53  C   UNL     1      -7.453  -4.101  -3.427  1.00  0.00     0.031 A 
BRANCH  40  54
ATOM     54  C   UNL     1      -7.765  -9.430  -4.723  1.00  0.00    -0.014 A 
ATOM     55  C   UNL     1      -7.863 -10.393  -3.700  1.00  0.00     0.009 A 
ATOM     56  C   UNL     1      -8.864  -9.318  -5.590  1.00  0.00     0.009 A 
ATOM     57  C   UNL     1      -8.983 -11.212  -3.551  1.00  0.00     0.001 A 
ATOM     58  C   UNL     1     -10.010 -10.104  -5.416  1.00  0.00     0.001 A 
ATOM     59  C   UNL     1     -10.068 -11.051  -4.398  1.00  0.00     0.000 A 
ENDBRANCH  40  54
BRANCH  41  60
ATOM     60  C   UNL     1      -7.208  -4.755   2.414  1.00  0.00    -0.014 A 
ATOM     61  C   UNL     1      -6.657  -5.690   3.308  1.00  0.00     0.009 A 
ATOM     62  C   UNL     1      -8.410  -4.125   2.781  1.00  0.00     0.009 A 
ATOM     63  C   UNL     1      -7.316  -6.031   4.495  1.00  0.00     0.001 A 
ATOM     64  C   UNL     1      -9.067  -4.465   3.972  1.00  0.00     0.001 A 
ATOM     65  C   UNL     1      -8.530  -5.432   4.818  1.00  0.00     0.000 A 
ENDBRANCH  41  60
BRANCH  53  66
ATOM     66  C   UNL     1      -6.766  -2.756  -3.531  1.00  0.00    -0.014 A 
ATOM     67  C   UNL     1      -7.174  -1.880  -4.549  1.00  0.00     0.009 A 
ATOM     68  C   UNL     1      -5.624  -2.416  -2.784  1.00  0.00     0.009 A 
ATOM     69  C   UNL     1      -6.456  -0.714  -4.828  1.00  0.00     0.001 A 
ATOM     70  C   UNL     1      -4.920  -1.234  -3.045  1.00  0.00     0.001 A 
ATOM     71  C   UNL     1      -5.330  -0.391  -4.075  1.00  0.00     0.000 A 
ENDBRANCH  53  66
ENDBRANCH  27  28
ENDBRANCH  20  22
ENDBRANCH  19  20
ENDBRANCH   1  19
TORSDOF 12
