REMARK SMILES Cc1cc(S(=O)(=O)N[C@@H](CO)C(=O)OCCOC(=O)c2ccc(-c3c4nc(c(-c5ccccc5)c5ccc([nH]5)c(-c5ccccc5)c5nc(c(-c6ccccc6)c6ccc3[nH]6)C=C5)C=C4)cc2)ccc1OC(C)C
REMARK SMILES IDX 14 1 12 2 13 3 9 4 8 5 5 7 6 8 7 9 4 10 1 11 2 12 3 13 70 14
REMARK SMILES IDX 69 15 68 16 71 17 72 18 73 19 74 20 10 21 11 22 15 24 16 25
REMARK SMILES IDX 17 26 18 27 19 28 20 29 21 30 67 31 22 32 66 33 23 34 24 35
REMARK SMILES IDX 25 36 60 37 26 38 65 39 59 40 61 41 27 42 64 43 58 44 57 45
REMARK SMILES IDX 28 47 50 48 35 49 49 50 36 51 39 52 48 53 62 54 37 55 38 56
REMARK SMILES IDX 47 58 63 59 40 60 29 61 30 62 34 63 31 64 33 65 32 66 51 67
REMARK SMILES IDX 52 68 56 69 53 70 55 71 54 72 41 73 42 74 46 75 43 76 45 77
REMARK SMILES IDX 44 78
REMARK H PARENT 8 6 11 23 61 46 39 57
REMARK Flexibility Score: inf
ROOT
ATOM      1  O   UNL     1      -5.720  -2.992   0.657  1.00  0.00    -0.461 OA
ENDROOT
BRANCH   1   2
ATOM      2  C   UNL     1      -5.201  -3.599  -0.462  1.00  0.00     0.326 C 
ATOM      3  O   UNL     1      -5.842  -4.351  -1.178  1.00  0.00    -0.250 OA
BRANCH   2   4
ATOM      4  C   UNL     1      -3.756  -3.126  -0.669  1.00  0.00     0.205 C 
BRANCH   4   5
ATOM      5  N   UNL     1      -3.085  -3.319   0.627  1.00  0.00    -0.194 NA
ATOM      6  H   UNL     1      -3.402  -2.543   1.208  1.00  0.00     0.142 HD
BRANCH   5   7
ATOM      7  S   UNL     1      -1.463  -3.412   0.888  1.00  0.00     0.241 S 
ATOM      8  O   UNL     1      -0.939  -4.371  -0.050  1.00  0.00    -0.207 OA
ATOM      9  O   UNL     1      -1.315  -3.589   2.321  1.00  0.00    -0.207 OA
BRANCH   7  10
ATOM     10  C   UNL     1      -0.786  -1.822   0.505  1.00  0.00     0.083 A 
ATOM     11  C   UNL     1       2.744  -0.723  -0.175  1.00  0.00     0.048 C 
ATOM     12  C   UNL     1       1.271  -0.539   0.054  1.00  0.00    -0.008 A 
ATOM     13  C   UNL     1       0.587  -1.763   0.257  1.00  0.00     0.029 A 
ATOM     14  C   UNL     1       0.521   0.646   0.055  1.00  0.00     0.122 A 
ATOM     15  C   UNL     1      -0.876   0.558   0.270  1.00  0.00     0.048 A 
ATOM     16  C   UNL     1      -1.532  -0.655   0.512  1.00  0.00     0.025 A 
BRANCH  14  17
ATOM     17  O   UNL     1       0.879   1.947  -0.135  1.00  0.00    -0.491 OA
BRANCH  17  18
ATOM     18  C   UNL     1       2.186   2.506  -0.060  1.00  0.00     0.167 C 
ATOM     19  C   UNL     1       2.911   2.262   1.265  1.00  0.00     0.052 C 
ATOM     20  C   UNL     1       2.978   2.292  -1.349  1.00  0.00     0.052 C 
ENDBRANCH  17  18
ENDBRANCH  14  17
ENDBRANCH   7  10
ENDBRANCH   5   7
ENDBRANCH   4   5
BRANCH   4  21
ATOM     21  C   UNL     1      -3.114  -3.775  -1.896  1.00  0.00     0.188 C 
BRANCH  21  22
ATOM     22  O   UNL     1      -2.975  -5.184  -1.775  1.00  0.00    -0.394 OA
ATOM     23  H   UNL     1      -2.393  -5.388  -1.026  1.00  0.00     0.210 HD
ENDBRANCH  21  22
ENDBRANCH   4  21
ENDBRANCH   2   4
ENDBRANCH   1   2
BRANCH   1  24
ATOM     24  C   UNL     1      -7.124  -3.196   0.830  1.00  0.00     0.274 C 
BRANCH  24  25
ATOM     25  C   UNL     1      -7.737  -2.112   1.725  1.00  0.00     0.275 C 
BRANCH  25  26
ATOM     26  O   UNL     1      -7.014  -0.851   1.868  1.00  0.00    -0.458 OA
BRANCH  26  27
ATOM     27  C   UNL     1      -6.460  -0.041   0.932  1.00  0.00     0.338 C 
ATOM     28  O   UNL     1      -5.679   0.855   1.231  1.00  0.00    -0.246 OA
BRANCH  27  29
ATOM     29  C   UNL     1      -6.729  -0.329  -0.485  1.00  0.00     0.060 A 
ATOM     30  C   UNL     1      -5.667  -0.306  -1.403  1.00  0.00     0.016 A 
ATOM     31  C   UNL     1      -8.001  -0.711  -0.887  1.00  0.00     0.016 A 
ATOM     32  C   UNL     1      -5.841  -0.829  -2.686  1.00  0.00     0.010 A 
ATOM     33  C   UNL     1      -8.152  -1.313  -2.118  1.00  0.00     0.010 A 
ATOM     34  C   UNL     1      -7.080  -1.377  -3.026  1.00  0.00    -0.014 A 
BRANCH  34  35
ATOM     35  C   UNL     1      -7.437  -1.798  -4.381  1.00  0.00     0.031 A 
ATOM     36  C   UNL     1      -6.876  -2.969  -5.085  1.00  0.00     0.074 A 
ATOM     37  C   UNL     1      -8.324  -0.984  -4.990  1.00  0.00     0.049 A 
ATOM     38  N   UNL     1      -6.792  -3.059  -6.371  1.00  0.00    -0.248 NA
ATOM     39  C   UNL     1      -6.339  -4.141  -4.406  1.00  0.00     0.031 C 
ATOM     40  C   UNL     1      -9.014  -1.125  -6.260  1.00  0.00     0.029 A 
ATOM     41  N   UNL     1      -8.582   0.332  -4.598  1.00  0.00    -0.354 N 
ATOM     42  C   UNL     1      -6.448  -4.358  -6.682  1.00  0.00     0.074 A 
ATOM     43  C   UNL     1      -6.090  -4.970  -5.427  1.00  0.00     0.031 C 
ATOM     44  C   UNL     1      -9.371   0.106  -6.677  1.00  0.00     0.029 A 
ATOM     45  C   UNL     1      -8.766   1.073  -5.764  1.00  0.00     0.049 A 
ATOM     46  H   UNL     1      -8.626   0.671  -3.674  1.00  0.00     0.167 HD
ATOM     47  C   UNL     1      -6.630  -4.824  -7.949  1.00  0.00     0.031 A 
ATOM     48  C   UNL     1      -7.818   2.003  -6.088  1.00  0.00     0.031 A 
ATOM     49  C   UNL     1      -7.130  -3.782  -8.834  1.00  0.00     0.049 A 
ATOM     50  C   UNL     1      -7.101   1.691  -7.382  1.00  0.00     0.074 A 
ATOM     51  C   UNL     1      -8.395  -3.428  -9.272  1.00  0.00     0.029 A 
ATOM     52  N   UNL     1      -6.301  -2.715  -9.125  1.00  0.00    -0.354 N 
ATOM     53  N   UNL     1      -7.136   0.532  -7.978  1.00  0.00    -0.248 NA
ATOM     54  C   UNL     1      -6.226   2.644  -8.065  1.00  0.00     0.031 C 
ATOM     55  C   UNL     1      -8.323  -2.101  -9.784  1.00  0.00     0.029 A 
ATOM     56  C   UNL     1      -7.013  -1.672  -9.681  1.00  0.00     0.049 A 
ATOM     57  H   UNL     1      -5.331  -2.701  -8.958  1.00  0.00     0.167 HD
ATOM     58  C   UNL     1      -6.391   0.588  -9.118  1.00  0.00     0.074 A 
ATOM     59  C   UNL     1      -5.800   1.913  -9.109  1.00  0.00     0.031 C 
ATOM     60  C   UNL     1      -6.312  -0.445 -10.000  1.00  0.00     0.031 A 
BRANCH  47  61
ATOM     61  C   UNL     1      -6.581  -6.279  -8.334  1.00  0.00    -0.014 A 
ATOM     62  C   UNL     1      -7.430  -6.750  -9.355  1.00  0.00     0.009 A 
ATOM     63  C   UNL     1      -5.746  -7.233  -7.729  1.00  0.00     0.009 A 
ATOM     64  C   UNL     1      -7.502  -8.106  -9.699  1.00  0.00     0.001 A 
ATOM     65  C   UNL     1      -5.833  -8.598  -8.051  1.00  0.00     0.001 A 
ATOM     66  C   UNL     1      -6.718  -9.036  -9.029  1.00  0.00     0.000 A 
ENDBRANCH  47  61
BRANCH  48  67
ATOM     67  C   UNL     1      -7.174   2.678  -4.912  1.00  0.00    -0.014 A 
ATOM     68  C   UNL     1      -7.996   3.303  -3.947  1.00  0.00     0.009 A 
ATOM     69  C   UNL     1      -5.823   2.485  -4.593  1.00  0.00     0.009 A 
ATOM     70  C   UNL     1      -7.508   3.628  -2.676  1.00  0.00     0.001 A 
ATOM     71  C   UNL     1      -5.329   2.839  -3.328  1.00  0.00     0.001 A 
ATOM     72  C   UNL     1      -6.177   3.380  -2.362  1.00  0.00     0.000 A 
ENDBRANCH  48  67
BRANCH  60  73
ATOM     73  C   UNL     1      -5.553  -0.354 -11.280  1.00  0.00    -0.014 A 
ATOM     74  C   UNL     1      -5.675   0.751 -12.132  1.00  0.00     0.009 A 
ATOM     75  C   UNL     1      -4.786  -1.447 -11.724  1.00  0.00     0.009 A 
ATOM     76  C   UNL     1      -5.002   0.788 -13.356  1.00  0.00     0.001 A 
ATOM     77  C   UNL     1      -4.134  -1.422 -12.956  1.00  0.00     0.001 A 
ATOM     78  C   UNL     1      -4.232  -0.297 -13.766  1.00  0.00     0.000 A 
ENDBRANCH  60  73
ENDBRANCH  34  35
ENDBRANCH  27  29
ENDBRANCH  26  27
ENDBRANCH  25  26
ENDBRANCH  24  25
ENDBRANCH   1  24
TORSDOF 18
