REMARK SMILES O=C(OCCOC(=O)c1ccc(N2CNC(c3ccccc3)=[NH+]C2=S)cc1)c1ccc(-c2c3nc(c(-c4ccccc4)c4ccc([nH]4)c(-c4ccccc4)c4nc(c(-c5ccccc5)c5ccc2[nH]5)C=C4)C=C3)cc1
REMARK SMILES IDX 4 1 3 2 2 3 1 4 28 5 29 6 75 7 30 8 74 9 31 10 32 11 33 12
REMARK SMILES IDX 68 13 34 14 73 15 67 16 69 17 35 18 72 19 66 20 65 21 36 23
REMARK SMILES IDX 58 24 43 25 57 26 44 27 47 28 56 29 70 30 45 31 46 32 55 34
REMARK SMILES IDX 71 35 48 36 37 37 38 38 42 39 39 40 41 41 40 42 59 43 60 44
REMARK SMILES IDX 64 45 61 46 63 47 62 48 49 49 50 50 54 51 51 52 53 53 52 54
REMARK SMILES IDX 5 55 6 56 7 57 8 58 9 59 10 60 27 61 11 62 26 63 12 64 13 65
REMARK SMILES IDX 14 66 24 67 15 68 23 69 25 70 16 71 17 74 18 75 22 76 19 77
REMARK SMILES IDX 21 78 20 79
REMARK H PARENT 69 22 47 33 15 72 23 73
REMARK Flexibility Score: inf
ROOT
ATOM      1  C   UNL     1       4.110   1.086  -1.282  1.00  0.00     0.275 C 
ENDROOT
BRANCH   1   2
ATOM      2  O   UNL     1       3.026   0.144  -1.244  1.00  0.00    -0.458 OA
BRANCH   2   3
ATOM      3  C   UNL     1       2.825  -0.928  -0.444  1.00  0.00     0.338 C 
ATOM      4  O   UNL     1       1.867  -1.663  -0.682  1.00  0.00    -0.246 OA
BRANCH   3   5
ATOM      5  C   UNL     1       3.629  -1.219   0.787  1.00  0.00     0.060 A 
ATOM      6  C   UNL     1       4.922  -0.768   1.062  1.00  0.00     0.016 A 
ATOM      7  C   UNL     1       3.001  -2.016   1.760  1.00  0.00     0.016 A 
ATOM      8  C   UNL     1       5.535  -1.016   2.292  1.00  0.00     0.010 A 
ATOM      9  C   UNL     1       3.615  -2.274   2.987  1.00  0.00     0.010 A 
ATOM     10  C   UNL     1       4.881  -1.760   3.269  1.00  0.00    -0.014 A 
BRANCH  10  11
ATOM     11  C   UNL     1       5.597  -2.105   4.514  1.00  0.00     0.031 A 
ATOM     12  C   UNL     1       6.155  -3.488   4.653  1.00  0.00     0.074 A 
ATOM     13  C   UNL     1       5.831  -1.168   5.452  1.00  0.00     0.049 A 
ATOM     14  N   UNL     1       6.938  -3.967   5.582  1.00  0.00    -0.248 NA
ATOM     15  C   UNL     1       5.831  -4.443   3.579  1.00  0.00     0.031 C 
ATOM     16  C   UNL     1       5.407   0.229   5.370  1.00  0.00     0.029 A 
ATOM     17  N   UNL     1       6.494  -1.238   6.649  1.00  0.00    -0.354 N 
ATOM     18  C   UNL     1       7.236  -5.261   5.180  1.00  0.00     0.074 A 
ATOM     19  C   UNL     1       6.497  -5.518   3.965  1.00  0.00     0.031 C 
ATOM     20  C   UNL     1       5.784   0.877   6.484  1.00  0.00     0.029 A 
ATOM     21  C   UNL     1       6.487  -0.058   7.355  1.00  0.00     0.049 A 
ATOM     22  H   UNL     1       6.934  -2.056   6.974  1.00  0.00     0.167 HD
ATOM     23  C   UNL     1       8.083  -6.143   5.754  1.00  0.00     0.031 A 
ATOM     24  C   UNL     1       6.999   0.233   8.565  1.00  0.00     0.031 A 
ATOM     25  C   UNL     1       8.761  -5.901   6.995  1.00  0.00     0.049 A 
ATOM     26  C   UNL     1       7.807  -0.825   9.265  1.00  0.00     0.074 A 
ATOM     27  C   UNL     1       9.600  -6.742   7.702  1.00  0.00     0.029 A 
ATOM     28  N   UNL     1       8.656  -4.725   7.726  1.00  0.00    -0.354 N 
ATOM     29  N   UNL     1       8.114  -2.032   8.854  1.00  0.00    -0.248 NA
ATOM     30  C   UNL     1       8.374  -0.469  10.572  1.00  0.00     0.031 C 
ATOM     31  C   UNL     1       9.959  -6.093   8.888  1.00  0.00     0.029 A 
ATOM     32  C   UNL     1       9.397  -4.825   8.889  1.00  0.00     0.049 A 
ATOM     33  H   UNL     1       8.131  -3.937   7.456  1.00  0.00     0.167 HD
ATOM     34  C   UNL     1       8.943  -2.567   9.829  1.00  0.00     0.074 A 
ATOM     35  C   UNL     1       9.101  -1.543  10.845  1.00  0.00     0.031 C 
ATOM     36  C   UNL     1       9.529  -3.788   9.881  1.00  0.00     0.031 A 
BRANCH  23  37
ATOM     37  C   UNL     1       8.280  -7.448   5.038  1.00  0.00    -0.014 A 
ATOM     38  C   UNL     1       8.987  -7.504   3.824  1.00  0.00     0.009 A 
ATOM     39  C   UNL     1       7.728  -8.626   5.559  1.00  0.00     0.009 A 
ATOM     40  C   UNL     1       9.102  -8.708   3.127  1.00  0.00     0.001 A 
ATOM     41  C   UNL     1       7.868  -9.834   4.873  1.00  0.00     0.001 A 
ATOM     42  C   UNL     1       8.545  -9.872   3.654  1.00  0.00     0.000 A 
ENDBRANCH  23  37
BRANCH  24  43
ATOM     43  C   UNL     1       6.768   1.565   9.189  1.00  0.00    -0.014 A 
ATOM     44  C   UNL     1       7.824   2.463   9.409  1.00  0.00     0.009 A 
ATOM     45  C   UNL     1       5.478   1.927   9.613  1.00  0.00     0.009 A 
ATOM     46  C   UNL     1       7.601   3.672  10.075  1.00  0.00     0.001 A 
ATOM     47  C   UNL     1       5.253   3.148  10.252  1.00  0.00     0.001 A 
ATOM     48  C   UNL     1       6.317   4.014  10.495  1.00  0.00     0.000 A 
ENDBRANCH  24  43
BRANCH  36  49
ATOM     49  C   UNL     1      10.422  -4.061  11.057  1.00  0.00    -0.014 A 
ATOM     50  C   UNL     1       9.899  -4.237  12.347  1.00  0.00     0.009 A 
ATOM     51  C   UNL     1      11.807  -4.177  10.859  1.00  0.00     0.009 A 
ATOM     52  C   UNL     1      10.752  -4.482  13.424  1.00  0.00     0.001 A 
ATOM     53  C   UNL     1      12.653  -4.459  11.931  1.00  0.00     0.001 A 
ATOM     54  C   UNL     1      12.126  -4.598  13.214  1.00  0.00     0.000 A 
ENDBRANCH  36  49
ENDBRANCH  10  11
ENDBRANCH   3   5
ENDBRANCH   2   3
ENDBRANCH   1   2
BRANCH   1  55
ATOM     55  C   UNL     1       3.995   2.246  -0.285  1.00  0.00     0.275 C 
BRANCH  55  56
ATOM     56  O   UNL     1       3.558   1.862   1.031  1.00  0.00    -0.458 OA
BRANCH  56  57
ATOM     57  C   UNL     1       2.215   1.928   1.236  1.00  0.00     0.338 C 
ATOM     58  O   UNL     1       1.376   2.306   0.435  1.00  0.00    -0.246 OA
BRANCH  57  59
ATOM     59  C   UNL     1       1.871   1.375   2.565  1.00  0.00     0.060 A 
ATOM     60  C   UNL     1       0.869   0.405   2.655  1.00  0.00     0.019 A 
ATOM     61  C   UNL     1       2.499   1.821   3.726  1.00  0.00     0.019 A 
ATOM     62  C   UNL     1       0.534  -0.159   3.896  1.00  0.00     0.044 A 
ATOM     63  C   UNL     1       2.130   1.283   4.970  1.00  0.00     0.044 A 
ATOM     64  C   UNL     1       1.166   0.263   5.072  1.00  0.00     0.103 A 
BRANCH  64  65
ATOM     65  N   UNL     1       0.790  -0.257   6.359  1.00  0.00    -0.219 N 
ATOM     66  C   UNL     1       0.678   0.710   7.428  1.00  0.00     0.405 C 
ATOM     67  C   UNL     1       0.675  -1.622   6.692  1.00  0.00     0.297 C 
ATOM     68  N   UNL     1      -0.252   0.252   8.412  1.00  0.00    -0.274 N 
ATOM     69  N   UNL     1       0.240  -1.966   7.952  1.00  0.00    -0.236 N 
ATOM     70  S   UNL     1       1.069  -2.915   5.673  1.00  0.00    -0.005 S 
ATOM     71  C   UNL     1      -0.265  -1.070   8.727  1.00  0.00     0.229 C 
ATOM     72  H   UNL     1      -0.870   0.880   8.851  1.00  0.00     0.260 HD
ATOM     73  H   UNL     1       0.314  -2.898   8.260  1.00  0.00     0.268 HD
BRANCH  71  74
ATOM     74  C   UNL     1      -0.871  -1.518  10.008  1.00  0.00     0.047 A 
ATOM     75  C   UNL     1      -0.212  -2.461  10.803  1.00  0.00     0.015 A 
ATOM     76  C   UNL     1      -2.125  -1.028  10.386  1.00  0.00     0.015 A 
ATOM     77  C   UNL     1      -0.804  -2.902  11.988  1.00  0.00     0.001 A 
ATOM     78  C   UNL     1      -2.719  -1.484  11.564  1.00  0.00     0.001 A 
ATOM     79  C   UNL     1      -2.057  -2.416  12.365  1.00  0.00     0.000 A 
ENDBRANCH  71  74
ENDBRANCH  64  65
ENDBRANCH  57  59
ENDBRANCH  56  57
ENDBRANCH  55  56
ENDBRANCH   1  55
TORSDOF 13
