REMARK SMILES COC(=O)C1=C(C)N(c2ccc(Br)cc2)C(=O)/C1=C\c1ccc(C(=O)OCCOC(=O)c2ccc(-c3c4nc(c(-c5ccccc5)c5ccc([nH]5)c(-c5ccccc5)c5nc(c(-c6ccccc6)c6ccc3[nH]6)C=C5)C=C4)cc2)cc1
REMARK SMILES IDX 27 1 26 2 24 3 25 4 23 5 20 6 21 7 81 8 22 9 80 10 19 11
REMARK SMILES IDX 5 12 6 13 18 14 7 15 8 16 16 17 17 18 3 19 4 20 2 21 1 22
REMARK SMILES IDX 9 23 10 24 15 25 11 26 14 27 12 28 13 29 28 30 29 31 30 32
REMARK SMILES IDX 31 33 32 34 33 35 79 36 34 37 78 38 35 39 36 40 37 41 72 42
REMARK SMILES IDX 38 43 77 44 71 45 73 46 39 47 76 48 70 49 69 50 40 52 62 53
REMARK SMILES IDX 47 54 61 55 48 56 51 57 60 58 74 59 49 60 50 61 59 63 75 64
REMARK SMILES IDX 52 65 41 66 42 67 46 68 43 69 45 70 44 71 63 72 64 73 68 74
REMARK SMILES IDX 65 75 67 76 66 77 53 78 54 79 58 80 55 81 57 82 56 83
REMARK H PARENT 73 51 51 62
REMARK Flexibility Score: inf
ROOT
ATOM      1  C   UNL     1       5.308  12.098   2.550  1.00  0.00     0.275 C 
ENDROOT
BRANCH   1   2
ATOM      2  O   UNL     1       4.766  10.760   2.550  1.00  0.00    -0.458 OA
BRANCH   2   3
ATOM      3  C   UNL     1       4.369  10.291   1.342  1.00  0.00     0.338 C 
ATOM      4  O   UNL     1       4.436  10.890   0.279  1.00  0.00    -0.246 OA
BRANCH   3   5
ATOM      5  C   UNL     1       3.895   8.890   1.437  1.00  0.00     0.060 A 
ATOM      6  C   UNL     1       2.836   6.299   1.399  1.00  0.00    -0.025 A 
ATOM      7  C   UNL     1       3.679   6.713   0.372  1.00  0.00     0.009 A 
ATOM      8  C   UNL     1       2.561   7.163   2.469  1.00  0.00     0.009 A 
ATOM      9  C   UNL     1       4.174   8.012   0.380  1.00  0.00     0.016 A 
ATOM     10  C   UNL     1       3.098   8.455   2.497  1.00  0.00     0.016 A 
BRANCH   6  11
ATOM     11  C   UNL     1       2.158   5.012   1.274  1.00  0.00     0.023 C 
ATOM     12  C   UNL     1       0.148   3.651   0.635  1.00  0.00     0.092 C 
ATOM     13  C   UNL     1      -1.079   3.966   0.164  1.00  0.00     0.039 C 
ATOM     14  C   UNL     1       0.909   4.877   0.797  1.00  0.00     0.057 C 
ATOM     15  C   UNL     1      -2.152   2.986  -0.186  1.00  0.00     0.066 C 
ATOM     16  N   UNL     1      -1.178   5.343  -0.052  1.00  0.00    -0.280 N 
ATOM     17  C   UNL     1       0.027   5.992   0.303  1.00  0.00     0.263 C 
ATOM     18  O   UNL     1       0.302   7.175   0.257  1.00  0.00    -0.268 OA
BRANCH  12  19
ATOM     19  C   UNL     1       0.687   2.306   0.909  1.00  0.00     0.340 C 
ATOM     20  O   UNL     1       1.420   2.044   1.850  1.00  0.00    -0.246 OA
BRANCH  19  21
ATOM     21  O   UNL     1       0.319   1.440  -0.068  1.00  0.00    -0.465 OA
ATOM     22  C   UNL     1       0.870   0.130   0.077  1.00  0.00     0.282 C 
ENDBRANCH  19  21
ENDBRANCH  12  19
BRANCH  16  23
ATOM     23  C   UNL     1      -2.261   6.091  -0.585  1.00  0.00     0.049 A 
ATOM     24  C   UNL     1      -2.019   7.060  -1.572  1.00  0.00     0.028 A 
ATOM     25  C   UNL     1      -3.576   5.899  -0.145  1.00  0.00     0.028 A 
ATOM     26  C   UNL     1      -3.070   7.778  -2.148  1.00  0.00     0.018 A 
ATOM     27  C   UNL     1      -4.630   6.628  -0.708  1.00  0.00     0.018 A 
ATOM     28  C   UNL     1      -4.372   7.554  -1.717  1.00  0.00     0.018 A 
ATOM     29  Br  UNL     1      -5.799   8.512  -2.503  1.00  0.00    -0.051 Br
ENDBRANCH  16  23
ENDBRANCH   6  11
ENDBRANCH   3   5
ENDBRANCH   2   3
ENDBRANCH   1   2
BRANCH   1  30
ATOM     30  C   UNL     1       6.839  12.096   2.554  1.00  0.00     0.275 C 
BRANCH  30  31
ATOM     31  O   UNL     1       7.370  11.654   1.289  1.00  0.00    -0.458 OA
BRANCH  31  32
ATOM     32  C   UNL     1       7.803  10.375   1.280  1.00  0.00     0.338 C 
ATOM     33  O   UNL     1       7.809   9.589   2.214  1.00  0.00    -0.246 OA
BRANCH  32  34
ATOM     34  C   UNL     1       8.209   9.951  -0.067  1.00  0.00     0.060 A 
ATOM     35  C   UNL     1       7.220   9.432  -0.888  1.00  0.00     0.016 A 
ATOM     36  C   UNL     1       9.548   9.762  -0.394  1.00  0.00     0.016 A 
ATOM     37  C   UNL     1       7.549   8.547  -1.907  1.00  0.00     0.010 A 
ATOM     38  C   UNL     1       9.879   9.001  -1.526  1.00  0.00     0.010 A 
ATOM     39  C   UNL     1       8.887   8.313  -2.251  1.00  0.00    -0.014 A 
BRANCH  39  40
ATOM     40  C   UNL     1       9.225   7.309  -3.310  1.00  0.00     0.031 A 
ATOM     41  C   UNL     1      10.199   6.184  -3.027  1.00  0.00     0.074 A 
ATOM     42  C   UNL     1       8.631   7.365  -4.523  1.00  0.00     0.049 A 
ATOM     43  N   UNL     1      10.707   5.300  -3.853  1.00  0.00    -0.248 NA
ATOM     44  C   UNL     1      10.681   6.043  -1.643  1.00  0.00     0.031 C 
ATOM     45  C   UNL     1       7.642   8.361  -4.945  1.00  0.00     0.029 A 
ATOM     46  N   UNL     1       8.760   6.552  -5.625  1.00  0.00    -0.354 N 
ATOM     47  C   UNL     1      11.614   4.553  -3.107  1.00  0.00     0.074 A 
ATOM     48  C   UNL     1      11.597   5.092  -1.765  1.00  0.00     0.031 C 
ATOM     49  C   UNL     1       7.214   8.069  -6.181  1.00  0.00     0.029 A 
ATOM     50  C   UNL     1       7.974   6.935  -6.687  1.00  0.00     0.049 A 
ATOM     51  H   UNL     1       9.359   5.771  -5.652  1.00  0.00     0.167 HD
ATOM     52  C   UNL     1      12.391   3.514  -3.499  1.00  0.00     0.031 A 
ATOM     53  C   UNL     1       7.899   6.467  -7.947  1.00  0.00     0.031 A 
ATOM     54  C   UNL     1      12.371   2.935  -4.818  1.00  0.00     0.049 A 
ATOM     55  C   UNL     1       8.788   5.330  -8.360  1.00  0.00     0.074 A 
ATOM     56  C   UNL     1      13.097   1.856  -5.296  1.00  0.00     0.029 A 
ATOM     57  N   UNL     1      11.577   3.376  -5.864  1.00  0.00    -0.354 N 
ATOM     58  N   UNL     1       9.654   4.655  -7.646  1.00  0.00    -0.248 NA
ATOM     59  C   UNL     1       8.688   4.893  -9.759  1.00  0.00     0.031 C 
ATOM     60  C   UNL     1      12.786   1.682  -6.648  1.00  0.00     0.029 A 
ATOM     61  C   UNL     1      11.813   2.606  -6.992  1.00  0.00     0.049 A 
ATOM     62  H   UNL     1      10.941   4.125  -5.814  1.00  0.00     0.167 HD
ATOM     63  C   UNL     1      10.186   3.700  -8.502  1.00  0.00     0.074 A 
ATOM     64  C   UNL     1       9.520   3.862  -9.777  1.00  0.00     0.031 C 
ATOM     65  C   UNL     1      11.146   2.775  -8.256  1.00  0.00     0.031 A 
BRANCH  52  66
ATOM     66  C   UNL     1      13.370   2.948  -2.502  1.00  0.00    -0.014 A 
ATOM     67  C   UNL     1      12.953   2.195  -1.393  1.00  0.00     0.009 A 
ATOM     68  C   UNL     1      14.748   3.123  -2.718  1.00  0.00     0.009 A 
ATOM     69  C   UNL     1      13.892   1.659  -0.508  1.00  0.00     0.001 A 
ATOM     70  C   UNL     1      15.685   2.559  -1.851  1.00  0.00     0.001 A 
ATOM     71  C   UNL     1      15.256   1.834  -0.741  1.00  0.00     0.000 A 
ENDBRANCH  52  66
BRANCH  53  72
ATOM     72  C   UNL     1       6.992   7.115  -8.936  1.00  0.00    -0.014 A 
ATOM     73  C   UNL     1       5.908   6.417  -9.488  1.00  0.00     0.009 A 
ATOM     74  C   UNL     1       7.231   8.434  -9.358  1.00  0.00     0.009 A 
ATOM     75  C   UNL     1       5.106   7.012 -10.466  1.00  0.00     0.001 A 
ATOM     76  C   UNL     1       6.403   9.041 -10.303  1.00  0.00     0.001 A 
ATOM     77  C   UNL     1       5.350   8.324 -10.868  1.00  0.00     0.000 A 
ENDBRANCH  53  72
BRANCH  65  78
ATOM     78  C   UNL     1      11.488   1.835  -9.380  1.00  0.00    -0.014 A 
ATOM     79  C   UNL     1      12.145   2.281 -10.538  1.00  0.00     0.009 A 
ATOM     80  C   UNL     1      11.138   0.480  -9.277  1.00  0.00     0.009 A 
ATOM     81  C   UNL     1      12.391   1.400 -11.593  1.00  0.00     0.001 A 
ATOM     82  C   UNL     1      11.420  -0.406 -10.317  1.00  0.00     0.001 A 
ATOM     83  C   UNL     1      12.031   0.058 -11.481  1.00  0.00     0.000 A 
ENDBRANCH  65  78
ENDBRANCH  39  40
ENDBRANCH  32  34
ENDBRANCH  31  32
ENDBRANCH  30  31
ENDBRANCH   1  30
TORSDOF 15
