REMARK SMILES Cc1nn(C)cc1-c1cc(C(=O)OCCOC(=O)c2ccc(-c3c4nc(c(-c5ccccc5)c5ccc([nH]5)c(-c5ccccc5)c5nc(c(-c6ccccc6)c6ccc3[nH]6)C=C5)C=C4)cc2)n2nc(C)c(Br)c2n1
REMARK SMILES IDX 15 1 14 2 13 3 11 4 12 5 10 6 8 7 9 8 74 9 73 10 67 11 71 12
REMARK SMILES IDX 68 13 69 14 72 15 70 16 7 17 1 18 2 19 3 20 4 21 6 22 5 23
REMARK SMILES IDX 16 24 17 25 18 26 19 27 20 28 66 29 21 30 65 31 22 32 23 33
REMARK SMILES IDX 24 34 59 35 25 36 64 37 58 38 60 39 26 40 63 41 57 42 56 43
REMARK SMILES IDX 27 45 49 46 34 47 48 48 35 49 38 50 47 51 61 52 36 53 37 54
REMARK SMILES IDX 46 56 62 57 39 58 28 59 29 60 33 61 30 62 32 63 31 64 50 65
REMARK SMILES IDX 51 66 55 67 52 68 54 69 53 70 40 71 41 72 45 73 42 74 44 75
REMARK SMILES IDX 43 76
REMARK H PARENT 60 44 38 55
REMARK Flexibility Score: inf
ROOT
ATOM      1  C   UNL     1      -4.868  -4.707  -4.682  1.00  0.00     0.275 C 
ENDROOT
BRANCH   1   2
ATOM      2  C   UNL     1      -5.188  -3.487  -3.817  1.00  0.00     0.275 C 
BRANCH   2   3
ATOM      3  O   UNL     1      -4.205  -3.296  -2.777  1.00  0.00    -0.457 OA
BRANCH   3   4
ATOM      4  C   UNL     1      -4.539  -3.704  -1.520  1.00  0.00     0.357 C 
ATOM      5  O   UNL     1      -5.624  -4.177  -1.210  1.00  0.00    -0.244 OA
BRANCH   4   6
ATOM      6  C   UNL     1      -3.403  -3.517  -0.583  1.00  0.00     0.154 A 
ATOM      7  C   UNL     1      -1.414  -2.385   0.123  1.00  0.00     0.079 A 
ATOM      8  C   UNL     1      -2.502  -2.554  -0.868  1.00  0.00     0.065 A 
ATOM      9  N   UNL     1      -1.160  -3.155   1.131  1.00  0.00    -0.227 NA
ATOM     10  C   UNL     1      -2.075  -4.140   1.364  1.00  0.00     0.171 A 
ATOM     11  N   UNL     1      -3.240  -4.288   0.585  1.00  0.00    -0.206 N 
ATOM     12  C   UNL     1      -2.130  -5.122   2.317  1.00  0.00     0.085 A 
ATOM     13  N   UNL     1      -4.064  -5.225   1.143  1.00  0.00    -0.170 NA
ATOM     14  C   UNL     1      -3.382  -5.732   2.180  1.00  0.00     0.076 A 
ATOM     15  Br  UNL     1      -0.838  -5.538   3.606  1.00  0.00    -0.045 Br
ATOM     16  C   UNL     1      -3.965  -6.809   3.020  1.00  0.00     0.070 C 
BRANCH   7  17
ATOM     17  C   UNL     1      -0.603  -1.209  -0.053  1.00  0.00     0.041 A 
ATOM     18  C   UNL     1      -2.358   0.746  -0.077  1.00  0.00     0.069 C 
ATOM     19  C   UNL     1      -0.996   0.156  -0.145  1.00  0.00     0.069 A 
ATOM     20  N   UNL     1       0.064   0.970  -0.234  1.00  0.00    -0.178 NA
ATOM     21  N   UNL     1       1.120   0.143  -0.130  1.00  0.00    -0.275 N 
ATOM     22  C   UNL     1       0.776  -1.169  -0.033  1.00  0.00     0.119 A 
ATOM     23  C   UNL     1       2.451   0.695  -0.078  1.00  0.00     0.173 C 
ENDBRANCH   7  17
ENDBRANCH   4   6
ENDBRANCH   3   4
ENDBRANCH   2   3
ENDBRANCH   1   2
BRANCH   1  24
ATOM     24  O   UNL     1      -4.772  -5.896  -3.880  1.00  0.00    -0.458 OA
BRANCH  24  25
ATOM     25  C   UNL     1      -3.498  -6.232  -3.576  1.00  0.00     0.338 C 
ATOM     26  O   UNL     1      -2.482  -5.660  -3.942  1.00  0.00    -0.246 OA
BRANCH  25  27
ATOM     27  C   UNL     1      -3.422  -7.357  -2.639  1.00  0.00     0.060 A 
ATOM     28  C   UNL     1      -4.069  -7.280  -1.410  1.00  0.00     0.016 A 
ATOM     29  C   UNL     1      -2.446  -8.329  -2.874  1.00  0.00     0.016 A 
ATOM     30  C   UNL     1      -3.611  -8.071  -0.365  1.00  0.00     0.010 A 
ATOM     31  C   UNL     1      -1.997  -9.121  -1.822  1.00  0.00     0.010 A 
ATOM     32  C   UNL     1      -2.521  -8.927  -0.540  1.00  0.00    -0.014 A 
BRANCH  32  33
ATOM     33  C   UNL     1      -2.074  -9.677   0.646  1.00  0.00     0.031 A 
ATOM     34  C   UNL     1      -2.454 -11.111   0.543  1.00  0.00     0.074 A 
ATOM     35  C   UNL     1      -0.990  -9.342   1.383  1.00  0.00     0.049 A 
ATOM     36  N   UNL     1      -1.800 -11.914  -0.242  1.00  0.00    -0.248 NA
ATOM     37  C   UNL     1      -3.737 -11.638   0.999  1.00  0.00     0.031 C 
ATOM     38  C   UNL     1       0.182  -8.624   0.862  1.00  0.00     0.029 A 
ATOM     39  N   UNL     1      -0.598  -9.745   2.643  1.00  0.00    -0.354 N 
ATOM     40  C   UNL     1      -2.598 -13.016  -0.456  1.00  0.00     0.074 A 
ATOM     41  C   UNL     1      -3.783 -12.815   0.351  1.00  0.00     0.031 C 
ATOM     42  C   UNL     1       1.222  -8.825   1.700  1.00  0.00     0.029 A 
ATOM     43  C   UNL     1       0.761  -9.544   2.884  1.00  0.00     0.049 A 
ATOM     44  H   UNL     1      -1.215 -10.133   3.304  1.00  0.00     0.167 HD
ATOM     45  C   UNL     1      -2.229 -14.011  -1.303  1.00  0.00     0.031 A 
ATOM     46  C   UNL     1       1.535 -10.363   3.653  1.00  0.00     0.031 A 
ATOM     47  C   UNL     1      -0.953 -13.832  -1.933  1.00  0.00     0.049 A 
ATOM     48  C   UNL     1       1.679 -11.553   2.730  1.00  0.00     0.074 A 
ATOM     49  C   UNL     1      -0.466 -13.393  -3.146  1.00  0.00     0.029 A 
ATOM     50  N   UNL     1       0.165 -14.055  -1.167  1.00  0.00    -0.354 N 
ATOM     51  N   UNL     1       2.444 -11.632   1.674  1.00  0.00    -0.248 NA
ATOM     52  C   UNL     1       0.622 -12.566   2.793  1.00  0.00     0.031 C 
ATOM     53  C   UNL     1       0.868 -12.946  -2.879  1.00  0.00     0.029 A 
ATOM     54  C   UNL     1       1.097 -13.112  -1.514  1.00  0.00     0.049 A 
ATOM     55  H   UNL     1       0.277 -14.763  -0.492  1.00  0.00     0.167 HD
ATOM     56  C   UNL     1       1.765 -12.473   0.790  1.00  0.00     0.074 A 
ATOM     57  C   UNL     1       0.664 -13.031   1.552  1.00  0.00     0.031 C 
ATOM     58  C   UNL     1       2.005 -12.522  -0.553  1.00  0.00     0.031 A 
BRANCH  45  59
ATOM     59  C   UNL     1      -2.935 -15.297  -1.435  1.00  0.00    -0.014 A 
ATOM     60  C   UNL     1      -2.462 -16.367  -0.661  1.00  0.00     0.009 A 
ATOM     61  C   UNL     1      -3.888 -15.536  -2.429  1.00  0.00     0.009 A 
ATOM     62  C   UNL     1      -2.895 -17.667  -0.905  1.00  0.00     0.001 A 
ATOM     63  C   UNL     1      -4.333 -16.842  -2.662  1.00  0.00     0.001 A 
ATOM     64  C   UNL     1      -3.825 -17.905  -1.912  1.00  0.00     0.000 A 
ENDBRANCH  45  59
BRANCH  46  65
ATOM     65  C   UNL     1       1.114 -10.508   5.088  1.00  0.00    -0.014 A 
ATOM     66  C   UNL     1       0.788  -9.339   5.805  1.00  0.00     0.009 A 
ATOM     67  C   UNL     1       1.019 -11.726   5.778  1.00  0.00     0.009 A 
ATOM     68  C   UNL     1       0.250  -9.395   7.093  1.00  0.00     0.001 A 
ATOM     69  C   UNL     1       0.454 -11.788   7.060  1.00  0.00     0.001 A 
ATOM     70  C   UNL     1       0.047 -10.625   7.707  1.00  0.00     0.000 A 
ENDBRANCH  46  65
BRANCH  58  71
ATOM     71  C   UNL     1       3.170 -11.735  -1.058  1.00  0.00    -0.014 A 
ATOM     72  C   UNL     1       4.473 -12.178  -0.805  1.00  0.00     0.009 A 
ATOM     73  C   UNL     1       2.979 -10.606  -1.872  1.00  0.00     0.009 A 
ATOM     74  C   UNL     1       5.562 -11.535  -1.393  1.00  0.00     0.001 A 
ATOM     75  C   UNL     1       4.069  -9.972  -2.471  1.00  0.00     0.001 A 
ATOM     76  C   UNL     1       5.360 -10.445  -2.238  1.00  0.00     0.000 A 
ENDBRANCH  58  71
ENDBRANCH  32  33
ENDBRANCH  25  27
ENDBRANCH  24  25
ENDBRANCH   1  24
TORSDOF 12
