REMARK SMILES CN(C)C(=O)c1cccc(N2CCC3(CC2)[C@H](C(=O)OCCOC(=O)c2ccc(-c4c5nc(c(-c6ccccc6)c6ccc([nH]6)c(-c6ccccc6)c6nc(c(-c7ccccc7)c7ccc4[nH]7)C=C6)C=C5)cc2)CC(=O)N3C)n1
REMARK SMILES IDX 21 1 20 2 18 3 19 4 17 5 11 6 12 7 16 8 13 9 15 10 14 11
REMARK SMILES IDX 77 12 74 13 75 14 78 15 76 16 10 17 6 18 7 19 79 20 8 21
REMARK SMILES IDX 9 22 4 23 1 24 2 25 3 26 5 27 22 28 23 29 24 30 25 31 26 32
REMARK SMILES IDX 27 33 73 34 28 35 72 36 29 37 30 38 31 39 66 40 32 41 71 42
REMARK SMILES IDX 65 43 67 44 33 45 70 46 64 47 63 48 34 50 56 51 41 52 55 53
REMARK SMILES IDX 42 54 45 55 54 56 68 57 43 58 44 59 53 61 69 62 46 63 35 64
REMARK SMILES IDX 36 65 40 66 37 67 39 68 38 69 57 70 58 71 62 72 59 73 61 74
REMARK SMILES IDX 60 75 47 76 48 77 52 78 49 79 51 80 50 81
REMARK H PARENT 67 49 45 60
REMARK Flexibility Score: inf
ROOT
ATOM      1  C   UNL     1       3.999   3.165  10.475  1.00  0.00     0.274 C 
ENDROOT
BRANCH   1   2
ATOM      2  O   UNL     1       3.992   1.728  10.339  1.00  0.00    -0.462 OA
BRANCH   2   3
ATOM      3  C   UNL     1       3.314   1.053  11.289  1.00  0.00     0.311 C 
ATOM      4  O   UNL     1       2.846   1.576  12.298  1.00  0.00    -0.252 OA
BRANCH   3   5
ATOM      5  C   UNL     1       3.203  -0.444  11.080  1.00  0.00     0.134 C 
ATOM      6  N   UNL     1       1.576  -1.142   7.239  1.00  0.00    -0.356 N 
ATOM      7  C   UNL     1       2.969  -0.750   7.100  1.00  0.00     0.120 C 
ATOM      8  C   UNL     1       1.325  -2.234   8.163  1.00  0.00     0.120 C 
ATOM      9  C   UNL     1       3.447  -0.224   8.461  1.00  0.00     0.051 C 
ATOM     10  C   UNL     1       1.755  -1.796   9.556  1.00  0.00     0.051 C 
ATOM     11  C   UNL     1       3.170  -1.146   9.673  1.00  0.00     0.060 C 
ATOM     12  N   UNL     1       4.226  -2.174   9.831  1.00  0.00    -0.339 N 
ATOM     13  C   UNL     1       4.251  -1.139  11.940  1.00  0.00     0.118 C 
ATOM     14  C   UNL     1       4.875  -2.159  11.053  1.00  0.00     0.223 C 
ATOM     15  C   UNL     1       4.708  -3.042   8.774  1.00  0.00     0.147 C 
ATOM     16  O   UNL     1       5.810  -2.870  11.389  1.00  0.00    -0.275 OA
BRANCH   6  17
ATOM     17  C   UNL     1       0.725  -0.990   6.154  1.00  0.00     0.129 A 
ATOM     18  C   UNL     1       0.348  -0.852   3.869  1.00  0.00     0.130 A 
ATOM     19  C   UNL     1      -1.028  -0.732   4.026  1.00  0.00     0.034 A 
ATOM     20  N   UNL     1       1.225  -0.975   4.903  1.00  0.00    -0.226 NA
ATOM     21  C   UNL     1      -1.531  -0.697   5.314  1.00  0.00     0.006 A 
ATOM     22  C   UNL     1      -0.646  -0.828   6.380  1.00  0.00     0.047 A 
BRANCH  18  23
ATOM     23  C   UNL     1       0.917  -0.947   2.490  1.00  0.00     0.272 C 
ATOM     24  C   UNL     1       0.965  -0.210   0.161  1.00  0.00     0.146 C 
ATOM     25  N   UNL     1       0.574   0.025   1.539  1.00  0.00    -0.343 N 
ATOM     26  C   UNL     1      -0.013   1.321   1.846  1.00  0.00     0.146 C 
ATOM     27  O   UNL     1       1.628  -1.913   2.210  1.00  0.00    -0.267 OA
ENDBRANCH  18  23
ENDBRANCH   6  17
ENDBRANCH   3   5
ENDBRANCH   2   3
ENDBRANCH   1   2
BRANCH   1  28
ATOM     28  C   UNL     1       2.790   3.811   9.788  1.00  0.00     0.275 C 
BRANCH  28  29
ATOM     29  O   UNL     1       1.561   3.489  10.471  1.00  0.00    -0.458 OA
BRANCH  29  30
ATOM     30  C   UNL     1       0.724   2.659   9.810  1.00  0.00     0.338 C 
ATOM     31  O   UNL     1       0.874   2.175   8.703  1.00  0.00    -0.246 OA
BRANCH  30  32
ATOM     32  C   UNL     1      -0.448   2.344  10.637  1.00  0.00     0.060 A 
ATOM     33  C   UNL     1      -0.422   1.208  11.447  1.00  0.00     0.016 A 
ATOM     34  C   UNL     1      -1.625   3.074  10.476  1.00  0.00     0.016 A 
ATOM     35  C   UNL     1      -1.585   0.772  12.076  1.00  0.00     0.010 A 
ATOM     36  C   UNL     1      -2.784   2.658  11.137  1.00  0.00     0.010 A 
ATOM     37  C   UNL     1      -2.777   1.491  11.922  1.00  0.00    -0.014 A 
BRANCH  37  38
ATOM     38  C   UNL     1      -4.024   1.011  12.563  1.00  0.00     0.031 A 
ATOM     39  C   UNL     1      -5.142   0.461  11.723  1.00  0.00     0.074 A 
ATOM     40  C   UNL     1      -4.152   1.073  13.902  1.00  0.00     0.049 A 
ATOM     41  N   UNL     1      -6.350   0.109  12.084  1.00  0.00    -0.248 NA
ATOM     42  C   UNL     1      -4.866   0.284  10.289  1.00  0.00     0.031 C 
ATOM     43  C   UNL     1      -3.121   1.544  14.829  1.00  0.00     0.029 A 
ATOM     44  N   UNL     1      -5.208   0.745  14.713  1.00  0.00    -0.354 N 
ATOM     45  C   UNL     1      -6.988  -0.300  10.920  1.00  0.00     0.074 A 
ATOM     46  C   UNL     1      -6.036  -0.151   9.840  1.00  0.00     0.031 C 
ATOM     47  C   UNL     1      -3.595   1.471  16.083  1.00  0.00     0.029 A 
ATOM     48  C   UNL     1      -4.977   1.004  16.041  1.00  0.00     0.049 A 
ATOM     49  H   UNL     1      -6.049   0.360  14.375  1.00  0.00     0.167 HD
ATOM     50  C   UNL     1      -8.255  -0.752  10.767  1.00  0.00     0.031 A 
ATOM     51  C   UNL     1      -5.798   0.912  17.103  1.00  0.00     0.031 A 
ATOM     52  C   UNL     1      -9.197  -0.907  11.844  1.00  0.00     0.049 A 
ATOM     53  C   UNL     1      -7.214   0.455  16.899  1.00  0.00     0.074 A 
ATOM     54  C   UNL     1     -10.503  -1.363  11.790  1.00  0.00     0.029 A 
ATOM     55  N   UNL     1      -8.931  -0.613  13.172  1.00  0.00    -0.354 N 
ATOM     56  N   UNL     1      -7.811   0.092  15.790  1.00  0.00    -0.248 NA
ATOM     57  C   UNL     1      -8.069   0.401  18.092  1.00  0.00     0.031 C 
ATOM     58  C   UNL     1     -11.039  -1.310  13.082  1.00  0.00     0.029 A 
ATOM     59  C   UNL     1     -10.052  -0.862  13.945  1.00  0.00     0.049 A 
ATOM     60  H   UNL     1      -8.071  -0.278  13.515  1.00  0.00     0.167 HD
ATOM     61  C   UNL     1      -9.107  -0.247  16.153  1.00  0.00     0.074 A 
ATOM     62  C   UNL     1      -9.204  -0.063  17.587  1.00  0.00     0.031 C 
ATOM     63  C   UNL     1     -10.128  -0.670  15.369  1.00  0.00     0.031 A 
BRANCH  50  64
ATOM     64  C   UNL     1      -8.713  -1.076   9.374  1.00  0.00    -0.014 A 
ATOM     65  C   UNL     1      -8.300  -2.248   8.723  1.00  0.00     0.009 A 
ATOM     66  C   UNL     1      -9.613  -0.216   8.723  1.00  0.00     0.009 A 
ATOM     67  C   UNL     1      -8.759  -2.539   7.436  1.00  0.00     0.001 A 
ATOM     68  C   UNL     1     -10.086  -0.521   7.446  1.00  0.00     0.001 A 
ATOM     69  C   UNL     1      -9.655  -1.679   6.801  1.00  0.00     0.000 A 
ENDBRANCH  50  64
BRANCH  51  70
ATOM     70  C   UNL     1      -5.310   1.302  18.450  1.00  0.00    -0.014 A 
ATOM     71  C   UNL     1      -5.080   0.332  19.436  1.00  0.00     0.009 A 
ATOM     72  C   UNL     1      -5.068   2.652  18.753  1.00  0.00     0.009 A 
ATOM     73  C   UNL     1      -4.631   0.708  20.704  1.00  0.00     0.001 A 
ATOM     74  C   UNL     1      -4.594   3.021  20.013  1.00  0.00     0.001 A 
ATOM     75  C   UNL     1      -4.384   2.050  20.990  1.00  0.00     0.000 A 
ENDBRANCH  51  70
BRANCH  63  76
ATOM     76  C   UNL     1     -11.423  -0.988  16.055  1.00  0.00    -0.014 A 
ATOM     77  C   UNL     1     -12.276   0.033  16.502  1.00  0.00     0.009 A 
ATOM     78  C   UNL     1     -11.805  -2.326  16.233  1.00  0.00     0.009 A 
ATOM     79  C   UNL     1     -13.475  -0.283  17.143  1.00  0.00     0.001 A 
ATOM     80  C   UNL     1     -13.015  -2.638  16.854  1.00  0.00     0.001 A 
ATOM     81  C   UNL     1     -13.845  -1.617  17.316  1.00  0.00     0.000 A 
ENDBRANCH  63  76
ENDBRANCH  37  38
ENDBRANCH  30  32
ENDBRANCH  29  30
ENDBRANCH  28  29
ENDBRANCH   1  28
TORSDOF 13
