REMARK SMILES Cc1ncccc1OC1(C(=O)OCCOC(=O)c2ccc(-c3c4nc(c(-c5ccccc5)c5ccc([nH]5)c(-c5ccccc5)c5nc(c(-c6ccccc6)c6ccc3[nH]6)C=C5)C=C4)cc2)CCN(C(=O)c2ccc(O)nn2)CC1
REMARK SMILES IDX 13 1 12 2 10 3 11 4 9 5 66 6 79 7 67 8 78 9 68 10 69 11
REMARK SMILES IDX 70 12 8 13 7 14 1 15 2 16 3 17 4 18 6 19 5 20 71 21 72 22
REMARK SMILES IDX 77 23 73 24 76 25 74 26 75 27 14 29 15 30 16 31 17 32 18 33
REMARK SMILES IDX 19 34 65 35 20 36 64 37 21 38 22 39 23 40 58 41 24 42 63 43
REMARK SMILES IDX 57 44 59 45 25 46 62 47 56 48 55 49 26 51 48 52 33 53 47 54
REMARK SMILES IDX 34 55 37 56 46 57 60 58 35 59 36 60 45 62 61 63 38 64 27 65
REMARK SMILES IDX 28 66 32 67 29 68 31 69 30 70 49 71 50 72 54 73 51 74 53 75
REMARK SMILES IDX 52 76 39 77 40 78 44 79 41 80 43 81 42 82
REMARK H PARENT 75 28 59 50 37 61
REMARK Flexibility Score: inf
ROOT
ATOM      1  C   UNL     1       3.873  -5.527  -0.078  1.00  0.00     0.274 C 
ENDROOT
BRANCH   1   2
ATOM      2  O   UNL     1       3.585  -4.121   0.086  1.00  0.00    -0.459 OA
BRANCH   2   3
ATOM      3  C   UNL     1       2.450  -3.590  -0.482  1.00  0.00     0.350 C 
ATOM      4  O   UNL     1       1.593  -4.255  -1.048  1.00  0.00    -0.247 OA
BRANCH   3   5
ATOM      5  C   UNL     1       2.491  -2.022  -0.432  1.00  0.00     0.209 C 
ATOM      6  C   UNL     1       2.863  -1.553   0.987  1.00  0.00     0.082 C 
ATOM      7  C   UNL     1       3.618  -1.750  -1.446  1.00  0.00     0.082 C 
ATOM      8  C   UNL     1       3.946  -0.477   1.116  1.00  0.00     0.124 C 
ATOM      9  C   UNL     1       4.042  -0.313  -1.418  1.00  0.00     0.124 C 
ATOM     10  N   UNL     1       4.495   0.119  -0.100  1.00  0.00    -0.337 N 
ATOM     11  C   UNL     1       5.318   1.247   0.059  1.00  0.00     0.274 C 
ATOM     12  O   UNL     1       5.770   1.617   1.139  1.00  0.00    -0.267 OA
BRANCH   5  13
ATOM     13  O   UNL     1       1.355  -1.362  -1.055  1.00  0.00    -0.474 OA
BRANCH  13  14
ATOM     14  C   UNL     1       0.289  -0.777  -0.431  1.00  0.00     0.142 A 
ATOM     15  C   UNL     1       1.361   1.522  -0.063  1.00  0.00     0.071 C 
ATOM     16  C   UNL     1       0.232   0.555   0.011  1.00  0.00     0.079 A 
ATOM     17  N   UNL     1      -0.927   1.173   0.387  1.00  0.00    -0.258 NA
ATOM     18  C   UNL     1      -2.081   0.505   0.246  1.00  0.00     0.111 A 
ATOM     19  C   UNL     1      -0.941  -1.423  -0.577  1.00  0.00     0.050 A 
ATOM     20  C   UNL     1      -2.140  -0.784  -0.236  1.00  0.00     0.024 A 
ENDBRANCH  13  14
ENDBRANCH   5  13
BRANCH  11  21
ATOM     21  C   UNL     1       5.681   1.994  -1.168  1.00  0.00     0.151 A 
ATOM     22  C   UNL     1       6.968   1.893  -1.668  1.00  0.00     0.042 A 
ATOM     23  N   UNL     1       4.654   2.558  -1.858  1.00  0.00    -0.142 NA
ATOM     24  C   UNL     1       7.193   2.373  -2.951  1.00  0.00     0.072 A 
ATOM     25  N   UNL     1       4.885   3.036  -3.108  1.00  0.00    -0.112 NA
ATOM     26  C   UNL     1       6.124   2.924  -3.623  1.00  0.00     0.230 A 
BRANCH  26  27
ATOM     27  O   UNL     1       6.265   3.360  -4.902  1.00  0.00    -0.492 OA
ATOM     28  H   UNL     1       7.101   3.312  -5.323  1.00  0.00     0.295 HD
ENDBRANCH  26  27
ENDBRANCH  11  21
ENDBRANCH   3   5
ENDBRANCH   2   3
ENDBRANCH   1   2
BRANCH   1  29
ATOM     29  C   UNL     1       3.650  -6.311   1.218  1.00  0.00     0.275 C 
BRANCH  29  30
ATOM     30  O   UNL     1       2.246  -6.469   1.475  1.00  0.00    -0.458 OA
BRANCH  30  31
ATOM     31  C   UNL     1       1.693  -5.481   2.216  1.00  0.00     0.338 C 
ATOM     32  O   UNL     1       2.262  -4.564   2.777  1.00  0.00    -0.246 OA
BRANCH  31  33
ATOM     33  C   UNL     1       0.236  -5.543   2.048  1.00  0.00     0.060 A 
ATOM     34  C   UNL     1      -0.365  -4.470   1.393  1.00  0.00     0.016 A 
ATOM     35  C   UNL     1      -0.530  -6.604   2.533  1.00  0.00     0.016 A 
ATOM     36  C   UNL     1      -1.734  -4.460   1.191  1.00  0.00     0.010 A 
ATOM     37  C   UNL     1      -1.918  -6.581   2.346  1.00  0.00     0.010 A 
ATOM     38  C   UNL     1      -2.521  -5.507   1.671  1.00  0.00    -0.014 A 
BRANCH  38  39
ATOM     39  C   UNL     1      -3.987  -5.372   1.546  1.00  0.00     0.031 A 
ATOM     40  C   UNL     1      -4.776  -4.918   2.736  1.00  0.00     0.074 A 
ATOM     41  C   UNL     1      -4.580  -5.516   0.348  1.00  0.00     0.049 A 
ATOM     42  N   UNL     1      -6.068  -4.766   2.860  1.00  0.00    -0.248 NA
ATOM     43  C   UNL     1      -4.005  -4.574   3.942  1.00  0.00     0.031 C 
ATOM     44  C   UNL     1      -3.892  -5.822  -0.907  1.00  0.00     0.029 A 
ATOM     45  N   UNL     1      -5.897  -5.391  -0.013  1.00  0.00    -0.354 N 
ATOM     46  C   UNL     1      -6.270  -4.347   4.168  1.00  0.00     0.074 A 
ATOM     47  C   UNL     1      -4.969  -4.260   4.795  1.00  0.00     0.031 C 
ATOM     48  C   UNL     1      -4.792  -5.842  -1.904  1.00  0.00     0.029 A 
ATOM     49  C   UNL     1      -6.123  -5.612  -1.349  1.00  0.00     0.049 A 
ATOM     50  H   UNL     1      -6.612  -5.165   0.625  1.00  0.00     0.167 HD
ATOM     51  C   UNL     1      -7.439  -4.073   4.791  1.00  0.00     0.031 A 
ATOM     52  C   UNL     1      -7.279  -5.654  -2.038  1.00  0.00     0.031 A 
ATOM     53  C   UNL     1      -8.726  -4.151   4.157  1.00  0.00     0.049 A 
ATOM     54  C   UNL     1      -8.572  -5.438  -1.301  1.00  0.00     0.074 A 
ATOM     55  C   UNL     1      -9.975  -3.926   4.708  1.00  0.00     0.029 A 
ATOM     56  N   UNL     1      -8.926  -4.474   2.824  1.00  0.00    -0.354 N 
ATOM     57  N   UNL     1      -8.762  -5.120  -0.043  1.00  0.00    -0.248 NA
ATOM     58  C   UNL     1      -9.810  -5.607  -2.075  1.00  0.00     0.031 C 
ATOM     59  C   UNL     1     -10.935  -4.156   3.716  1.00  0.00     0.029 A 
ATOM     60  C   UNL     1     -10.280  -4.475   2.537  1.00  0.00     0.049 A 
ATOM     61  H   UNL     1      -8.211  -4.674   2.177  1.00  0.00     0.167 HD
ATOM     62  C   UNL     1     -10.138  -5.041   0.124  1.00  0.00     0.074 A 
ATOM     63  C   UNL     1     -10.734  -5.323  -1.167  1.00  0.00     0.031 C 
ATOM     64  C   UNL     1     -10.847  -4.765   1.246  1.00  0.00     0.031 A 
BRANCH  51  65
ATOM     65  C   UNL     1      -7.371  -3.738   6.252  1.00  0.00    -0.014 A 
ATOM     66  C   UNL     1      -6.911  -2.492   6.703  1.00  0.00     0.009 A 
ATOM     67  C   UNL     1      -7.779  -4.697   7.193  1.00  0.00     0.009 A 
ATOM     68  C   UNL     1      -6.832  -2.225   8.072  1.00  0.00     0.001 A 
ATOM     69  C   UNL     1      -7.722  -4.418   8.559  1.00  0.00     0.001 A 
ATOM     70  C   UNL     1      -7.240  -3.187   8.998  1.00  0.00     0.000 A 
ENDBRANCH  51  65
BRANCH  52  71
ATOM     71  C   UNL     1      -7.273  -5.970  -3.490  1.00  0.00    -0.014 A 
ATOM     72  C   UNL     1      -7.638  -5.003  -4.439  1.00  0.00     0.009 A 
ATOM     73  C   UNL     1      -6.913  -7.253  -3.934  1.00  0.00     0.009 A 
ATOM     74  C   UNL     1      -7.656  -5.320  -5.800  1.00  0.00     0.001 A 
ATOM     75  C   UNL     1      -6.905  -7.559  -5.296  1.00  0.00     0.001 A 
ATOM     76  C   UNL     1      -7.284  -6.595  -6.227  1.00  0.00     0.000 A 
ENDBRANCH  52  71
BRANCH  64  77
ATOM     77  C   UNL     1     -12.342  -4.735   1.117  1.00  0.00    -0.014 A 
ATOM     78  C   UNL     1     -13.083  -5.921   1.004  1.00  0.00     0.009 A 
ATOM     79  C   UNL     1     -13.018  -3.506   1.148  1.00  0.00     0.009 A 
ATOM     80  C   UNL     1     -14.474  -5.874   0.896  1.00  0.00     0.001 A 
ATOM     81  C   UNL     1     -14.410  -3.463   1.064  1.00  0.00     0.001 A 
ATOM     82  C   UNL     1     -15.136  -4.646   0.930  1.00  0.00     0.000 A 
ENDBRANCH  64  77
ENDBRANCH  38  39
ENDBRANCH  31  33
ENDBRANCH  30  31
ENDBRANCH  29  30
ENDBRANCH   1  29
TORSDOF 15
