REMARK SMILES CCOC(=O)c1c(NC(=O)c2ncccc2C(=O)OCCOC(=O)c2ccc(-c3c4nc(c(-c5ccccc5)c5ccc([nH]5)c(-c5ccccc5)c5nc(c(-c6ccccc6)c6ccc3[nH]6)C=C5)C=C4)cc2)sc2c1CC[C@H](C)C2
REMARK SMILES IDX 19 1 17 2 18 3 16 4 11 5 12 6 13 7 15 8 14 9 9 10 8 11 10 13
REMARK SMILES IDX 7 14 6 15 75 16 73 17 74 18 76 19 80 20 77 21 78 22 79 23
REMARK SMILES IDX 4 24 5 25 3 26 2 27 1 28 20 29 21 30 22 31 23 32 24 33 25 34
REMARK SMILES IDX 26 35 72 36 27 37 71 38 28 39 29 40 30 41 65 42 31 43 70 44
REMARK SMILES IDX 64 45 66 46 32 47 69 48 63 49 62 50 33 52 55 53 40 54 54 55
REMARK SMILES IDX 41 56 44 57 53 58 67 59 42 60 43 61 52 63 68 64 45 65 34 66
REMARK SMILES IDX 35 67 39 68 36 69 38 70 37 71 56 72 57 73 61 74 58 75 60 76
REMARK SMILES IDX 59 77 46 78 47 79 51 80 48 81 50 82 49 83
REMARK H PARENT 8 12 66 51 44 62
REMARK Flexibility Score: inf
ROOT
ATOM      1  O   UNL     1       4.311  -2.369   3.527  1.00  0.00    -0.458 OA
ENDROOT
BRANCH   1   2
ATOM      2  C   UNL     1       3.110  -2.989   3.665  1.00  0.00     0.340 C 
ATOM      3  O   UNL     1       2.861  -3.956   4.369  1.00  0.00    -0.246 OA
BRANCH   2   4
ATOM      4  C   UNL     1       2.149  -2.480   2.684  1.00  0.00     0.091 A 
ATOM      5  C   UNL     1       0.922  -1.905   2.991  1.00  0.00     0.142 A 
ATOM      6  N   UNL     1      -0.143  -1.988   2.131  1.00  0.00    -0.250 NA
ATOM      7  C   UNL     1       0.040  -2.611   0.950  1.00  0.00     0.112 A 
ATOM      8  C   UNL     1       2.344  -2.975   1.388  1.00  0.00     0.020 A 
ATOM      9  C   UNL     1       1.274  -3.041   0.506  1.00  0.00     0.021 A 
BRANCH   5  10
ATOM     10  C   UNL     1       0.534  -1.199   4.239  1.00  0.00     0.275 C 
ATOM     11  N   UNL     1       0.882   0.108   4.544  1.00  0.00    -0.311 N 
ATOM     12  H   UNL     1       0.217   0.594   5.084  1.00  0.00     0.171 HD
ATOM     13  O   UNL     1      -0.281  -1.753   4.989  1.00  0.00    -0.267 OA
BRANCH  11  14
ATOM     14  C   UNL     1       1.998   0.841   4.218  1.00  0.00     0.110 A 
ATOM     15  C   UNL     1       2.895   1.020   3.179  1.00  0.00     0.098 A 
ATOM     16  C   UNL     1       4.150   1.541   3.714  1.00  0.00    -0.017 A 
ATOM     17  S   UNL     1       2.412   1.913   5.482  1.00  0.00    -0.122 S 
ATOM     18  C   UNL     1       4.038   1.709   5.078  1.00  0.00     0.011 A 
ATOM     19  C   UNL     1       5.432   1.929   3.028  1.00  0.00     0.038 C 
ATOM     20  C   UNL     1       5.174   1.927   5.999  1.00  0.00     0.050 C 
ATOM     21  C   UNL     1       6.588   2.309   4.013  1.00  0.00     0.008 C 
ATOM     22  C   UNL     1       6.119   2.935   5.352  1.00  0.00    -0.009 C 
ATOM     23  C   UNL     1       7.276   3.257   6.296  1.00  0.00     0.008 C 
BRANCH  15  24
ATOM     24  C   UNL     1       2.543   0.755   1.804  1.00  0.00     0.341 C 
ATOM     25  O   UNL     1       3.306   0.241   0.989  1.00  0.00    -0.246 OA
BRANCH  24  26
ATOM     26  O   UNL     1       1.272   1.165   1.562  1.00  0.00    -0.462 OA
BRANCH  26  27
ATOM     27  C   UNL     1       0.604   0.787   0.358  1.00  0.00     0.230 C 
ATOM     28  C   UNL     1       1.220   1.351  -0.898  1.00  0.00     0.049 C 
ENDBRANCH  26  27
ENDBRANCH  24  26
ENDBRANCH  15  24
ENDBRANCH  11  14
ENDBRANCH   5  10
ENDBRANCH   2   4
ENDBRANCH   1   2
BRANCH   1  29
ATOM     29  C   UNL     1       5.365  -2.852   4.392  1.00  0.00     0.275 C 
BRANCH  29  30
ATOM     30  C   UNL     1       5.658  -1.867   5.523  1.00  0.00     0.275 C 
BRANCH  30  31
ATOM     31  O   UNL     1       4.923  -2.075   6.744  1.00  0.00    -0.458 OA
BRANCH  31  32
ATOM     32  C   UNL     1       3.629  -1.703   6.674  1.00  0.00     0.338 C 
ATOM     33  O   UNL     1       2.967  -1.599   5.658  1.00  0.00    -0.246 OA
BRANCH  32  34
ATOM     34  C   UNL     1       3.142  -1.015   7.871  1.00  0.00     0.060 A 
ATOM     35  C   UNL     1       1.819  -0.566   7.776  1.00  0.00     0.016 A 
ATOM     36  C   UNL     1       4.067  -0.391   8.707  1.00  0.00     0.016 A 
ATOM     37  C   UNL     1       1.519   0.689   8.259  1.00  0.00     0.010 A 
ATOM     38  C   UNL     1       3.734   0.832   9.256  1.00  0.00     0.010 A 
ATOM     39  C   UNL     1       2.510   1.424   8.928  1.00  0.00    -0.014 A 
BRANCH  39  40
ATOM     40  C   UNL     1       2.134   2.712   9.516  1.00  0.00     0.031 A 
ATOM     41  C   UNL     1       0.901   2.593  10.351  1.00  0.00     0.074 A 
ATOM     42  C   UNL     1       2.946   3.792   9.469  1.00  0.00     0.049 A 
ATOM     43  N   UNL     1      -0.109   3.399  10.392  1.00  0.00    -0.248 NA
ATOM     44  C   UNL     1       0.674   1.315  11.071  1.00  0.00     0.031 C 
ATOM     45  C   UNL     1       4.178   3.977   8.718  1.00  0.00     0.029 A 
ATOM     46  N   UNL     1       2.955   4.912  10.232  1.00  0.00    -0.354 N 
ATOM     47  C   UNL     1      -1.006   2.813  11.280  1.00  0.00     0.074 A 
ATOM     48  C   UNL     1      -0.581   1.457  11.482  1.00  0.00     0.031 C 
ATOM     49  C   UNL     1       4.990   4.863   9.327  1.00  0.00     0.029 A 
ATOM     50  C   UNL     1       4.224   5.470  10.390  1.00  0.00     0.049 A 
ATOM     51  H   UNL     1       2.143   5.295  10.636  1.00  0.00     0.167 HD
ATOM     52  C   UNL     1      -1.850   3.559  12.036  1.00  0.00     0.031 A 
ATOM     53  C   UNL     1       4.640   6.359  11.325  1.00  0.00     0.031 A 
ATOM     54  C   UNL     1      -2.104   4.841  11.443  1.00  0.00     0.049 A 
ATOM     55  C   UNL     1       3.417   6.944  11.915  1.00  0.00     0.074 A 
ATOM     56  C   UNL     1      -2.713   5.248  10.274  1.00  0.00     0.029 A 
ATOM     57  N   UNL     1      -1.338   5.899  11.867  1.00  0.00    -0.354 N 
ATOM     58  N   UNL     1       2.608   7.707  11.234  1.00  0.00    -0.248 NA
ATOM     59  C   UNL     1       2.824   6.245  13.045  1.00  0.00     0.031 C 
ATOM     60  C   UNL     1      -1.929   6.342   9.812  1.00  0.00     0.029 A 
ATOM     61  C   UNL     1      -0.938   6.604  10.759  1.00  0.00     0.049 A 
ATOM     62  H   UNL     1      -1.116   6.115  12.802  1.00  0.00     0.167 HD
ATOM     63  C   UNL     1       1.339   7.250  11.559  1.00  0.00     0.074 A 
ATOM     64  C   UNL     1       1.532   6.391  12.731  1.00  0.00     0.031 C 
ATOM     65  C   UNL     1       0.303   7.345  10.673  1.00  0.00     0.031 A 
BRANCH  52  66
ATOM     66  C   UNL     1      -2.056   3.257  13.497  1.00  0.00    -0.014 A 
ATOM     67  C   UNL     1      -2.985   4.011  14.225  1.00  0.00     0.009 A 
ATOM     68  C   UNL     1      -1.180   2.437  14.243  1.00  0.00     0.009 A 
ATOM     69  C   UNL     1      -2.998   3.983  15.625  1.00  0.00     0.001 A 
ATOM     70  C   UNL     1      -1.215   2.376  15.636  1.00  0.00     0.001 A 
ATOM     71  C   UNL     1      -2.110   3.172  16.329  1.00  0.00     0.000 A 
ENDBRANCH  52  66
BRANCH  53  72
ATOM     72  C   UNL     1       5.981   6.441  11.955  1.00  0.00    -0.014 A 
ATOM     73  C   UNL     1       6.383   7.582  12.665  1.00  0.00     0.009 A 
ATOM     74  C   UNL     1       6.786   5.289  12.069  1.00  0.00     0.009 A 
ATOM     75  C   UNL     1       7.527   7.559  13.480  1.00  0.00     0.001 A 
ATOM     76  C   UNL     1       7.926   5.265  12.881  1.00  0.00     0.001 A 
ATOM     77  C   UNL     1       8.289   6.398  13.599  1.00  0.00     0.000 A 
ENDBRANCH  53  72
BRANCH  65  78
ATOM     78  C   UNL     1       0.540   8.101   9.382  1.00  0.00    -0.014 A 
ATOM     79  C   UNL     1       1.428   7.668   8.378  1.00  0.00     0.009 A 
ATOM     80  C   UNL     1      -0.297   9.188   9.096  1.00  0.00     0.009 A 
ATOM     81  C   UNL     1       1.486   8.319   7.137  1.00  0.00     0.001 A 
ATOM     82  C   UNL     1      -0.253   9.825   7.854  1.00  0.00     0.001 A 
ATOM     83  C   UNL     1       0.640   9.395   6.876  1.00  0.00     0.000 A 
ENDBRANCH  65  78
ENDBRANCH  39  40
ENDBRANCH  32  34
ENDBRANCH  31  32
ENDBRANCH  30  31
ENDBRANCH  29  30
ENDBRANCH   1  29
TORSDOF 16
