REMARK SMILES C[C@H]1CC[C@H]([NH2+]Cc2c(C(=O)OCCOC(=O)c3ccc(-c4c5nc(c(-c6ccccc6)c6ccc([nH]6)c(-c6ccccc6)c6nc(c(-c7ccccc7)c7ccc4[nH]7)C=C6)C=C5)cc3)n(Cc3ccccc3F)c3ccccc23)CC1
REMARK SMILES IDX 13 1 12 2 10 3 11 4 9 5 8 6 80 7 66 8 75 9 79 10 76 11 78 12
REMARK SMILES IDX 77 13 7 14 6 15 5 18 1 19 2 20 3 21 82 22 4 23 81 24 67 25
REMARK SMILES IDX 68 26 69 27 73 28 70 29 72 30 74 31 71 32 14 33 15 34 16 35
REMARK SMILES IDX 17 36 18 37 19 38 65 39 20 40 64 41 21 42 22 43 23 44 58 45
REMARK SMILES IDX 24 46 63 47 57 48 59 49 25 50 62 51 56 52 55 53 26 55 48 56
REMARK SMILES IDX 33 57 47 58 34 59 37 60 46 61 60 62 35 63 36 64 45 66 61 67
REMARK SMILES IDX 38 68 27 69 28 70 32 71 29 72 31 73 30 74 49 75 50 76 54 77
REMARK SMILES IDX 51 78 53 79 52 80 39 81 40 82 44 83 41 84 43 85 42 86
REMARK H PARENT 6 16 6 17 59 54 37 65
REMARK Flexibility Score: inf
ROOT
ATOM      1  C   UNL     1      -2.165   0.715   3.058  1.00  0.00     0.275 C 
ENDROOT
BRANCH   1   2
ATOM      2  O   UNL     1      -3.074  -0.294   2.523  1.00  0.00    -0.457 OA
BRANCH   2   3
ATOM      3  C   UNL     1      -2.512  -1.468   2.124  1.00  0.00     0.355 C 
ATOM      4  O   UNL     1      -1.369  -1.783   2.384  1.00  0.00    -0.244 OA
BRANCH   3   5
ATOM      5  C   UNL     1      -3.361  -2.268   1.259  1.00  0.00     0.137 A 
ATOM      6  C   UNL     1      -4.072  -1.883   0.110  1.00  0.00     0.047 A 
ATOM      7  C   UNL     1      -4.604  -3.092  -0.471  1.00  0.00     0.009 A 
ATOM      8  N   UNL     1      -3.384  -3.675   1.312  1.00  0.00    -0.330 N 
ATOM      9  C   UNL     1      -4.090  -4.178   0.229  1.00  0.00     0.050 A 
ATOM     10  C   UNL     1      -5.407  -3.343  -1.609  1.00  0.00     0.011 A 
ATOM     11  C   UNL     1      -4.271  -5.494  -0.236  1.00  0.00     0.027 A 
ATOM     12  C   UNL     1      -5.640  -4.653  -2.036  1.00  0.00     0.001 A 
ATOM     13  C   UNL     1      -5.060  -5.717  -1.364  1.00  0.00     0.002 A 
BRANCH   6  14
ATOM     14  C   UNL     1      -4.274  -0.548  -0.584  1.00  0.00     0.300 C 
BRANCH  14  15
ATOM     15  N   UNL     1      -3.346   0.520  -0.252  1.00  0.00    -0.340 N 
ATOM     16  H   UNL     1      -3.865   1.396  -0.314  1.00  0.00     0.346 HD
ATOM     17  H   UNL     1      -2.997   0.260   0.671  1.00  0.00     0.346 HD
BRANCH  15  18
ATOM     18  C   UNL     1      -2.126   0.684  -1.055  1.00  0.00     0.182 C 
ATOM     19  C   UNL     1       2.299   1.171  -0.875  1.00  0.00     0.007 C 
ATOM     20  C   UNL     1       0.807   0.973  -0.626  1.00  0.00    -0.014 C 
ATOM     21  C   UNL     1       0.260  -0.226  -1.399  1.00  0.00     0.009 C 
ATOM     22  C   UNL     1      -0.013   2.201  -1.018  1.00  0.00     0.009 C 
ATOM     23  C   UNL     1      -1.172  -0.510  -0.957  1.00  0.00     0.065 C 
ATOM     24  C   UNL     1      -1.482   2.025  -0.627  1.00  0.00     0.065 C 
ENDBRANCH  15  18
ENDBRANCH  14  15
ENDBRANCH   6  14
BRANCH   8  25
ATOM     25  C   UNL     1      -2.505  -4.523   2.135  1.00  0.00     0.161 C 
BRANCH  25  26
ATOM     26  C   UNL     1      -3.103  -5.295   3.287  1.00  0.00     0.008 A 
ATOM     27  C   UNL     1      -3.604  -6.598   3.126  1.00  0.00     0.008 A 
ATOM     28  C   UNL     1      -2.978  -4.813   4.595  1.00  0.00     0.128 A 
ATOM     29  C   UNL     1      -3.940  -7.390   4.230  1.00  0.00     0.001 A 
ATOM     30  C   UNL     1      -3.295  -5.602   5.702  1.00  0.00     0.039 A 
ATOM     31  F   UNL     1      -2.470  -3.591   4.809  1.00  0.00    -0.207 F 
ATOM     32  C   UNL     1      -3.771  -6.898   5.520  1.00  0.00     0.003 A 
ENDBRANCH  25  26
ENDBRANCH   8  25
ENDBRANCH   3   5
ENDBRANCH   2   3
ENDBRANCH   1   2
BRANCH   1  33
ATOM     33  C   UNL     1      -1.316   0.349   4.289  1.00  0.00     0.275 C 
BRANCH  33  34
ATOM     34  O   UNL     1      -0.007  -0.054   3.832  1.00  0.00    -0.458 OA
BRANCH  34  35
ATOM     35  C   UNL     1       0.598  -1.004   4.591  1.00  0.00     0.338 C 
ATOM     36  O   UNL     1       0.493  -1.127   5.800  1.00  0.00    -0.246 OA
BRANCH  35  37
ATOM     37  C   UNL     1       1.115  -2.054   3.673  1.00  0.00     0.060 A 
ATOM     38  C   UNL     1       1.566  -1.756   2.382  1.00  0.00     0.016 A 
ATOM     39  C   UNL     1       0.850  -3.380   4.026  1.00  0.00     0.016 A 
ATOM     40  C   UNL     1       1.582  -2.760   1.407  1.00  0.00     0.010 A 
ATOM     41  C   UNL     1       0.885  -4.379   3.050  1.00  0.00     0.010 A 
ATOM     42  C   UNL     1       1.157  -4.064   1.710  1.00  0.00    -0.014 A 
BRANCH  42  43
ATOM     43  C   UNL     1       1.074  -5.076   0.641  1.00  0.00     0.031 A 
ATOM     44  C   UNL     1       1.526  -6.461   0.899  1.00  0.00     0.074 A 
ATOM     45  C   UNL     1       0.480  -4.977  -0.568  1.00  0.00     0.049 A 
ATOM     46  N   UNL     1       2.660  -6.978   0.559  1.00  0.00    -0.248 NA
ATOM     47  C   UNL     1       0.588  -7.399   1.531  1.00  0.00     0.031 C 
ATOM     48  C   UNL     1      -0.535  -4.035  -1.016  1.00  0.00     0.029 A 
ATOM     49  N   UNL     1       0.659  -5.796  -1.658  1.00  0.00    -0.354 N 
ATOM     50  C   UNL     1       2.565  -8.330   0.852  1.00  0.00     0.074 A 
ATOM     51  C   UNL     1       1.301  -8.527   1.523  1.00  0.00     0.031 C 
ATOM     52  C   UNL     1      -0.963  -4.388  -2.252  1.00  0.00     0.029 A 
ATOM     53  C   UNL     1      -0.145  -5.489  -2.743  1.00  0.00     0.049 A 
ATOM     54  H   UNL     1       1.304  -6.540  -1.667  1.00  0.00     0.167 HD
ATOM     55  C   UNL     1       3.463  -9.242   0.400  1.00  0.00     0.031 A 
ATOM     56  C   UNL     1      -0.121  -6.057  -3.972  1.00  0.00     0.031 A 
ATOM     57  C   UNL     1       4.552  -8.657  -0.330  1.00  0.00     0.049 A 
ATOM     58  C   UNL     1       1.188  -6.724  -4.178  1.00  0.00     0.074 A 
ATOM     59  C   UNL     1       5.662  -7.900  -0.027  1.00  0.00     0.029 A 
ATOM     60  N   UNL     1       4.377  -8.575  -1.689  1.00  0.00    -0.354 N 
ATOM     61  N   UNL     1       2.319  -6.085  -4.274  1.00  0.00    -0.248 NA
ATOM     62  C   UNL     1       1.307  -8.177  -4.139  1.00  0.00     0.031 C 
ATOM     63  C   UNL     1       5.946  -7.129  -1.195  1.00  0.00     0.029 A 
ATOM     64  C   UNL     1       4.973  -7.423  -2.150  1.00  0.00     0.049 A 
ATOM     65  H   UNL     1       3.902  -9.235  -2.245  1.00  0.00     0.167 HD
ATOM     66  C   UNL     1       3.279  -7.005  -3.903  1.00  0.00     0.074 A 
ATOM     67  C   UNL     1       2.634  -8.299  -4.035  1.00  0.00     0.031 C 
ATOM     68  C   UNL     1       4.390  -6.621  -3.212  1.00  0.00     0.031 A 
BRANCH  55  69
ATOM     69  C   UNL     1       3.226 -10.715   0.399  1.00  0.00    -0.014 A 
ATOM     70  C   UNL     1       1.973 -11.277   0.092  1.00  0.00     0.009 A 
ATOM     71  C   UNL     1       4.315 -11.584   0.548  1.00  0.00     0.009 A 
ATOM     72  C   UNL     1       1.803 -12.661   0.002  1.00  0.00     0.001 A 
ATOM     73  C   UNL     1       4.153 -12.968   0.430  1.00  0.00     0.001 A 
ATOM     74  C   UNL     1       2.895 -13.506   0.169  1.00  0.00     0.000 A 
ENDBRANCH  55  69
BRANCH  56  75
ATOM     75  C   UNL     1      -1.128  -6.029  -5.052  1.00  0.00    -0.014 A 
ATOM     76  C   UNL     1      -2.501  -6.037  -4.757  1.00  0.00     0.009 A 
ATOM     77  C   UNL     1      -0.745  -6.190  -6.395  1.00  0.00     0.009 A 
ATOM     78  C   UNL     1      -3.456  -6.205  -5.766  1.00  0.00     0.001 A 
ATOM     79  C   UNL     1      -1.699  -6.370  -7.403  1.00  0.00     0.001 A 
ATOM     80  C   UNL     1      -3.054  -6.382  -7.087  1.00  0.00     0.000 A 
ENDBRANCH  56  75
BRANCH  68  81
ATOM     81  C   UNL     1       4.816  -5.178  -3.330  1.00  0.00    -0.014 A 
ATOM     82  C   UNL     1       6.116  -4.887  -3.773  1.00  0.00     0.009 A 
ATOM     83  C   UNL     1       3.987  -4.105  -2.959  1.00  0.00     0.009 A 
ATOM     84  C   UNL     1       6.564  -3.565  -3.860  1.00  0.00     0.001 A 
ATOM     85  C   UNL     1       4.424  -2.782  -3.074  1.00  0.00     0.001 A 
ATOM     86  C   UNL     1       5.714  -2.513  -3.522  1.00  0.00     0.000 A 
ENDBRANCH  68  81
ENDBRANCH  42  43
ENDBRANCH  35  37
ENDBRANCH  34  35
ENDBRANCH  33  34
ENDBRANCH   1  33
TORSDOF 16
