REMARK SMILES Cc1nc(CC(=O)N2[C@@H](C(=O)OCCOC(=O)c3ccc(-c4c5nc(c(-c6ccccc6)c6ccc([nH]6)c(-c6ccccc6)c6nc(c(-c7ccccc7)c7ccc4[nH]7)C=C6)C=C5)cc3)C[C@@H]3CCCC[C@H]32)cs1
REMARK SMILES IDX 13 1 12 2 10 3 11 4 9 5 8 6 72 7 66 8 67 9 71 10 68 11 70 12
REMARK SMILES IDX 69 13 6 14 7 15 5 16 4 17 1 18 2 19 3 20 74 21 73 22 14 23
REMARK SMILES IDX 15 24 16 25 17 26 18 27 19 28 65 29 20 30 64 31 21 32 22 33
REMARK SMILES IDX 23 34 58 35 24 36 63 37 57 38 59 39 25 40 62 41 56 42 55 43
REMARK SMILES IDX 26 45 48 46 33 47 47 48 34 49 37 50 46 51 60 52 35 53 36 54
REMARK SMILES IDX 45 56 61 57 38 58 27 59 28 60 32 61 29 62 31 63 30 64 49 65
REMARK SMILES IDX 50 66 54 67 51 68 53 69 52 70 39 71 40 72 44 73 41 74 43 75
REMARK SMILES IDX 42 76
REMARK H PARENT 59 44 37 55
REMARK Flexibility Score: inf
ROOT
ATOM      1  C   UNL     1       2.755  -6.309  -1.748  1.00  0.00     0.274 C 
ENDROOT
BRANCH   1   2
ATOM      2  O   UNL     1       2.351  -4.963  -2.073  1.00  0.00    -0.461 OA
BRANCH   2   3
ATOM      3  C   UNL     1       3.250  -4.240  -2.797  1.00  0.00     0.329 C 
ATOM      4  O   UNL     1       4.305  -4.689  -3.234  1.00  0.00    -0.250 OA
BRANCH   3   5
ATOM      5  C   UNL     1       2.744  -2.837  -3.153  1.00  0.00     0.195 C 
ATOM      6  N   UNL     1       1.863  -2.222  -2.149  1.00  0.00    -0.325 N 
ATOM      7  C   UNL     1       0.810  -1.503  -2.858  1.00  0.00     0.089 C 
ATOM      8  C   UNL     1       1.915  -2.842  -4.455  1.00  0.00     0.043 C 
ATOM      9  C   UNL     1       0.517  -2.457  -4.006  1.00  0.00     0.014 C 
ATOM     10  C   UNL     1      -0.486  -1.107  -2.179  1.00  0.00     0.025 C 
ATOM     11  C   UNL     1      -0.383  -1.837  -5.060  1.00  0.00     0.006 C 
ATOM     12  C   UNL     1      -1.484  -0.526  -3.192  1.00  0.00     0.002 C 
ATOM     13  C   UNL     1      -1.704  -1.424  -4.410  1.00  0.00     0.000 C 
BRANCH   6  14
ATOM     14  C   UNL     1       2.459  -1.787  -0.976  1.00  0.00     0.229 C 
ATOM     15  O   UNL     1       3.629  -1.402  -0.943  1.00  0.00    -0.274 OA
BRANCH  14  16
ATOM     16  C   UNL     1       1.676  -2.026   0.300  1.00  0.00     0.157 C 
BRANCH  16  17
ATOM     17  C   UNL     1       0.945  -0.823   0.769  1.00  0.00     0.061 A 
ATOM     18  C   UNL     1      -2.415   0.501   1.205  1.00  0.00     0.079 C 
ATOM     19  C   UNL     1      -0.952   0.241   1.188  1.00  0.00     0.090 A 
ATOM     20  N   UNL     1      -0.426  -0.937   0.941  1.00  0.00    -0.246 NA
ATOM     21  S   UNL     1       0.175   1.518   1.398  1.00  0.00    -0.127 S 
ATOM     22  C   UNL     1       1.455   0.434   1.033  1.00  0.00     0.091 A 
ENDBRANCH  16  17
ENDBRANCH  14  16
ENDBRANCH   6  14
ENDBRANCH   3   5
ENDBRANCH   2   3
ENDBRANCH   1   2
BRANCH   1  23
ATOM     23  C   UNL     1       2.282  -7.328  -2.787  1.00  0.00     0.275 C 
BRANCH  23  24
ATOM     24  O   UNL     1       2.984  -7.161  -4.034  1.00  0.00    -0.458 OA
BRANCH  24  25
ATOM     25  C   UNL     1       2.234  -6.748  -5.078  1.00  0.00     0.338 C 
ATOM     26  O   UNL     1       1.031  -6.547  -5.097  1.00  0.00    -0.246 OA
BRANCH  25  27
ATOM     27  C   UNL     1       3.088  -6.468  -6.243  1.00  0.00     0.060 A 
ATOM     28  C   UNL     1       3.675  -5.209  -6.347  1.00  0.00     0.016 A 
ATOM     29  C   UNL     1       3.152  -7.359  -7.313  1.00  0.00     0.016 A 
ATOM     30  C   UNL     1       4.229  -4.786  -7.543  1.00  0.00     0.010 A 
ATOM     31  C   UNL     1       3.801  -6.968  -8.492  1.00  0.00     0.010 A 
ATOM     32  C   UNL     1       4.310  -5.664  -8.628  1.00  0.00    -0.014 A 
BRANCH  32  33
ATOM     33  C   UNL     1       4.896  -5.169  -9.896  1.00  0.00     0.031 A 
ATOM     34  C   UNL     1       4.044  -5.038 -11.126  1.00  0.00     0.074 A 
ATOM     35  C   UNL     1       6.177  -4.752  -9.916  1.00  0.00     0.049 A 
ATOM     36  N   UNL     1       4.391  -4.668 -12.332  1.00  0.00    -0.248 NA
ATOM     37  C   UNL     1       2.616  -5.367 -10.985  1.00  0.00     0.031 C 
ATOM     38  C   UNL     1       7.089  -4.763  -8.768  1.00  0.00     0.029 A 
ATOM     39  N   UNL     1       6.923  -4.206 -10.928  1.00  0.00    -0.354 N 
ATOM     40  C   UNL     1       3.240  -4.763 -13.102  1.00  0.00     0.074 A 
ATOM     41  C   UNL     1       2.182  -5.225 -12.229  1.00  0.00     0.031 C 
ATOM     42  C   UNL     1       8.253  -4.201  -9.128  1.00  0.00     0.029 A 
ATOM     43  C   UNL     1       8.195  -3.860 -10.544  1.00  0.00     0.049 A 
ATOM     44  H   UNL     1       6.580  -4.074 -11.841  1.00  0.00     0.167 HD
ATOM     45  C   UNL     1       3.080  -4.494 -14.420  1.00  0.00     0.031 A 
ATOM     46  C   UNL     1       9.214  -3.347 -11.257  1.00  0.00     0.031 A 
ATOM     47  C   UNL     1       4.125  -4.009 -15.281  1.00  0.00     0.049 A 
ATOM     48  C   UNL     1       9.021  -3.086 -12.720  1.00  0.00     0.074 A 
ATOM     49  C   UNL     1       4.067  -3.724 -16.634  1.00  0.00     0.029 A 
ATOM     50  N   UNL     1       5.416  -3.723 -14.866  1.00  0.00    -0.354 N 
ATOM     51  N   UNL     1       7.943  -3.243 -13.449  1.00  0.00    -0.248 NA
ATOM     52  C   UNL     1      10.189  -2.592 -13.462  1.00  0.00     0.031 C 
ATOM     53  C   UNL     1       5.335  -3.292 -17.044  1.00  0.00     0.029 A 
ATOM     54  C   UNL     1       6.168  -3.273 -15.937  1.00  0.00     0.049 A 
ATOM     55  H   UNL     1       5.748  -3.824 -13.944  1.00  0.00     0.167 HD
ATOM     56  C   UNL     1       8.300  -2.867 -14.735  1.00  0.00     0.074 A 
ATOM     57  C   UNL     1       9.688  -2.451 -14.682  1.00  0.00     0.031 C 
ATOM     58  C   UNL     1       7.548  -2.873 -15.862  1.00  0.00     0.031 A 
BRANCH  45  59
ATOM     59  C   UNL     1       1.730  -4.774 -15.015  1.00  0.00    -0.014 A 
ATOM     60  C   UNL     1       0.638  -3.923 -14.788  1.00  0.00     0.009 A 
ATOM     61  C   UNL     1       1.555  -5.908 -15.823  1.00  0.00     0.009 A 
ATOM     62  C   UNL     1      -0.613  -4.222 -15.333  1.00  0.00     0.001 A 
ATOM     63  C   UNL     1       0.309  -6.193 -16.383  1.00  0.00     0.001 A 
ATOM     64  C   UNL     1      -0.776  -5.355 -16.131  1.00  0.00     0.000 A 
ENDBRANCH  45  59
BRANCH  46  65
ATOM     65  C   UNL     1      10.516  -3.088 -10.594  1.00  0.00    -0.014 A 
ATOM     66  C   UNL     1      10.936  -1.776 -10.332  1.00  0.00     0.009 A 
ATOM     67  C   UNL     1      11.331  -4.158 -10.190  1.00  0.00     0.009 A 
ATOM     68  C   UNL     1      12.152  -1.542  -9.684  1.00  0.00     0.001 A 
ATOM     69  C   UNL     1      12.532  -3.921  -9.521  1.00  0.00     0.001 A 
ATOM     70  C   UNL     1      12.944  -2.613  -9.274  1.00  0.00     0.000 A 
ENDBRANCH  46  65
BRANCH  58  71
ATOM     71  C   UNL     1       8.214  -2.402 -17.120  1.00  0.00    -0.014 A 
ATOM     72  C   UNL     1       9.113  -3.228 -17.812  1.00  0.00     0.009 A 
ATOM     73  C   UNL     1       7.919  -1.129 -17.631  1.00  0.00     0.009 A 
ATOM     74  C   UNL     1       9.728  -2.774 -18.980  1.00  0.00     0.001 A 
ATOM     75  C   UNL     1       8.521  -0.686 -18.809  1.00  0.00     0.001 A 
ATOM     76  C   UNL     1       9.429  -1.505 -19.478  1.00  0.00     0.000 A 
ENDBRANCH  58  71
ENDBRANCH  32  33
ENDBRANCH  25  27
ENDBRANCH  24  25
ENDBRANCH  23  24
ENDBRANCH   1  23
TORSDOF 14
