REMARK SMILES Cc1ccc(-c2c(C(=O)OCCOC(=O)c3ccc(-c4c5nc(c(-c6ccccc6)c6ccc([nH]6)c(-c6ccccc6)c6nc(c(-c7ccccc7)c7ccc4[nH]7)C=C6)C=C5)cc3)nnn2Cc2c(F)cccc2Cl)cc1
REMARK SMILES IDX 11 1 10 2 8 3 9 4 7 5 6 6 66 7 64 8 65 9 5 10 1 11 2 12 3 13
REMARK SMILES IDX 77 14 4 15 76 16 67 17 68 18 69 19 74 20 70 21 71 22 73 23
REMARK SMILES IDX 75 24 72 25 12 26 13 27 14 28 15 29 16 30 17 31 63 32 18 33
REMARK SMILES IDX 62 34 19 35 20 36 21 37 56 38 22 39 61 40 55 41 57 42 23 43
REMARK SMILES IDX 60 44 54 45 53 46 24 48 46 49 31 50 45 51 32 52 35 53 44 54
REMARK SMILES IDX 58 55 33 56 34 57 43 59 59 60 36 61 25 62 26 63 30 64 27 65
REMARK SMILES IDX 29 66 28 67 47 68 48 69 52 70 49 71 51 72 50 73 37 74 38 75
REMARK SMILES IDX 42 76 39 77 41 78 40 79
REMARK H PARENT 57 47 35 58
REMARK Flexibility Score: inf
ROOT
ATOM      1  C   UNL     1      -2.447   0.515   4.583  1.00  0.00     0.275 C 
ENDROOT
BRANCH   1   2
ATOM      2  O   UNL     1      -3.003   0.982   3.356  1.00  0.00    -0.457 OA
BRANCH   2   3
ATOM      3  C   UNL     1      -2.472   0.398   2.245  1.00  0.00     0.361 C 
ATOM      4  O   UNL     1      -1.533  -0.396   2.274  1.00  0.00    -0.244 OA
BRANCH   3   5
ATOM      5  C   UNL     1      -3.135   0.811   1.025  1.00  0.00     0.198 A 
ATOM      6  C   UNL     1      -2.546   0.944  -0.225  1.00  0.00     0.104 A 
ATOM      7  N   UNL     1      -3.610   1.202  -1.051  1.00  0.00    -0.239 N 
ATOM      8  N   UNL     1      -4.465   1.125   0.937  1.00  0.00    -0.122 NA
ATOM      9  N   UNL     1      -4.745   1.366  -0.335  1.00  0.00    -0.066 NA
BRANCH   6  10
ATOM     10  C   UNL     1      -1.132   0.836  -0.541  1.00  0.00     0.002 A 
ATOM     11  C   UNL     1       3.117   0.316  -0.126  1.00  0.00     0.044 C 
ATOM     12  C   UNL     1       1.654   0.524  -0.379  1.00  0.00    -0.051 A 
ATOM     13  C   UNL     1       0.830  -0.583  -0.603  1.00  0.00     0.004 A 
ATOM     14  C   UNL     1       1.079   1.797  -0.302  1.00  0.00     0.004 A 
ATOM     15  C   UNL     1      -0.552  -0.427  -0.688  1.00  0.00     0.011 A 
ATOM     16  C   UNL     1      -0.308   1.954  -0.385  1.00  0.00     0.011 A 
ENDBRANCH   6  10
BRANCH   7  17
ATOM     17  C   UNL     1      -3.688   1.361  -2.496  1.00  0.00     0.187 C 
BRANCH  17  18
ATOM     18  C   UNL     1      -2.878   0.377  -3.298  1.00  0.00     0.028 A 
ATOM     19  C   UNL     1      -2.039   0.885  -4.298  1.00  0.00     0.129 A 
ATOM     20  C   UNL     1      -2.937  -1.017  -3.152  1.00  0.00     0.049 A 
ATOM     21  F   UNL     1      -2.004   2.206  -4.529  1.00  0.00    -0.207 F 
ATOM     22  C   UNL     1      -1.238   0.060  -5.083  1.00  0.00     0.040 A 
ATOM     23  C   UNL     1      -2.111  -1.852  -3.917  1.00  0.00     0.021 A 
ATOM     24  Cl  UNL     1      -4.016  -1.788  -2.045  1.00  0.00    -0.084 Cl
ATOM     25  C   UNL     1      -1.257  -1.314  -4.878  1.00  0.00     0.005 A 
ENDBRANCH  17  18
ENDBRANCH   7  17
ENDBRANCH   3   5
ENDBRANCH   2   3
ENDBRANCH   1   2
BRANCH   1  26
ATOM     26  C   UNL     1      -3.464   0.633   5.719  1.00  0.00     0.275 C 
BRANCH  26  27
ATOM     27  O   UNL     1      -4.887   0.647   5.380  1.00  0.00    -0.458 OA
BRANCH  27  28
ATOM     28  C   UNL     1      -5.619  -0.107   4.518  1.00  0.00     0.338 C 
ATOM     29  O   UNL     1      -6.779   0.172   4.242  1.00  0.00    -0.246 OA
BRANCH  28  30
ATOM     30  C   UNL     1      -4.990  -1.294   3.916  1.00  0.00     0.060 A 
ATOM     31  C   UNL     1      -5.237  -1.645   2.576  1.00  0.00     0.016 A 
ATOM     32  C   UNL     1      -4.123  -2.048   4.689  1.00  0.00     0.016 A 
ATOM     33  C   UNL     1      -4.553  -2.721   2.001  1.00  0.00     0.010 A 
ATOM     34  C   UNL     1      -3.312  -2.967   4.074  1.00  0.00     0.010 A 
ATOM     35  C   UNL     1      -3.579  -3.372   2.760  1.00  0.00    -0.014 A 
BRANCH  35  36
ATOM     36  C   UNL     1      -2.953  -4.645   2.411  1.00  0.00     0.031 A 
ATOM     37  C   UNL     1      -2.028  -4.832   1.290  1.00  0.00     0.074 A 
ATOM     38  C   UNL     1      -3.246  -5.661   3.252  1.00  0.00     0.049 A 
ATOM     39  N   UNL     1      -1.920  -5.925   0.610  1.00  0.00    -0.248 NA
ATOM     40  C   UNL     1      -1.125  -3.780   0.848  1.00  0.00     0.031 C 
ATOM     41  C   UNL     1      -2.685  -6.993   3.369  1.00  0.00     0.029 A 
ATOM     42  N   UNL     1      -4.325  -5.674   4.130  1.00  0.00    -0.354 N 
ATOM     43  C   UNL     1      -0.743  -5.835  -0.101  1.00  0.00     0.074 A 
ATOM     44  C   UNL     1      -0.368  -4.440  -0.037  1.00  0.00     0.031 C 
ATOM     45  C   UNL     1      -3.563  -7.761   4.047  1.00  0.00     0.029 A 
ATOM     46  C   UNL     1      -4.781  -6.976   4.237  1.00  0.00     0.049 A 
ATOM     47  H   UNL     1      -4.699  -4.892   4.595  1.00  0.00     0.167 HD
ATOM     48  C   UNL     1      -0.090  -6.973  -0.480  1.00  0.00     0.031 A 
ATOM     49  C   UNL     1      -6.012  -7.253   3.712  1.00  0.00     0.031 A 
ATOM     50  C   UNL     1      -0.800  -8.168  -0.018  1.00  0.00     0.049 A 
ATOM     51  C   UNL     1      -5.906  -8.222   2.561  1.00  0.00     0.074 A 
ATOM     52  C   UNL     1      -0.588  -8.998   1.071  1.00  0.00     0.029 A 
ATOM     53  N   UNL     1      -2.081  -8.446  -0.482  1.00  0.00    -0.354 N 
ATOM     54  N   UNL     1      -4.851  -8.348   1.804  1.00  0.00    -0.248 NA
ATOM     55  C   UNL     1      -6.978  -9.136   2.195  1.00  0.00     0.031 C 
ATOM     56  C   UNL     1      -1.787  -9.714   1.317  1.00  0.00     0.029 A 
ATOM     57  C   UNL     1      -2.713  -9.347   0.355  1.00  0.00     0.049 A 
ATOM     58  H   UNL     1      -2.482  -8.057  -1.293  1.00  0.00     0.167 HD
ATOM     59  C   UNL     1      -5.044  -9.381   0.929  1.00  0.00     0.074 A 
ATOM     60  C   UNL     1      -6.400  -9.830   1.199  1.00  0.00     0.031 C 
ATOM     61  C   UNL     1      -4.068  -9.801   0.072  1.00  0.00     0.031 A 
BRANCH  48  62
ATOM     62  C   UNL     1       1.359  -6.997  -0.927  1.00  0.00    -0.014 A 
ATOM     63  C   UNL     1       2.149  -8.138  -0.678  1.00  0.00     0.009 A 
ATOM     64  C   UNL     1       2.016  -5.927  -1.557  1.00  0.00     0.009 A 
ATOM     65  C   UNL     1       3.528  -8.166  -0.931  1.00  0.00     0.001 A 
ATOM     66  C   UNL     1       3.403  -5.934  -1.783  1.00  0.00     0.001 A 
ATOM     67  C   UNL     1       4.162  -7.049  -1.455  1.00  0.00     0.000 A 
ENDBRANCH  48  62
BRANCH  49  68
ATOM     68  C   UNL     1      -6.993  -6.112   3.773  1.00  0.00    -0.014 A 
ATOM     69  C   UNL     1      -7.278  -5.521   5.027  1.00  0.00     0.009 A 
ATOM     70  C   UNL     1      -7.412  -5.427   2.623  1.00  0.00     0.009 A 
ATOM     71  C   UNL     1      -7.870  -4.255   5.122  1.00  0.00     0.001 A 
ATOM     72  C   UNL     1      -8.028  -4.168   2.723  1.00  0.00     0.001 A 
ATOM     73  C   UNL     1      -8.231  -3.571   3.967  1.00  0.00     0.000 A 
ENDBRANCH  49  68
BRANCH  61  74
ATOM     74  C   UNL     1      -4.261 -10.764  -1.069  1.00  0.00    -0.014 A 
ATOM     75  C   UNL     1      -5.496 -11.034  -1.669  1.00  0.00     0.009 A 
ATOM     76  C   UNL     1      -3.121 -11.336  -1.678  1.00  0.00     0.009 A 
ATOM     77  C   UNL     1      -5.594 -11.871  -2.787  1.00  0.00     0.001 A 
ATOM     78  C   UNL     1      -3.208 -12.128  -2.824  1.00  0.00     0.001 A 
ATOM     79  C   UNL     1      -4.451 -12.407  -3.371  1.00  0.00     0.000 A 
ENDBRANCH  61  74
ENDBRANCH  35  36
ENDBRANCH  28  30
ENDBRANCH  27  28
ENDBRANCH  26  27
ENDBRANCH   1  26
TORSDOF 14
