REMARK SMILES O=C(N[C@@H](Cc1ccc(O)cc1)C(=O)N[C@@H](Cc1c[nH]c2ccccc12)C(=O)N[C@@H](CO)C(=O)OCCOC(=O)c1ccc(-c2c3nc(c(-c4ccccc4)c4ccc([nH]4)c(-c4ccccc4)c4nc(c(-c5ccccc5)c5ccc2[nH]5)C=C4)C=C3)cc1)c1ccc(F)cc1
REMARK SMILES IDX 33 1 34 2 30 3 29 4 27 5 28 6 16 8 15 9 13 10 14 11 4 13
REMARK SMILES IDX 3 14 1 15 2 16 89 18 90 19 95 20 91 21 94 22 92 23 93 24
REMARK SMILES IDX 5 25 6 26 7 27 12 28 8 29 11 30 9 31 10 32 17 34 18 35 19 36
REMARK SMILES IDX 26 37 20 38 21 39 25 40 22 42 24 43 23 44 31 45 32 46 35 48
REMARK SMILES IDX 36 49 37 50 38 51 39 52 40 53 41 54 42 55 88 56 43 57 87 58
REMARK SMILES IDX 44 59 45 60 46 61 81 62 47 63 86 64 80 65 82 66 48 67 85 68
REMARK SMILES IDX 79 69 78 70 49 72 71 73 56 74 70 75 57 76 60 77 69 78 83 79
REMARK SMILES IDX 58 80 59 81 68 83 84 84 61 85 50 86 51 87 55 88 52 89 54 90
REMARK SMILES IDX 53 91 72 92 73 93 77 94 74 95 76 96 75 97 62 98 63 99 67 100
REMARK SMILES IDX 64 101 66 102 65 103
REMARK H PARENT 29 7 15 12 3 17 10 33 20 41 32 47 82 71 60 82
REMARK Flexibility Score: inf
ROOT
ATOM      1  C   UNL     1       5.421  -5.168   7.493  1.00  0.00     0.331 C 
ATOM      2  O   UNL     1       5.608  -6.281   7.977  1.00  0.00    -0.250 OA
ENDROOT
BRANCH   1   3
ATOM      3  C   UNL     1       6.137  -4.666   6.210  1.00  0.00     0.218 C 
BRANCH   3   4
ATOM      4  N   UNL     1       5.746  -3.308   5.761  1.00  0.00    -0.339 N 
ATOM      5  C   UNL     1       6.032  -2.923   4.476  1.00  0.00     0.243 C 
ATOM      6  O   UNL     1       7.211  -2.658   4.214  1.00  0.00    -0.273 OA
ATOM      7  H   UNL     1       5.288  -2.691   6.377  1.00  0.00     0.164 HD
BRANCH   5   8
ATOM      8  C   UNL     1       4.875  -2.571   3.471  1.00  0.00     0.175 C 
BRANCH   8   9
ATOM      9  N   UNL     1       5.580  -2.224   2.217  1.00  0.00    -0.342 N 
ATOM     10  C   UNL     1       5.633  -1.141   1.411  1.00  0.00     0.243 C 
ATOM     11  O   UNL     1       6.526  -1.171   0.551  1.00  0.00    -0.273 OA
ATOM     12  H   UNL     1       6.148  -2.960   1.892  1.00  0.00     0.164 HD
BRANCH  10  13
ATOM     13  C   UNL     1       4.705   0.095   1.470  1.00  0.00     0.176 C 
BRANCH  13  14
ATOM     14  N   UNL     1       3.274  -0.194   1.360  1.00  0.00    -0.340 N 
ATOM     15  O   UNL     1       1.242  -0.089   0.384  1.00  0.00    -0.269 OA
ATOM     16  C   UNL     1       2.462  -0.005   0.260  1.00  0.00     0.251 C 
ATOM     17  H   UNL     1       2.842  -0.566   2.162  1.00  0.00     0.164 HD
BRANCH  16  18
ATOM     18  C   UNL     1       3.042   0.366  -1.058  1.00  0.00     0.040 A 
ATOM     19  C   UNL     1       4.025  -0.425  -1.669  1.00  0.00     0.017 A 
ATOM     20  C   UNL     1       2.592   1.532  -1.693  1.00  0.00     0.017 A 
ATOM     21  C   UNL     1       4.610  -0.008  -2.869  1.00  0.00     0.040 A 
ATOM     22  C   UNL     1       3.172   1.939  -2.898  1.00  0.00     0.040 A 
ATOM     23  C   UNL     1       4.185   1.173  -3.467  1.00  0.00     0.123 A 
ATOM     24  F   UNL     1       4.759   1.579  -4.607  1.00  0.00    -0.207 F 
ENDBRANCH  16  18
ENDBRANCH  13  14
BRANCH  13  25
ATOM     25  C   UNL     1       5.072   1.216   2.466  1.00  0.00     0.070 C 
BRANCH  25  26
ATOM     26  C   UNL     1       4.498   1.186   3.861  1.00  0.00    -0.045 A 
ATOM     27  C   UNL     1       3.346   1.923   4.185  1.00  0.00     0.007 A 
ATOM     28  C   UNL     1       5.146   0.475   4.876  1.00  0.00     0.007 A 
ATOM     29  C   UNL     1       2.823   1.896   5.482  1.00  0.00     0.046 A 
ATOM     30  C   UNL     1       4.596   0.405   6.157  1.00  0.00     0.046 A 
ATOM     31  C   UNL     1       3.437   1.110   6.449  1.00  0.00     0.115 A 
BRANCH  31  32
ATOM     32  O   UNL     1       2.938   1.006   7.713  1.00  0.00    -0.508 OA
ATOM     33  H   UNL     1       2.157   1.468   7.947  1.00  0.00     0.293 HD
ENDBRANCH  31  32
ENDBRANCH  25  26
ENDBRANCH  13  25
ENDBRANCH  10  13
ENDBRANCH   8   9
BRANCH   8  34
ATOM     34  C   UNL     1       3.706  -3.517   3.135  1.00  0.00     0.072 C 
BRANCH  34  35
ATOM     35  C   UNL     1       3.509  -4.850   3.796  1.00  0.00    -0.020 A 
ATOM     36  C   UNL     1       3.367  -5.063   5.146  1.00  0.00     0.087 A 
ATOM     37  C   UNL     1       3.095  -6.093   3.199  1.00  0.00     0.003 A 
ATOM     38  N   UNL     1       3.154  -6.382   5.404  1.00  0.00    -0.361 N 
ATOM     39  C   UNL     1       2.896  -7.024   4.225  1.00  0.00     0.046 A 
ATOM     40  C   UNL     1       2.785  -6.495   1.887  1.00  0.00     0.010 A 
ATOM     41  H   UNL     1       3.181  -6.804   6.293  1.00  0.00     0.166 HD
ATOM     42  C   UNL     1       2.451  -8.331   4.016  1.00  0.00     0.026 A 
ATOM     43  C   UNL     1       2.295  -7.789   1.661  1.00  0.00     0.001 A 
ATOM     44  C   UNL     1       2.134  -8.692   2.709  1.00  0.00     0.002 A 
ENDBRANCH  34  35
ENDBRANCH   8  34
ENDBRANCH   5   8
ENDBRANCH   3   4
BRANCH   3  45
ATOM     45  C   UNL     1       7.651  -4.860   6.322  1.00  0.00     0.193 C 
BRANCH  45  46
ATOM     46  O   UNL     1       8.206  -3.920   7.236  1.00  0.00    -0.394 OA
ATOM     47  H   UNL     1       8.031  -3.020   6.920  1.00  0.00     0.210 HD
ENDBRANCH  45  46
ENDBRANCH   3  45
ENDBRANCH   1   3
BRANCH   1  48
ATOM     48  O   UNL     1       4.428  -4.317   7.920  1.00  0.00    -0.460 OA
BRANCH  48  49
ATOM     49  C   UNL     1       3.429  -4.911   8.786  1.00  0.00     0.274 C 
BRANCH  49  50
ATOM     50  C   UNL     1       2.100  -4.121   8.755  1.00  0.00     0.275 C 
BRANCH  50  51
ATOM     51  O   UNL     1       1.415  -4.248   7.483  1.00  0.00    -0.458 OA
BRANCH  51  52
ATOM     52  C   UNL     1       0.263  -3.514   7.364  1.00  0.00     0.338 C 
ATOM     53  O   UNL     1      -0.244  -2.838   8.240  1.00  0.00    -0.246 OA
BRANCH  52  54
ATOM     54  C   UNL     1      -0.316  -3.631   5.990  1.00  0.00     0.060 A 
ATOM     55  C   UNL     1       0.533  -3.589   4.893  1.00  0.00     0.016 A 
ATOM     56  C   UNL     1      -1.692  -3.676   5.752  1.00  0.00     0.016 A 
ATOM     57  C   UNL     1       0.060  -3.691   3.583  1.00  0.00     0.010 A 
ATOM     58  C   UNL     1      -2.185  -3.740   4.427  1.00  0.00     0.010 A 
ATOM     59  C   UNL     1      -1.307  -3.760   3.329  1.00  0.00    -0.014 A 
BRANCH  59  60
ATOM     60  C   UNL     1      -1.764  -3.705   1.912  1.00  0.00     0.031 A 
ATOM     61  C   UNL     1      -2.201  -2.389   1.329  1.00  0.00     0.074 A 
ATOM     62  C   UNL     1      -1.632  -4.762   1.087  1.00  0.00     0.049 A 
ATOM     63  N   UNL     1      -2.739  -2.133   0.164  1.00  0.00    -0.248 NA
ATOM     64  C   UNL     1      -1.984  -1.204   2.171  1.00  0.00     0.031 C 
ATOM     65  C   UNL     1      -1.036  -6.045   1.451  1.00  0.00     0.029 A 
ATOM     66  N   UNL     1      -1.950  -4.909  -0.244  1.00  0.00    -0.354 N 
ATOM     67  C   UNL     1      -2.963  -0.762   0.149  1.00  0.00     0.074 A 
ATOM     68  C   UNL     1      -2.480  -0.240   1.409  1.00  0.00     0.031 C 
ATOM     69  C   UNL     1      -0.994  -6.832   0.361  1.00  0.00     0.029 A 
ATOM     70  C   UNL     1      -1.628  -6.142  -0.760  1.00  0.00     0.049 A 
ATOM     71  H   UNL     1      -2.369  -4.195  -0.778  1.00  0.00     0.167 HD
ATOM     72  C   UNL     1      -3.553  -0.012  -0.814  1.00  0.00     0.031 A 
ATOM     73  C   UNL     1      -1.849  -6.669  -1.983  1.00  0.00     0.031 A 
ATOM     74  C   UNL     1      -4.032  -0.534  -2.066  1.00  0.00     0.049 A 
ATOM     75  C   UNL     1      -2.619  -5.859  -2.995  1.00  0.00     0.074 A 
ATOM     76  C   UNL     1      -4.767   0.103  -3.051  1.00  0.00     0.029 A 
ATOM     77  N   UNL     1      -3.802  -1.826  -2.512  1.00  0.00    -0.354 N 
ATOM     78  N   UNL     1      -3.003  -4.607  -2.935  1.00  0.00    -0.248 NA
ATOM     79  C   UNL     1      -3.029  -6.553  -4.227  1.00  0.00     0.031 C 
ATOM     80  C   UNL     1      -5.026  -0.823  -4.070  1.00  0.00     0.029 A 
ATOM     81  C   UNL     1      -4.401  -2.016  -3.746  1.00  0.00     0.049 A 
ATOM     82  H   UNL     1      -3.288  -2.509  -2.023  1.00  0.00     0.167 HD
ATOM     83  C   UNL     1      -3.705  -4.366  -4.110  1.00  0.00     0.074 A 
ATOM     84  C   UNL     1      -3.657  -5.588  -4.885  1.00  0.00     0.031 C 
ATOM     85  C   UNL     1      -4.351  -3.240  -4.502  1.00  0.00     0.031 A 
BRANCH  72  86
ATOM     86  C   UNL     1      -3.829   1.426  -0.475  1.00  0.00    -0.014 A 
ATOM     87  C   UNL     1      -2.815   2.394  -0.438  1.00  0.00     0.009 A 
ATOM     88  C   UNL     1      -5.143   1.803  -0.151  1.00  0.00     0.009 A 
ATOM     89  C   UNL     1      -3.108   3.703  -0.043  1.00  0.00     0.001 A 
ATOM     90  C   UNL     1      -5.436   3.116   0.218  1.00  0.00     0.001 A 
ATOM     91  C   UNL     1      -4.416   4.062   0.284  1.00  0.00     0.000 A 
ENDBRANCH  72  86
BRANCH  73  92
ATOM     92  C   UNL     1      -1.423  -8.062  -2.305  1.00  0.00    -0.014 A 
ATOM     93  C   UNL     1      -0.502  -8.316  -3.335  1.00  0.00     0.009 A 
ATOM     94  C   UNL     1      -1.968  -9.156  -1.612  1.00  0.00     0.009 A 
ATOM     95  C   UNL     1      -0.151  -9.628  -3.670  1.00  0.00     0.001 A 
ATOM     96  C   UNL     1      -1.587 -10.463  -1.922  1.00  0.00     0.001 A 
ATOM     97  C   UNL     1      -0.686 -10.699  -2.958  1.00  0.00     0.000 A 
ENDBRANCH  73  92
BRANCH  85  98
ATOM     98  C   UNL     1      -5.052  -3.278  -5.830  1.00  0.00    -0.014 A 
ATOM     99  C   UNL     1      -6.249  -3.993  -5.997  1.00  0.00     0.009 A 
ATOM    100  C   UNL     1      -4.532  -2.558  -6.917  1.00  0.00     0.009 A 
ATOM    101  C   UNL     1      -6.894  -4.011  -7.235  1.00  0.00     0.001 A 
ATOM    102  C   UNL     1      -5.193  -2.558  -8.146  1.00  0.00     0.001 A 
ATOM    103  C   UNL     1      -6.369  -3.291  -8.307  1.00  0.00     0.000 A 
ENDBRANCH  85  98
ENDBRANCH  59  60
ENDBRANCH  52  54
ENDBRANCH  51  52
ENDBRANCH  50  51
ENDBRANCH  49  50
ENDBRANCH  48  49
ENDBRANCH   1  48
TORSDOF 24
