REMARK SMILES CC(=O)Nc1c(C)nn([C@H](C)C(=O)OCCOC(=O)c2ccc(-c3c4nc(c(-c5ccccc5)c5ccc([nH]5)c(-c5ccccc5)c5nc(c(-c6ccccc6)c6ccc3[nH]6)C=C5)C=C4)cc2)c1C
REMARK SMILES IDX 15 1 14 2 12 3 13 4 10 5 11 6 9 7 5 8 6 9 68 10 7 11 8 12
REMARK SMILES IDX 69 13 4 14 1 15 2 16 3 17 16 19 17 20 18 21 19 22 20 23
REMARK SMILES IDX 21 24 67 25 22 26 66 27 23 28 24 29 25 30 60 31 26 32 65 33
REMARK SMILES IDX 59 34 61 35 27 36 64 37 58 38 57 39 28 41 50 42 35 43 49 44
REMARK SMILES IDX 36 45 39 46 48 47 62 48 37 49 38 50 47 52 63 53 40 54 29 55
REMARK SMILES IDX 30 56 34 57 31 58 33 59 32 60 51 61 52 62 56 63 53 64 55 65
REMARK SMILES IDX 54 66 41 67 42 68 46 69 43 70 45 71 44 72
REMARK H PARENT 4 18 61 40 39 51
REMARK Flexibility Score: inf
ROOT
ATOM      1  C   UNL     1       3.995  -6.001   2.630  1.00  0.00     0.274 C 
ENDROOT
BRANCH   1   2
ATOM      2  O   UNL     1       4.191  -4.634   3.035  1.00  0.00    -0.460 OA
BRANCH   2   3
ATOM      3  C   UNL     1       4.631  -3.762   2.082  1.00  0.00     0.330 C 
ATOM      4  O   UNL     1       4.834  -4.052   0.905  1.00  0.00    -0.250 OA
BRANCH   3   5
ATOM      5  C   UNL     1       4.966  -2.413   2.659  1.00  0.00     0.214 C 
ATOM      6  C   UNL     1       3.730  -1.773   3.302  1.00  0.00     0.046 C 
BRANCH   5   7
ATOM      7  N   UNL     1       6.152  -2.520   3.506  1.00  0.00    -0.253 N 
ATOM      8  C   UNL     1       8.233  -2.720   4.192  1.00  0.00     0.085 A 
ATOM      9  C   UNL     1       7.433  -2.016   5.125  1.00  0.00     0.083 A 
ATOM     10  C   UNL     1       7.351  -3.152   3.222  1.00  0.00     0.060 A 
ATOM     11  C   UNL     1       7.817  -1.406   6.419  1.00  0.00     0.071 C 
ATOM     12  N   UNL     1       6.183  -1.863   4.682  1.00  0.00    -0.175 NA
ATOM     13  C   UNL     1       7.524  -4.178   2.155  1.00  0.00     0.069 C 
BRANCH   8  14
ATOM     14  N   UNL     1       9.571  -3.041   4.303  1.00  0.00    -0.323 N 
ATOM     15  C   UNL     1      10.244  -2.538   1.960  1.00  0.00     0.114 C 
ATOM     16  C   UNL     1      10.492  -3.189   3.302  1.00  0.00     0.221 C 
ATOM     17  O   UNL     1      11.553  -3.774   3.532  1.00  0.00    -0.275 OA
ATOM     18  H   UNL     1       9.905  -3.180   5.219  1.00  0.00     0.170 HD
ENDBRANCH   8  14
ENDBRANCH   5   7
ENDBRANCH   3   5
ENDBRANCH   2   3
ENDBRANCH   1   2
BRANCH   1  19
ATOM     19  C   UNL     1       2.601  -6.240   2.070  1.00  0.00     0.275 C 
BRANCH  19  20
ATOM     20  O   UNL     1       2.490  -5.692   0.760  1.00  0.00    -0.458 OA
BRANCH  20  21
ATOM     21  C   UNL     1       2.092  -4.402   0.701  1.00  0.00     0.338 C 
ATOM     22  O   UNL     1       1.864  -3.653   1.633  1.00  0.00    -0.246 OA
BRANCH  21  23
ATOM     23  C   UNL     1       1.865  -4.038  -0.699  1.00  0.00     0.060 A 
ATOM     24  C   UNL     1       1.582  -2.697  -0.985  1.00  0.00     0.016 A 
ATOM     25  C   UNL     1       1.663  -5.060  -1.633  1.00  0.00     0.016 A 
ATOM     26  C   UNL     1       0.893  -2.406  -2.141  1.00  0.00     0.010 A 
ATOM     27  C   UNL     1       0.949  -4.775  -2.765  1.00  0.00     0.010 A 
ATOM     28  C   UNL     1       0.504  -3.468  -2.959  1.00  0.00    -0.014 A 
BRANCH  28  29
ATOM     29  C   UNL     1      -0.393  -3.213  -4.060  1.00  0.00     0.031 A 
ATOM     30  C   UNL     1       0.266  -2.718  -5.282  1.00  0.00     0.074 A 
ATOM     31  C   UNL     1      -1.681  -3.600  -4.009  1.00  0.00     0.049 A 
ATOM     32  N   UNL     1       0.075  -1.590  -5.877  1.00  0.00    -0.248 NA
ATOM     33  C   UNL     1       1.357  -3.530  -5.845  1.00  0.00     0.031 C 
ATOM     34  C   UNL     1      -2.339  -4.386  -2.960  1.00  0.00     0.029 A 
ATOM     35  N   UNL     1      -2.638  -3.494  -4.967  1.00  0.00    -0.354 N 
ATOM     36  C   UNL     1       0.890  -1.627  -7.000  1.00  0.00     0.074 A 
ATOM     37  C   UNL     1       1.784  -2.743  -6.830  1.00  0.00     0.031 C 
ATOM     38  C   UNL     1      -3.499  -4.881  -3.444  1.00  0.00     0.029 A 
ATOM     39  C   UNL     1      -3.712  -4.352  -4.782  1.00  0.00     0.049 A 
ATOM     40  H   UNL     1      -2.575  -2.867  -5.723  1.00  0.00     0.167 HD
ATOM     41  C   UNL     1       0.589  -0.916  -8.118  1.00  0.00     0.031 A 
ATOM     42  C   UNL     1      -4.661  -4.662  -5.699  1.00  0.00     0.031 A 
ATOM     43  C   UNL     1      -0.376   0.120  -7.861  1.00  0.00     0.049 A 
ATOM     44  C   UNL     1      -4.616  -3.633  -6.765  1.00  0.00     0.074 A 
ATOM     45  C   UNL     1      -0.426   1.210  -7.015  1.00  0.00     0.029 A 
ATOM     46  N   UNL     1      -1.672  -0.114  -8.256  1.00  0.00    -0.354 N 
ATOM     47  N   UNL     1      -5.000  -2.402  -6.592  1.00  0.00    -0.248 NA
ATOM     48  C   UNL     1      -3.754  -3.856  -7.916  1.00  0.00     0.031 C 
ATOM     49  C   UNL     1      -1.784   1.286  -6.586  1.00  0.00     0.029 A 
ATOM     50  C   UNL     1      -2.496   0.272  -7.230  1.00  0.00     0.049 A 
ATOM     51  H   UNL     1      -1.957  -0.491  -9.120  1.00  0.00     0.167 HD
ATOM     52  C   UNL     1      -4.085  -1.644  -7.309  1.00  0.00     0.074 A 
ATOM     53  C   UNL     1      -3.434  -2.592  -8.209  1.00  0.00     0.031 C 
ATOM     54  C   UNL     1      -3.739  -0.388  -6.895  1.00  0.00     0.031 A 
BRANCH  41  55
ATOM     55  C   UNL     1       0.862  -1.444  -9.501  1.00  0.00    -0.014 A 
ATOM     56  C   UNL     1       0.665  -0.598 -10.602  1.00  0.00     0.009 A 
ATOM     57  C   UNL     1       1.049  -2.814  -9.775  1.00  0.00     0.009 A 
ATOM     58  C   UNL     1       0.612  -1.109 -11.905  1.00  0.00     0.001 A 
ATOM     59  C   UNL     1       1.045  -3.320 -11.075  1.00  0.00     0.001 A 
ATOM     60  C   UNL     1       0.801  -2.468 -12.140  1.00  0.00     0.000 A 
ENDBRANCH  41  55
BRANCH  42  61
ATOM     61  C   UNL     1      -5.450  -5.902  -5.835  1.00  0.00    -0.014 A 
ATOM     62  C   UNL     1      -6.613  -5.925  -6.620  1.00  0.00     0.009 A 
ATOM     63  C   UNL     1      -4.930  -7.134  -5.397  1.00  0.00     0.009 A 
ATOM     64  C   UNL     1      -7.209  -7.139  -6.985  1.00  0.00     0.001 A 
ATOM     65  C   UNL     1      -5.530  -8.345  -5.754  1.00  0.00     0.001 A 
ATOM     66  C   UNL     1      -6.660  -8.348  -6.563  1.00  0.00     0.000 A 
ENDBRANCH  42  61
BRANCH  54  67
ATOM     67  C   UNL     1      -4.567   0.235  -5.795  1.00  0.00    -0.014 A 
ATOM     68  C   UNL     1      -4.721  -0.352  -4.525  1.00  0.00     0.009 A 
ATOM     69  C   UNL     1      -5.111   1.511  -6.002  1.00  0.00     0.009 A 
ATOM     70  C   UNL     1      -5.440   0.292  -3.514  1.00  0.00     0.001 A 
ATOM     71  C   UNL     1      -5.808   2.167  -4.984  1.00  0.00     0.001 A 
ATOM     72  C   UNL     1      -5.981   1.554  -3.744  1.00  0.00     0.000 A 
ENDBRANCH  54  67
ENDBRANCH  28  29
ENDBRANCH  21  23
ENDBRANCH  20  21
ENDBRANCH  19  20
ENDBRANCH   1  19
TORSDOF 13
