REMARK SMILES Cc1nc[nH]c1C(=O)[NH+]1CCC2(CC1)C[C@@H](C(=O)OCCOC(=O)c1ccc(-c3c4nc(c(-c5ccccc5)c5ccc([nH]5)c(-c5ccccc5)c5nc(c(-c6ccccc6)c6ccc3[nH]6)C=C5)C=C4)cc1)N(C(=O)C1CC1)C2
REMARK SMILES IDX 20 1 19 2 17 3 18 4 16 5 9 6 10 7 14 8 11 10 13 11 12 12
REMARK SMILES IDX 15 13 79 14 73 15 7 16 8 17 6 18 1 19 2 20 3 21 4 22 5 23
REMARK SMILES IDX 74 25 75 26 76 27 77 28 78 29 21 30 22 31 23 32 24 33 25 34
REMARK SMILES IDX 26 35 72 36 27 37 71 38 28 39 29 40 30 41 65 42 31 43 70 44
REMARK SMILES IDX 64 45 66 46 32 47 69 48 63 49 62 50 33 52 55 53 40 54 54 55
REMARK SMILES IDX 41 56 44 57 53 58 67 59 42 60 43 61 52 63 68 64 45 65 34 66
REMARK SMILES IDX 35 67 39 68 36 69 38 70 37 71 56 72 57 73 61 74 58 75 60 76
REMARK SMILES IDX 59 77 46 78 47 79 51 80 48 81 50 82 49 83
REMARK H PARENT 9 9 5 24 66 51 44 62
REMARK Flexibility Score: inf
ROOT
ATOM      1  C   UNL     1       7.858  -1.759   2.250  1.00  0.00     0.274 C 
ENDROOT
BRANCH   1   2
ATOM      2  O   UNL     1       7.220  -2.482   1.178  1.00  0.00    -0.461 OA
BRANCH   2   3
ATOM      3  C   UNL     1       7.152  -1.832  -0.017  1.00  0.00     0.328 C 
ATOM      4  O   UNL     1       7.524  -0.677  -0.203  1.00  0.00    -0.250 OA
BRANCH   3   5
ATOM      5  C   UNL     1       6.507  -2.673  -1.130  1.00  0.00     0.195 C 
ATOM      6  N   UNL     1       1.301  -2.629  -0.109  1.00  0.00    -0.266 N 
ATOM      7  C   UNL     1       1.722  -3.639  -1.057  1.00  0.00     0.271 C 
ATOM      8  C   UNL     1       2.246  -2.338   0.960  1.00  0.00     0.271 C 
ATOM      9  H   UNL     1       1.421  -3.310  -0.810  1.00  0.00     0.357 HD
ATOM     10  C   UNL     1       2.951  -3.111  -1.771  1.00  0.00     0.071 C 
ATOM     11  C   UNL     1       3.635  -1.976   0.426  1.00  0.00     0.071 C 
ATOM     12  C   UNL     1       4.105  -2.815  -0.789  1.00  0.00     0.001 C 
ATOM     13  C   UNL     1       5.199  -2.055  -1.572  1.00  0.00     0.046 C 
ATOM     14  C   UNL     1       4.784  -4.134  -0.345  1.00  0.00     0.128 C 
ATOM     15  N   UNL     1       6.155  -4.046  -0.800  1.00  0.00    -0.328 N 
BRANCH   6  16
ATOM     16  C   UNL     1      -0.042  -2.291  -0.082  1.00  0.00     0.362 C 
ATOM     17  O   UNL     1      -0.903  -3.132  -0.344  1.00  0.00    -0.224 OA
BRANCH  16  18
ATOM     18  C   UNL     1      -0.421  -0.920   0.161  1.00  0.00     0.167 A 
ATOM     19  C   UNL     1       1.566   0.691  -0.376  1.00  0.00     0.069 C 
ATOM     20  C   UNL     1       0.198   0.318   0.041  1.00  0.00     0.072 A 
ATOM     21  N   UNL     1      -0.697   1.336   0.295  1.00  0.00    -0.241 NA
ATOM     22  C   UNL     1      -1.852   0.753   0.496  1.00  0.00     0.197 A 
ATOM     23  N   UNL     1      -1.736  -0.599   0.433  1.00  0.00    -0.337 N 
ATOM     24  H   UNL     1      -2.468  -1.244   0.561  1.00  0.00     0.168 HD
ENDBRANCH  16  18
ENDBRANCH   6  16
BRANCH  15  25
ATOM     25  C   UNL     1       7.070  -5.053  -1.048  1.00  0.00     0.226 C 
ATOM     26  O   UNL     1       8.105  -4.811  -1.665  1.00  0.00    -0.275 OA
BRANCH  25  27
ATOM     27  C   UNL     1       6.868  -6.464  -0.618  1.00  0.00     0.079 C 
ATOM     28  C   UNL     1       5.747  -7.104   0.149  1.00  0.00     0.014 C 
ATOM     29  C   UNL     1       5.849  -7.324  -1.334  1.00  0.00     0.014 C 
ENDBRANCH  25  27
ENDBRANCH  15  25
ENDBRANCH   3   5
ENDBRANCH   2   3
ENDBRANCH   1   2
BRANCH   1  30
ATOM     30  C   UNL     1       9.287  -2.253   2.466  1.00  0.00     0.275 C 
BRANCH  30  31
ATOM     31  O   UNL     1      10.063  -2.061   1.271  1.00  0.00    -0.458 OA
BRANCH  31  32
ATOM     32  C   UNL     1      10.334  -3.190   0.573  1.00  0.00     0.338 C 
ATOM     33  O   UNL     1      10.065  -4.336   0.880  1.00  0.00    -0.246 OA
BRANCH  32  34
ATOM     34  C   UNL     1      11.022  -2.816  -0.672  1.00  0.00     0.060 A 
ATOM     35  C   UNL     1      10.264  -2.440  -1.779  1.00  0.00     0.016 A 
ATOM     36  C   UNL     1      12.406  -2.929  -0.772  1.00  0.00     0.016 A 
ATOM     37  C   UNL     1      10.870  -2.226  -3.011  1.00  0.00     0.010 A 
ATOM     38  C   UNL     1      13.024  -2.666  -1.998  1.00  0.00     0.010 A 
ATOM     39  C   UNL     1      12.257  -2.337  -3.131  1.00  0.00    -0.014 A 
BRANCH  39  40
ATOM     40  C   UNL     1      12.897  -2.177  -4.457  1.00  0.00     0.031 A 
ATOM     41  C   UNL     1      13.517  -3.368  -5.129  1.00  0.00     0.074 A 
ATOM     42  C   UNL     1      12.903  -0.977  -5.066  1.00  0.00     0.049 A 
ATOM     43  N   UNL     1      14.258  -3.414  -6.207  1.00  0.00    -0.248 NA
ATOM     44  C   UNL     1      13.277  -4.678  -4.503  1.00  0.00     0.031 C 
ATOM     45  C   UNL     1      12.270   0.239  -4.553  1.00  0.00     0.029 A 
ATOM     46  N   UNL     1      13.466  -0.586  -6.254  1.00  0.00    -0.354 N 
ATOM     47  C   UNL     1      14.612  -4.749  -6.360  1.00  0.00     0.074 A 
ATOM     48  C   UNL     1      14.005  -5.479  -5.268  1.00  0.00     0.031 C 
ATOM     49  C   UNL     1      12.473   1.239  -5.425  1.00  0.00     0.029 A 
ATOM     50  C   UNL     1      13.302   0.751  -6.522  1.00  0.00     0.049 A 
ATOM     51  H   UNL     1      13.941  -1.203  -6.856  1.00  0.00     0.167 HD
ATOM     52  C   UNL     1      15.380  -5.311  -7.322  1.00  0.00     0.031 A 
ATOM     53  C   UNL     1      13.799   1.507  -7.519  1.00  0.00     0.031 A 
ATOM     54  C   UNL     1      15.959  -4.585  -8.421  1.00  0.00     0.049 A 
ATOM     55  C   UNL     1      14.690   0.871  -8.546  1.00  0.00     0.074 A 
ATOM     56  C   UNL     1      16.752  -5.063  -9.450  1.00  0.00     0.029 A 
ATOM     57  N   UNL     1      15.795  -3.226  -8.639  1.00  0.00    -0.354 N 
ATOM     58  N   UNL     1      15.060  -0.382  -8.655  1.00  0.00    -0.248 NA
ATOM     59  C   UNL     1      15.241   1.756  -9.582  1.00  0.00     0.031 C 
ATOM     60  C   UNL     1      17.098  -3.984 -10.271  1.00  0.00     0.029 A 
ATOM     61  C   UNL     1      16.485  -2.844  -9.777  1.00  0.00     0.049 A 
ATOM     62  H   UNL     1      15.267  -2.622  -8.068  1.00  0.00     0.167 HD
ATOM     63  C   UNL     1      15.878  -0.439  -9.774  1.00  0.00     0.074 A 
ATOM     64  C   UNL     1      15.935   0.902 -10.322  1.00  0.00     0.031 C 
ATOM     65  C   UNL     1      16.529  -1.505 -10.300  1.00  0.00     0.031 A 
BRANCH  52  66
ATOM     66  C   UNL     1      15.679  -6.777  -7.197  1.00  0.00    -0.014 A 
ATOM     67  C   UNL     1      14.713  -7.750  -7.492  1.00  0.00     0.009 A 
ATOM     68  C   UNL     1      16.960  -7.187  -6.798  1.00  0.00     0.009 A 
ATOM     69  C   UNL     1      15.017  -9.107  -7.360  1.00  0.00     0.001 A 
ATOM     70  C   UNL     1      17.269  -8.544  -6.689  1.00  0.00     0.001 A 
ATOM     71  C   UNL     1      16.295  -9.502  -6.963  1.00  0.00     0.000 A 
ENDBRANCH  52  66
BRANCH  53  72
ATOM     72  C   UNL     1      13.504   2.961  -7.561  1.00  0.00    -0.014 A 
ATOM     73  C   UNL     1      12.649   3.490  -8.539  1.00  0.00     0.009 A 
ATOM     74  C   UNL     1      14.073   3.829  -6.614  1.00  0.00     0.009 A 
ATOM     75  C   UNL     1      12.382   4.860  -8.577  1.00  0.00     0.001 A 
ATOM     76  C   UNL     1      13.784   5.194  -6.639  1.00  0.00     0.001 A 
ATOM     77  C   UNL     1      12.944   5.710  -7.625  1.00  0.00     0.000 A 
ENDBRANCH  53  72
BRANCH  65  78
ATOM     78  C   UNL     1      17.334  -1.264 -11.543  1.00  0.00    -0.014 A 
ATOM     79  C   UNL     1      18.582  -0.625 -11.484  1.00  0.00     0.009 A 
ATOM     80  C   UNL     1      16.854  -1.716 -12.782  1.00  0.00     0.009 A 
ATOM     81  C   UNL     1      19.322  -0.419 -12.649  1.00  0.00     0.001 A 
ATOM     82  C   UNL     1      17.607  -1.528 -13.941  1.00  0.00     0.001 A 
ATOM     83  C   UNL     1      18.836  -0.873 -13.875  1.00  0.00     0.000 A 
ENDBRANCH  65  78
ENDBRANCH  39  40
ENDBRANCH  32  34
ENDBRANCH  31  32
ENDBRANCH  30  31
ENDBRANCH   1  30
TORSDOF 15
