REMARK SMILES C#CCN(CC(=O)OCCOC(=O)c1ccc(-c2c3nc(c(-c4ccccc4)c4ccc([nH]4)c(-c4ccccc4)c4nc(c(-c5ccccc5)c5ccc2[nH]5)C=C4)C=C3)cc1)C(=O)NCc1ccnc(C)n1
REMARK SMILES IDX 9 1 8 2 6 3 7 4 5 5 4 6 3 7 2 8 1 9 62 10 63 11 64 12 65 14
REMARK SMILES IDX 66 15 67 16 72 17 68 18 70 19 69 20 71 21 10 22 11 23 12 24
REMARK SMILES IDX 13 25 14 26 15 27 61 28 16 29 60 30 17 31 18 32 19 33 54 34
REMARK SMILES IDX 20 35 59 36 53 37 55 38 21 39 58 40 52 41 51 42 22 44 44 45
REMARK SMILES IDX 29 46 43 47 30 48 33 49 42 50 56 51 31 52 32 53 41 55 57 56
REMARK SMILES IDX 34 57 23 58 24 59 28 60 25 61 27 62 26 63 45 64 46 65 50 66
REMARK SMILES IDX 47 67 49 68 48 69 35 70 36 71 40 72 37 73 39 74 38 75
REMARK H PARENT 64 13 55 43 33 54
REMARK Flexibility Score: inf
ROOT
ATOM      1  C   UNL     1      -6.612   1.405   1.083  1.00  0.00     0.274 C 
ENDROOT
BRANCH   1   2
ATOM      2  O   UNL     1      -5.226   0.983   1.149  1.00  0.00    -0.461 OA
BRANCH   2   3
ATOM      3  C   UNL     1      -4.296   1.950   0.922  1.00  0.00     0.325 C 
ATOM      4  O   UNL     1      -4.574   3.079   0.518  1.00  0.00    -0.250 OA
BRANCH   3   5
ATOM      5  C   UNL     1      -2.892   1.611   1.458  1.00  0.00     0.245 C 
BRANCH   5   6
ATOM      6  N   UNL     1      -2.422   0.254   1.273  1.00  0.00    -0.303 N 
BRANCH   6   7
ATOM      7  C   UNL     1      -1.896   0.027  -0.064  1.00  0.00     0.211 C 
BRANCH   7   8
ATOM      8  C   UNL     1      -0.376   0.027  -0.064  1.00  0.00    -0.085 C 
ATOM      9  C   UNL     1       0.928   0.027  -0.064  1.00  0.00     0.006 C 
ENDBRANCH   7   8
ENDBRANCH   6   7
BRANCH   6  10
ATOM     10  C   UNL     1      -2.521  -0.831   2.089  1.00  0.00     0.319 C 
ATOM     11  O   UNL     1      -2.276  -1.964   1.651  1.00  0.00    -0.249 OA
ATOM     12  N   UNL     1      -2.862  -0.825   3.378  1.00  0.00    -0.332 N 
ATOM     13  H   UNL     1      -3.057  -1.749   3.656  1.00  0.00     0.165 HD
BRANCH  12  14
ATOM     14  C   UNL     1      -3.050   0.057   4.527  1.00  0.00     0.174 C 
BRANCH  14  15
ATOM     15  C   UNL     1      -4.359  -0.243   5.255  1.00  0.00     0.063 A 
ATOM     16  C   UNL     1      -4.981   0.722   6.028  1.00  0.00     0.046 A 
ATOM     17  N   UNL     1      -4.894  -1.480   5.121  1.00  0.00    -0.236 NA
ATOM     18  C   UNL     1      -6.239   0.427   6.499  1.00  0.00     0.115 A 
ATOM     19  C   UNL     1      -6.104  -1.692   5.678  1.00  0.00     0.125 A 
ATOM     20  N   UNL     1      -6.824  -0.769   6.341  1.00  0.00    -0.242 NA
ATOM     21  C   UNL     1      -6.657  -3.079   5.607  1.00  0.00     0.089 C 
ENDBRANCH  14  15
ENDBRANCH  12  14
ENDBRANCH   6  10
ENDBRANCH   5   6
ENDBRANCH   3   5
ENDBRANCH   2   3
ENDBRANCH   1   2
BRANCH   1  22
ATOM     22  C   UNL     1      -7.178   1.944   2.421  1.00  0.00     0.275 C 
BRANCH  22  23
ATOM     23  O   UNL     1      -6.607   3.209   2.856  1.00  0.00    -0.458 OA
BRANCH  23  24
ATOM     24  C   UNL     1      -5.430   3.006   3.470  1.00  0.00     0.338 C 
ATOM     25  O   UNL     1      -4.902   1.911   3.579  1.00  0.00    -0.246 OA
BRANCH  24  26
ATOM     26  C   UNL     1      -4.674   4.100   4.073  1.00  0.00     0.060 A 
ATOM     27  C   UNL     1      -3.436   4.391   3.479  1.00  0.00     0.016 A 
ATOM     28  C   UNL     1      -4.848   4.276   5.448  1.00  0.00     0.016 A 
ATOM     29  C   UNL     1      -2.347   4.762   4.268  1.00  0.00     0.010 A 
ATOM     30  C   UNL     1      -3.767   4.682   6.235  1.00  0.00     0.010 A 
ATOM     31  C   UNL     1      -2.508   4.914   5.654  1.00  0.00    -0.014 A 
BRANCH  31  32
ATOM     32  C   UNL     1      -1.491   5.657   6.429  1.00  0.00     0.031 A 
ATOM     33  C   UNL     1      -0.513   5.030   7.375  1.00  0.00     0.074 A 
ATOM     34  C   UNL     1      -1.570   6.993   6.302  1.00  0.00     0.049 A 
ATOM     35  N   UNL     1       0.369   5.624   8.141  1.00  0.00    -0.248 NA
ATOM     36  C   UNL     1      -0.522   3.566   7.493  1.00  0.00     0.031 C 
ATOM     37  C   UNL     1      -2.512   7.689   5.417  1.00  0.00     0.029 A 
ATOM     38  N   UNL     1      -0.887   7.997   6.923  1.00  0.00    -0.354 N 
ATOM     39  C   UNL     1       1.021   4.615   8.840  1.00  0.00     0.074 A 
ATOM     40  C   UNL     1       0.417   3.365   8.415  1.00  0.00     0.031 C 
ATOM     41  C   UNL     1      -2.355   9.007   5.560  1.00  0.00     0.029 A 
ATOM     42  C   UNL     1      -1.327   9.244   6.560  1.00  0.00     0.049 A 
ATOM     43  H   UNL     1      -0.155   7.843   7.563  1.00  0.00     0.167 HD
ATOM     44  C   UNL     1       2.021   4.734   9.751  1.00  0.00     0.031 A 
ATOM     45  C   UNL     1      -0.953  10.459   6.986  1.00  0.00     0.031 A 
ATOM     46  C   UNL     1       2.586   5.997  10.174  1.00  0.00     0.049 A 
ATOM     47  C   UNL     1       0.150  10.558   7.982  1.00  0.00     0.074 A 
ATOM     48  C   UNL     1       3.639   6.228  11.046  1.00  0.00     0.029 A 
ATOM     49  N   UNL     1       2.135   7.245   9.766  1.00  0.00    -0.354 N 
ATOM     50  N   UNL     1       0.798   9.593   8.585  1.00  0.00    -0.248 NA
ATOM     51  C   UNL     1       0.594  11.910   8.328  1.00  0.00     0.031 C 
ATOM     52  C   UNL     1       3.791   7.612  11.202  1.00  0.00     0.029 A 
ATOM     53  C   UNL     1       2.871   8.246  10.384  1.00  0.00     0.049 A 
ATOM     54  H   UNL     1       1.399   7.398   9.130  1.00  0.00     0.167 HD
ATOM     55  C   UNL     1       1.756  10.219   9.364  1.00  0.00     0.074 A 
ATOM     56  C   UNL     1       1.603  11.646   9.146  1.00  0.00     0.031 C 
ATOM     57  C   UNL     1       2.686   9.661  10.177  1.00  0.00     0.031 A 
BRANCH  44  58
ATOM     58  C   UNL     1       2.568   3.475  10.379  1.00  0.00    -0.014 A 
ATOM     59  C   UNL     1       3.342   2.563   9.642  1.00  0.00     0.009 A 
ATOM     60  C   UNL     1       2.382   3.238  11.752  1.00  0.00     0.009 A 
ATOM     61  C   UNL     1       3.889   1.432  10.257  1.00  0.00     0.001 A 
ATOM     62  C   UNL     1       2.952   2.121  12.370  1.00  0.00     0.001 A 
ATOM     63  C   UNL     1       3.698   1.214  11.621  1.00  0.00     0.000 A 
ENDBRANCH  44  58
BRANCH  45  64
ATOM     64  C   UNL     1      -1.597  11.644   6.379  1.00  0.00    -0.014 A 
ATOM     65  C   UNL     1      -0.931  12.355   5.371  1.00  0.00     0.009 A 
ATOM     66  C   UNL     1      -2.923  11.977   6.696  1.00  0.00     0.009 A 
ATOM     67  C   UNL     1      -1.583  13.383   4.691  1.00  0.00     0.001 A 
ATOM     68  C   UNL     1      -3.579  12.991   5.997  1.00  0.00     0.001 A 
ATOM     69  C   UNL     1      -2.907  13.694   4.997  1.00  0.00     0.000 A 
ENDBRANCH  45  64
BRANCH  57  70
ATOM     70  C   UNL     1       3.618  10.617  10.862  1.00  0.00    -0.014 A 
ATOM     71  C   UNL     1       3.177  11.434  11.915  1.00  0.00     0.009 A 
ATOM     72  C   UNL     1       4.945  10.728  10.420  1.00  0.00     0.009 A 
ATOM     73  C   UNL     1       4.035  12.380  12.479  1.00  0.00     0.001 A 
ATOM     74  C   UNL     1       5.808  11.656  11.004  1.00  0.00     0.001 A 
ATOM     75  C   UNL     1       5.348  12.490  12.023  1.00  0.00     0.000 A 
ENDBRANCH  57  70
ENDBRANCH  31  32
ENDBRANCH  24  26
ENDBRANCH  23  24
ENDBRANCH  22  23
ENDBRANCH   1  22
TORSDOF 17
