REMARK SMILES Cc1csc(C[NH2+]C[C@H]2CCC[C@H]2C(=O)OCCOC(=O)c2ccc(-c3c4nc(c(-c5ccccc5)c5ccc([nH]5)c(-c5ccccc5)c5nc(c(-c6ccccc6)c6ccc3[nH]6)C=C5)C=C4)cc2)n1
REMARK SMILES IDX 17 1 16 2 14 3 15 4 13 5 9 6 10 7 11 8 12 9 8 10 7 11 6 14
REMARK SMILES IDX 5 15 1 16 2 17 3 18 70 19 4 20 18 21 19 22 20 23 21 24 22 25
REMARK SMILES IDX 23 26 69 27 24 28 68 29 25 30 26 31 27 32 62 33 28 34 67 35
REMARK SMILES IDX 61 36 63 37 29 38 66 39 60 40 59 41 30 43 52 44 37 45 51 46
REMARK SMILES IDX 38 47 41 48 50 49 64 50 39 51 40 52 49 54 65 55 42 56 31 57
REMARK SMILES IDX 32 58 36 59 33 60 35 61 34 62 53 63 54 64 58 65 55 66 57 67
REMARK SMILES IDX 56 68 43 69 44 70 48 71 45 72 47 73 46 74
REMARK H PARENT 7 12 7 13 63 42 41 53
REMARK Flexibility Score: inf
ROOT
ATOM      1  C   UNL     1       3.582   0.388   0.745  1.00  0.00     0.274 C 
ENDROOT
BRANCH   1   2
ATOM      2  O   UNL     1       3.944   1.632   0.114  1.00  0.00    -0.462 OA
BRANCH   2   3
ATOM      3  C   UNL     1       4.103   1.611  -1.228  1.00  0.00     0.309 C 
ATOM      4  O   UNL     1       4.064   0.597  -1.916  1.00  0.00    -0.252 OA
BRANCH   3   5
ATOM      5  C   UNL     1       4.354   2.975  -1.839  1.00  0.00     0.108 C 
ATOM      6  C   UNL     1       3.793   4.267  -1.208  1.00  0.00     0.058 C 
ATOM      7  C   UNL     1       4.482   5.303  -2.113  1.00  0.00     0.010 C 
ATOM      8  C   UNL     1       5.906   4.783  -2.294  1.00  0.00     0.001 C 
ATOM      9  C   UNL     1       5.836   3.271  -2.060  1.00  0.00     0.016 C 
BRANCH   6  10
ATOM     10  C   UNL     1       4.108   4.449   0.295  1.00  0.00     0.265 C 
BRANCH  10  11
ATOM     11  N   UNL     1       4.022   5.807   0.819  1.00  0.00    -0.340 N 
ATOM     12  H   UNL     1       4.361   5.801   1.781  1.00  0.00     0.346 HD
ATOM     13  H   UNL     1       4.586   6.395   0.205  1.00  0.00     0.346 HD
BRANCH  11  14
ATOM     14  C   UNL     1       2.667   6.369   0.812  1.00  0.00     0.329 C 
BRANCH  14  15
ATOM     15  C   UNL     1       2.692   7.802   1.292  1.00  0.00     0.147 A 
ATOM     16  C   UNL     1       3.365  10.165   3.921  1.00  0.00     0.067 C 
ATOM     17  C   UNL     1       3.010   9.557   2.615  1.00  0.00     0.049 A 
ATOM     18  C   UNL     1       2.720  10.219   1.438  1.00  0.00     0.090 A 
ATOM     19  N   UNL     1       2.970   8.177   2.526  1.00  0.00    -0.241 NA
ATOM     20  S   UNL     1       2.412   9.092   0.186  1.00  0.00    -0.121 S 
ENDBRANCH  14  15
ENDBRANCH  11  14
ENDBRANCH  10  11
ENDBRANCH   6  10
ENDBRANCH   3   5
ENDBRANCH   2   3
ENDBRANCH   1   2
BRANCH   1  21
ATOM     21  C   UNL     1       2.084   0.348   1.068  1.00  0.00     0.275 C 
BRANCH  21  22
ATOM     22  O   UNL     1       1.282   0.270  -0.127  1.00  0.00    -0.458 OA
BRANCH  22  23
ATOM     23  C   UNL     1       0.884   1.460  -0.631  1.00  0.00     0.338 C 
ATOM     24  O   UNL     1       1.094   2.569  -0.171  1.00  0.00    -0.246 OA
BRANCH  23  25
ATOM     25  C   UNL     1       0.252   1.257  -1.944  1.00  0.00     0.060 A 
ATOM     26  C   UNL     1       0.834   1.884  -3.049  1.00  0.00     0.016 A 
ATOM     27  C   UNL     1      -0.933   0.534  -2.083  1.00  0.00     0.016 A 
ATOM     28  C   UNL     1       0.236   1.794  -4.301  1.00  0.00     0.010 A 
ATOM     29  C   UNL     1      -1.538   0.448  -3.342  1.00  0.00     0.010 A 
ATOM     30  C   UNL     1      -0.961   1.086  -4.454  1.00  0.00    -0.014 A 
BRANCH  30  31
ATOM     31  C   UNL     1      -1.629   1.068  -5.775  1.00  0.00     0.031 A 
ATOM     32  C   UNL     1      -2.825   1.942  -6.020  1.00  0.00     0.074 A 
ATOM     33  C   UNL     1      -1.135   0.305  -6.767  1.00  0.00     0.049 A 
ATOM     34  N   UNL     1      -3.572   2.039  -7.089  1.00  0.00    -0.248 NA
ATOM     35  C   UNL     1      -3.228   2.828  -4.917  1.00  0.00     0.031 C 
ATOM     36  C   UNL     1       0.059  -0.535  -6.673  1.00  0.00     0.029 A 
ATOM     37  N   UNL     1      -1.575   0.124  -8.053  1.00  0.00    -0.354 N 
ATOM     38  C   UNL     1      -4.543   2.984  -6.785  1.00  0.00     0.074 A 
ATOM     39  C   UNL     1      -4.300   3.420  -5.426  1.00  0.00     0.031 C 
ATOM     40  C   UNL     1       0.264  -1.134  -7.858  1.00  0.00     0.029 A 
ATOM     41  C   UNL     1      -0.807  -0.756  -8.775  1.00  0.00     0.049 A 
ATOM     42  H   UNL     1      -2.365   0.580  -8.423  1.00  0.00     0.167 HD
ATOM     43  C   UNL     1      -5.548   3.446  -7.567  1.00  0.00     0.031 A 
ATOM     44  C   UNL     1      -0.964  -1.222 -10.028  1.00  0.00     0.031 A 
ATOM     45  C   UNL     1      -5.795   3.008  -8.915  1.00  0.00     0.049 A 
ATOM     46  C   UNL     1      -2.137  -0.758 -10.845  1.00  0.00     0.074 A 
ATOM     47  C   UNL     1      -6.795   3.410  -9.784  1.00  0.00     0.029 A 
ATOM     48  N   UNL     1      -5.034   2.066  -9.588  1.00  0.00    -0.354 N 
ATOM     49  N   UNL     1      -3.062   0.118 -10.538  1.00  0.00    -0.248 NA
ATOM     50  C   UNL     1      -2.289  -1.355 -12.180  1.00  0.00     0.031 C 
ATOM     51  C   UNL     1      -6.661   2.680 -10.971  1.00  0.00     0.029 A 
ATOM     52  C   UNL     1      -5.552   1.858 -10.855  1.00  0.00     0.049 A 
ATOM     53  H   UNL     1      -4.242   1.612  -9.220  1.00  0.00     0.167 HD
ATOM     54  C   UNL     1      -3.896   0.191 -11.645  1.00  0.00     0.074 A 
ATOM     55  C   UNL     1      -3.358  -0.719 -12.637  1.00  0.00     0.031 C 
ATOM     56  C   UNL     1      -5.008   0.945 -11.825  1.00  0.00     0.031 A 
BRANCH  43  57
ATOM     57  C   UNL     1      -6.480   4.453  -6.959  1.00  0.00    -0.014 A 
ATOM     58  C   UNL     1      -6.087   5.787  -6.766  1.00  0.00     0.009 A 
ATOM     59  C   UNL     1      -7.777   4.064  -6.589  1.00  0.00     0.009 A 
ATOM     60  C   UNL     1      -6.966   6.703  -6.185  1.00  0.00     0.001 A 
ATOM     61  C   UNL     1      -8.660   4.988  -6.029  1.00  0.00     0.001 A 
ATOM     62  C   UNL     1      -8.251   6.304  -5.819  1.00  0.00     0.000 A 
ENDBRANCH  43  57
BRANCH  44  63
ATOM     63  C   UNL     1       0.002  -2.206 -10.579  1.00  0.00    -0.014 A 
ATOM     64  C   UNL     1       0.904  -1.833 -11.585  1.00  0.00     0.009 A 
ATOM     65  C   UNL     1       0.022  -3.526 -10.101  1.00  0.00     0.009 A 
ATOM     66  C   UNL     1       1.798  -2.767 -12.113  1.00  0.00     0.001 A 
ATOM     67  C   UNL     1       0.933  -4.451 -10.614  1.00  0.00     0.001 A 
ATOM     68  C   UNL     1       1.815  -4.073 -11.624  1.00  0.00     0.000 A 
ENDBRANCH  44  63
BRANCH  56  69
ATOM     69  C   UNL     1      -5.698   0.834 -13.154  1.00  0.00    -0.014 A 
ATOM     70  C   UNL     1      -6.484  -0.284 -13.471  1.00  0.00     0.009 A 
ATOM     71  C   UNL     1      -5.584   1.877 -14.086  1.00  0.00     0.009 A 
ATOM     72  C   UNL     1      -7.121  -0.368 -14.710  1.00  0.00     0.001 A 
ATOM     73  C   UNL     1      -6.240   1.800 -15.315  1.00  0.00     0.001 A 
ATOM     74  C   UNL     1      -7.001   0.674 -15.630  1.00  0.00     0.000 A 
ENDBRANCH  56  69
ENDBRANCH  30  31
ENDBRANCH  23  25
ENDBRANCH  22  23
ENDBRANCH  21  22
ENDBRANCH   1  21
TORSDOF 15
