REMARK SMILES O=C(OCCOC(=O)[C@H]([C@@H]1CCOC1)[C@@H]1CCS(=O)(=O)C1)c1ccc(-c2c3nc(c(-c4ccccc4)c4ccc([nH]4)c(-c4ccccc4)c4nc(c(-c5ccccc5)c5ccc2[nH]5)C=C4)C=C3)cc1
REMARK SMILES IDX 4 1 3 2 2 3 1 4 22 5 23 6 69 7 24 8 68 9 25 10 26 11 27 12
REMARK SMILES IDX 62 13 28 14 67 15 61 16 63 17 29 18 66 19 60 20 59 21 30 23
REMARK SMILES IDX 52 24 37 25 51 26 38 27 41 28 50 29 64 30 39 31 40 32 49 34
REMARK SMILES IDX 65 35 42 36 31 37 32 38 36 39 33 40 35 41 34 42 53 43 54 44
REMARK SMILES IDX 58 45 55 46 57 47 56 48 43 49 44 50 48 51 45 52 47 53 46 54
REMARK SMILES IDX 5 55 6 56 7 57 8 58 9 59 15 60 16 61 21 62 17 63 18 64 19 65
REMARK SMILES IDX 20 66 10 67 11 68 14 69 12 70 13 71
REMARK H PARENT 63 22 41 33
REMARK Flexibility Score: inf
ROOT
ATOM      1  C   UNL     1       2.722   4.712   2.236  1.00  0.00     0.275 C 
ENDROOT
BRANCH   1   2
ATOM      2  O   UNL     1       1.966   3.501   2.358  1.00  0.00    -0.458 OA
BRANCH   2   3
ATOM      3  C   UNL     1       1.053   2.960   1.522  1.00  0.00     0.338 C 
ATOM      4  O   UNL     1       0.658   1.821   1.769  1.00  0.00    -0.246 OA
BRANCH   3   5
ATOM      5  C   UNL     1       0.531   3.621   0.276  1.00  0.00     0.060 A 
ATOM      6  C   UNL     1       0.625   4.974  -0.083  1.00  0.00     0.016 A 
ATOM      7  C   UNL     1      -0.114   2.764  -0.629  1.00  0.00     0.016 A 
ATOM      8  C   UNL     1       0.174   5.448  -1.333  1.00  0.00     0.010 A 
ATOM      9  C   UNL     1      -0.551   3.227  -1.874  1.00  0.00     0.010 A 
ATOM     10  C   UNL     1      -0.398   4.577  -2.254  1.00  0.00    -0.014 A 
BRANCH  10  11
ATOM     11  C   UNL     1      -0.895   4.991  -3.599  1.00  0.00     0.031 A 
ATOM     12  C   UNL     1      -2.345   4.743  -3.896  1.00  0.00     0.074 A 
ATOM     13  C   UNL     1      -0.080   5.409  -4.597  1.00  0.00     0.049 A 
ATOM     14  N   UNL     1      -2.982   4.864  -5.029  1.00  0.00    -0.248 NA
ATOM     15  C   UNL     1      -3.192   4.323  -2.764  1.00  0.00     0.031 C 
ATOM     16  C   UNL     1       1.339   5.757  -4.488  1.00  0.00     0.029 A 
ATOM     17  N   UNL     1      -0.304   5.448  -5.957  1.00  0.00    -0.354 N 
ATOM     18  C   UNL     1      -4.311   4.645  -4.714  1.00  0.00     0.074 A 
ATOM     19  C   UNL     1      -4.367   4.177  -3.350  1.00  0.00     0.031 C 
ATOM     20  C   UNL     1       1.903   5.719  -5.710  1.00  0.00     0.029 A 
ATOM     21  C   UNL     1       0.863   5.471  -6.698  1.00  0.00     0.049 A 
ATOM     22  H   UNL     1      -1.202   5.459  -6.359  1.00  0.00     0.167 HD
ATOM     23  C   UNL     1      -5.402   4.951  -5.451  1.00  0.00     0.031 A 
ATOM     24  C   UNL     1       1.063   5.305  -8.021  1.00  0.00     0.031 A 
ATOM     25  C   UNL     1      -5.336   5.369  -6.817  1.00  0.00     0.049 A 
ATOM     26  C   UNL     1      -0.144   5.349  -8.915  1.00  0.00     0.074 A 
ATOM     27  C   UNL     1      -6.351   5.776  -7.660  1.00  0.00     0.029 A 
ATOM     28  N   UNL     1      -4.161   5.392  -7.556  1.00  0.00    -0.354 N 
ATOM     29  N   UNL     1      -1.411   5.358  -8.579  1.00  0.00    -0.248 NA
ATOM     30  C   UNL     1       0.101   5.505 -10.355  1.00  0.00     0.031 C 
ATOM     31  C   UNL     1      -5.793   5.996  -8.927  1.00  0.00     0.029 A 
ATOM     32  C   UNL     1      -4.426   5.768  -8.857  1.00  0.00     0.049 A 
ATOM     33  H   UNL     1      -3.268   5.171  -7.203  1.00  0.00     0.167 HD
ATOM     34  C   UNL     1      -2.108   5.641  -9.744  1.00  0.00     0.074 A 
ATOM     35  C   UNL     1      -1.125   5.736 -10.806  1.00  0.00     0.031 C 
ATOM     36  C   UNL     1      -3.436   5.867  -9.900  1.00  0.00     0.031 A 
BRANCH  23  37
ATOM     37  C   UNL     1      -6.703   4.906  -4.709  1.00  0.00    -0.014 A 
ATOM     38  C   UNL     1      -6.947   5.836  -3.677  1.00  0.00     0.009 A 
ATOM     39  C   UNL     1      -7.625   3.879  -4.931  1.00  0.00     0.009 A 
ATOM     40  C   UNL     1      -8.047   5.689  -2.833  1.00  0.00     0.001 A 
ATOM     41  C   UNL     1      -8.743   3.753  -4.102  1.00  0.00     0.001 A 
ATOM     42  C   UNL     1      -8.941   4.643  -3.044  1.00  0.00     0.000 A 
ENDBRANCH  23  37
BRANCH  24  43
ATOM     43  C   UNL     1       2.432   5.217  -8.602  1.00  0.00    -0.014 A 
ATOM     44  C   UNL     1       3.046   6.341  -9.177  1.00  0.00     0.009 A 
ATOM     45  C   UNL     1       3.114   3.989  -8.639  1.00  0.00     0.009 A 
ATOM     46  C   UNL     1       4.292   6.234  -9.802  1.00  0.00     0.001 A 
ATOM     47  C   UNL     1       4.367   3.886  -9.257  1.00  0.00     0.001 A 
ATOM     48  C   UNL     1       4.952   5.006  -9.845  1.00  0.00     0.000 A 
ENDBRANCH  24  43
BRANCH  36  49
ATOM     49  C   UNL     1      -3.895   6.330 -11.248  1.00  0.00    -0.014 A 
ATOM     50  C   UNL     1      -3.962   5.459 -12.344  1.00  0.00     0.009 A 
ATOM     51  C   UNL     1      -4.315   7.662 -11.403  1.00  0.00     0.009 A 
ATOM     52  C   UNL     1      -4.423   5.921 -13.577  1.00  0.00     0.001 A 
ATOM     53  C   UNL     1      -4.803   8.112 -12.627  1.00  0.00     0.001 A 
ATOM     54  C   UNL     1      -4.850   7.242 -13.716  1.00  0.00     0.000 A 
ENDBRANCH  36  49
ENDBRANCH  10  11
ENDBRANCH   3   5
ENDBRANCH   2   3
ENDBRANCH   1   2
BRANCH   1  55
ATOM     55  C   UNL     1       3.810   4.685   1.159  1.00  0.00     0.274 C 
BRANCH  55  56
ATOM     56  O   UNL     1       3.572   3.695   0.138  1.00  0.00    -0.462 OA
BRANCH  56  57
ATOM     57  C   UNL     1       4.578   2.797  -0.071  1.00  0.00     0.309 C 
ATOM     58  O   UNL     1       5.630   2.798   0.554  1.00  0.00    -0.252 OA
BRANCH  57  59
ATOM     59  C   UNL     1       4.241   1.792  -1.200  1.00  0.00     0.109 C 
BRANCH  59  60
ATOM     60  C   UNL     1       4.546   2.419  -2.608  1.00  0.00     0.019 C 
ATOM     61  C   UNL     1       3.620   3.615  -2.918  1.00  0.00     0.021 C 
ATOM     62  C   UNL     1       4.301   1.546  -3.869  1.00  0.00     0.141 C 
ATOM     63  C   UNL     1       2.275   2.974  -3.196  1.00  0.00     0.137 C 
ATOM     64  S   UNL     1       2.562   1.587  -4.226  1.00  0.00     0.150 S 
ATOM     65  O   UNL     1       1.897   0.449  -3.626  1.00  0.00    -0.229 OA
ATOM     66  O   UNL     1       2.369   1.969  -5.607  1.00  0.00    -0.229 OA
ENDBRANCH  59  60
BRANCH  59  67
ATOM     67  C   UNL     1       4.954   0.459  -0.823  1.00  0.00     0.032 C 
ATOM     68  C   UNL     1       6.458   0.439  -1.021  1.00  0.00     0.035 C 
ATOM     69  C   UNL     1       4.505  -0.775  -1.591  1.00  0.00     0.164 C 
ATOM     70  C   UNL     1       6.654  -0.241  -2.351  1.00  0.00     0.160 C 
ATOM     71  O   UNL     1       5.523  -1.090  -2.552  1.00  0.00    -0.381 OA
ENDBRANCH  59  67
ENDBRANCH  57  59
ENDBRANCH  56  57
ENDBRANCH  55  56
ENDBRANCH   1  55
TORSDOF 13
