REMARK SMILES O=C(OCCOC(=O)[C@@H]1CCC[N@@H+](Cc2nccn2C(F)F)C1)c1ccc(-c2c3nc(c(-c4ccccc4)c4ccc([nH]4)c(-c4ccccc4)c4nc(c(-c5ccccc5)c5ccc2[nH]5)C=C4)C=C3)cc1
REMARK SMILES IDX 5 1 4 2 3 3 2 4 1 5 24 6 25 7 71 8 26 9 70 10 27 11 28 12
REMARK SMILES IDX 29 13 64 14 30 15 69 16 63 17 65 18 31 19 68 20 62 21 61 22
REMARK SMILES IDX 32 24 54 25 39 26 53 27 40 28 43 29 52 30 66 31 41 32 42 33
REMARK SMILES IDX 51 35 67 36 44 37 33 38 34 39 38 40 35 41 37 42 36 43 55 44
REMARK SMILES IDX 56 45 60 46 57 47 59 48 58 49 45 50 46 51 50 52 47 53 49 54
REMARK SMILES IDX 48 55 6 56 7 57 8 58 9 59 10 60 23 61 11 62 13 63 12 64
REMARK SMILES IDX 14 66 15 67 16 68 19 69 17 70 18 71 20 72 21 73 22 74
REMARK H PARENT 65 23 43 34 13 65
REMARK Flexibility Score: inf
ROOT
ATOM      1  C   UNL     1       4.733  -0.160  -1.423  1.00  0.00     0.274 C 
ENDROOT
BRANCH   1   2
ATOM      2  C   UNL     1       4.795  -1.266  -0.372  1.00  0.00     0.275 C 
BRANCH   2   3
ATOM      3  O   UNL     1       3.540  -1.741   0.164  1.00  0.00    -0.458 OA
BRANCH   3   4
ATOM      4  C   UNL     1       2.482  -0.899   0.203  1.00  0.00     0.338 C 
ATOM      5  O   UNL     1       1.646  -0.801  -0.683  1.00  0.00    -0.246 OA
BRANCH   4   6
ATOM      6  C   UNL     1       2.339  -0.240   1.523  1.00  0.00     0.060 A 
ATOM      7  C   UNL     1       3.443   0.020   2.342  1.00  0.00     0.016 A 
ATOM      8  C   UNL     1       1.059   0.150   1.937  1.00  0.00     0.016 A 
ATOM      9  C   UNL     1       3.273   0.624   3.576  1.00  0.00     0.010 A 
ATOM     10  C   UNL     1       0.884   0.752   3.180  1.00  0.00     0.010 A 
ATOM     11  C   UNL     1       1.992   0.970   4.004  1.00  0.00    -0.014 A 
BRANCH  11  12
ATOM     12  C   UNL     1       1.884   1.614   5.309  1.00  0.00     0.031 A 
ATOM     13  C   UNL     1       2.429   2.997   5.426  1.00  0.00     0.074 A 
ATOM     14  C   UNL     1       1.220   1.061   6.341  1.00  0.00     0.049 A 
ATOM     15  N   UNL     1       3.285   3.452   6.286  1.00  0.00    -0.248 NA
ATOM     16  C   UNL     1       1.972   3.992   4.446  1.00  0.00     0.031 C 
ATOM     17  C   UNL     1       0.380  -0.137   6.315  1.00  0.00     0.029 A 
ATOM     18  N   UNL     1       1.053   1.542   7.608  1.00  0.00    -0.354 N 
ATOM     19  C   UNL     1       3.346   4.829   6.072  1.00  0.00     0.074 A 
ATOM     20  C   UNL     1       2.594   5.090   4.872  1.00  0.00     0.031 C 
ATOM     21  C   UNL     1      -0.389  -0.154   7.425  1.00  0.00     0.029 A 
ATOM     22  C   UNL     1      -0.009   0.959   8.280  1.00  0.00     0.049 A 
ATOM     23  H   UNL     1       1.630   2.234   8.005  1.00  0.00     0.167 HD
ATOM     24  C   UNL     1       3.826   5.692   7.010  1.00  0.00     0.031 A 
ATOM     25  C   UNL     1      -0.597   1.399   9.417  1.00  0.00     0.031 A 
ATOM     26  C   UNL     1       4.688   5.052   7.967  1.00  0.00     0.049 A 
ATOM     27  C   UNL     1       0.325   2.335  10.096  1.00  0.00     0.074 A 
ATOM     28  C   UNL     1       5.838   4.291   7.899  1.00  0.00     0.029 A 
ATOM     29  N   UNL     1       4.236   4.911   9.256  1.00  0.00    -0.354 N 
ATOM     30  N   UNL     1       1.416   1.972  10.704  1.00  0.00    -0.248 NA
ATOM     31  C   UNL     1       0.213   3.757   9.812  1.00  0.00     0.031 C 
ATOM     32  C   UNL     1       5.735   3.362   8.977  1.00  0.00     0.029 A 
ATOM     33  C   UNL     1       4.538   3.633   9.640  1.00  0.00     0.049 A 
ATOM     34  H   UNL     1       3.783   5.596   9.798  1.00  0.00     0.167 HD
ATOM     35  C   UNL     1       2.300   3.019  10.496  1.00  0.00     0.074 A 
ATOM     36  C   UNL     1       1.466   4.137  10.069  1.00  0.00     0.031 C 
ATOM     37  C   UNL     1       3.647   2.799  10.411  1.00  0.00     0.031 A 
BRANCH  24  38
ATOM     38  C   UNL     1       3.173   7.030   7.294  1.00  0.00    -0.014 A 
ATOM     39  C   UNL     1       3.732   7.864   8.282  1.00  0.00     0.009 A 
ATOM     40  C   UNL     1       1.871   7.351   6.862  1.00  0.00     0.009 A 
ATOM     41  C   UNL     1       2.986   8.886   8.882  1.00  0.00     0.001 A 
ATOM     42  C   UNL     1       1.142   8.403   7.424  1.00  0.00     0.001 A 
ATOM     43  C   UNL     1       1.686   9.147   8.461  1.00  0.00     0.000 A 
ENDBRANCH  24  38
BRANCH  25  44
ATOM     44  C   UNL     1      -1.996   1.216   9.850  1.00  0.00    -0.014 A 
ATOM     45  C   UNL     1      -2.366   1.404  11.190  1.00  0.00     0.009 A 
ATOM     46  C   UNL     1      -3.025   1.076   8.899  1.00  0.00     0.009 A 
ATOM     47  C   UNL     1      -3.716   1.466  11.559  1.00  0.00     0.001 A 
ATOM     48  C   UNL     1      -4.371   1.125   9.269  1.00  0.00     0.001 A 
ATOM     49  C   UNL     1      -4.716   1.333  10.598  1.00  0.00     0.000 A 
ENDBRANCH  25  44
BRANCH  37  50
ATOM     50  C   UNL     1       4.180   1.458  10.843  1.00  0.00    -0.014 A 
ATOM     51  C   UNL     1       3.746   0.250  10.271  1.00  0.00     0.009 A 
ATOM     52  C   UNL     1       5.249   1.418  11.751  1.00  0.00     0.009 A 
ATOM     53  C   UNL     1       4.329  -0.966  10.635  1.00  0.00     0.001 A 
ATOM     54  C   UNL     1       5.849   0.205  12.096  1.00  0.00     0.001 A 
ATOM     55  C   UNL     1       5.382  -0.988  11.546  1.00  0.00     0.000 A 
ENDBRANCH  37  50
ENDBRANCH  11  12
ENDBRANCH   4   6
ENDBRANCH   3   4
ENDBRANCH   2   3
ENDBRANCH   1   2
BRANCH   1  56
ATOM     56  O   UNL     1       4.057   1.005  -0.918  1.00  0.00    -0.462 OA
BRANCH  56  57
ATOM     57  C   UNL     1       3.339   1.670  -1.869  1.00  0.00     0.314 C 
ATOM     58  O   UNL     1       3.384   1.396  -3.065  1.00  0.00    -0.252 OA
BRANCH  57  59
ATOM     59  C   UNL     1       2.381   2.695  -1.275  1.00  0.00     0.154 C 
ATOM     60  C   UNL     1       1.780   3.555  -2.393  1.00  0.00     0.027 C 
ATOM     61  C   UNL     1       2.976   3.599  -0.185  1.00  0.00     0.278 C 
ATOM     62  C   UNL     1       2.837   4.514  -2.933  1.00  0.00     0.062 C 
ATOM     63  N   UNL     1       3.879   4.661  -0.670  1.00  0.00    -0.328 N 
ATOM     64  C   UNL     1       3.348   5.414  -1.814  1.00  0.00     0.262 C 
ATOM     65  H   UNL     1       4.707   4.187  -1.029  1.00  0.00     0.348 HD
BRANCH  63  66
ATOM     66  C   UNL     1       4.305   5.551   0.438  1.00  0.00     0.339 C 
BRANCH  66  67
ATOM     67  C   UNL     1       3.262   6.540   0.910  1.00  0.00     0.168 A 
ATOM     68  N   UNL     1       2.175   6.227   1.601  1.00  0.00    -0.236 NA
ATOM     69  N   UNL     1       3.272   7.894   0.642  1.00  0.00    -0.273 N 
ATOM     70  C   UNL     1       1.450   7.380   1.729  1.00  0.00     0.131 A 
ATOM     71  C   UNL     1       2.111   8.429   1.147  1.00  0.00     0.113 A 
BRANCH  69  72
ATOM     72  C   UNL     1       4.267   8.665  -0.076  1.00  0.00     0.450 C 
ATOM     73  F   UNL     1       3.744   9.172  -1.224  1.00  0.00    -0.185 F 
ATOM     74  F   UNL     1       4.678   9.727   0.666  1.00  0.00    -0.185 F 
ENDBRANCH  69  72
ENDBRANCH  66  67
ENDBRANCH  63  66
ENDBRANCH  57  59
ENDBRANCH  56  57
ENDBRANCH   1  56
TORSDOF 14
