REMARK SMILES Cc1nc(-c2ccccc2Cl)nc2sc(C(=O)OCCOC(=O)c3ccc(-c4c5nc(c(-c6ccccc6)c6ccc([nH]6)c(-c6ccccc6)c6nc(c(-c7ccccc7)c7ccc4[nH]7)C=C6)C=C5)cc3)c(N)c12
REMARK SMILES IDX 20 1 19 2 18 3 16 4 17 5 15 6 1 7 2 8 3 9 74 10 4 11 13 12
REMARK SMILES IDX 72 13 12 14 14 15 5 16 6 17 10 18 7 19 9 20 11 21 8 22 73 23
REMARK SMILES IDX 21 26 22 27 23 28 24 29 25 30 71 31 26 32 70 33 27 34 28 35
REMARK SMILES IDX 29 36 64 37 30 38 69 39 63 40 65 41 31 42 68 43 62 44 61 45
REMARK SMILES IDX 32 47 54 48 39 49 53 50 40 51 43 52 52 53 66 54 41 55 42 56
REMARK SMILES IDX 51 58 67 59 44 60 33 61 34 62 38 63 35 64 37 65 36 66 55 67
REMARK SMILES IDX 56 68 60 69 57 70 59 71 58 72 45 73 46 74 50 75 47 76 49 77
REMARK SMILES IDX 48 78
REMARK H PARENT 73 24 73 25 65 46 43 57
REMARK Flexibility Score: inf
ROOT
ATOM      1  C   UNL     1       5.899   7.413   0.975  1.00  0.00     0.275 C 
ENDROOT
BRANCH   1   2
ATOM      2  C   UNL     1       5.415   7.275  -0.461  1.00  0.00     0.275 C 
BRANCH   2   3
ATOM      3  O   UNL     1       4.237   6.460  -0.535  1.00  0.00    -0.458 OA
BRANCH   3   4
ATOM      4  C   UNL     1       4.388   5.107  -0.671  1.00  0.00     0.350 C 
ATOM      5  O   UNL     1       5.467   4.554  -0.880  1.00  0.00    -0.245 OA
BRANCH   4   6
ATOM      6  C   UNL     1       3.121   4.421  -0.472  1.00  0.00     0.138 A 
ATOM      7  C   UNL     1       1.114   0.171  -0.012  1.00  0.00     0.067 C 
ATOM      8  C   UNL     1       0.653   1.597  -0.044  1.00  0.00     0.052 A 
ATOM      9  N   UNL     1      -0.709   1.740   0.007  1.00  0.00    -0.233 NA
ATOM     10  C   UNL     1       1.453   2.761  -0.174  1.00  0.00     0.057 A 
ATOM     11  C   UNL     1      -1.255   2.966  -0.019  1.00  0.00     0.162 A 
ATOM     12  C   UNL     1       0.738   3.949  -0.190  1.00  0.00     0.130 A 
ATOM     13  C   UNL     1       2.867   3.062  -0.316  1.00  0.00     0.069 A 
ATOM     14  N   UNL     1      -0.584   4.108  -0.112  1.00  0.00    -0.217 NA
ATOM     15  S   UNL     1       1.682   5.333  -0.368  1.00  0.00    -0.106 S 
BRANCH  11  16
ATOM     16  C   UNL     1      -2.707   3.112  -0.097  1.00  0.00     0.038 A 
ATOM     17  C   UNL     1      -3.247   3.850  -1.177  1.00  0.00     0.013 A 
ATOM     18  C   UNL     1      -3.593   2.648   0.884  1.00  0.00     0.052 A 
ATOM     19  C   UNL     1      -4.611   4.127  -1.268  1.00  0.00     0.001 A 
ATOM     20  C   UNL     1      -4.964   2.927   0.792  1.00  0.00     0.021 A 
ATOM     21  Cl  UNL     1      -3.056   1.785   2.285  1.00  0.00    -0.084 Cl
ATOM     22  C   UNL     1      -5.470   3.668  -0.278  1.00  0.00     0.002 A 
ENDBRANCH  11  16
BRANCH  13  23
ATOM     23  N   UNL     1       3.867   2.151  -0.313  1.00  0.00    -0.397 N 
ATOM     24  H   UNL     1       4.801   2.445  -0.416  1.00  0.00     0.156 HD
ATOM     25  H   UNL     1       3.661   1.194  -0.209  1.00  0.00     0.156 HD
ENDBRANCH  13  23
ENDBRANCH   4   6
ENDBRANCH   3   4
ENDBRANCH   2   3
ENDBRANCH   1   2
BRANCH   1  26
ATOM     26  O   UNL     1       6.525   6.210   1.413  1.00  0.00    -0.458 OA
BRANCH  26  27
ATOM     27  C   UNL     1       5.718   5.346   2.067  1.00  0.00     0.338 C 
ATOM     28  O   UNL     1       4.503   5.382   2.153  1.00  0.00    -0.246 OA
BRANCH  27  29
ATOM     29  C   UNL     1       6.546   4.415   2.832  1.00  0.00     0.060 A 
ATOM     30  C   UNL     1       5.926   3.292   3.385  1.00  0.00     0.016 A 
ATOM     31  C   UNL     1       7.843   4.807   3.195  1.00  0.00     0.016 A 
ATOM     32  C   UNL     1       6.556   2.644   4.427  1.00  0.00     0.010 A 
ATOM     33  C   UNL     1       8.461   4.171   4.241  1.00  0.00     0.010 A 
ATOM     34  C   UNL     1       7.779   3.144   4.888  1.00  0.00    -0.014 A 
BRANCH  34  35
ATOM     35  C   UNL     1       8.405   2.499   6.020  1.00  0.00     0.031 A 
ATOM     36  C   UNL     1       8.968   1.170   5.691  1.00  0.00     0.074 A 
ATOM     37  C   UNL     1       8.577   3.127   7.197  1.00  0.00     0.049 A 
ATOM     38  N   UNL     1       8.608   0.024   6.161  1.00  0.00    -0.248 NA
ATOM     39  C   UNL     1       9.944   1.095   4.589  1.00  0.00     0.031 C 
ATOM     40  C   UNL     1       8.319   4.534   7.519  1.00  0.00     0.029 A 
ATOM     41  N   UNL     1       9.146   2.653   8.335  1.00  0.00    -0.354 N 
ATOM     42  C   UNL     1       9.445  -0.905   5.554  1.00  0.00     0.074 A 
ATOM     43  C   UNL     1      10.111  -0.221   4.476  1.00  0.00     0.031 C 
ATOM     44  C   UNL     1       8.951   4.849   8.674  1.00  0.00     0.029 A 
ATOM     45  C   UNL     1       9.534   3.640   9.232  1.00  0.00     0.049 A 
ATOM     46  H   UNL     1       9.273   1.693   8.510  1.00  0.00     0.167 HD
ATOM     47  C   UNL     1       9.734  -2.091   6.152  1.00  0.00     0.031 A 
ATOM     48  C   UNL     1      10.341   3.469  10.309  1.00  0.00     0.031 A 
ATOM     49  C   UNL     1       8.787  -2.413   7.187  1.00  0.00     0.049 A 
ATOM     50  C   UNL     1      10.364   2.021  10.620  1.00  0.00     0.074 A 
ATOM     51  C   UNL     1       7.426  -2.638   7.221  1.00  0.00     0.029 A 
ATOM     52  N   UNL     1       9.165  -2.150   8.481  1.00  0.00    -0.354 N 
ATOM     53  N   UNL     1       9.334   1.367  11.072  1.00  0.00    -0.248 NA
ATOM     54  C   UNL     1      11.405   1.205  10.013  1.00  0.00     0.031 C 
ATOM     55  C   UNL     1       6.986  -2.048   8.442  1.00  0.00     0.029 A 
ATOM     56  C   UNL     1       8.106  -1.554   9.114  1.00  0.00     0.049 A 
ATOM     57  H   UNL     1      10.041  -2.353   8.883  1.00  0.00     0.167 HD
ATOM     58  C   UNL     1       9.383   0.142  10.422  1.00  0.00     0.074 A 
ATOM     59  C   UNL     1      10.734   0.058   9.872  1.00  0.00     0.031 C 
ATOM     60  C   UNL     1       8.239  -0.550  10.148  1.00  0.00     0.031 A 
BRANCH  47  61
ATOM     61  C   UNL     1      11.107  -2.710   6.095  1.00  0.00    -0.014 A 
ATOM     62  C   UNL     1      11.311  -3.959   6.702  1.00  0.00     0.009 A 
ATOM     63  C   UNL     1      12.260  -1.990   5.721  1.00  0.00     0.009 A 
ATOM     64  C   UNL     1      12.601  -4.429   6.976  1.00  0.00     0.001 A 
ATOM     65  C   UNL     1      13.548  -2.475   5.954  1.00  0.00     0.001 A 
ATOM     66  C   UNL     1      13.718  -3.685   6.608  1.00  0.00     0.000 A 
ENDBRANCH  47  61
BRANCH  48  67
ATOM     67  C   UNL     1      11.331   4.401  10.893  1.00  0.00    -0.014 A 
ATOM     68  C   UNL     1      11.880   4.151  12.162  1.00  0.00     0.009 A 
ATOM     69  C   UNL     1      11.958   5.371  10.090  1.00  0.00     0.009 A 
ATOM     70  C   UNL     1      13.043   4.807  12.587  1.00  0.00     0.001 A 
ATOM     71  C   UNL     1      13.116   6.030  10.517  1.00  0.00     0.001 A 
ATOM     72  C   UNL     1      13.670   5.733  11.758  1.00  0.00     0.000 A 
ENDBRANCH  48  67
BRANCH  60  73
ATOM     73  C   UNL     1       6.954  -0.066  10.777  1.00  0.00    -0.014 A 
ATOM     74  C   UNL     1       6.391   1.194  10.503  1.00  0.00     0.009 A 
ATOM     75  C   UNL     1       6.209  -0.975  11.541  1.00  0.00     0.009 A 
ATOM     76  C   UNL     1       5.127   1.536  10.997  1.00  0.00     0.001 A 
ATOM     77  C   UNL     1       4.939  -0.641  12.016  1.00  0.00     0.001 A 
ATOM     78  C   UNL     1       4.400   0.615  11.747  1.00  0.00     0.000 A 
ENDBRANCH  60  73
ENDBRANCH  34  35
ENDBRANCH  27  29
ENDBRANCH  26  27
ENDBRANCH   1  26
TORSDOF 13
