REMARK SMILES Cc1ccc2c(=O)c3cccc(CC(=O)OCCOC(=O)c4ccc(-c5c6nc(c(-c7ccccc7)c7ccc([nH]7)c(-c7ccccc7)c7nc(c(-c8ccccc8)c8ccc5[nH]8)C=C7)C=C6)cc4)c3oc2c1C
REMARK SMILES IDX 18 1 17 2 16 3 14 4 15 5 13 6 12 7 1 8 2 9 3 10 73 11 4 12
REMARK SMILES IDX 72 13 74 14 5 15 71 16 6 17 70 18 7 19 8 20 9 21 11 22 10 23
REMARK SMILES IDX 19 24 20 25 21 26 22 27 23 28 69 29 24 30 68 31 25 32 26 33
REMARK SMILES IDX 27 34 62 35 28 36 67 37 61 38 63 39 29 40 66 41 60 42 59 43
REMARK SMILES IDX 30 45 52 46 37 47 51 48 38 49 41 50 50 51 64 52 39 53 40 54
REMARK SMILES IDX 49 56 65 57 42 58 31 59 32 60 36 61 33 62 35 63 34 64 53 65
REMARK SMILES IDX 54 66 58 67 55 68 57 69 56 70 43 71 44 72 48 73 45 74 47 75
REMARK SMILES IDX 46 76
REMARK H PARENT 63 44 41 55
REMARK Flexibility Score: inf
ROOT
ATOM      1  C   UNL     1      -2.410   6.286  -0.737  1.00  0.00     0.275 C 
ENDROOT
BRANCH   1   2
ATOM      2  C   UNL     1      -2.445   6.979  -2.104  1.00  0.00     0.274 C 
BRANCH   2   3
ATOM      3  O   UNL     1      -1.690   6.259  -3.101  1.00  0.00    -0.462 OA
BRANCH   3   4
ATOM      4  C   UNL     1      -0.439   6.723  -3.348  1.00  0.00     0.310 C 
ATOM      5  O   UNL     1       0.045   7.717  -2.813  1.00  0.00    -0.252 OA
BRANCH   4   6
ATOM      6  C   UNL     1       0.390   5.849  -4.261  1.00  0.00     0.162 C 
BRANCH   6   7
ATOM      7  C   UNL     1      -0.325   4.953  -5.240  1.00  0.00     0.007 A 
ATOM      8  C   UNL     1       0.659  -0.756  -0.777  1.00  0.00     0.045 C 
ATOM      9  C   UNL     1       0.259  -0.204  -2.122  1.00  0.00    -0.044 A 
ATOM     10  C   UNL     1      -0.378  -1.045  -3.041  1.00  0.00     0.005 A 
ATOM     11  C   UNL     1       0.518   1.143  -2.474  1.00  0.00    -0.005 A 
ATOM     12  C   UNL     1      -0.787  -0.555  -4.278  1.00  0.00     0.016 A 
ATOM     13  C   UNL     1       0.034   1.656  -3.696  1.00  0.00     0.141 A 
ATOM     14  C   UNL     1       1.290   2.009  -1.520  1.00  0.00     0.049 C 
ATOM     15  C   UNL     1      -0.594   0.793  -4.590  1.00  0.00     0.066 A 
ATOM     16  O   UNL     1       0.202   3.002  -3.953  1.00  0.00    -0.455 OA
ATOM     17  C   UNL     1      -1.062   1.323  -5.876  1.00  0.00     0.200 A 
ATOM     18  C   UNL     1      -0.384   3.553  -5.074  1.00  0.00     0.142 A 
ATOM     19  O   UNL     1      -1.505   0.587  -6.748  1.00  0.00    -0.288 OA
ATOM     20  C   UNL     1      -0.987   2.776  -6.062  1.00  0.00     0.066 A 
ATOM     21  C   UNL     1      -1.519   3.360  -7.216  1.00  0.00     0.016 A 
ATOM     22  C   UNL     1      -0.884   5.533  -6.394  1.00  0.00     0.008 A 
ATOM     23  C   UNL     1      -1.469   4.740  -7.380  1.00  0.00     0.001 A 
ENDBRANCH   6   7
ENDBRANCH   4   6
ENDBRANCH   3   4
ENDBRANCH   2   3
ENDBRANCH   1   2
BRANCH   1  24
ATOM     24  O   UNL     1      -1.072   6.226  -0.190  1.00  0.00    -0.458 OA
BRANCH  24  25
ATOM     25  C   UNL     1      -0.404   5.120  -0.522  1.00  0.00     0.338 C 
ATOM     26  O   UNL     1      -0.814   4.193  -1.222  1.00  0.00    -0.246 OA
BRANCH  25  27
ATOM     27  C   UNL     1       0.964   5.114   0.003  1.00  0.00     0.060 A 
ATOM     28  C   UNL     1       1.240   4.489   1.226  1.00  0.00     0.016 A 
ATOM     29  C   UNL     1       2.016   5.487  -0.847  1.00  0.00     0.016 A 
ATOM     30  C   UNL     1       2.563   4.230   1.583  1.00  0.00     0.010 A 
ATOM     31  C   UNL     1       3.327   5.176  -0.513  1.00  0.00     0.010 A 
ATOM     32  C   UNL     1       3.614   4.555   0.709  1.00  0.00    -0.014 A 
BRANCH  32  33
ATOM     33  C   UNL     1       5.024   4.325   1.098  1.00  0.00     0.031 A 
ATOM     34  C   UNL     1       5.840   5.487   1.577  1.00  0.00     0.074 A 
ATOM     35  C   UNL     1       5.580   3.103   1.008  1.00  0.00     0.049 A 
ATOM     36  N   UNL     1       7.030   5.486   2.118  1.00  0.00    -0.248 NA
ATOM     37  C   UNL     1       5.242   6.824   1.427  1.00  0.00     0.031 C 
ATOM     38  C   UNL     1       4.918   1.906   0.494  1.00  0.00     0.029 A 
ATOM     39  N   UNL     1       6.838   2.668   1.345  1.00  0.00    -0.354 N 
ATOM     40  C   UNL     1       7.299   6.812   2.418  1.00  0.00     0.074 A 
ATOM     41  C   UNL     1       6.193   7.600   1.923  1.00  0.00     0.031 C 
ATOM     42  C   UNL     1       5.771   0.869   0.557  1.00  0.00     0.029 A 
ATOM     43  C   UNL     1       7.033   1.325   1.133  1.00  0.00     0.049 A 
ATOM     44  H   UNL     1       7.535   3.263   1.706  1.00  0.00     0.167 HD
ATOM     45  C   UNL     1       8.355   7.327   3.087  1.00  0.00     0.031 A 
ATOM     46  C   UNL     1       8.097   0.546   1.404  1.00  0.00     0.031 A 
ATOM     47  C   UNL     1       9.474   6.554   3.540  1.00  0.00     0.049 A 
ATOM     48  C   UNL     1       9.291   1.146   2.094  1.00  0.00     0.074 A 
ATOM     49  C   UNL     1      10.577   6.972   4.262  1.00  0.00     0.029 A 
ATOM     50  N   UNL     1       9.641   5.201   3.291  1.00  0.00    -0.354 N 
ATOM     51  N   UNL     1       9.473   2.378   2.502  1.00  0.00    -0.248 NA
ATOM     52  C   UNL     1      10.413   0.242   2.390  1.00  0.00     0.031 C 
ATOM     53  C   UNL     1      11.433   5.876   4.415  1.00  0.00     0.029 A 
ATOM     54  C   UNL     1      10.843   4.771   3.821  1.00  0.00     0.049 A 
ATOM     55  H   UNL     1       8.999   4.631   2.809  1.00  0.00     0.167 HD
ATOM     56  C   UNL     1      10.710   2.391   3.132  1.00  0.00     0.074 A 
ATOM     57  C   UNL     1      11.238   1.044   3.051  1.00  0.00     0.031 C 
ATOM     58  C   UNL     1      11.346   3.425   3.734  1.00  0.00     0.031 A 
BRANCH  45  59
ATOM     59  C   UNL     1       8.314   8.795   3.383  1.00  0.00    -0.014 A 
ATOM     60  C   UNL     1       9.138   9.685   2.682  1.00  0.00     0.009 A 
ATOM     61  C   UNL     1       7.444   9.293   4.367  1.00  0.00     0.009 A 
ATOM     62  C   UNL     1       9.082  11.054   2.954  1.00  0.00     0.001 A 
ATOM     63  C   UNL     1       7.377  10.662   4.622  1.00  0.00     0.001 A 
ATOM     64  C   UNL     1       8.196  11.541   3.916  1.00  0.00     0.000 A 
ENDBRANCH  45  59
BRANCH  46  65
ATOM     65  C   UNL     1       8.053  -0.905   1.091  1.00  0.00    -0.014 A 
ATOM     66  C   UNL     1       8.203  -1.359  -0.228  1.00  0.00     0.009 A 
ATOM     67  C   UNL     1       7.851  -1.844   2.114  1.00  0.00     0.009 A 
ATOM     68  C   UNL     1       8.152  -2.726  -0.516  1.00  0.00     0.001 A 
ATOM     69  C   UNL     1       7.817  -3.210   1.825  1.00  0.00     0.001 A 
ATOM     70  C   UNL     1       7.964  -3.650   0.511  1.00  0.00     0.000 A 
ENDBRANCH  46  65
BRANCH  58  71
ATOM     71  C   UNL     1      12.674   3.151   4.375  1.00  0.00    -0.014 A 
ATOM     72  C   UNL     1      12.773   3.108   5.774  1.00  0.00     0.009 A 
ATOM     73  C   UNL     1      13.838   3.043   3.601  1.00  0.00     0.009 A 
ATOM     74  C   UNL     1      14.017   2.978   6.390  1.00  0.00     0.001 A 
ATOM     75  C   UNL     1      15.080   2.893   4.220  1.00  0.00     0.001 A 
ATOM     76  C   UNL     1      15.170   2.869   5.612  1.00  0.00     0.000 A 
ENDBRANCH  58  71
ENDBRANCH  32  33
ENDBRANCH  25  27
ENDBRANCH  24  25
ENDBRANCH   1  24
TORSDOF 12
