REMARK SMILES CC(C)(C)OC(=O)N1CCC[C@@H](CC2CCCCC2)[C@@H]1C(=O)OCCOC(=O)c1ccc(-c2c3nc(c(-c4ccccc4)c4ccc([nH]4)c(-c4ccccc4)c4nc(c(-c5ccccc5)c5ccc2[nH]5)C=C4)C=C3)cc1
REMARK SMILES IDX 24 1 23 2 21 3 22 4 20 5 8 6 9 7 10 8 12 9 11 10 6 11 7 12
REMARK SMILES IDX 5 13 2 14 1 15 3 16 4 17 13 18 14 19 15 20 19 21 16 22 18 23
REMARK SMILES IDX 17 24 25 25 26 26 27 27 28 28 29 29 30 30 76 31 31 32 75 33
REMARK SMILES IDX 32 34 33 35 34 36 69 37 35 38 74 39 68 40 70 41 36 42 73 43
REMARK SMILES IDX 67 44 66 45 37 47 59 48 44 49 58 50 45 51 48 52 57 53 71 54
REMARK SMILES IDX 46 55 47 56 56 58 72 59 49 60 38 61 39 62 43 63 40 64 42 65
REMARK SMILES IDX 41 66 60 67 61 68 65 69 62 70 64 71 63 72 50 73 51 74 55 75
REMARK SMILES IDX 52 76 54 77 53 78
REMARK H PARENT 70 46 48 57
REMARK Flexibility Score: inf
ROOT
ATOM      1  C   UNL     1       4.534   2.606   0.217  1.00  0.00     0.274 C 
ENDROOT
BRANCH   1   2
ATOM      2  O   UNL     1       3.920   3.591   1.078  1.00  0.00    -0.461 OA
BRANCH   2   3
ATOM      3  C   UNL     1       3.074   3.076   2.011  1.00  0.00     0.329 C 
ATOM      4  O   UNL     1       2.940   1.871   2.213  1.00  0.00    -0.250 OA
BRANCH   3   5
ATOM      5  C   UNL     1       2.183   4.124   2.714  1.00  0.00     0.201 C 
ATOM      6  N   UNL     1       0.810   4.294   2.162  1.00  0.00    -0.294 N 
ATOM      7  C   UNL     1      -0.041   5.227   2.878  1.00  0.00     0.124 C 
ATOM      8  C   UNL     1       0.562   6.612   2.815  1.00  0.00     0.022 C 
ATOM      9  C   UNL     1       2.873   5.515   2.984  1.00  0.00     0.024 C 
ATOM     10  C   UNL     1       1.906   6.590   3.525  1.00  0.00     0.008 C 
BRANCH   6  11
ATOM     11  C   UNL     1       0.239   3.625   1.094  1.00  0.00     0.411 C 
ATOM     12  O   UNL     1      -0.738   4.061   0.490  1.00  0.00    -0.224 OA
BRANCH  11  13
ATOM     13  O   UNL     1       0.812   2.433   0.834  1.00  0.00    -0.444 OA
BRANCH  13  14
ATOM     14  C   UNL     1       0.332   1.559  -0.221  1.00  0.00     0.106 C 
ATOM     15  C   UNL     1       1.013   0.202   0.024  1.00  0.00     0.056 C 
ATOM     16  C   UNL     1       0.789   2.122  -1.567  1.00  0.00     0.056 C 
ATOM     17  C   UNL     1      -1.185   1.324  -0.177  1.00  0.00     0.056 C 
ENDBRANCH  13  14
ENDBRANCH  11  13
ENDBRANCH   6  11
BRANCH   9  18
ATOM     18  C   UNL     1       4.170   5.498   3.858  1.00  0.00     0.010 C 
BRANCH  18  19
ATOM     19  C   UNL     1       4.144   5.189   5.388  1.00  0.00    -0.011 C 
ATOM     20  C   UNL     1       3.924   6.413   6.304  1.00  0.00     0.003 C 
ATOM     21  C   UNL     1       3.191   4.062   5.774  1.00  0.00     0.003 C 
ATOM     22  C   UNL     1       3.914   6.042   7.796  1.00  0.00     0.000 C 
ATOM     23  C   UNL     1       3.291   3.686   7.243  1.00  0.00     0.000 C 
ATOM     24  C   UNL     1       2.966   4.888   8.111  1.00  0.00     0.000 C 
ENDBRANCH  18  19
ENDBRANCH   9  18
ENDBRANCH   3   5
ENDBRANCH   2   3
ENDBRANCH   1   2
BRANCH   1  25
ATOM     25  C   UNL     1       5.881   2.095   0.734  1.00  0.00     0.275 C 
BRANCH  25  26
ATOM     26  O   UNL     1       5.738   1.402   1.989  1.00  0.00    -0.458 OA
BRANCH  26  27
ATOM     27  C   UNL     1       6.336   1.992   3.048  1.00  0.00     0.338 C 
ATOM     28  O   UNL     1       7.008   3.012   3.034  1.00  0.00    -0.246 OA
BRANCH  27  29
ATOM     29  C   UNL     1       6.060   1.274   4.309  1.00  0.00     0.060 A 
ATOM     30  C   UNL     1       4.754   1.005   4.694  1.00  0.00     0.016 A 
ATOM     31  C   UNL     1       7.093   1.087   5.228  1.00  0.00     0.016 A 
ATOM     32  C   UNL     1       4.467   0.733   6.031  1.00  0.00     0.010 A 
ATOM     33  C   UNL     1       6.806   0.677   6.540  1.00  0.00     0.010 A 
ATOM     34  C   UNL     1       5.480   0.567   6.989  1.00  0.00    -0.014 A 
BRANCH  34  35
ATOM     35  C   UNL     1       5.149   0.364   8.440  1.00  0.00     0.031 A 
ATOM     36  C   UNL     1       5.830   1.185   9.519  1.00  0.00     0.074 A 
ATOM     37  C   UNL     1       4.200  -0.516   8.828  1.00  0.00     0.049 A 
ATOM     38  N   UNL     1       5.851   0.994  10.818  1.00  0.00    -0.248 NA
ATOM     39  C   UNL     1       6.597   2.366   9.088  1.00  0.00     0.031 C 
ATOM     40  C   UNL     1       3.381  -1.341   7.938  1.00  0.00     0.029 A 
ATOM     41  N   UNL     1       3.746  -0.850  10.085  1.00  0.00    -0.354 N 
ATOM     42  C   UNL     1       6.698   1.967  11.340  1.00  0.00     0.074 A 
ATOM     43  C   UNL     1       7.156   2.764  10.223  1.00  0.00     0.031 C 
ATOM     44  C   UNL     1       2.476  -2.012   8.661  1.00  0.00     0.029 A 
ATOM     45  C   UNL     1       2.752  -1.799  10.075  1.00  0.00     0.049 A 
ATOM     46  H   UNL     1       4.100  -0.448  10.911  1.00  0.00     0.167 HD
ATOM     47  C   UNL     1       7.073   2.170  12.628  1.00  0.00     0.031 A 
ATOM     48  C   UNL     1       2.170  -2.495  11.070  1.00  0.00     0.031 A 
ATOM     49  C   UNL     1       6.567   1.426  13.754  1.00  0.00     0.049 A 
ATOM     50  C   UNL     1       2.639  -2.300  12.480  1.00  0.00     0.074 A 
ATOM     51  C   UNL     1       6.885   1.569  15.095  1.00  0.00     0.029 A 
ATOM     52  N   UNL     1       5.620   0.418  13.677  1.00  0.00    -0.354 N 
ATOM     53  N   UNL     1       3.533  -1.462  12.943  1.00  0.00    -0.248 NA
ATOM     54  C   UNL     1       2.043  -3.175  13.498  1.00  0.00     0.031 C 
ATOM     55  C   UNL     1       6.170   0.612  15.823  1.00  0.00     0.029 A 
ATOM     56  C   UNL     1       5.359  -0.084  14.943  1.00  0.00     0.049 A 
ATOM     57  H   UNL     1       5.196   0.103  12.847  1.00  0.00     0.167 HD
ATOM     58  C   UNL     1       3.610  -1.711  14.306  1.00  0.00     0.074 A 
ATOM     59  C   UNL     1       2.648  -2.752  14.600  1.00  0.00     0.031 C 
ATOM     60  C   UNL     1       4.417  -1.133  15.229  1.00  0.00     0.031 A 
BRANCH  47  61
ATOM     61  C   UNL     1       8.139   3.200  12.899  1.00  0.00    -0.014 A 
ATOM     62  C   UNL     1       7.889   4.577  12.819  1.00  0.00     0.009 A 
ATOM     63  C   UNL     1       9.411   2.767  13.314  1.00  0.00     0.009 A 
ATOM     64  C   UNL     1       8.898   5.498  13.122  1.00  0.00     0.001 A 
ATOM     65  C   UNL     1      10.407   3.688  13.645  1.00  0.00     0.001 A 
ATOM     66  C   UNL     1      10.152   5.053  13.541  1.00  0.00     0.000 A 
ENDBRANCH  47  61
BRANCH  48  67
ATOM     67  C   UNL     1       1.154  -3.533  10.742  1.00  0.00    -0.014 A 
ATOM     68  C   UNL     1      -0.186  -3.375  11.121  1.00  0.00     0.009 A 
ATOM     69  C   UNL     1       1.524  -4.680  10.020  1.00  0.00     0.009 A 
ATOM     70  C   UNL     1      -1.133  -4.345  10.782  1.00  0.00     0.001 A 
ATOM     71  C   UNL     1       0.570  -5.625   9.646  1.00  0.00     0.001 A 
ATOM     72  C   UNL     1      -0.757  -5.460  10.034  1.00  0.00     0.000 A 
ENDBRANCH  48  67
BRANCH  60  73
ATOM     73  C   UNL     1       4.267  -1.602  16.648  1.00  0.00    -0.014 A 
ATOM     74  C   UNL     1       4.718  -2.870  17.047  1.00  0.00     0.009 A 
ATOM     75  C   UNL     1       3.661  -0.765  17.598  1.00  0.00     0.009 A 
ATOM     76  C   UNL     1       4.523  -3.308  18.359  1.00  0.00     0.001 A 
ATOM     77  C   UNL     1       3.494  -1.194  18.915  1.00  0.00     0.001 A 
ATOM     78  C   UNL     1       3.913  -2.470  19.291  1.00  0.00     0.000 A 
ENDBRANCH  60  73
ENDBRANCH  34  35
ENDBRANCH  27  29
ENDBRANCH  26  27
ENDBRANCH  25  26
ENDBRANCH   1  25
TORSDOF 16
