REMARK SMILES CC1(C)CCSC[C@@]1(Nc1ccccc1Br)C(=O)OCCOC(=O)c1ccc(-c2c3nc(c(-c4ccccc4)c4ccc([nH]4)c(-c4ccccc4)c4nc(c(-c5ccccc5)c5ccc2[nH]5)C=C4)C=C3)cc1
REMARK SMILES IDX 20 1 19 2 17 3 18 4 8 5 1 6 2 7 3 8 4 9 5 10 7 11 6 12 9 13
REMARK SMILES IDX 10 15 11 16 15 17 12 18 14 19 16 20 13 21 21 22 22 23 23 24
REMARK SMILES IDX 24 25 25 26 26 27 72 28 27 29 71 30 28 31 29 32 30 33 65 34
REMARK SMILES IDX 31 35 70 36 64 37 66 38 32 39 69 40 63 41 62 42 33 44 55 45
REMARK SMILES IDX 40 46 54 47 41 48 44 49 53 50 67 51 42 52 43 53 52 55 68 56
REMARK SMILES IDX 45 57 34 58 35 59 39 60 36 61 38 62 37 63 56 64 57 65 61 66
REMARK SMILES IDX 58 67 60 68 59 69 46 70 47 71 51 72 48 73 50 74 49 75
REMARK H PARENT 9 14 66 43 44 54
REMARK Flexibility Score: inf
ROOT
ATOM      1  C   UNL     1      -1.862   1.536   1.428  1.00  0.00     0.274 C 
ENDROOT
BRANCH   1   2
ATOM      2  O   UNL     1      -1.693   0.231   0.832  1.00  0.00    -0.460 OA
BRANCH   2   3
ATOM      3  C   UNL     1      -0.506  -0.383   1.060  1.00  0.00     0.333 C 
ATOM      4  O   UNL     1       0.410   0.155   1.681  1.00  0.00    -0.249 OA
BRANCH   3   5
ATOM      5  C   UNL     1      -0.348  -1.784   0.378  1.00  0.00     0.150 C 
ATOM      6  C   UNL     1       1.619  -0.563  -0.854  1.00  0.00     0.014 C 
ATOM      7  C   UNL     1       0.427  -1.553  -1.004  1.00  0.00     0.000 C 
ATOM      8  C   UNL     1      -0.506  -0.941  -2.078  1.00  0.00     0.014 C 
ATOM      9  C   UNL     1       0.994  -2.881  -1.591  1.00  0.00     0.020 C 
ATOM     10  C   UNL     1       2.000  -3.611  -0.709  1.00  0.00     0.070 C 
ATOM     11  C   UNL     1       0.524  -2.614   1.373  1.00  0.00     0.110 C 
ATOM     12  S   UNL     1       1.203  -4.202   0.789  1.00  0.00    -0.159 SA
BRANCH   5  13
ATOM     13  N   UNL     1      -1.671  -2.468   0.100  1.00  0.00    -0.368 N 
ATOM     14  H   UNL     1      -1.941  -2.587  -0.839  1.00  0.00     0.161 HD
BRANCH  13  15
ATOM     15  C   UNL     1      -2.533  -2.941   1.094  1.00  0.00     0.049 A 
ATOM     16  C   UNL     1      -2.271  -4.178   1.707  1.00  0.00     0.027 A 
ATOM     17  C   UNL     1      -3.761  -2.337   1.422  1.00  0.00     0.041 A 
ATOM     18  C   UNL     1      -3.078  -4.697   2.725  1.00  0.00     0.002 A 
ATOM     19  C   UNL     1      -4.559  -2.831   2.468  1.00  0.00     0.018 A 
ATOM     20  Br  UNL     1      -4.516  -0.933   0.384  1.00  0.00    -0.049 Br
ATOM     21  C   UNL     1      -4.203  -4.000   3.135  1.00  0.00     0.001 A 
ENDBRANCH  13  15
ENDBRANCH   5  13
ENDBRANCH   3   5
ENDBRANCH   2   3
ENDBRANCH   1   2
BRANCH   1  22
ATOM     22  C   UNL     1      -2.460   1.438   2.834  1.00  0.00     0.275 C 
BRANCH  22  23
ATOM     23  O   UNL     1      -1.587   0.667   3.676  1.00  0.00    -0.458 OA
BRANCH  23  24
ATOM     24  C   UNL     1      -2.164   0.030   4.718  1.00  0.00     0.338 C 
ATOM     25  O   UNL     1      -3.325   0.147   5.090  1.00  0.00    -0.246 OA
BRANCH  24  26
ATOM     26  C   UNL     1      -1.181  -0.876   5.366  1.00  0.00     0.060 A 
ATOM     27  C   UNL     1      -0.094  -1.384   4.655  1.00  0.00     0.016 A 
ATOM     28  C   UNL     1      -1.373  -1.287   6.685  1.00  0.00     0.016 A 
ATOM     29  C   UNL     1       0.743  -2.352   5.209  1.00  0.00     0.010 A 
ATOM     30  C   UNL     1      -0.472  -2.184   7.279  1.00  0.00     0.010 A 
ATOM     31  C   UNL     1       0.583  -2.750   6.539  1.00  0.00    -0.014 A 
BRANCH  31  32
ATOM     32  C   UNL     1       1.488  -3.772   7.141  1.00  0.00     0.031 A 
ATOM     33  C   UNL     1       0.915  -5.029   7.742  1.00  0.00     0.074 A 
ATOM     34  C   UNL     1       2.826  -3.595   7.151  1.00  0.00     0.049 A 
ATOM     35  N   UNL     1       1.496  -5.924   8.501  1.00  0.00    -0.248 NA
ATOM     36  C   UNL     1      -0.503  -5.310   7.464  1.00  0.00     0.031 C 
ATOM     37  C   UNL     1       3.544  -2.464   6.558  1.00  0.00     0.029 A 
ATOM     38  N   UNL     1       3.826  -4.379   7.675  1.00  0.00    -0.354 N 
ATOM     39  C   UNL     1       0.501  -6.829   8.851  1.00  0.00     0.074 A 
ATOM     40  C   UNL     1      -0.719  -6.383   8.213  1.00  0.00     0.031 C 
ATOM     41  C   UNL     1       4.864  -2.652   6.707  1.00  0.00     0.029 A 
ATOM     42  C   UNL     1       5.086  -3.862   7.490  1.00  0.00     0.049 A 
ATOM     43  H   UNL     1       3.656  -5.230   8.139  1.00  0.00     0.167 HD
ATOM     44  C   UNL     1       0.593  -7.925   9.641  1.00  0.00     0.031 A 
ATOM     45  C   UNL     1       6.285  -4.281   7.936  1.00  0.00     0.031 A 
ATOM     46  C   UNL     1       1.815  -8.404  10.233  1.00  0.00     0.049 A 
ATOM     47  C   UNL     1       6.361  -5.488   8.825  1.00  0.00     0.074 A 
ATOM     48  C   UNL     1       2.004  -9.502  11.056  1.00  0.00     0.029 A 
ATOM     49  N   UNL     1       3.060  -7.828  10.043  1.00  0.00    -0.354 N 
ATOM     50  N   UNL     1       5.395  -6.276   9.229  1.00  0.00    -0.248 NA
ATOM     51  C   UNL     1       7.690  -5.847   9.340  1.00  0.00     0.031 C 
ATOM     52  C   UNL     1       3.363  -9.575  11.384  1.00  0.00     0.029 A 
ATOM     53  C   UNL     1       4.022  -8.546  10.733  1.00  0.00     0.049 A 
ATOM     54  H   UNL     1       3.235  -7.027   9.497  1.00  0.00     0.167 HD
ATOM     55  C   UNL     1       5.999  -7.222  10.046  1.00  0.00     0.074 A 
ATOM     56  C   UNL     1       7.417  -6.928  10.056  1.00  0.00     0.031 C 
ATOM     57  C   UNL     1       5.427  -8.236  10.738  1.00  0.00     0.031 A 
BRANCH  44  58
ATOM     58  C   UNL     1      -0.678  -8.664   9.953  1.00  0.00    -0.014 A 
ATOM     59  C   UNL     1      -1.298  -9.494   9.007  1.00  0.00     0.009 A 
ATOM     60  C   UNL     1      -1.240  -8.554  11.235  1.00  0.00     0.009 A 
ATOM     61  C   UNL     1      -2.470 -10.180   9.334  1.00  0.00     0.001 A 
ATOM     62  C   UNL     1      -2.397  -9.260  11.566  1.00  0.00     0.001 A 
ATOM     63  C   UNL     1      -3.016 -10.067  10.613  1.00  0.00     0.000 A 
ENDBRANCH  44  58
BRANCH  45  64
ATOM     64  C   UNL     1       7.513  -3.513   7.600  1.00  0.00    -0.014 A 
ATOM     65  C   UNL     1       8.468  -4.044   6.721  1.00  0.00     0.009 A 
ATOM     66  C   UNL     1       7.733  -2.242   8.156  1.00  0.00     0.009 A 
ATOM     67  C   UNL     1       9.625  -3.322   6.415  1.00  0.00     0.001 A 
ATOM     68  C   UNL     1       8.875  -1.511   7.824  1.00  0.00     0.001 A 
ATOM     69  C   UNL     1       9.823  -2.054   6.959  1.00  0.00     0.000 A 
ENDBRANCH  45  64
BRANCH  57  70
ATOM     70  C   UNL     1       6.345  -9.109  11.542  1.00  0.00    -0.014 A 
ATOM     71  C   UNL     1       6.884  -8.664  12.758  1.00  0.00     0.009 A 
ATOM     72  C   UNL     1       6.667 -10.395  11.080  1.00  0.00     0.009 A 
ATOM     73  C   UNL     1       7.758  -9.478  13.481  1.00  0.00     0.001 A 
ATOM     74  C   UNL     1       7.524 -11.214  11.816  1.00  0.00     0.001 A 
ATOM     75  C   UNL     1       8.076 -10.752  13.010  1.00  0.00     0.000 A 
ENDBRANCH  57  70
ENDBRANCH  31  32
ENDBRANCH  24  26
ENDBRANCH  23  24
ENDBRANCH  22  23
ENDBRANCH   1  22
TORSDOF 13
