REMARK SMILES C[C@@H]1[C@@H](C(=O)OCCOC(=O)c2ccc(-c3c4nc(c(-c5ccccc5)c5ccc([nH]5)c(-c5ccccc5)c5nc(c(-c6ccccc6)c6ccc3[nH]6)C=C5)C=C4)cc2)CCN1C(=O)[C@]1([NH3+])CCOC1
REMARK SMILES IDX 7 1 6 2 4 3 5 4 3 5 1 6 2 7 62 8 60 9 61 10 63 11 64 12
REMARK SMILES IDX 65 13 67 14 70 15 68 16 69 17 66 18 8 22 9 23 10 24 11 25
REMARK SMILES IDX 12 26 13 27 59 28 14 29 58 30 15 31 16 32 17 33 52 34 18 35
REMARK SMILES IDX 57 36 51 37 53 38 19 39 56 40 50 41 49 42 20 44 42 45 27 46
REMARK SMILES IDX 41 47 28 48 31 49 40 50 54 51 29 52 30 53 39 55 55 56 32 57
REMARK SMILES IDX 21 58 22 59 26 60 23 61 25 62 24 63 43 64 44 65 48 66 45 67
REMARK SMILES IDX 47 68 46 69 33 70 34 71 38 72 35 73 37 74 36 75
REMARK H PARENT 66 19 66 20 66 21 53 43 31 54
REMARK Flexibility Score: inf
ROOT
ATOM      1  C   UNL     1       6.380  -6.062   0.901  1.00  0.00     0.274 C 
ENDROOT
BRANCH   1   2
ATOM      2  O   UNL     1       5.778  -5.590  -0.326  1.00  0.00    -0.462 OA
BRANCH   2   3
ATOM      3  C   UNL     1       5.352  -6.558  -1.179  1.00  0.00     0.311 C 
ATOM      4  O   UNL     1       5.438  -7.761  -0.956  1.00  0.00    -0.252 OA
BRANCH   3   5
ATOM      5  C   UNL     1       4.905  -6.006  -2.521  1.00  0.00     0.123 C 
ATOM      6  C   UNL     1       4.455  -3.951  -3.851  1.00  0.00     0.032 C 
ATOM      7  C   UNL     1       4.190  -4.644  -2.507  1.00  0.00     0.096 C 
ATOM      8  N   UNL     1       2.771  -4.983  -2.371  1.00  0.00    -0.334 N 
ATOM      9  C   UNL     1       3.883  -6.933  -3.198  1.00  0.00     0.039 C 
ATOM     10  C   UNL     1       2.524  -6.302  -2.931  1.00  0.00     0.121 C 
BRANCH   8  11
ATOM     11  C   UNL     1       1.704  -4.304  -1.816  1.00  0.00     0.286 C 
ATOM     12  O   UNL     1       0.592  -4.864  -1.803  1.00  0.00    -0.267 OA
BRANCH  11  13
ATOM     13  C   UNL     1       1.786  -2.849  -1.224  1.00  0.00     0.199 C 
ATOM     14  C   UNL     1       2.060  -1.782  -2.266  1.00  0.00     0.110 C 
ATOM     15  C   UNL     1       2.866  -2.650  -0.169  1.00  0.00     0.239 C 
ATOM     16  C   UNL     1       3.426  -1.222  -1.928  1.00  0.00     0.167 C 
ATOM     17  O   UNL     1       3.910  -1.848  -0.741  1.00  0.00    -0.374 OA
BRANCH  13  18
ATOM     18  N   UNL     1       0.440  -2.550  -0.630  1.00  0.00    -0.343 N 
ATOM     19  H   UNL     1       0.446  -1.611  -0.231  1.00  0.00     0.345 HD
ATOM     20  H   UNL     1       0.233  -3.229   0.102  1.00  0.00     0.345 HD
ATOM     21  H   UNL     1      -0.272  -2.607  -1.357  1.00  0.00     0.345 HD
ENDBRANCH  13  18
ENDBRANCH  11  13
ENDBRANCH   8  11
ENDBRANCH   3   5
ENDBRANCH   2   3
ENDBRANCH   1   2
BRANCH   1  22
ATOM     22  C   UNL     1       5.381  -6.034   2.055  1.00  0.00     0.275 C 
BRANCH  22  23
ATOM     23  O   UNL     1       4.250  -6.859   1.731  1.00  0.00    -0.458 OA
BRANCH  23  24
ATOM     24  C   UNL     1       3.033  -6.313   1.958  1.00  0.00     0.338 C 
ATOM     25  O   UNL     1       2.800  -5.242   2.492  1.00  0.00    -0.246 OA
BRANCH  24  26
ATOM     26  C   UNL     1       1.968  -7.191   1.423  1.00  0.00     0.060 A 
ATOM     27  C   UNL     1       2.175  -7.966   0.282  1.00  0.00     0.016 A 
ATOM     28  C   UNL     1       0.699  -7.148   2.003  1.00  0.00     0.016 A 
ATOM     29  C   UNL     1       1.099  -8.607  -0.334  1.00  0.00     0.010 A 
ATOM     30  C   UNL     1      -0.358  -7.865   1.432  1.00  0.00     0.010 A 
ATOM     31  C   UNL     1      -0.185  -8.567   0.227  1.00  0.00    -0.014 A 
BRANCH  31  32
ATOM     32  C   UNL     1      -1.351  -9.193  -0.464  1.00  0.00     0.031 A 
ATOM     33  C   UNL     1      -2.584  -8.373  -0.759  1.00  0.00     0.074 A 
ATOM     34  C   UNL     1      -1.329 -10.484  -0.853  1.00  0.00     0.049 A 
ATOM     35  N   UNL     1      -3.788  -8.778  -1.079  1.00  0.00    -0.248 NA
ATOM     36  C   UNL     1      -2.451  -6.911  -0.660  1.00  0.00     0.031 C 
ATOM     37  C   UNL     1      -0.197 -11.402  -0.717  1.00  0.00     0.029 A 
ATOM     38  N   UNL     1      -2.297 -11.246  -1.463  1.00  0.00    -0.354 N 
ATOM     39  C   UNL     1      -4.574  -7.632  -1.127  1.00  0.00     0.074 A 
ATOM     40  C   UNL     1      -3.706  -6.513  -0.824  1.00  0.00     0.031 C 
ATOM     41  C   UNL     1      -0.510 -12.576  -1.286  1.00  0.00     0.029 A 
ATOM     42  C   UNL     1      -1.901 -12.534  -1.723  1.00  0.00     0.049 A 
ATOM     43  H   UNL     1      -3.191 -10.900  -1.691  1.00  0.00     0.167 HD
ATOM     44  C   UNL     1      -5.899  -7.525  -1.388  1.00  0.00     0.031 A 
ATOM     45  C   UNL     1      -2.584 -13.588  -2.209  1.00  0.00     0.031 A 
ATOM     46  C   UNL     1      -6.745  -8.623  -1.776  1.00  0.00     0.049 A 
ATOM     47  C   UNL     1      -4.051 -13.451  -2.491  1.00  0.00     0.074 A 
ATOM     48  C   UNL     1      -8.102  -8.614  -2.052  1.00  0.00     0.029 A 
ATOM     49  N   UNL     1      -6.303  -9.919  -1.988  1.00  0.00    -0.354 N 
ATOM     50  N   UNL     1      -4.816 -12.393  -2.385  1.00  0.00    -0.248 NA
ATOM     51  C   UNL     1      -4.756 -14.668  -2.921  1.00  0.00     0.031 C 
ATOM     52  C   UNL     1      -8.485  -9.911  -2.415  1.00  0.00     0.029 A 
ATOM     53  C   UNL     1      -7.359 -10.716  -2.397  1.00  0.00     0.049 A 
ATOM     54  H   UNL     1      -5.377 -10.227  -1.865  1.00  0.00     0.167 HD
ATOM     55  C   UNL     1      -6.093 -12.818  -2.723  1.00  0.00     0.074 A 
ATOM     56  C   UNL     1      -5.995 -14.220  -3.069  1.00  0.00     0.031 C 
ATOM     57  C   UNL     1      -7.248 -12.110  -2.729  1.00  0.00     0.031 A 
BRANCH  44  58
ATOM     58  C   UNL     1      -6.536  -6.175  -1.222  1.00  0.00    -0.014 A 
ATOM     59  C   UNL     1      -6.375  -5.160  -2.175  1.00  0.00     0.009 A 
ATOM     60  C   UNL     1      -7.365  -5.942  -0.111  1.00  0.00     0.009 A 
ATOM     61  C   UNL     1      -7.014  -3.928  -2.006  1.00  0.00     0.001 A 
ATOM     62  C   UNL     1      -8.020  -4.719   0.043  1.00  0.00     0.001 A 
ATOM     63  C   UNL     1      -7.839  -3.712  -0.902  1.00  0.00     0.000 A 
ENDBRANCH  44  58
BRANCH  45  64
ATOM     64  C   UNL     1      -1.897 -14.891  -2.392  1.00  0.00    -0.014 A 
ATOM     65  C   UNL     1      -1.615 -15.370  -3.680  1.00  0.00     0.009 A 
ATOM     66  C   UNL     1      -1.506 -15.654  -1.280  1.00  0.00     0.009 A 
ATOM     67  C   UNL     1      -0.956 -16.590  -3.850  1.00  0.00     0.001 A 
ATOM     68  C   UNL     1      -0.823 -16.858  -1.453  1.00  0.00     0.001 A 
ATOM     69  C   UNL     1      -0.553 -17.328  -2.737  1.00  0.00     0.000 A 
ENDBRANCH  45  64
BRANCH  57  70
ATOM     70  C   UNL     1      -8.490 -12.845  -3.136  1.00  0.00    -0.014 A 
ATOM     71  C   UNL     1      -9.139 -13.710  -2.242  1.00  0.00     0.009 A 
ATOM     72  C   UNL     1      -9.024 -12.659  -4.420  1.00  0.00     0.009 A 
ATOM     73  C   UNL     1     -10.286 -14.400  -2.638  1.00  0.00     0.001 A 
ATOM     74  C   UNL     1     -10.181 -13.337  -4.806  1.00  0.00     0.001 A 
ATOM     75  C   UNL     1     -10.806 -14.212  -3.919  1.00  0.00     0.000 A 
ENDBRANCH  57  70
ENDBRANCH  31  32
ENDBRANCH  24  26
ENDBRANCH  23  24
ENDBRANCH  22  23
ENDBRANCH   1  22
TORSDOF 14
