REMARK SMILES C[C@H](C(=O)OCCOC(=O)c1ccc(-c2c3nc(c(-c4ccccc4)c4ccc([nH]4)c(-c4ccccc4)c4nc(c(-c5ccccc5)c5ccc2[nH]5)C=C4)C=C3)cc1)c1ccc2c(c1)[nH]c1ccc(Cl)cc12
REMARK SMILES IDX 7 1 6 2 5 3 3 4 4 5 2 6 1 7 59 8 60 9 64 10 61 11 63 12
REMARK SMILES IDX 62 13 65 14 72 15 66 16 71 18 67 19 69 20 68 21 70 22 8 23
REMARK SMILES IDX 9 24 10 25 11 26 12 27 58 28 13 29 57 30 14 31 15 32 16 33
REMARK SMILES IDX 51 34 17 35 56 36 50 37 52 38 18 39 55 40 49 41 48 42 19 44
REMARK SMILES IDX 41 45 26 46 40 47 27 48 30 49 39 50 53 51 28 52 29 53 38 55
REMARK SMILES IDX 54 56 31 57 20 58 21 59 25 60 22 61 24 62 23 63 42 64 43 65
REMARK SMILES IDX 47 66 44 67 46 68 45 69 32 70 33 71 37 72 34 73 36 74 35 75
REMARK H PARENT 65 17 52 43 30 54
REMARK Flexibility Score: inf
ROOT
ATOM      1  C   UNL     1       2.550  -2.373   0.651  1.00  0.00     0.275 C 
ENDROOT
BRANCH   1   2
ATOM      2  C   UNL     1       1.226  -1.715   1.031  1.00  0.00     0.274 C 
BRANCH   2   3
ATOM      3  O   UNL     1       0.703  -0.976  -0.090  1.00  0.00    -0.462 OA
BRANCH   3   4
ATOM      4  C   UNL     1       0.517   0.364   0.063  1.00  0.00     0.313 C 
ATOM      5  O   UNL     1       0.852   1.003   1.054  1.00  0.00    -0.252 OA
BRANCH   4   6
ATOM      6  C   UNL     1      -0.205   0.990  -1.136  1.00  0.00     0.126 C 
ATOM      7  C   UNL     1       0.427   0.643  -2.482  1.00  0.00     0.025 C 
BRANCH   6   8
ATOM      8  C   UNL     1      -1.688   0.663  -1.121  1.00  0.00    -0.032 A 
ATOM      9  C   UNL     1      -2.642   1.686  -1.195  1.00  0.00     0.005 A 
ATOM     10  C   UNL     1      -2.106  -0.670  -0.996  1.00  0.00     0.031 A 
ATOM     11  C   UNL     1      -4.011   1.406  -1.079  1.00  0.00     0.011 A 
ATOM     12  C   UNL     1      -3.460  -0.915  -0.786  1.00  0.00     0.047 A 
ATOM     13  C   UNL     1      -4.426   0.082  -0.827  1.00  0.00     0.007 A 
ATOM     14  N   UNL     1      -4.088  -2.094  -0.481  1.00  0.00    -0.355 N 
ATOM     15  C   UNL     1      -5.683  -0.545  -0.551  1.00  0.00     0.009 A 
ATOM     16  C   UNL     1      -5.427  -1.887  -0.268  1.00  0.00     0.047 A 
ATOM     17  H   UNL     1      -3.640  -2.969  -0.422  1.00  0.00     0.167 HD
ATOM     18  C   UNL     1      -7.011  -0.083  -0.469  1.00  0.00     0.031 A 
ATOM     19  C   UNL     1      -6.412  -2.784   0.153  1.00  0.00     0.028 A 
ATOM     20  C   UNL     1      -8.011  -0.975  -0.073  1.00  0.00     0.041 A 
ATOM     21  C   UNL     1      -7.717  -2.298   0.252  1.00  0.00     0.022 A 
ATOM     22  Cl  UNL     1      -9.640  -0.424   0.028  1.00  0.00    -0.084 Cl
ENDBRANCH   6   8
ENDBRANCH   4   6
ENDBRANCH   3   4
ENDBRANCH   2   3
ENDBRANCH   1   2
BRANCH   1  23
ATOM     23  O   UNL     1       3.542  -1.360   0.424  1.00  0.00    -0.458 OA
BRANCH  23  24
ATOM     24  C   UNL     1       3.658  -0.962  -0.862  1.00  0.00     0.338 C 
ATOM     25  O   UNL     1       3.133  -1.439  -1.851  1.00  0.00    -0.246 OA
BRANCH  24  26
ATOM     26  C   UNL     1       4.441   0.275  -0.892  1.00  0.00     0.060 A 
ATOM     27  C   UNL     1       3.757   1.492  -0.885  1.00  0.00     0.016 A 
ATOM     28  C   UNL     1       5.826   0.232  -1.022  1.00  0.00     0.016 A 
ATOM     29  C   UNL     1       4.448   2.679  -1.069  1.00  0.00     0.010 A 
ATOM     30  C   UNL     1       6.528   1.431  -1.154  1.00  0.00     0.010 A 
ATOM     31  C   UNL     1       5.839   2.657  -1.202  1.00  0.00    -0.014 A 
BRANCH  31  32
ATOM     32  C   UNL     1       6.567   3.922  -1.433  1.00  0.00     0.031 A 
ATOM     33  C   UNL     1       7.222   4.169  -2.759  1.00  0.00     0.074 A 
ATOM     34  C   UNL     1       6.615   4.849  -0.460  1.00  0.00     0.049 A 
ATOM     35  N   UNL     1       8.020   5.142  -3.115  1.00  0.00    -0.248 NA
ATOM     36  C   UNL     1       6.949   3.189  -3.823  1.00  0.00     0.031 C 
ATOM     37  C   UNL     1       5.956   4.747   0.844  1.00  0.00     0.029 A 
ATOM     38  N   UNL     1       7.248   6.064  -0.421  1.00  0.00    -0.354 N 
ATOM     39  C   UNL     1       8.374   4.872  -4.430  1.00  0.00     0.074 A 
ATOM     40  C   UNL     1       7.711   3.643  -4.808  1.00  0.00     0.031 C 
ATOM     41  C   UNL     1       6.212   5.858   1.552  1.00  0.00     0.029 A 
ATOM     42  C   UNL     1       7.104   6.715   0.779  1.00  0.00     0.049 A 
ATOM     43  H   UNL     1       7.757   6.433  -1.179  1.00  0.00     0.167 HD
ATOM     44  C   UNL     1       9.186   5.586  -5.244  1.00  0.00     0.031 A 
ATOM     45  C   UNL     1       7.662   7.856   1.220  1.00  0.00     0.031 A 
ATOM     46  C   UNL     1       9.832   6.813  -4.862  1.00  0.00     0.049 A 
ATOM     47  C   UNL     1       8.607   8.597   0.320  1.00  0.00     0.074 A 
ATOM     48  C   UNL     1      10.682   7.612  -5.606  1.00  0.00     0.029 A 
ATOM     49  N   UNL     1       9.689   7.422  -3.624  1.00  0.00    -0.354 N 
ATOM     50  N   UNL     1       8.974   8.310  -0.905  1.00  0.00    -0.248 NA
ATOM     51  C   UNL     1       9.222   9.813   0.868  1.00  0.00     0.031 C 
ATOM     52  C   UNL     1      11.082   8.687  -4.805  1.00  0.00     0.029 A 
ATOM     53  C   UNL     1      10.446   8.580  -3.578  1.00  0.00     0.049 A 
ATOM     54  H   UNL     1       9.131   7.082  -2.888  1.00  0.00     0.167 HD
ATOM     55  C   UNL     1       9.855   9.314  -1.281  1.00  0.00     0.074 A 
ATOM     56  C   UNL     1       9.951  10.227  -0.159  1.00  0.00     0.031 C 
ATOM     57  C   UNL     1      10.527   9.467  -2.447  1.00  0.00     0.031 A 
BRANCH  44  58
ATOM     58  C   UNL     1       9.455   5.026  -6.611  1.00  0.00    -0.014 A 
ATOM     59  C   UNL     1       8.485   5.069  -7.624  1.00  0.00     0.009 A 
ATOM     60  C   UNL     1      10.707   4.457  -6.891  1.00  0.00     0.009 A 
ATOM     61  C   UNL     1       8.754   4.526  -8.882  1.00  0.00     0.001 A 
ATOM     62  C   UNL     1      10.981   3.935  -8.156  1.00  0.00     0.001 A 
ATOM     63  C   UNL     1      10.002   3.963  -9.148  1.00  0.00     0.000 A 
ENDBRANCH  44  58
BRANCH  45  64
ATOM     64  C   UNL     1       7.377   8.333   2.596  1.00  0.00    -0.014 A 
ATOM     65  C   UNL     1       6.584   9.469   2.809  1.00  0.00     0.009 A 
ATOM     66  C   UNL     1       7.887   7.641   3.707  1.00  0.00     0.009 A 
ATOM     67  C   UNL     1       6.319   9.911   4.107  1.00  0.00     0.001 A 
ATOM     68  C   UNL     1       7.598   8.070   5.003  1.00  0.00     0.001 A 
ATOM     69  C   UNL     1       6.821   9.209   5.202  1.00  0.00     0.000 A 
ENDBRANCH  45  64
BRANCH  57  70
ATOM     70  C   UNL     1      11.402  10.679  -2.569  1.00  0.00    -0.014 A 
ATOM     71  C   UNL     1      12.644  10.743  -1.919  1.00  0.00     0.009 A 
ATOM     72  C   UNL     1      10.990  11.755  -3.369  1.00  0.00     0.009 A 
ATOM     73  C   UNL     1      13.444  11.880  -2.046  1.00  0.00     0.001 A 
ATOM     74  C   UNL     1      11.803  12.879  -3.512  1.00  0.00     0.001 A 
ATOM     75  C   UNL     1      13.025  12.944  -2.844  1.00  0.00     0.000 A 
ENDBRANCH  57  70
ENDBRANCH  31  32
ENDBRANCH  24  26
ENDBRANCH  23  24
ENDBRANCH   1  23
TORSDOF 12
