REMARK SMILES C[C@@H](C(=O)OCCOC(=O)c1ccc(-c2c3nc(c(-c4ccccc4)c4ccc([nH]4)c(-c4ccccc4)c4nc(c(-c5ccccc5)c5ccc2[nH]5)C=C4)C=C3)cc1)c1ccc(C(=O)c2cccs2)cc1
REMARK SMILES IDX 6 1 5 2 3 3 4 4 2 5 1 6 59 7 60 8 71 9 61 10 70 11 62 12
REMARK SMILES IDX 63 13 64 14 65 15 66 16 69 17 67 18 68 19 7 20 8 21 9 22
REMARK SMILES IDX 10 23 11 24 12 25 58 26 13 27 57 28 14 29 15 30 16 31 51 32
REMARK SMILES IDX 17 33 56 34 50 35 52 36 18 37 55 38 49 39 48 40 19 42 41 43
REMARK SMILES IDX 26 44 40 45 27 46 30 47 39 48 53 49 28 50 29 51 38 53 54 54
REMARK SMILES IDX 31 55 20 56 21 57 25 58 22 59 24 60 23 61 42 62 43 63 47 64
REMARK SMILES IDX 44 65 46 66 45 67 32 68 33 69 37 70 34 71 36 72 35 73
REMARK H PARENT 52 41 30 52
REMARK Flexibility Score: inf
ROOT
ATOM      1  C   UNL     1       2.483   3.503   1.119  1.00  0.00     0.274 C 
ENDROOT
BRANCH   1   2
ATOM      2  O   UNL     1       1.884   2.207   0.903  1.00  0.00    -0.462 OA
BRANCH   2   3
ATOM      3  C   UNL     1       1.307   1.598   1.976  1.00  0.00     0.313 C 
ATOM      4  O   UNL     1       1.285   2.084   3.101  1.00  0.00    -0.252 OA
BRANCH   3   5
ATOM      5  C   UNL     1       0.718   0.213   1.627  1.00  0.00     0.126 C 
ATOM      6  C   UNL     1       1.146  -0.212   0.209  1.00  0.00     0.025 C 
BRANCH   5   7
ATOM      7  C   UNL     1      -0.797   0.064   1.868  1.00  0.00    -0.034 A 
ATOM      8  C   UNL     1      -1.483   0.852   2.806  1.00  0.00     0.005 A 
ATOM      9  C   UNL     1      -1.555  -0.910   1.185  1.00  0.00     0.005 A 
ATOM     10  C   UNL     1      -2.872   0.757   2.961  1.00  0.00     0.012 A 
ATOM     11  C   UNL     1      -2.947  -1.014   1.339  1.00  0.00     0.012 A 
ATOM     12  C   UNL     1      -3.620  -0.153   2.205  1.00  0.00     0.023 A 
BRANCH  12  13
ATOM     13  C   UNL     1      -5.110  -0.083   2.287  1.00  0.00     0.202 C 
ATOM     14  O   UNL     1      -5.605   0.954   2.724  1.00  0.00    -0.288 OA
BRANCH  13  15
ATOM     15  C   UNL     1      -5.908  -1.211   1.860  1.00  0.00     0.075 A 
ATOM     16  C   UNL     1      -6.033  -2.451   2.453  1.00  0.00     0.024 A 
ATOM     17  S   UNL     1      -6.931  -1.045   0.499  1.00  0.00    -0.140 S 
ATOM     18  C   UNL     1      -6.994  -3.267   1.787  1.00  0.00     0.012 A 
ATOM     19  C   UNL     1      -7.551  -2.629   0.700  1.00  0.00     0.065 A 
ENDBRANCH  13  15
ENDBRANCH  12  13
ENDBRANCH   5   7
ENDBRANCH   3   5
ENDBRANCH   2   3
ENDBRANCH   1   2
BRANCH   1  20
ATOM     20  C   UNL     1       2.082   4.423  -0.028  1.00  0.00     0.275 C 
BRANCH  20  21
ATOM     21  O   UNL     1       0.649   4.559  -0.011  1.00  0.00    -0.458 OA
BRANCH  21  22
ATOM     22  C   UNL     1       0.002   4.159  -1.125  1.00  0.00     0.338 C 
ATOM     23  O   UNL     1       0.486   3.812  -2.195  1.00  0.00    -0.246 OA
BRANCH  22  24
ATOM     24  C   UNL     1      -1.442   4.176  -0.863  1.00  0.00     0.060 A 
ATOM     25  C   UNL     1      -1.970   3.311   0.093  1.00  0.00     0.016 A 
ATOM     26  C   UNL     1      -2.285   4.981  -1.630  1.00  0.00     0.016 A 
ATOM     27  C   UNL     1      -3.351   3.217   0.252  1.00  0.00     0.010 A 
ATOM     28  C   UNL     1      -3.669   4.924  -1.425  1.00  0.00     0.010 A 
ATOM     29  C   UNL     1      -4.220   4.019  -0.501  1.00  0.00    -0.014 A 
BRANCH  29  30
ATOM     30  C   UNL     1      -5.693   3.838  -0.376  1.00  0.00     0.031 A 
ATOM     31  C   UNL     1      -6.488   3.323  -1.548  1.00  0.00     0.074 A 
ATOM     32  C   UNL     1      -6.323   4.057   0.795  1.00  0.00     0.049 A 
ATOM     33  N   UNL     1      -7.786   3.201  -1.681  1.00  0.00    -0.248 NA
ATOM     34  C   UNL     1      -5.722   2.893  -2.729  1.00  0.00     0.031 C 
ATOM     35  C   UNL     1      -5.675   4.456   2.045  1.00  0.00     0.029 A 
ATOM     36  N   UNL     1      -7.648   3.926   1.135  1.00  0.00    -0.354 N 
ATOM     37  C   UNL     1      -7.992   2.744  -2.976  1.00  0.00     0.074 A 
ATOM     38  C   UNL     1      -6.689   2.594  -3.585  1.00  0.00     0.031 C 
ATOM     39  C   UNL     1      -6.586   4.447   3.032  1.00  0.00     0.029 A 
ATOM     40  C   UNL     1      -7.896   4.131   2.471  1.00  0.00     0.049 A 
ATOM     41  H   UNL     1      -8.352   3.705   0.483  1.00  0.00     0.167 HD
ATOM     42  C   UNL     1      -9.163   2.487  -3.607  1.00  0.00     0.031 A 
ATOM     43  C   UNL     1      -9.050   4.087   3.165  1.00  0.00     0.031 A 
ATOM     44  C   UNL     1     -10.460   2.592  -2.995  1.00  0.00     0.049 A 
ATOM     45  C   UNL     1     -10.340   3.834   2.434  1.00  0.00     0.074 A 
ATOM     46  C   UNL     1     -11.705   2.401  -3.571  1.00  0.00     0.029 A 
ATOM     47  N   UNL     1     -10.679   2.889  -1.659  1.00  0.00    -0.354 N 
ATOM     48  N   UNL     1     -10.534   3.517   1.178  1.00  0.00    -0.248 NA
ATOM     49  C   UNL     1     -11.579   3.973   3.216  1.00  0.00     0.031 C 
ATOM     50  C   UNL     1     -12.680   2.620  -2.591  1.00  0.00     0.029 A 
ATOM     51  C   UNL     1     -12.039   2.901  -1.396  1.00  0.00     0.049 A 
ATOM     52  H   UNL     1      -9.973   3.064  -0.996  1.00  0.00     0.167 HD
ATOM     53  C   UNL     1     -11.910   3.423   1.019  1.00  0.00     0.074 A 
ATOM     54  C   UNL     1     -12.504   3.681   2.313  1.00  0.00     0.031 C 
ATOM     55  C   UNL     1     -12.619   3.166  -0.107  1.00  0.00     0.031 A 
BRANCH  42  56
ATOM     56  C   UNL     1      -9.095   2.141  -5.066  1.00  0.00    -0.014 A 
ATOM     57  C   UNL     1      -8.694   0.872  -5.507  1.00  0.00     0.009 A 
ATOM     58  C   UNL     1      -9.466   3.108  -6.014  1.00  0.00     0.009 A 
ATOM     59  C   UNL     1      -8.641   0.588  -6.874  1.00  0.00     0.001 A 
ATOM     60  C   UNL     1      -9.434   2.814  -7.377  1.00  0.00     0.001 A 
ATOM     61  C   UNL     1      -9.014   1.556  -7.806  1.00  0.00     0.000 A 
ENDBRANCH  42  56
BRANCH  43  62
ATOM     62  C   UNL     1      -9.059   4.336   4.632  1.00  0.00    -0.014 A 
ATOM     63  C   UNL     1      -9.411   3.312   5.524  1.00  0.00     0.009 A 
ATOM     64  C   UNL     1      -8.751   5.605   5.147  1.00  0.00     0.009 A 
ATOM     65  C   UNL     1      -9.473   3.558   6.898  1.00  0.00     0.001 A 
ATOM     66  C   UNL     1      -8.781   5.840   6.523  1.00  0.00     0.001 A 
ATOM     67  C   UNL     1      -9.152   4.820   7.396  1.00  0.00     0.000 A 
ENDBRANCH  43  62
BRANCH  55  68
ATOM     68  C   UNL     1     -14.115   3.150   0.013  1.00  0.00    -0.014 A 
ATOM     69  C   UNL     1     -14.839   4.345   0.144  1.00  0.00     0.009 A 
ATOM     70  C   UNL     1     -14.811   1.933  -0.045  1.00  0.00     0.009 A 
ATOM     71  C   UNL     1     -16.232   4.319   0.243  1.00  0.00     0.001 A 
ATOM     72  C   UNL     1     -16.204   1.912   0.032  1.00  0.00     0.001 A 
ATOM     73  C   UNL     1     -16.913   3.104   0.184  1.00  0.00     0.000 A 
ENDBRANCH  55  68
ENDBRANCH  29  30
ENDBRANCH  22  24
ENDBRANCH  21  22
ENDBRANCH  20  21
ENDBRANCH   1  20
TORSDOF 14
