REMARK SMILES CC[C@H](C(=O)OCCOC(=O)c1ccc(-c2c3nc(c(-c4ccccc4)c4ccc([nH]4)c(-c4ccccc4)c4nc(c(-c5ccccc5)c5ccc2[nH]5)C=C4)C=C3)cc1)[N@@H+](C)[C@H]1CC[C@@H]([NH2+]C)CC1
REMARK SMILES IDX 7 1 6 2 4 3 5 4 3 5 2 6 1 7 60 8 61 9 62 11 69 12 63 13
REMARK SMILES IDX 68 14 64 15 65 16 66 17 67 18 8 21 9 22 10 23 11 24 12 25
REMARK SMILES IDX 13 26 59 27 14 28 58 29 15 30 16 31 17 32 52 33 18 34 57 35
REMARK SMILES IDX 51 36 53 37 19 38 56 39 50 40 49 41 20 43 42 44 27 45 41 46
REMARK SMILES IDX 28 47 31 48 40 49 54 50 29 51 30 52 39 54 55 55 32 56 21 57
REMARK SMILES IDX 22 58 26 59 23 60 25 61 24 62 43 63 44 64 48 65 45 66 47 67
REMARK SMILES IDX 46 68 33 69 34 70 38 71 35 72 37 73 36 74
REMARK H PARENT 60 10 66 19 66 20 53 42 31 53
REMARK Flexibility Score: inf
ROOT
ATOM      1  C   UNL     1       0.775  -1.420  -0.816  1.00  0.00     0.274 C 
ENDROOT
BRANCH   1   2
ATOM      2  O   UNL     1       1.093  -0.432   0.182  1.00  0.00    -0.458 OA
BRANCH   2   3
ATOM      3  C   UNL     1       0.238  -0.391   1.250  1.00  0.00     0.365 C 
ATOM      4  O   UNL     1      -0.743  -1.118   1.360  1.00  0.00    -0.245 OA
BRANCH   3   5
ATOM      5  C   UNL     1       0.683   0.696   2.261  1.00  0.00     0.294 C 
BRANCH   5   6
ATOM      6  C   UNL     1       0.421   2.132   1.763  1.00  0.00     0.074 C 
ATOM      7  C   UNL     1      -0.724   2.302   0.775  1.00  0.00     0.011 C 
ENDBRANCH   5   6
BRANCH   5   8
ATOM      8  N   UNL     1       0.163   0.399   3.626  1.00  0.00    -0.323 N 
ATOM      9  C   UNL     1       0.975   0.972   4.692  1.00  0.00     0.333 C 
ATOM     10  H   UNL     1       0.297  -0.608   3.717  1.00  0.00     0.348 HD
BRANCH   8  11
ATOM     11  C   UNL     1      -1.296   0.471   3.811  1.00  0.00     0.184 C 
ATOM     12  C   UNL     1      -1.754  -0.842   4.479  1.00  0.00     0.071 C 
ATOM     13  C   UNL     1      -1.827   1.701   4.576  1.00  0.00     0.071 C 
ATOM     14  C   UNL     1      -3.265  -0.873   4.685  1.00  0.00     0.071 C 
ATOM     15  C   UNL     1      -3.342   1.617   4.804  1.00  0.00     0.071 C 
ATOM     16  C   UNL     1      -3.766   0.318   5.513  1.00  0.00     0.182 C 
BRANCH  16  17
ATOM     17  N   UNL     1      -3.281   0.363   6.902  1.00  0.00    -0.346 N 
ATOM     18  C   UNL     1      -3.587  -0.831   7.673  1.00  0.00     0.331 C 
ATOM     19  H   UNL     1      -3.710   1.164   7.366  1.00  0.00     0.346 HD
ATOM     20  H   UNL     1      -2.264   0.434   6.858  1.00  0.00     0.346 HD
ENDBRANCH  16  17
ENDBRANCH   8  11
ENDBRANCH   5   8
ENDBRANCH   3   5
ENDBRANCH   2   3
ENDBRANCH   1   2
BRANCH   1  21
ATOM     21  C   UNL     1       1.536  -2.734  -0.604  1.00  0.00     0.275 C 
BRANCH  21  22
ATOM     22  O   UNL     1       1.165  -3.394   0.621  1.00  0.00    -0.458 OA
BRANCH  22  23
ATOM     23  C   UNL     1       1.934  -3.079   1.693  1.00  0.00     0.338 C 
ATOM     24  O   UNL     1       2.922  -2.364   1.691  1.00  0.00    -0.246 OA
BRANCH  23  25
ATOM     25  C   UNL     1       1.332  -3.600   2.941  1.00  0.00     0.060 A 
ATOM     26  C   UNL     1       1.335  -2.746   4.046  1.00  0.00     0.016 A 
ATOM     27  C   UNL     1       0.812  -4.892   3.062  1.00  0.00     0.016 A 
ATOM     28  C   UNL     1       0.791  -3.157   5.260  1.00  0.00     0.010 A 
ATOM     29  C   UNL     1       0.295  -5.320   4.296  1.00  0.00     0.010 A 
ATOM     30  C   UNL     1       0.280  -4.452   5.400  1.00  0.00    -0.014 A 
BRANCH  30  31
ATOM     31  C   UNL     1      -0.127  -4.900   6.755  1.00  0.00     0.031 A 
ATOM     32  C   UNL     1       0.933  -5.394   7.695  1.00  0.00     0.074 A 
ATOM     33  C   UNL     1      -1.402  -4.796   7.173  1.00  0.00     0.049 A 
ATOM     34  N   UNL     1       0.831  -5.738   8.953  1.00  0.00    -0.248 NA
ATOM     35  C   UNL     1       2.288  -5.524   7.137  1.00  0.00     0.031 C 
ATOM     36  C   UNL     1      -2.516  -4.321   6.360  1.00  0.00     0.029 A 
ATOM     37  N   UNL     1      -1.965  -5.048   8.401  1.00  0.00    -0.354 N 
ATOM     38  C   UNL     1       2.101  -6.155   9.329  1.00  0.00     0.074 A 
ATOM     39  C   UNL     1       2.957  -6.008   8.171  1.00  0.00     0.031 C 
ATOM     40  C   UNL     1      -3.622  -4.267   7.125  1.00  0.00     0.029 A 
ATOM     41  C   UNL     1      -3.299  -4.718   8.476  1.00  0.00     0.049 A 
ATOM     42  H   UNL     1      -1.462  -5.430   9.156  1.00  0.00     0.167 HD
ATOM     43  C   UNL     1       2.511  -6.644  10.523  1.00  0.00     0.031 A 
ATOM     44  C   UNL     1      -4.150  -4.759   9.522  1.00  0.00     0.031 A 
ATOM     45  C   UNL     1       1.653  -6.831  11.662  1.00  0.00     0.049 A 
ATOM     46  C   UNL     1      -3.660  -5.297  10.845  1.00  0.00     0.074 A 
ATOM     47  C   UNL     1       1.970  -7.358  12.902  1.00  0.00     0.029 A 
ATOM     48  N   UNL     1       0.305  -6.510  11.695  1.00  0.00    -0.354 N 
ATOM     49  N   UNL     1      -2.454  -5.677  11.193  1.00  0.00    -0.248 NA
ATOM     50  C   UNL     1      -4.659  -5.426  11.918  1.00  0.00     0.031 C 
ATOM     51  C   UNL     1       0.799  -7.410  13.666  1.00  0.00     0.029 A 
ATOM     52  C   UNL     1      -0.229  -6.843  12.929  1.00  0.00     0.049 A 
ATOM     53  H   UNL     1      -0.198  -6.104  10.953  1.00  0.00     0.167 HD
ATOM     54  C   UNL     1      -2.549  -6.083  12.519  1.00  0.00     0.074 A 
ATOM     55  C   UNL     1      -3.919  -5.856  12.929  1.00  0.00     0.031 C 
ATOM     56  C   UNL     1      -1.595  -6.615  13.323  1.00  0.00     0.031 A 
BRANCH  43  57
ATOM     57  C   UNL     1       3.941  -7.093  10.620  1.00  0.00    -0.014 A 
ATOM     58  C   UNL     1       5.003  -6.177  10.639  1.00  0.00     0.009 A 
ATOM     59  C   UNL     1       4.225  -8.466  10.695  1.00  0.00     0.009 A 
ATOM     60  C   UNL     1       6.324  -6.630  10.697  1.00  0.00     0.001 A 
ATOM     61  C   UNL     1       5.543  -8.914  10.783  1.00  0.00     0.001 A 
ATOM     62  C   UNL     1       6.591  -7.997  10.773  1.00  0.00     0.000 A 
ENDBRANCH  43  57
BRANCH  44  63
ATOM     63  C   UNL     1      -5.563  -4.298   9.386  1.00  0.00    -0.014 A 
ATOM     64  C   UNL     1      -6.044  -3.223  10.155  1.00  0.00     0.009 A 
ATOM     65  C   UNL     1      -6.460  -4.969   8.540  1.00  0.00     0.009 A 
ATOM     66  C   UNL     1      -7.395  -2.864  10.113  1.00  0.00     0.001 A 
ATOM     67  C   UNL     1      -7.800  -4.580   8.468  1.00  0.00     0.001 A 
ATOM     68  C   UNL     1      -8.271  -3.540   9.267  1.00  0.00     0.000 A 
ENDBRANCH  44  63
BRANCH  56  69
ATOM     69  C   UNL     1      -1.992  -6.962  14.734  1.00  0.00    -0.014 A 
ATOM     70  C   UNL     1      -2.880  -8.013  15.013  1.00  0.00     0.009 A 
ATOM     71  C   UNL     1      -1.442  -6.240  15.806  1.00  0.00     0.009 A 
ATOM     72  C   UNL     1      -3.246  -8.301  16.330  1.00  0.00     0.001 A 
ATOM     73  C   UNL     1      -1.781  -6.553  17.123  1.00  0.00     0.001 A 
ATOM     74  C   UNL     1      -2.694  -7.574  17.383  1.00  0.00     0.000 A 
ENDBRANCH  56  69
ENDBRANCH  30  31
ENDBRANCH  23  25
ENDBRANCH  22  23
ENDBRANCH  21  22
ENDBRANCH   1  21
TORSDOF 15
