REMARK SMILES CC(C)(C[NH2+]Cc1ccc2c(c1)OCO2)C(=O)OCCOC(=O)c1ccc(-c2c3nc(c(-c4ccccc4)c4ccc([nH]4)c(-c4ccccc4)c4nc(c(-c5ccccc5)c5ccc2[nH]5)C=C4)C=C3)cc1
REMARK SMILES IDX 19 1 18 2 16 3 17 4 2 5 1 6 3 7 4 8 5 9 6 12 7 13 8 14 12 15
REMARK SMILES IDX 9 16 11 17 10 18 13 19 15 20 14 21 20 22 21 23 22 24 23 25
REMARK SMILES IDX 24 26 25 27 71 28 26 29 70 30 27 31 28 32 29 33 64 34 30 35
REMARK SMILES IDX 69 36 63 37 65 38 31 39 68 40 62 41 61 42 32 44 54 45 39 46
REMARK SMILES IDX 53 47 40 48 43 49 52 50 66 51 41 52 42 53 51 55 67 56 44 57
REMARK SMILES IDX 33 58 34 59 38 60 35 61 37 62 36 63 55 64 56 65 60 66 57 67
REMARK SMILES IDX 59 68 58 69 45 70 46 71 50 72 47 73 49 74 48 75
REMARK H PARENT 5 10 5 11 65 43 43 54
REMARK Flexibility Score: inf
ROOT
ATOM      1  C   UNL     1       1.118  -3.304   3.482  1.00  0.00     0.274 C 
ENDROOT
BRANCH   1   2
ATOM      2  O   UNL     1       0.492  -2.069   3.075  1.00  0.00    -0.461 OA
BRANCH   2   3
ATOM      3  C   UNL     1       1.255  -1.228   2.326  1.00  0.00     0.317 C 
ATOM      4  O   UNL     1       2.439  -1.421   2.065  1.00  0.00    -0.251 OA
BRANCH   3   5
ATOM      5  C   UNL     1       0.524   0.057   1.939  1.00  0.00     0.111 C 
ATOM      6  C   UNL     1       1.035   0.587   0.585  1.00  0.00     0.029 C 
ATOM      7  C   UNL     1       0.912   1.081   3.025  1.00  0.00     0.029 C 
BRANCH   5   8
ATOM      8  C   UNL     1      -1.019  -0.066   1.922  1.00  0.00     0.279 C 
BRANCH   8   9
ATOM      9  N   UNL     1      -1.608  -0.861   0.836  1.00  0.00    -0.342 N 
ATOM     10  H   UNL     1      -1.258  -1.817   0.903  1.00  0.00     0.346 HD
ATOM     11  H   UNL     1      -1.341  -0.425  -0.047  1.00  0.00     0.346 HD
BRANCH   9  12
ATOM     12  C   UNL     1      -3.080  -0.892   0.893  1.00  0.00     0.297 C 
BRANCH  12  13
ATOM     13  C   UNL     1      -3.738   0.357   0.334  1.00  0.00     0.010 A 
ATOM     14  C   UNL     1      -3.785   1.551   1.094  1.00  0.00     0.013 A 
ATOM     15  C   UNL     1      -4.295   0.352  -0.957  1.00  0.00     0.060 A 
ATOM     16  C   UNL     1      -4.304   2.736   0.566  1.00  0.00     0.051 A 
ATOM     17  C   UNL     1      -4.845   1.526  -1.436  1.00  0.00     0.166 A 
ATOM     18  C   UNL     1      -4.832   2.688  -0.702  1.00  0.00     0.165 A 
ATOM     19  O   UNL     1      -5.446   1.690  -2.646  1.00  0.00    -0.454 OA
ATOM     20  O   UNL     1      -5.400   3.731  -1.363  1.00  0.00    -0.454 OA
ATOM     21  C   UNL     1      -5.848   3.074  -2.565  1.00  0.00     0.468 C 
ENDBRANCH  12  13
ENDBRANCH   9  12
ENDBRANCH   8   9
ENDBRANCH   5   8
ENDBRANCH   3   5
ENDBRANCH   2   3
ENDBRANCH   1   2
BRANCH   1  22
ATOM     22  C   UNL     1       0.777  -4.421   2.499  1.00  0.00     0.275 C 
BRANCH  22  23
ATOM     23  O   UNL     1       1.300  -4.076   1.207  1.00  0.00    -0.458 OA
BRANCH  23  24
ATOM     24  C   UNL     1       0.560  -4.463   0.144  1.00  0.00     0.338 C 
ATOM     25  O   UNL     1      -0.428  -5.177   0.155  1.00  0.00    -0.246 OA
BRANCH  24  26
ATOM     26  C   UNL     1       1.160  -3.910  -1.091  1.00  0.00     0.060 A 
ATOM     27  C   UNL     1       1.711  -2.628  -1.113  1.00  0.00     0.016 A 
ATOM     28  C   UNL     1       1.129  -4.665  -2.261  1.00  0.00     0.016 A 
ATOM     29  C   UNL     1       2.181  -2.074  -2.303  1.00  0.00     0.010 A 
ATOM     30  C   UNL     1       1.681  -4.144  -3.436  1.00  0.00     0.010 A 
ATOM     31  C   UNL     1       2.195  -2.835  -3.476  1.00  0.00    -0.014 A 
BRANCH  31  32
ATOM     32  C   UNL     1       2.719  -2.280  -4.754  1.00  0.00     0.031 A 
ATOM     33  C   UNL     1       1.828  -2.231  -5.966  1.00  0.00     0.074 A 
ATOM     34  C   UNL     1       3.995  -1.857  -4.854  1.00  0.00     0.049 A 
ATOM     35  N   UNL     1       2.147  -2.046  -7.222  1.00  0.00    -0.248 NA
ATOM     36  C   UNL     1       0.390  -2.436  -5.733  1.00  0.00     0.031 C 
ATOM     37  C   UNL     1       4.962  -1.784  -3.757  1.00  0.00     0.029 A 
ATOM     38  N   UNL     1       4.703  -1.417  -5.947  1.00  0.00    -0.354 N 
ATOM     39  C   UNL     1       0.961  -2.180  -7.934  1.00  0.00     0.074 A 
ATOM     40  C   UNL     1      -0.084  -2.455  -6.971  1.00  0.00     0.031 C 
ATOM     41  C   UNL     1       6.127  -1.311  -4.227  1.00  0.00     0.029 A 
ATOM     42  C   UNL     1       6.019  -1.134  -5.670  1.00  0.00     0.049 A 
ATOM     43  H   UNL     1       4.306  -1.314  -6.842  1.00  0.00     0.167 HD
ATOM     44  C   UNL     1       0.764  -2.094  -9.272  1.00  0.00     0.031 A 
ATOM     45  C   UNL     1       7.042  -0.823  -6.488  1.00  0.00     0.031 A 
ATOM     46  C   UNL     1       1.796  -1.780 -10.224  1.00  0.00     0.049 A 
ATOM     47  C   UNL     1       6.812  -0.776  -7.971  1.00  0.00     0.074 A 
ATOM     48  C   UNL     1       1.693  -1.657 -11.599  1.00  0.00     0.029 A 
ATOM     49  N   UNL     1       3.117  -1.522  -9.897  1.00  0.00    -0.354 N 
ATOM     50  N   UNL     1       5.702  -0.969  -8.641  1.00  0.00    -0.248 NA
ATOM     51  C   UNL     1       7.982  -0.488  -8.813  1.00  0.00     0.031 C 
ATOM     52  C   UNL     1       2.962  -1.359 -12.108  1.00  0.00     0.029 A 
ATOM     53  C   UNL     1       3.843  -1.252 -11.045  1.00  0.00     0.049 A 
ATOM     54  H   UNL     1       3.486  -1.530  -8.984  1.00  0.00     0.167 HD
ATOM     55  C   UNL     1       6.037  -0.814  -9.979  1.00  0.00     0.074 A 
ATOM     56  C   UNL     1       7.448  -0.493 -10.026  1.00  0.00     0.031 C 
ATOM     57  C   UNL     1       5.246  -0.933 -11.073  1.00  0.00     0.031 A 
BRANCH  44  58
ATOM     58  C   UNL     1      -0.614  -2.390  -9.790  1.00  0.00    -0.014 A 
ATOM     59  C   UNL     1      -1.674  -1.485  -9.625  1.00  0.00     0.009 A 
ATOM     60  C   UNL     1      -0.845  -3.588 -10.486  1.00  0.00     0.009 A 
ATOM     61  C   UNL     1      -2.944  -1.789 -10.121  1.00  0.00     0.001 A 
ATOM     62  C   UNL     1      -2.108  -3.877 -11.003  1.00  0.00     0.001 A 
ATOM     63  C   UNL     1      -3.159  -2.981 -10.813  1.00  0.00     0.000 A 
ENDBRANCH  44  58
BRANCH  45  64
ATOM     64  C   UNL     1       8.398  -0.592  -5.924  1.00  0.00    -0.014 A 
ATOM     65  C   UNL     1       8.958   0.694  -5.919  1.00  0.00     0.009 A 
ATOM     66  C   UNL     1       9.137  -1.657  -5.384  1.00  0.00     0.009 A 
ATOM     67  C   UNL     1      10.236   0.905  -5.397  1.00  0.00     0.001 A 
ATOM     68  C   UNL     1      10.402  -1.438  -4.837  1.00  0.00     0.001 A 
ATOM     69  C   UNL     1      10.954  -0.158  -4.851  1.00  0.00     0.000 A 
ENDBRANCH  45  64
BRANCH  57  70
ATOM     70  C   UNL     1       5.883  -0.678 -12.407  1.00  0.00    -0.014 A 
ATOM     71  C   UNL     1       6.730  -1.626 -13.001  1.00  0.00     0.009 A 
ATOM     72  C   UNL     1       5.602   0.513 -13.094  1.00  0.00     0.009 A 
ATOM     73  C   UNL     1       7.307  -1.372 -14.246  1.00  0.00     0.001 A 
ATOM     74  C   UNL     1       6.163   0.754 -14.349  1.00  0.00     0.001 A 
ATOM     75  C   UNL     1       7.020  -0.185 -14.920  1.00  0.00     0.000 A 
ENDBRANCH  57  70
ENDBRANCH  31  32
ENDBRANCH  24  26
ENDBRANCH  23  24
ENDBRANCH  22  23
ENDBRANCH   1  22
TORSDOF 15
