REMARK SMILES C[NH2+]CC(=O)NC[C@H]1CC[C@H](C(=O)OCCOC(=O)c2ccc(-c3c4nc(c(-c5ccccc5)c5ccc([nH]5)c(-c5ccccc5)c5nc(c(-c6ccccc6)c6ccc3[nH]6)C=C5)C=C4)cc2)O1
REMARK SMILES IDX 15 1 14 2 12 3 13 4 11 5 8 6 9 7 68 8 10 9 7 10 6 11 4 12
REMARK SMILES IDX 5 13 3 15 2 16 1 17 16 20 17 21 18 22 19 23 20 24 21 25
REMARK SMILES IDX 67 26 22 27 66 28 23 29 24 30 25 31 60 32 26 33 65 34 59 35
REMARK SMILES IDX 61 36 27 37 64 38 58 39 57 40 28 42 50 43 35 44 49 45 36 46
REMARK SMILES IDX 39 47 48 48 62 49 37 50 38 51 47 53 63 54 40 55 29 56 30 57
REMARK SMILES IDX 34 58 31 59 33 60 32 61 51 62 52 63 56 64 53 65 55 66 54 67
REMARK SMILES IDX 41 68 42 69 46 70 43 71 45 72 44 73
REMARK H PARENT 6 14 2 18 2 19 61 41 39 52
REMARK Flexibility Score: inf
ROOT
ATOM      1  C   UNL     1      -1.643   2.483  -5.253  1.00  0.00     0.274 C 
ENDROOT
BRANCH   1   2
ATOM      2  O   UNL     1      -0.762   2.493  -4.115  1.00  0.00    -0.460 OA
BRANCH   2   3
ATOM      3  C   UNL     1       0.246   1.578  -4.122  1.00  0.00     0.335 C 
ATOM      4  O   UNL     1       0.380   0.693  -4.961  1.00  0.00    -0.249 OA
BRANCH   3   5
ATOM      5  C   UNL     1       1.230   1.787  -2.962  1.00  0.00     0.228 C 
ATOM      6  C   UNL     1       0.855   1.859  -0.651  1.00  0.00     0.138 C 
ATOM      7  C   UNL     1       0.646   3.259  -1.196  1.00  0.00     0.037 C 
ATOM      8  O   UNL     1       0.921   0.999  -1.804  1.00  0.00    -0.361 OA
ATOM      9  C   UNL     1       1.370   3.236  -2.516  1.00  0.00     0.047 C 
BRANCH   6  10
ATOM     10  C   UNL     1       2.110   1.665   0.230  1.00  0.00     0.148 C 
BRANCH  10  11
ATOM     11  N   UNL     1       3.358   1.995  -0.440  1.00  0.00    -0.349 N 
ATOM     12  C   UNL     1       4.298   2.939  -0.147  1.00  0.00     0.275 C 
ATOM     13  O   UNL     1       5.225   3.097  -0.944  1.00  0.00    -0.269 OA
ATOM     14  H   UNL     1       3.557   1.447  -1.234  1.00  0.00     0.163 HD
BRANCH  12  15
ATOM     15  C   UNL     1       4.160   3.799   1.114  1.00  0.00     0.361 C 
BRANCH  15  16
ATOM     16  N   UNL     1       3.416   5.034   0.827  1.00  0.00    -0.341 N 
ATOM     17  C   UNL     1       2.282   5.230   1.711  1.00  0.00     0.331 C 
ATOM     18  H   UNL     1       4.050   5.827   0.930  1.00  0.00     0.346 HD
ATOM     19  H   UNL     1       3.053   4.958  -0.123  1.00  0.00     0.346 HD
ENDBRANCH  15  16
ENDBRANCH  12  15
ENDBRANCH  10  11
ENDBRANCH   6  10
ENDBRANCH   3   5
ENDBRANCH   2   3
ENDBRANCH   1   2
BRANCH   1  20
ATOM     20  C   UNL     1      -1.252   3.570  -6.259  1.00  0.00     0.275 C 
BRANCH  20  21
ATOM     21  O   UNL     1       0.015   3.275  -6.880  1.00  0.00    -0.458 OA
BRANCH  21  22
ATOM     22  C   UNL     1       1.077   3.965  -6.404  1.00  0.00     0.338 C 
ATOM     23  O   UNL     1       1.076   4.831  -5.545  1.00  0.00    -0.246 OA
BRANCH  22  24
ATOM     24  C   UNL     1       2.313   3.419  -6.982  1.00  0.00     0.060 A 
ATOM     25  C   UNL     1       3.213   2.777  -6.126  1.00  0.00     0.016 A 
ATOM     26  C   UNL     1       2.619   3.595  -8.332  1.00  0.00     0.016 A 
ATOM     27  C   UNL     1       4.419   2.287  -6.620  1.00  0.00     0.010 A 
ATOM     28  C   UNL     1       3.836   3.112  -8.825  1.00  0.00     0.010 A 
ATOM     29  C   UNL     1       4.742   2.457  -7.971  1.00  0.00    -0.014 A 
BRANCH  29  30
ATOM     30  C   UNL     1       6.052   1.989  -8.480  1.00  0.00     0.031 A 
ATOM     31  C   UNL     1       7.155   2.977  -8.725  1.00  0.00     0.074 A 
ATOM     32  C   UNL     1       6.256   0.679  -8.705  1.00  0.00     0.049 A 
ATOM     33  N   UNL     1       8.338   2.781  -9.249  1.00  0.00    -0.248 NA
ATOM     34  C   UNL     1       6.892   4.368  -8.324  1.00  0.00     0.031 C 
ATOM     35  C   UNL     1       5.285  -0.385  -8.449  1.00  0.00     0.029 A 
ATOM     36  N   UNL     1       7.353   0.022  -9.201  1.00  0.00    -0.354 N 
ATOM     37  C   UNL     1       8.955   4.025  -9.259  1.00  0.00     0.074 A 
ATOM     38  C   UNL     1       8.012   4.970  -8.699  1.00  0.00     0.031 C 
ATOM     39  C   UNL     1       5.832  -1.565  -8.787  1.00  0.00     0.029 A 
ATOM     40  C   UNL     1       7.170  -1.333  -9.324  1.00  0.00     0.049 A 
ATOM     41  H   UNL     1       8.191   0.478  -9.444  1.00  0.00     0.167 HD
ATOM     42  C   UNL     1      10.195   4.349  -9.696  1.00  0.00     0.031 A 
ATOM     43  C   UNL     1       7.980  -2.277  -9.838  1.00  0.00     0.031 A 
ATOM     44  C   UNL     1      11.131   3.410 -10.255  1.00  0.00     0.049 A 
ATOM     45  C   UNL     1       9.321  -1.879 -10.389  1.00  0.00     0.074 A 
ATOM     46  C   UNL     1      12.409   3.646 -10.732  1.00  0.00     0.029 A 
ATOM     47  N   UNL     1      10.890   2.054 -10.408  1.00  0.00    -0.354 N 
ATOM     48  N   UNL     1       9.883  -0.696 -10.418  1.00  0.00    -0.248 NA
ATOM     49  C   UNL     1      10.134  -2.949 -10.986  1.00  0.00     0.031 C 
ATOM     50  C   UNL     1      12.926   2.437 -11.211  1.00  0.00     0.029 A 
ATOM     51  C   UNL     1      11.986   1.443 -10.991  1.00  0.00     0.049 A 
ATOM     52  H   UNL     1      10.061   1.594 -10.141  1.00  0.00     0.167 HD
ATOM     53  C   UNL     1      11.121  -0.880 -11.020  1.00  0.00     0.074 A 
ATOM     54  C   UNL     1      11.233  -2.291 -11.328  1.00  0.00     0.031 C 
ATOM     55  C   UNL     1      12.078   0.039 -11.294  1.00  0.00     0.031 A 
BRANCH  42  56
ATOM     56  C   UNL     1      10.591   5.795  -9.624  1.00  0.00    -0.014 A 
ATOM     57  C   UNL     1      10.931   6.397  -8.403  1.00  0.00     0.009 A 
ATOM     58  C   UNL     1      10.650   6.558 -10.801  1.00  0.00     0.009 A 
ATOM     59  C   UNL     1      11.293   7.745  -8.359  1.00  0.00     0.001 A 
ATOM     60  C   UNL     1      11.033   7.899 -10.756  1.00  0.00     0.001 A 
ATOM     61  C   UNL     1      11.347   8.494  -9.535  1.00  0.00     0.000 A 
ENDBRANCH  42  56
BRANCH  43  62
ATOM     62  C   UNL     1       7.530  -3.692  -9.890  1.00  0.00    -0.014 A 
ATOM     63  C   UNL     1       8.108  -4.655  -9.051  1.00  0.00     0.009 A 
ATOM     64  C   UNL     1       6.524  -4.084 -10.787  1.00  0.00     0.009 A 
ATOM     65  C   UNL     1       7.697  -5.988  -9.120  1.00  0.00     0.001 A 
ATOM     66  C   UNL     1       6.098  -5.413 -10.836  1.00  0.00     0.001 A 
ATOM     67  C   UNL     1       6.690  -6.365 -10.008  1.00  0.00     0.000 A 
ENDBRANCH  43  62
BRANCH  55  68
ATOM     68  C   UNL     1      13.339  -0.461 -11.938  1.00  0.00    -0.014 A 
ATOM     69  C   UNL     1      13.372  -0.797 -13.300  1.00  0.00     0.009 A 
ATOM     70  C   UNL     1      14.515  -0.562 -11.180  1.00  0.00     0.009 A 
ATOM     71  C   UNL     1      14.556  -1.253 -13.884  1.00  0.00     0.001 A 
ATOM     72  C   UNL     1      15.701  -0.997 -11.772  1.00  0.00     0.001 A 
ATOM     73  C   UNL     1      15.719  -1.349 -13.121  1.00  0.00     0.000 A 
ENDBRANCH  55  68
ENDBRANCH  29  30
ENDBRANCH  22  24
ENDBRANCH  21  22
ENDBRANCH  20  21
ENDBRANCH   1  20
TORSDOF 15
