REMARK SMILES Cc1nc(C(=O)OCCOC(=O)c2ccc(-c3c4nc(c(-c5ccccc5)c5ccc([nH]5)c(-c5ccccc5)c5nc(c(-c6ccccc6)c6ccc3[nH]6)C=C5)C=C4)cc2)nn1-c1cccc(C(F)(F)F)c1
REMARK SMILES IDX 8 1 7 2 5 3 6 4 4 5 1 6 2 7 3 8 62 9 61 10 63 11 64 12 72 13
REMARK SMILES IDX 65 14 67 15 66 16 68 17 69 18 70 19 71 20 9 21 10 22 11 23
REMARK SMILES IDX 12 24 13 25 14 26 60 27 15 28 59 29 16 30 17 31 18 32 53 33
REMARK SMILES IDX 19 34 58 35 52 36 54 37 20 38 57 39 51 40 50 41 21 43 43 44
REMARK SMILES IDX 28 45 42 46 29 47 32 48 41 49 55 50 30 51 31 52 40 54 56 55
REMARK SMILES IDX 33 56 22 57 23 58 27 59 24 60 26 61 25 62 44 63 45 64 49 65
REMARK SMILES IDX 46 66 48 67 47 68 34 69 35 70 39 71 36 72 38 73 37 74
REMARK H PARENT 54 42 32 53
REMARK Flexibility Score: inf
ROOT
ATOM      1  C   UNL     1      -2.119   7.018  -0.669  1.00  0.00     0.275 C 
ENDROOT
BRANCH   1   2
ATOM      2  O   UNL     1      -1.256   5.959  -0.232  1.00  0.00    -0.456 OA
BRANCH   2   3
ATOM      3  C   UNL     1      -1.795   4.689  -0.216  1.00  0.00     0.378 C 
ATOM      4  O   UNL     1      -2.972   4.448  -0.396  1.00  0.00    -0.242 OA
BRANCH   3   5
ATOM      5  C   UNL     1      -0.749   3.660  -0.034  1.00  0.00     0.260 A 
ATOM      6  C   UNL     1       0.577   0.352  -0.266  1.00  0.00     0.090 C 
ATOM      7  C   UNL     1       0.293   1.806  -0.190  1.00  0.00     0.130 A 
ATOM      8  N   UNL     1      -0.880   2.350  -0.456  1.00  0.00    -0.206 NA
ATOM      9  N   UNL     1       1.122   2.770   0.359  1.00  0.00    -0.217 N 
ATOM     10  N   UNL     1       0.424   3.908   0.564  1.00  0.00    -0.138 NA
BRANCH   9  11
ATOM     11  C   UNL     1       2.485   2.729   0.738  1.00  0.00     0.067 A 
ATOM     12  C   UNL     1       2.878   3.483   1.855  1.00  0.00     0.028 A 
ATOM     13  C   UNL     1       3.444   2.034  -0.008  1.00  0.00     0.041 A 
ATOM     14  C   UNL     1       4.208   3.496   2.263  1.00  0.00     0.003 A 
ATOM     15  C   UNL     1       4.799   2.083   0.374  1.00  0.00     0.058 A 
ATOM     16  C   UNL     1       5.163   2.800   1.527  1.00  0.00     0.013 A 
BRANCH  15  17
ATOM     17  C   UNL     1       5.877   1.420  -0.451  1.00  0.00     0.416 C 
ATOM     18  F   UNL     1       6.801   2.311  -0.908  1.00  0.00    -0.166 F 
ATOM     19  F   UNL     1       6.574   0.489   0.257  1.00  0.00    -0.166 F 
ATOM     20  F   UNL     1       5.401   0.776  -1.552  1.00  0.00    -0.166 F 
ENDBRANCH  15  17
ENDBRANCH   9  11
ENDBRANCH   3   5
ENDBRANCH   2   3
ENDBRANCH   1   2
BRANCH   1  21
ATOM     21  C   UNL     1      -2.086   7.179  -2.183  1.00  0.00     0.275 C 
BRANCH  21  22
ATOM     22  O   UNL     1      -2.817   6.137  -2.826  1.00  0.00    -0.458 OA
BRANCH  22  23
ATOM     23  C   UNL     1      -2.087   5.077  -3.236  1.00  0.00     0.338 C 
ATOM     24  O   UNL     1      -0.936   4.812  -2.928  1.00  0.00    -0.246 OA
BRANCH  23  25
ATOM     25  C   UNL     1      -2.817   4.386  -4.305  1.00  0.00     0.060 A 
ATOM     26  C   UNL     1      -2.240   3.230  -4.840  1.00  0.00     0.016 A 
ATOM     27  C   UNL     1      -3.893   5.032  -4.933  1.00  0.00     0.016 A 
ATOM     28  C   UNL     1      -2.632   2.817  -6.096  1.00  0.00     0.010 A 
ATOM     29  C   UNL     1      -4.268   4.633  -6.192  1.00  0.00     0.010 A 
ATOM     30  C   UNL     1      -3.584   3.574  -6.785  1.00  0.00    -0.014 A 
BRANCH  30  31
ATOM     31  C   UNL     1      -3.901   3.203  -8.146  1.00  0.00     0.031 A 
ATOM     32  C   UNL     1      -4.785   2.023  -8.266  1.00  0.00     0.074 A 
ATOM     33  C   UNL     1      -3.559   3.972  -9.194  1.00  0.00     0.049 A 
ATOM     34  N   UNL     1      -4.531   0.896  -8.842  1.00  0.00    -0.248 NA
ATOM     35  C   UNL     1      -6.075   2.069  -7.559  1.00  0.00     0.031 C 
ATOM     36  C   UNL     1      -2.995   5.325  -9.176  1.00  0.00     0.029 A 
ATOM     37  N   UNL     1      -3.790   3.748 -10.513  1.00  0.00    -0.354 N 
ATOM     38  C   UNL     1      -5.692   0.142  -8.715  1.00  0.00     0.074 A 
ATOM     39  C   UNL     1      -6.542   0.844  -7.788  1.00  0.00     0.031 C 
ATOM     40  C   UNL     1      -3.167   5.885 -10.395  1.00  0.00     0.029 A 
ATOM     41  C   UNL     1      -3.734   4.892 -11.294  1.00  0.00     0.049 A 
ATOM     42  H   UNL     1      -3.980   2.855 -10.882  1.00  0.00     0.167 HD
ATOM     43  C   UNL     1      -5.978  -0.882  -9.563  1.00  0.00     0.031 A 
ATOM     44  C   UNL     1      -4.225   5.025 -12.550  1.00  0.00     0.031 A 
ATOM     45  C   UNL     1      -4.817  -1.333 -10.282  1.00  0.00     0.049 A 
ATOM     46  C   UNL     1      -4.423   3.663 -13.106  1.00  0.00     0.074 A 
ATOM     47  C   UNL     1      -3.582  -1.830  -9.913  1.00  0.00     0.029 A 
ATOM     48  N   UNL     1      -4.685  -0.940 -11.593  1.00  0.00    -0.354 N 
ATOM     49  N   UNL     1      -3.445   2.851 -13.395  1.00  0.00    -0.248 NA
ATOM     50  C   UNL     1      -5.721   3.029 -12.920  1.00  0.00     0.031 C 
ATOM     51  C   UNL     1      -2.664  -1.252 -10.838  1.00  0.00     0.029 A 
ATOM     52  C   UNL     1      -3.400  -0.487 -11.745  1.00  0.00     0.049 A 
ATOM     53  H   UNL     1      -5.380  -0.976 -12.289  1.00  0.00     0.167 HD
ATOM     54  C   UNL     1      -3.896   1.597 -13.005  1.00  0.00     0.074 A 
ATOM     55  C   UNL     1      -5.336   1.754 -12.815  1.00  0.00     0.031 C 
ATOM     56  C   UNL     1      -3.028   0.625 -12.592  1.00  0.00     0.031 A 
BRANCH  43  57
ATOM     57  C   UNL     1      -7.380  -1.187 -10.022  1.00  0.00    -0.014 A 
ATOM     58  C   UNL     1      -7.598  -2.310 -10.836  1.00  0.00     0.009 A 
ATOM     59  C   UNL     1      -8.439  -0.262  -9.918  1.00  0.00     0.009 A 
ATOM     60  C   UNL     1      -8.787  -2.461 -11.559  1.00  0.00     0.001 A 
ATOM     61  C   UNL     1      -9.643  -0.433 -10.602  1.00  0.00     0.001 A 
ATOM     62  C   UNL     1      -9.806  -1.519 -11.446  1.00  0.00     0.000 A 
ENDBRANCH  43  57
BRANCH  44  63
ATOM     63  C   UNL     1      -4.835   6.231 -13.152  1.00  0.00    -0.014 A 
ATOM     64  C   UNL     1      -5.037   6.324 -14.537  1.00  0.00     0.009 A 
ATOM     65  C   UNL     1      -5.450   7.202 -12.337  1.00  0.00     0.009 A 
ATOM     66  C   UNL     1      -5.843   7.335 -15.080  1.00  0.00     0.001 A 
ATOM     67  C   UNL     1      -6.247   8.215 -12.878  1.00  0.00     0.001 A 
ATOM     68  C   UNL     1      -6.455   8.273 -14.251  1.00  0.00     0.000 A 
ENDBRANCH  44  63
BRANCH  56  69
ATOM     69  C   UNL     1      -1.548   0.861 -12.771  1.00  0.00    -0.014 A 
ATOM     70  C   UNL     1      -0.872   1.948 -12.189  1.00  0.00     0.009 A 
ATOM     71  C   UNL     1      -0.783  -0.136 -13.397  1.00  0.00     0.009 A 
ATOM     72  C   UNL     1       0.521   2.049 -12.258  1.00  0.00     0.001 A 
ATOM     73  C   UNL     1       0.610  -0.047 -13.447  1.00  0.00     0.001 A 
ATOM     74  C   UNL     1       1.261   1.048 -12.883  1.00  0.00     0.000 A 
ENDBRANCH  56  69
ENDBRANCH  30  31
ENDBRANCH  23  25
ENDBRANCH  22  23
ENDBRANCH  21  22
ENDBRANCH   1  21
TORSDOF 13
