REMARK SMILES O=C(CC1CCN(C(=O)NCc2ccccn2)CC1)OCCOC(=O)c1ccc(-c2c3nc(c(-c4ccccc4)c4ccc([nH]4)c(-c4ccccc4)c4nc(c(-c5ccccc5)c5ccc2[nH]5)C=C4)C=C3)cc1
REMARK SMILES IDX 21 1 20 2 2 3 1 4 3 5 4 6 5 7 19 8 6 9 18 10 7 11 8 12 9 13
REMARK SMILES IDX 10 14 11 16 12 17 13 18 17 19 14 20 16 21 15 22 22 23 23 24
REMARK SMILES IDX 24 25 25 26 26 27 27 28 73 29 28 30 72 31 29 32 30 33 31 34
REMARK SMILES IDX 66 35 32 36 71 37 65 38 67 39 33 40 70 41 64 42 63 43 34 45
REMARK SMILES IDX 56 46 41 47 55 48 42 49 45 50 54 51 68 52 43 53 44 54 53 56
REMARK SMILES IDX 69 57 46 58 35 59 36 60 40 61 37 62 39 63 38 64 57 65 58 66
REMARK SMILES IDX 62 67 59 68 61 69 60 70 47 71 48 72 52 73 49 74 51 75 50 76
REMARK H PARENT 10 15 67 44 45 55
REMARK Flexibility Score: inf
ROOT
ATOM      1  C   UNL     1       3.614  -1.075   1.085  1.00  0.00     0.274 C 
ENDROOT
BRANCH   1   2
ATOM      2  O   UNL     1       2.424  -0.305   0.872  1.00  0.00    -0.462 OA
BRANCH   2   3
ATOM      3  C   UNL     1       2.619   1.039   0.818  1.00  0.00     0.306 C 
ATOM      4  O   UNL     1       2.348   1.782   1.752  1.00  0.00    -0.252 OA
BRANCH   3   5
ATOM      5  C   UNL     1       3.068   1.538  -0.540  1.00  0.00     0.126 C 
BRANCH   5   6
ATOM      6  C   UNL     1       4.502   2.109  -0.562  1.00  0.00     0.003 C 
ATOM      7  C   UNL     1       4.598   3.339  -1.488  1.00  0.00     0.026 C 
ATOM      8  C   UNL     1       5.569   1.096  -1.029  1.00  0.00     0.026 C 
ATOM      9  C   UNL     1       4.574   2.975  -2.976  1.00  0.00     0.121 C 
ATOM     10  C   UNL     1       5.416   0.748  -2.504  1.00  0.00     0.121 C 
ATOM     11  N   UNL     1       5.553   1.936  -3.318  1.00  0.00    -0.325 N 
ATOM     12  C   UNL     1       6.292   2.108  -4.452  1.00  0.00     0.317 C 
ATOM     13  O   UNL     1       6.154   3.111  -5.162  1.00  0.00    -0.249 OA
ATOM     14  N   UNL     1       7.210   1.238  -4.890  1.00  0.00    -0.332 N 
ATOM     15  H   UNL     1       7.556   1.524  -5.766  1.00  0.00     0.165 HD
BRANCH  14  16
ATOM     16  C   UNL     1       7.856   0.003  -4.478  1.00  0.00     0.174 C 
BRANCH  16  17
ATOM     17  C   UNL     1       7.388  -1.178  -5.305  1.00  0.00     0.060 A 
ATOM     18  C   UNL     1       7.234  -2.442  -4.741  1.00  0.00     0.026 A 
ATOM     19  N   UNL     1       7.226  -0.962  -6.639  1.00  0.00    -0.259 NA
ATOM     20  C   UNL     1       6.893  -3.512  -5.569  1.00  0.00     0.004 A 
ATOM     21  C   UNL     1       6.891  -2.015  -7.415  1.00  0.00     0.111 A 
ATOM     22  C   UNL     1       6.718  -3.298  -6.931  1.00  0.00     0.020 A 
ENDBRANCH  16  17
ENDBRANCH  14  16
ENDBRANCH   5   6
ENDBRANCH   3   5
ENDBRANCH   2   3
ENDBRANCH   1   2
BRANCH   1  23
ATOM     23  C   UNL     1       3.773  -2.184   0.037  1.00  0.00     0.275 C 
BRANCH  23  24
ATOM     24  O   UNL     1       3.488  -1.718  -1.296  1.00  0.00    -0.458 OA
BRANCH  24  25
ATOM     25  C   UNL     1       2.219  -1.961  -1.727  1.00  0.00     0.338 C 
ATOM     26  O   UNL     1       1.359  -2.602  -1.145  1.00  0.00    -0.246 OA
BRANCH  25  27
ATOM     27  C   UNL     1       1.951  -1.179  -2.954  1.00  0.00     0.060 A 
ATOM     28  C   UNL     1       0.801  -0.380  -2.986  1.00  0.00     0.016 A 
ATOM     29  C   UNL     1       2.828  -1.188  -4.042  1.00  0.00     0.016 A 
ATOM     30  C   UNL     1       0.530   0.419  -4.101  1.00  0.00     0.010 A 
ATOM     31  C   UNL     1       2.564  -0.374  -5.150  1.00  0.00     0.010 A 
ATOM     32  C   UNL     1       1.404   0.422  -5.197  1.00  0.00    -0.014 A 
BRANCH  32  33
ATOM     33  C   UNL     1       1.063   1.159  -6.441  1.00  0.00     0.031 A 
ATOM     34  C   UNL     1       0.532   0.393  -7.620  1.00  0.00     0.074 A 
ATOM     35  C   UNL     1       1.244   2.489  -6.548  1.00  0.00     0.049 A 
ATOM     36  N   UNL     1       0.222   0.824  -8.817  1.00  0.00    -0.248 NA
ATOM     37  C   UNL     1       0.311  -1.049  -7.423  1.00  0.00     0.031 C 
ATOM     38  C   UNL     1       1.710   3.370  -5.483  1.00  0.00     0.029 A 
ATOM     39  N   UNL     1       1.085   3.326  -7.627  1.00  0.00    -0.354 N 
ATOM     40  C   UNL     1      -0.232  -0.287  -9.511  1.00  0.00     0.074 A 
ATOM     41  C   UNL     1      -0.125  -1.421  -8.617  1.00  0.00     0.031 C 
ATOM     42  C   UNL     1       1.868   4.611  -5.974  1.00  0.00     0.029 A 
ATOM     43  C   UNL     1       1.508   4.612  -7.389  1.00  0.00     0.049 A 
ATOM     44  H   UNL     1       0.705   3.033  -8.486  1.00  0.00     0.167 HD
ATOM     45  C   UNL     1      -0.714  -0.359 -10.773  1.00  0.00     0.031 A 
ATOM     46  C   UNL     1       1.617   5.666  -8.222  1.00  0.00     0.031 A 
ATOM     47  C   UNL     1      -0.822   0.756 -11.672  1.00  0.00     0.049 A 
ATOM     48  C   UNL     1       1.184   5.534  -9.657  1.00  0.00     0.074 A 
ATOM     49  C   UNL     1      -1.368   0.785 -12.944  1.00  0.00     0.029 A 
ATOM     50  N   UNL     1      -0.357   2.032 -11.405  1.00  0.00    -0.354 N 
ATOM     51  N   UNL     1       0.661   4.500 -10.270  1.00  0.00    -0.248 NA
ATOM     52  C   UNL     1       1.339   6.722 -10.512  1.00  0.00     0.031 C 
ATOM     53  C   UNL     1      -1.180   2.068 -13.470  1.00  0.00     0.029 A 
ATOM     54  C   UNL     1      -0.559   2.846 -12.507  1.00  0.00     0.049 A 
ATOM     55  H   UNL     1       0.056   2.319 -10.559  1.00  0.00     0.167 HD
ATOM     56  C   UNL     1       0.394   4.923 -11.566  1.00  0.00     0.074 A 
ATOM     57  C   UNL     1       0.807   6.307 -11.654  1.00  0.00     0.031 C 
ATOM     58  C   UNL     1      -0.154   4.223 -12.589  1.00  0.00     0.031 A 
BRANCH  45  59
ATOM     59  C   UNL     1      -1.151  -1.706 -11.264  1.00  0.00    -0.014 A 
ATOM     60  C   UNL     1      -2.360  -2.274 -10.834  1.00  0.00     0.009 A 
ATOM     61  C   UNL     1      -0.365  -2.394 -12.201  1.00  0.00     0.009 A 
ATOM     62  C   UNL     1      -2.760  -3.521 -11.314  1.00  0.00     0.001 A 
ATOM     63  C   UNL     1      -0.779  -3.631 -12.694  1.00  0.00     0.001 A 
ATOM     64  C   UNL     1      -1.972  -4.197 -12.246  1.00  0.00     0.000 A 
ENDBRANCH  45  59
BRANCH  46  65
ATOM     65  C   UNL     1       2.186   6.950  -7.736  1.00  0.00    -0.014 A 
ATOM     66  C   UNL     1       1.369   8.078  -7.566  1.00  0.00     0.009 A 
ATOM     67  C   UNL     1       3.563   7.064  -7.489  1.00  0.00     0.009 A 
ATOM     68  C   UNL     1       1.926   9.303  -7.191  1.00  0.00     0.001 A 
ATOM     69  C   UNL     1       4.113   8.285  -7.093  1.00  0.00     0.001 A 
ATOM     70  C   UNL     1       3.296   9.406  -6.955  1.00  0.00     0.000 A 
ENDBRANCH  46  65
BRANCH  58  71
ATOM     71  C   UNL     1      -0.376   4.946 -13.886  1.00  0.00    -0.014 A 
ATOM     72  C   UNL     1       0.693   5.233 -14.748  1.00  0.00     0.009 A 
ATOM     73  C   UNL     1      -1.679   5.290 -14.277  1.00  0.00     0.009 A 
ATOM     74  C   UNL     1       0.461   5.868 -15.970  1.00  0.00     0.001 A 
ATOM     75  C   UNL     1      -1.911   5.902 -15.509  1.00  0.00     0.001 A 
ATOM     76  C   UNL     1      -0.840   6.196 -16.352  1.00  0.00     0.000 A 
ENDBRANCH  58  71
ENDBRANCH  32  33
ENDBRANCH  25  27
ENDBRANCH  24  25
ENDBRANCH  23  24
ENDBRANCH   1  23
TORSDOF 14
