REMARK SMILES CC(C)(CC(=O)OCCOC(=O)c1ccc(-c2c3nc(c(-c4ccccc4)c4ccc([nH]4)c(-c4ccccc4)c4nc(c(-c5ccccc5)c5ccc2[nH]5)C=C4)C=C3)cc1)CC(=O)N1CCN(c2nc3ccc(Cl)cc3s2)CC1
REMARK SMILES IDX 8 1 7 2 5 3 6 4 4 5 2 6 1 7 3 8 61 9 62 10 63 11 64 12 65 13
REMARK SMILES IDX 79 14 66 15 78 16 67 17 68 18 69 19 77 20 70 21 76 22 71 23
REMARK SMILES IDX 75 24 72 25 73 26 74 27 9 28 10 29 11 30 12 31 13 32 14 33
REMARK SMILES IDX 60 34 15 35 59 36 16 37 17 38 18 39 53 40 19 41 58 42 52 43
REMARK SMILES IDX 54 44 20 45 57 46 51 47 50 48 21 50 43 51 28 52 42 53 29 54
REMARK SMILES IDX 32 55 41 56 55 57 30 58 31 59 40 61 56 62 33 63 22 64 23 65
REMARK SMILES IDX 27 66 24 67 26 68 25 69 44 70 45 71 49 72 46 73 48 74 47 75
REMARK SMILES IDX 34 76 35 77 39 78 36 79 38 80 37 81
REMARK H PARENT 54 49 32 60
REMARK Flexibility Score: inf
ROOT
ATOM      1  C   UNL     1      -1.812   1.897   1.640  1.00  0.00     0.274 C 
ENDROOT
BRANCH   1   2
ATOM      2  O   UNL     1      -0.629   1.107   1.307  1.00  0.00    -0.462 OA
BRANCH   2   3
ATOM      3  C   UNL     1      -0.779  -0.238   1.187  1.00  0.00     0.306 C 
ATOM      4  O   UNL     1      -1.783  -0.843   1.562  1.00  0.00    -0.252 OA
BRANCH   3   5
ATOM      5  C   UNL     1       0.277  -0.969   0.358  1.00  0.00     0.129 C 
BRANCH   5   6
ATOM      6  C   UNL     1       1.484  -0.317  -0.367  1.00  0.00    -0.016 C 
ATOM      7  C   UNL     1       2.570   0.044   0.651  1.00  0.00     0.012 C 
ATOM      8  C   UNL     1       2.075  -1.403  -1.322  1.00  0.00     0.012 C 
BRANCH   6   9
ATOM      9  C   UNL     1       1.187   0.865  -1.303  1.00  0.00     0.107 C 
BRANCH   9  10
ATOM     10  C   UNL     1       0.804   2.187  -0.687  1.00  0.00     0.223 C 
ATOM     11  O   UNL     1       1.626   2.960  -0.219  1.00  0.00    -0.275 OA
ATOM     12  N   UNL     1      -0.537   2.497  -0.787  1.00  0.00    -0.339 N 
ATOM     13  C   UNL     1      -0.899   4.348  -0.889  1.00  0.00     0.141 C 
ATOM     14  C   UNL     1      -1.874   1.224  -1.212  1.00  0.00     0.141 C 
ATOM     15  C   UNL     1      -2.716   4.902  -1.405  1.00  0.00     0.140 C 
ATOM     16  C   UNL     1      -3.677   1.837  -1.619  1.00  0.00     0.140 C 
ATOM     17  N   UNL     1      -3.954   3.634  -1.935  1.00  0.00    -0.345 N 
BRANCH  17  18
ATOM     18  C   UNL     1      -5.276   3.902  -1.737  1.00  0.00     0.186 A 
ATOM     19  N   UNL     1      -5.936   3.348  -0.747  1.00  0.00    -0.220 NA
ATOM     20  S   UNL     1      -6.281   4.610  -2.949  1.00  0.00    -0.097 S 
ATOM     21  C   UNL     1      -7.266   3.216  -1.066  1.00  0.00     0.084 A 
ATOM     22  C   UNL     1      -7.669   3.843  -2.245  1.00  0.00     0.058 A 
ATOM     23  C   UNL     1      -8.197   2.462  -0.326  1.00  0.00     0.031 A 
ATOM     24  C   UNL     1      -9.001   3.762  -2.697  1.00  0.00     0.042 A 
ATOM     25  C   UNL     1      -9.510   2.340  -0.782  1.00  0.00     0.023 A 
ATOM     26  C   UNL     1      -9.901   2.989  -1.948  1.00  0.00     0.042 A 
ATOM     27  Cl  UNL     1     -11.528   2.818  -2.491  1.00  0.00    -0.084 Cl
ENDBRANCH  17  18
ENDBRANCH   9  10
ENDBRANCH   6   9
ENDBRANCH   5   6
ENDBRANCH   3   5
ENDBRANCH   2   3
ENDBRANCH   1   2
BRANCH   1  28
ATOM     28  C   UNL     1      -2.355   3.060   0.671  1.00  0.00     0.275 C 
BRANCH  28  29
ATOM     29  O   UNL     1      -2.312   3.045  -1.111  1.00  0.00    -0.458 OA
BRANCH  29  30
ATOM     30  C   UNL     1      -1.637   3.065  -2.666  1.00  0.00     0.338 C 
ATOM     31  O   UNL     1      -0.448   3.248  -2.981  1.00  0.00    -0.246 OA
BRANCH  30  32
ATOM     32  C   UNL     1      -2.344   2.738  -3.906  1.00  0.00     0.060 A 
ATOM     33  C   UNL     1      -2.274   1.414  -4.377  1.00  0.00     0.016 A 
ATOM     34  C   UNL     1      -2.548   3.809  -4.780  1.00  0.00     0.016 A 
ATOM     35  C   UNL     1      -2.486   1.144  -5.703  1.00  0.00     0.010 A 
ATOM     36  C   UNL     1      -2.769   3.546  -6.110  1.00  0.00     0.010 A 
ATOM     37  C   UNL     1      -2.758   2.216  -6.545  1.00  0.00    -0.014 A 
BRANCH  37  38
ATOM     38  C   UNL     1      -3.192   1.939  -7.898  1.00  0.00     0.031 A 
ATOM     39  C   UNL     1      -2.254   2.182  -9.016  1.00  0.00     0.074 A 
ATOM     40  C   UNL     1      -4.482   1.586  -7.997  1.00  0.00     0.049 A 
ATOM     41  N   UNL     1      -2.502   2.170 -10.291  1.00  0.00    -0.248 NA
ATOM     42  C   UNL     1      -0.866   2.526  -8.660  1.00  0.00     0.031 C 
ATOM     43  C   UNL     1      -5.392   1.382  -6.857  1.00  0.00     0.029 A 
ATOM     44  N   UNL     1      -5.261   1.371  -9.086  1.00  0.00    -0.354 N 
ATOM     45  C   UNL     1      -1.313   2.540 -10.898  1.00  0.00     0.074 A 
ATOM     46  C   UNL     1      -0.346   2.786  -9.852  1.00  0.00     0.031 C 
ATOM     47  C   UNL     1      -6.610   1.071  -7.316  1.00  0.00     0.029 A 
ATOM     48  C   UNL     1      -6.568   1.106  -8.766  1.00  0.00     0.049 A 
ATOM     49  H   UNL     1      -4.923   1.401 -10.011  1.00  0.00     0.167 HD
ATOM     50  C   UNL     1      -1.089   2.666 -12.224  1.00  0.00     0.031 A 
ATOM     51  C   UNL     1      -7.614   0.939  -9.586  1.00  0.00     0.031 A 
ATOM     52  C   UNL     1      -2.131   2.433 -13.190  1.00  0.00     0.049 A 
ATOM     53  C   UNL     1      -7.319   1.042 -11.050  1.00  0.00     0.074 A 
ATOM     54  C   UNL     1      -2.077   2.497 -14.567  1.00  0.00     0.029 A 
ATOM     55  N   UNL     1      -3.438   2.085 -12.851  1.00  0.00    -0.354 N 
ATOM     56  N   UNL     1      -6.183   1.353 -11.636  1.00  0.00    -0.248 NA
ATOM     57  C   UNL     1      -8.423   0.759 -11.963  1.00  0.00     0.031 C 
ATOM     58  C   UNL     1      -3.360   2.217 -15.057  1.00  0.00     0.029 A 
ATOM     59  C   UNL     1      -4.203   1.931 -13.989  1.00  0.00     0.049 A 
ATOM     60  H   UNL     1      -3.768   1.966 -11.931  1.00  0.00     0.167 HD
ATOM     61  C   UNL     1      -6.425   1.286 -12.994  1.00  0.00     0.074 A 
ATOM     62  C   UNL     1      -7.816   0.881 -13.136  1.00  0.00     0.031 C 
ATOM     63  C   UNL     1      -5.591   1.535 -14.036  1.00  0.00     0.031 A 
BRANCH  50  64
ATOM     64  C   UNL     1       0.284   3.101 -12.652  1.00  0.00    -0.014 A 
ATOM     65  C   UNL     1       1.407   2.279 -12.451  1.00  0.00     0.009 A 
ATOM     66  C   UNL     1       0.474   4.368 -13.223  1.00  0.00     0.009 A 
ATOM     67  C   UNL     1       2.690   2.733 -12.767  1.00  0.00     0.001 A 
ATOM     68  C   UNL     1       1.756   4.810 -13.565  1.00  0.00     0.001 A 
ATOM     69  C   UNL     1       2.863   3.998 -13.325  1.00  0.00     0.000 A 
ENDBRANCH  50  64
BRANCH  51  70
ATOM     70  C   UNL     1      -8.949   0.624  -9.025  1.00  0.00    -0.014 A 
ATOM     71  C   UNL     1      -9.478  -0.667  -9.153  1.00  0.00     0.009 A 
ATOM     72  C   UNL     1      -9.659   1.575  -8.273  1.00  0.00     0.009 A 
ATOM     73  C   UNL     1     -10.702  -0.994  -8.562  1.00  0.00     0.001 A 
ATOM     74  C   UNL     1     -10.868   1.238  -7.659  1.00  0.00     0.001 A 
ATOM     75  C   UNL     1     -11.393  -0.044  -7.812  1.00  0.00     0.000 A 
ENDBRANCH  51  70
BRANCH  63  76
ATOM     76  C   UNL     1      -6.191   1.351 -15.394  1.00  0.00    -0.014 A 
ATOM     77  C   UNL     1      -7.088   2.293 -15.917  1.00  0.00     0.009 A 
ATOM     78  C   UNL     1      -5.821   0.239 -16.163  1.00  0.00     0.009 A 
ATOM     79  C   UNL     1      -7.634   2.105 -17.184  1.00  0.00     0.001 A 
ATOM     80  C   UNL     1      -6.346   0.071 -17.442  1.00  0.00     0.001 A 
ATOM     81  C   UNL     1      -7.258   0.998 -17.947  1.00  0.00     0.000 A 
ENDBRANCH  63  76
ENDBRANCH  37  38
ENDBRANCH  30  32
ENDBRANCH  29  30
ENDBRANCH  28  29
ENDBRANCH   1  28
TORSDOF 15
