REMARK SMILES O=C(OCCOC(=O)c1cccc(S(=O)(=O)NC[C@@H]2CCOC2)c1)c1ccc(-c2c3nc(c(-c4ccccc4)c4ccc([nH]4)c(-c4ccccc4)c4nc(c(-c5ccccc5)c5ccc2[nH]5)C=C4)C=C3)cc1
REMARK SMILES IDX 5 1 4 2 3 3 2 4 1 5 25 6 26 7 72 8 27 9 71 10 28 11 29 12
REMARK SMILES IDX 30 13 65 14 31 15 70 16 64 17 66 18 32 19 69 20 63 21 62 22
REMARK SMILES IDX 33 24 55 25 40 26 54 27 41 28 44 29 53 30 67 31 42 32 43 33
REMARK SMILES IDX 52 35 68 36 45 37 34 38 35 39 39 40 36 41 38 42 37 43 56 44
REMARK SMILES IDX 57 45 61 46 58 47 60 48 59 49 46 50 47 51 51 52 48 53 50 54
REMARK SMILES IDX 49 55 6 56 7 57 8 58 9 59 10 60 24 61 11 62 13 63 12 64
REMARK SMILES IDX 14 65 15 66 16 67 17 68 18 70 19 71 20 72 23 73 21 74 22 75
REMARK H PARENT 66 23 44 34 17 69
REMARK Flexibility Score: inf
ROOT
ATOM      1  C   UNL     1       3.909   1.755   1.192  1.00  0.00     0.275 C 
ENDROOT
BRANCH   1   2
ATOM      2  C   UNL     1       4.132   1.492  -0.297  1.00  0.00     0.275 C 
BRANCH   2   3
ATOM      3  O   UNL     1       3.120   0.697  -0.948  1.00  0.00    -0.458 OA
BRANCH   3   4
ATOM      4  C   UNL     1       3.000  -0.649  -1.043  1.00  0.00     0.338 C 
ATOM      5  O   UNL     1       2.112  -1.136  -1.739  1.00  0.00    -0.246 OA
BRANCH   4   6
ATOM      6  C   UNL     1       3.825  -1.585  -0.231  1.00  0.00     0.060 A 
ATOM      7  C   UNL     1       5.204  -1.472  -0.050  1.00  0.00     0.016 A 
ATOM      8  C   UNL     1       3.165  -2.699   0.320  1.00  0.00     0.016 A 
ATOM      9  C   UNL     1       5.893  -2.394   0.744  1.00  0.00     0.010 A 
ATOM     10  C   UNL     1       3.850  -3.628   1.109  1.00  0.00     0.010 A 
ATOM     11  C   UNL     1       5.223  -3.476   1.326  1.00  0.00    -0.014 A 
BRANCH  11  12
ATOM     12  C   UNL     1       5.991  -4.494   2.075  1.00  0.00     0.031 A 
ATOM     13  C   UNL     1       6.449  -5.740   1.380  1.00  0.00     0.074 A 
ATOM     14  C   UNL     1       6.355  -4.277   3.350  1.00  0.00     0.049 A 
ATOM     15  N   UNL     1       7.234  -6.684   1.832  1.00  0.00    -0.248 NA
ATOM     16  C   UNL     1       6.015  -5.922  -0.013  1.00  0.00     0.031 C 
ATOM     17  C   UNL     1       6.067  -3.072   4.123  1.00  0.00     0.029 A 
ATOM     18  N   UNL     1       7.047  -5.081   4.221  1.00  0.00    -0.354 N 
ATOM     19  C   UNL     1       7.476  -7.512   0.749  1.00  0.00     0.074 A 
ATOM     20  C   UNL     1       6.670  -7.024  -0.350  1.00  0.00     0.031 C 
ATOM     21  C   UNL     1       6.525  -3.246   5.375  1.00  0.00     0.029 A 
ATOM     22  C   UNL     1       7.084  -4.585   5.498  1.00  0.00     0.049 A 
ATOM     23  H   UNL     1       7.473  -5.928   3.956  1.00  0.00     0.167 HD
ATOM     24  C   UNL     1       8.346  -8.546   0.660  1.00  0.00     0.031 A 
ATOM     25  C   UNL     1       7.483  -5.159   6.646  1.00  0.00     0.031 A 
ATOM     26  C   UNL     1       9.092  -9.081   1.765  1.00  0.00     0.049 A 
ATOM     27  C   UNL     1       8.188  -6.480   6.598  1.00  0.00     0.074 A 
ATOM     28  C   UNL     1      10.008 -10.119   1.771  1.00  0.00     0.029 A 
ATOM     29  N   UNL     1       8.978  -8.641   3.074  1.00  0.00    -0.354 N 
ATOM     30  N   UNL     1       8.484  -7.211   5.552  1.00  0.00    -0.248 NA
ATOM     31  C   UNL     1       8.676  -7.018   7.874  1.00  0.00     0.031 C 
ATOM     32  C   UNL     1      10.414 -10.336   3.095  1.00  0.00     0.029 A 
ATOM     33  C   UNL     1       9.778  -9.409   3.904  1.00  0.00     0.049 A 
ATOM     34  H   UNL     1       8.411  -7.893   3.370  1.00  0.00     0.167 HD
ATOM     35  C   UNL     1       9.258  -8.256   6.032  1.00  0.00     0.074 A 
ATOM     36  C   UNL     1       9.353  -8.084   7.468  1.00  0.00     0.031 C 
ATOM     37  C   UNL     1       9.871  -9.240   5.331  1.00  0.00     0.031 A 
BRANCH  24  38
ATOM     38  C   UNL     1       8.551  -9.124  -0.707  1.00  0.00    -0.014 A 
ATOM     39  C   UNL     1       9.318  -8.424  -1.655  1.00  0.00     0.009 A 
ATOM     40  C   UNL     1       7.985 -10.355  -1.058  1.00  0.00     0.009 A 
ATOM     41  C   UNL     1       9.488  -8.935  -2.941  1.00  0.00     0.001 A 
ATOM     42  C   UNL     1       8.170 -10.870  -2.342  1.00  0.00     0.001 A 
ATOM     43  C   UNL     1       8.914 -10.158  -3.284  1.00  0.00     0.000 A 
ENDBRANCH  24  38
BRANCH  25  44
ATOM     44  C   UNL     1       7.174  -4.509   7.941  1.00  0.00    -0.014 A 
ATOM     45  C   UNL     1       8.152  -3.823   8.671  1.00  0.00     0.009 A 
ATOM     46  C   UNL     1       5.872  -4.609   8.463  1.00  0.00     0.009 A 
ATOM     47  C   UNL     1       7.837  -3.265   9.913  1.00  0.00     0.001 A 
ATOM     48  C   UNL     1       5.559  -4.041   9.698  1.00  0.00     0.001 A 
ATOM     49  C   UNL     1       6.544  -3.374  10.425  1.00  0.00     0.000 A 
ENDBRANCH  25  44
BRANCH  37  50
ATOM     50  C   UNL     1      10.769 -10.159   6.104  1.00  0.00    -0.014 A 
ATOM     51  C   UNL     1      10.252 -11.166   6.931  1.00  0.00     0.009 A 
ATOM     52  C   UNL     1      12.161 -10.006   6.000  1.00  0.00     0.009 A 
ATOM     53  C   UNL     1      11.114 -11.981   7.668  1.00  0.00     0.001 A 
ATOM     54  C   UNL     1      13.020 -10.837   6.719  1.00  0.00     0.001 A 
ATOM     55  C   UNL     1      12.495 -11.818   7.559  1.00  0.00     0.000 A 
ENDBRANCH  37  50
ENDBRANCH  11  12
ENDBRANCH   4   6
ENDBRANCH   3   4
ENDBRANCH   2   3
ENDBRANCH   1   2
BRANCH   1  56
ATOM     56  O   UNL     1       3.472   0.598   1.916  1.00  0.00    -0.458 OA
BRANCH  56  57
ATOM     57  C   UNL     1       2.123   0.504   2.030  1.00  0.00     0.338 C 
ATOM     58  O   UNL     1       1.301   1.299   1.607  1.00  0.00    -0.246 OA
BRANCH  57  59
ATOM     59  C   UNL     1       1.741  -0.752   2.708  1.00  0.00     0.061 A 
ATOM     60  C   UNL     1       0.584  -1.403   2.262  1.00  0.00     0.016 A 
ATOM     61  C   UNL     1       2.450  -1.238   3.811  1.00  0.00     0.037 A 
ATOM     62  C   UNL     1       0.137  -2.551   2.910  1.00  0.00     0.002 A 
ATOM     63  C   UNL     1       1.929  -2.315   4.527  1.00  0.00     0.083 A 
ATOM     64  C   UNL     1       0.797  -2.995   4.055  1.00  0.00     0.022 A 
BRANCH  63  65
ATOM     65  S   UNL     1       2.510  -2.784   6.137  1.00  0.00     0.240 S 
ATOM     66  O   UNL     1       1.460  -2.455   7.081  1.00  0.00    -0.207 OA
ATOM     67  O   UNL     1       3.003  -4.134   6.024  1.00  0.00    -0.207 OA
BRANCH  65  68
ATOM     68  N   UNL     1       3.846  -1.861   6.511  1.00  0.00    -0.211 NA
ATOM     69  H   UNL     1       4.486  -2.002   5.730  1.00  0.00     0.141 HD
BRANCH  68  70
ATOM     70  C   UNL     1       3.889  -0.424   6.773  1.00  0.00     0.105 C 
BRANCH  70  71
ATOM     71  C   UNL     1       3.033   0.065   7.936  1.00  0.00     0.032 C 
ATOM     72  C   UNL     1       3.068   1.583   8.011  1.00  0.00     0.036 C 
ATOM     73  C   UNL     1       3.627  -0.300   9.282  1.00  0.00     0.165 C 
ATOM     74  C   UNL     1       4.345   1.861   8.775  1.00  0.00     0.160 C 
ATOM     75  O   UNL     1       4.609   0.705   9.582  1.00  0.00    -0.381 OA
ENDBRANCH  70  71
ENDBRANCH  68  70
ENDBRANCH  65  68
ENDBRANCH  63  65
ENDBRANCH  57  59
ENDBRANCH  56  57
ENDBRANCH   1  56
TORSDOF 15
