REMARK SMILES CC(C)[C@H](C(=O)OCCOC(=O)c1ccc(-c2c3nc(c(-c4ccccc4)c4ccc([nH]4)c(-c4ccccc4)c4nc(c(-c5ccccc5)c5ccc2[nH]5)C=C4)C=C3)cc1)[C@H](C)[C@@H](C)O
REMARK SMILES IDX 8 1 7 2 5 3 6 4 4 5 2 6 1 7 3 8 61 9 62 10 63 11 64 12 65 13
REMARK SMILES IDX 9 15 10 16 11 17 12 18 13 19 14 20 60 21 15 22 59 23 16 24
REMARK SMILES IDX 17 25 18 26 53 27 19 28 58 29 52 30 54 31 20 32 57 33 51 34
REMARK SMILES IDX 50 35 21 37 43 38 28 39 42 40 29 41 32 42 41 43 55 44 30 45
REMARK SMILES IDX 31 46 40 48 56 49 33 50 22 51 23 52 27 53 24 54 26 55 25 56
REMARK SMILES IDX 44 57 45 58 49 59 46 60 48 61 47 62 34 63 35 64 39 65 36 66
REMARK SMILES IDX 38 67 37 68
REMARK H PARENT 65 14 54 36 32 47
REMARK Flexibility Score: inf
ROOT
ATOM      1  C   UNL     1      -3.324  -6.769   0.526  1.00  0.00     0.274 C 
ENDROOT
BRANCH   1   2
ATOM      2  O   UNL     1      -2.938  -5.414   0.816  1.00  0.00    -0.462 OA
BRANCH   2   3
ATOM      3  C   UNL     1      -1.754  -5.230   1.427  1.00  0.00     0.309 C 
ATOM      4  O   UNL     1      -1.157  -6.161   1.950  1.00  0.00    -0.252 OA
BRANCH   3   5
ATOM      5  C   UNL     1      -1.317  -3.745   1.478  1.00  0.00     0.107 C 
BRANCH   5   6
ATOM      6  C   UNL     1       0.234  -3.616   1.861  1.00  0.00    -0.003 C 
ATOM      7  C   UNL     1       0.403  -2.721   3.098  1.00  0.00     0.008 C 
ATOM      8  C   UNL     1       1.087  -4.874   2.106  1.00  0.00     0.008 C 
ENDBRANCH   5   6
BRANCH   5   9
ATOM      9  C   UNL     1      -1.674  -2.826   0.200  1.00  0.00     0.029 C 
ATOM     10  C   UNL     1      -1.055  -1.412   0.305  1.00  0.00     0.011 C 
BRANCH   9  11
ATOM     11  C   UNL     1      -3.189  -2.656  -0.186  1.00  0.00     0.115 C 
ATOM     12  C   UNL     1      -3.471  -1.573  -1.235  1.00  0.00     0.038 C 
BRANCH  11  13
ATOM     13  O   UNL     1      -3.737  -3.823  -0.792  1.00  0.00    -0.393 OA
ATOM     14  H   UNL     1      -3.300  -3.982  -1.643  1.00  0.00     0.210 HD
ENDBRANCH  11  13
ENDBRANCH   9  11
ENDBRANCH   5   9
ENDBRANCH   3   5
ENDBRANCH   2   3
ENDBRANCH   1   2
BRANCH   1  15
ATOM     15  C   UNL     1      -2.950  -7.137  -0.914  1.00  0.00     0.275 C 
BRANCH  15  16
ATOM     16  O   UNL     1      -1.523  -7.086  -1.143  1.00  0.00    -0.458 OA
BRANCH  16  17
ATOM     17  C   UNL     1      -1.063  -6.005  -1.822  1.00  0.00     0.338 C 
ATOM     18  O   UNL     1      -1.727  -5.080  -2.260  1.00  0.00    -0.246 OA
BRANCH  17  19
ATOM     19  C   UNL     1       0.419  -6.013  -1.844  1.00  0.00     0.060 A 
ATOM     20  C   UNL     1       1.096  -4.862  -1.425  1.00  0.00     0.016 A 
ATOM     21  C   UNL     1       1.151  -7.112  -2.293  1.00  0.00     0.016 A 
ATOM     22  C   UNL     1       2.486  -4.825  -1.367  1.00  0.00     0.010 A 
ATOM     23  C   UNL     1       2.553  -7.059  -2.291  1.00  0.00     0.010 A 
ATOM     24  C   UNL     1       3.225  -5.920  -1.812  1.00  0.00    -0.014 A 
BRANCH  24  25
ATOM     25  C   UNL     1       4.699  -5.806  -1.869  1.00  0.00     0.031 A 
ATOM     26  C   UNL     1       5.335  -5.211  -3.090  1.00  0.00     0.074 A 
ATOM     27  C   UNL     1       5.457  -6.168  -0.818  1.00  0.00     0.049 A 
ATOM     28  N   UNL     1       6.602  -5.035  -3.361  1.00  0.00    -0.248 NA
ATOM     29  C   UNL     1       4.418  -4.737  -4.139  1.00  0.00     0.031 C 
ATOM     30  C   UNL     1       4.952  -6.656   0.464  1.00  0.00     0.029 A 
ATOM     31  N   UNL     1       6.821  -6.174  -0.669  1.00  0.00    -0.354 N 
ATOM     32  C   UNL     1       6.636  -4.429  -4.610  1.00  0.00     0.074 A 
ATOM     33  C   UNL     1       5.265  -4.281  -5.049  1.00  0.00     0.031 C 
ATOM     34  C   UNL     1       5.996  -6.936   1.264  1.00  0.00     0.029 A 
ATOM     35  C   UNL     1       7.239  -6.682   0.537  1.00  0.00     0.049 A 
ATOM     36  H   UNL     1       7.441  -5.845  -1.359  1.00  0.00     0.167 HD
ATOM     37  C   UNL     1       7.714  -4.040  -5.331  1.00  0.00     0.031 A 
ATOM     38  C   UNL     1       8.483  -6.940   0.987  1.00  0.00     0.031 A 
ATOM     39  C   UNL     1       9.078  -4.234  -4.916  1.00  0.00     0.049 A 
ATOM     40  C   UNL     1       9.664  -6.629   0.102  1.00  0.00     0.074 A 
ATOM     41  C   UNL     1      10.239  -3.905  -5.592  1.00  0.00     0.029 A 
ATOM     42  N   UNL     1       9.463  -4.829  -3.724  1.00  0.00    -0.354 N 
ATOM     43  N   UNL     1       9.690  -6.059  -1.079  1.00  0.00    -0.248 NA
ATOM     44  C   UNL     1      10.992  -6.999   0.617  1.00  0.00     0.031 C 
ATOM     45  C   UNL     1      11.326  -4.361  -4.840  1.00  0.00     0.029 A 
ATOM     46  C   UNL     1      10.844  -4.907  -3.661  1.00  0.00     0.049 A 
ATOM     47  H   UNL     1       8.845  -5.148  -3.027  1.00  0.00     0.167 HD
ATOM     48  C   UNL     1      11.032  -5.970  -1.430  1.00  0.00     0.074 A 
ATOM     49  C   UNL     1      11.790  -6.531  -0.332  1.00  0.00     0.031 C 
ATOM     50  C   UNL     1      11.587  -5.465  -2.560  1.00  0.00     0.031 A 
BRANCH  37  51
ATOM     51  C   UNL     1       7.452  -3.426  -6.676  1.00  0.00    -0.014 A 
ATOM     52  C   UNL     1       6.902  -2.140  -6.801  1.00  0.00     0.009 A 
ATOM     53  C   UNL     1       7.774  -4.143  -7.839  1.00  0.00     0.009 A 
ATOM     54  C   UNL     1       6.646  -1.602  -8.064  1.00  0.00     0.001 A 
ATOM     55  C   UNL     1       7.544  -3.591  -9.100  1.00  0.00     0.001 A 
ATOM     56  C   UNL     1       6.971  -2.325  -9.211  1.00  0.00     0.000 A 
ENDBRANCH  37  51
BRANCH  38  57
ATOM     57  C   UNL     1       8.689  -7.570   2.319  1.00  0.00    -0.014 A 
ATOM     58  C   UNL     1       9.345  -6.878   3.350  1.00  0.00     0.009 A 
ATOM     59  C   UNL     1       8.279  -8.893   2.550  1.00  0.00     0.009 A 
ATOM     60  C   UNL     1       9.614  -7.509   4.568  1.00  0.00     0.001 A 
ATOM     61  C   UNL     1       8.520  -9.510   3.779  1.00  0.00     0.001 A 
ATOM     62  C   UNL     1       9.198  -8.822   4.782  1.00  0.00     0.000 A 
ENDBRANCH  38  57
BRANCH  50  63
ATOM     63  C   UNL     1      13.090  -5.452  -2.650  1.00  0.00    -0.014 A 
ATOM     64  C   UNL     1      13.829  -6.634  -2.810  1.00  0.00     0.009 A 
ATOM     65  C   UNL     1      13.772  -4.224  -2.625  1.00  0.00     0.009 A 
ATOM     66  C   UNL     1      15.221  -6.590  -2.908  1.00  0.00     0.001 A 
ATOM     67  C   UNL     1      15.161  -4.180  -2.758  1.00  0.00     0.001 A 
ATOM     68  C   UNL     1      15.885  -5.363  -2.889  1.00  0.00     0.000 A 
ENDBRANCH  50  63
ENDBRANCH  24  25
ENDBRANCH  17  19
ENDBRANCH  16  17
ENDBRANCH  15  16
ENDBRANCH   1  15
TORSDOF 15
