REMARK SMILES O=C(OCCOC(=O)c1ccn(-c2cc(-c3ccncc3)nc(-c3ccccc3F)n2)n1)c1ccc(-c2c3nc(c(-c4ccccc4)c4ccc([nH]4)c(-c4ccccc4)c4nc(c(-c5ccccc5)c5ccc2[nH]5)C=C4)C=C3)cc1
REMARK SMILES IDX 4 1 3 2 2 3 1 4 33 5 34 6 80 7 35 8 79 9 36 10 37 11 38 12
REMARK SMILES IDX 73 13 39 14 78 15 72 16 74 17 40 18 77 19 71 20 70 21 41 23
REMARK SMILES IDX 63 24 48 25 62 26 49 27 52 28 61 29 75 30 50 31 51 32 60 34
REMARK SMILES IDX 76 35 53 36 42 37 43 38 47 39 44 40 46 41 45 42 64 43 65 44
REMARK SMILES IDX 69 45 66 46 68 47 67 48 54 49 55 50 59 51 56 52 58 53 57 54
REMARK SMILES IDX 5 55 6 56 7 57 8 58 9 59 10 60 32 61 11 62 12 63 13 64 14 65
REMARK SMILES IDX 31 66 15 67 23 68 22 69 16 70 17 71 21 72 18 73 20 74 19 75
REMARK SMILES IDX 24 76 25 77 29 78 26 79 28 80 30 81 27 82
REMARK H PARENT 74 22 52 33
REMARK Flexibility Score: inf
ROOT
ATOM      1  C   UNL     1       4.628   0.748   0.992  1.00  0.00     0.275 C 
ENDROOT
BRANCH   1   2
ATOM      2  O   UNL     1       3.439   1.503   0.683  1.00  0.00    -0.458 OA
BRANCH   2   3
ATOM      3  C   UNL     1       2.405   0.932   0.029  1.00  0.00     0.338 C 
ATOM      4  O   UNL     1       1.353   0.638   0.578  1.00  0.00    -0.246 OA
BRANCH   3   5
ATOM      5  C   UNL     1       2.533   0.955  -1.452  1.00  0.00     0.060 A 
ATOM      6  C   UNL     1       3.751   0.882  -2.140  1.00  0.00     0.016 A 
ATOM      7  C   UNL     1       1.339   1.026  -2.176  1.00  0.00     0.016 A 
ATOM      8  C   UNL     1       3.782   0.951  -3.528  1.00  0.00     0.010 A 
ATOM      9  C   UNL     1       1.367   1.067  -3.561  1.00  0.00     0.010 A 
ATOM     10  C   UNL     1       2.587   1.060  -4.242  1.00  0.00    -0.014 A 
BRANCH  10  11
ATOM     11  C   UNL     1       2.621   1.026  -5.710  1.00  0.00     0.031 A 
ATOM     12  C   UNL     1       3.269  -0.185  -6.326  1.00  0.00     0.074 A 
ATOM     13  C   UNL     1       1.954   1.959  -6.436  1.00  0.00     0.049 A 
ATOM     14  N   UNL     1       3.932  -0.252  -7.431  1.00  0.00    -0.248 NA
ATOM     15  C   UNL     1       3.194  -1.494  -5.645  1.00  0.00     0.031 C 
ATOM     16  C   UNL     1       1.121   3.052  -5.905  1.00  0.00     0.029 A 
ATOM     17  N   UNL     1       1.768   2.083  -7.787  1.00  0.00    -0.354 N 
ATOM     18  C   UNL     1       4.224  -1.600  -7.664  1.00  0.00     0.074 A 
ATOM     19  C   UNL     1       3.721  -2.335  -6.540  1.00  0.00     0.031 C 
ATOM     20  C   UNL     1       0.339   3.552  -6.885  1.00  0.00     0.029 A 
ATOM     21  C   UNL     1       0.737   2.953  -8.144  1.00  0.00     0.049 A 
ATOM     22  H   UNL     1       2.315   1.600  -8.449  1.00  0.00     0.167 HD
ATOM     23  C   UNL     1       4.772  -1.994  -8.844  1.00  0.00     0.031 A 
ATOM     24  C   UNL     1       0.234   3.201  -9.379  1.00  0.00     0.031 A 
ATOM     25  C   UNL     1       5.497  -0.905  -9.438  1.00  0.00     0.049 A 
ATOM     26  C   UNL     1       1.285   2.873 -10.362  1.00  0.00     0.074 A 
ATOM     27  C   UNL     1       6.739  -0.356  -9.210  1.00  0.00     0.029 A 
ATOM     28  N   UNL     1       4.740   0.024 -10.104  1.00  0.00    -0.354 N 
ATOM     29  N   UNL     1       2.434   3.486 -10.399  1.00  0.00    -0.248 NA
ATOM     30  C   UNL     1       1.215   1.645 -11.139  1.00  0.00     0.031 C 
ATOM     31  C   UNL     1       6.625   1.019  -9.554  1.00  0.00     0.029 A 
ATOM     32  C   UNL     1       5.350   1.255 -10.064  1.00  0.00     0.049 A 
ATOM     33  H   UNL     1       3.881  -0.164 -10.549  1.00  0.00     0.167 HD
ATOM     34  C   UNL     1       3.325   2.497 -10.762  1.00  0.00     0.074 A 
ATOM     35  C   UNL     1       2.516   1.452 -11.372  1.00  0.00     0.031 C 
ATOM     36  C   UNL     1       4.588   2.471 -10.255  1.00  0.00     0.031 A 
BRANCH  23  37
ATOM     37  C   UNL     1       4.350  -3.198  -9.654  1.00  0.00    -0.014 A 
ATOM     38  C   UNL     1       4.898  -3.351 -10.944  1.00  0.00     0.009 A 
ATOM     39  C   UNL     1       3.220  -3.977  -9.359  1.00  0.00     0.009 A 
ATOM     40  C   UNL     1       4.264  -4.121 -11.928  1.00  0.00     0.001 A 
ATOM     41  C   UNL     1       2.570  -4.733 -10.346  1.00  0.00     0.001 A 
ATOM     42  C   UNL     1       3.075  -4.778 -11.639  1.00  0.00     0.000 A 
ENDBRANCH  23  37
BRANCH  24  43
ATOM     43  C   UNL     1      -1.145   3.569  -9.785  1.00  0.00    -0.014 A 
ATOM     44  C   UNL     1      -1.413   4.065 -11.072  1.00  0.00     0.009 A 
ATOM     45  C   UNL     1      -2.244   3.166  -9.006  1.00  0.00     0.009 A 
ATOM     46  C   UNL     1      -2.719   4.085 -11.584  1.00  0.00     0.001 A 
ATOM     47  C   UNL     1      -3.548   3.181  -9.518  1.00  0.00     0.001 A 
ATOM     48  C   UNL     1      -3.782   3.621 -10.815  1.00  0.00     0.000 A 
ENDBRANCH  24  43
BRANCH  36  49
ATOM     49  C   UNL     1       5.153   3.765  -9.736  1.00  0.00    -0.014 A 
ATOM     50  C   UNL     1       4.605   4.501  -8.672  1.00  0.00     0.009 A 
ATOM     51  C   UNL     1       6.323   4.245 -10.343  1.00  0.00     0.009 A 
ATOM     52  C   UNL     1       5.192   5.703  -8.260  1.00  0.00     0.001 A 
ATOM     53  C   UNL     1       6.924   5.428  -9.915  1.00  0.00     0.001 A 
ATOM     54  C   UNL     1       6.351   6.164  -8.882  1.00  0.00     0.000 A 
ENDBRANCH  36  49
ENDBRANCH  10  11
ENDBRANCH   3   5
ENDBRANCH   2   3
ENDBRANCH   1   2
BRANCH   1  55
ATOM     55  C   UNL     1       4.455  -0.747   1.262  1.00  0.00     0.275 C 
BRANCH  55  56
ATOM     56  O   UNL     1       3.982  -1.434   0.087  1.00  0.00    -0.457 OA
BRANCH  56  57
ATOM     57  C   UNL     1       2.822  -2.152   0.243  1.00  0.00     0.358 C 
ATOM     58  O   UNL     1       2.225  -2.283   1.295  1.00  0.00    -0.244 OA
BRANCH  57  59
ATOM     59  C   UNL     1       2.453  -2.884  -0.976  1.00  0.00     0.170 A 
ATOM     60  C   UNL     1       2.837  -4.220  -1.230  1.00  0.00     0.058 A 
ATOM     61  N   UNL     1       1.672  -2.398  -1.971  1.00  0.00    -0.159 NA
ATOM     62  C   UNL     1       2.112  -4.591  -2.328  1.00  0.00     0.118 A 
ATOM     63  N   UNL     1       1.365  -3.498  -2.716  1.00  0.00    -0.222 N 
BRANCH  63  64
ATOM     64  C   UNL     1       0.435  -3.517  -3.805  1.00  0.00     0.158 A 
ATOM     65  C   UNL     1       0.193  -2.380  -4.560  1.00  0.00     0.078 A 
ATOM     66  N   UNL     1      -0.088  -4.726  -4.117  1.00  0.00    -0.209 NA
ATOM     67  C   UNL     1      -0.460  -2.594  -5.761  1.00  0.00     0.077 A 
ATOM     68  C   UNL     1      -0.844  -4.782  -5.216  1.00  0.00     0.165 A 
ATOM     69  N   UNL     1      -1.013  -3.776  -6.073  1.00  0.00    -0.228 NA
BRANCH  67  70
ATOM     70  C   UNL     1      -0.435  -1.706  -6.927  1.00  0.00     0.003 A 
ATOM     71  C   UNL     1       0.571  -1.901  -7.880  1.00  0.00     0.030 A 
ATOM     72  C   UNL     1      -1.492  -0.875  -7.282  1.00  0.00     0.030 A 
ATOM     73  C   UNL     1       0.509  -1.278  -9.110  1.00  0.00     0.111 A 
ATOM     74  C   UNL     1      -1.487  -0.308  -8.551  1.00  0.00     0.111 A 
ATOM     75  N   UNL     1      -0.509  -0.482  -9.468  1.00  0.00    -0.265 NA
ENDBRANCH  67  70
BRANCH  68  76
ATOM     76  C   UNL     1      -1.772  -5.881  -5.367  1.00  0.00     0.055 A 
ATOM     77  C   UNL     1      -2.861  -5.985  -4.485  1.00  0.00     0.015 A 
ATOM     78  C   UNL     1      -1.703  -6.756  -6.452  1.00  0.00     0.134 A 
ATOM     79  C   UNL     1      -3.867  -6.923  -4.704  1.00  0.00     0.001 A 
ATOM     80  C   UNL     1      -2.699  -7.704  -6.670  1.00  0.00     0.040 A 
ATOM     81  F   UNL     1      -0.680  -6.685  -7.318  1.00  0.00    -0.206 F 
ATOM     82  C   UNL     1      -3.787  -7.780  -5.800  1.00  0.00     0.003 A 
ENDBRANCH  68  76
ENDBRANCH  63  64
ENDBRANCH  57  59
ENDBRANCH  56  57
ENDBRANCH  55  56
ENDBRANCH   1  55
TORSDOF 14
