REMARK SMILES CC1=C[C@@H]([C@@H]2N=N[C@H](S)N2/N=C/c2ccc(C(=O)OCCOC(=O)c3ccc(-c4c5nc(c(-c6ccccc6)c6ccc([nH]6)c(-c6ccccc6)c6nc(c(-c7ccccc7)c7ccc4[nH]7)C=C6)C=C5)cc3)cc2)N=N1
REMARK SMILES IDX 20 1 19 2 17 3 18 4 16 5 13 6 14 7 74 8 15 9 73 10 12 11
REMARK SMILES IDX 11 12 10 13 5 14 6 15 7 16 8 17 4 18 1 19 2 20 3 21 76 22
REMARK SMILES IDX 75 23 9 24 21 26 22 27 23 28 24 29 25 30 26 31 72 32 27 33
REMARK SMILES IDX 71 34 28 35 29 36 30 37 65 38 31 39 70 40 64 41 66 42 32 43
REMARK SMILES IDX 69 44 63 45 62 46 33 48 55 49 40 50 54 51 41 52 44 53 53 54
REMARK SMILES IDX 67 55 42 56 43 57 52 59 68 60 45 61 34 62 35 63 39 64 36 65
REMARK SMILES IDX 38 66 37 67 56 68 57 69 61 70 58 71 60 72 59 73 46 74 47 75
REMARK SMILES IDX 51 76 48 77 50 78 49 79
REMARK H PARENT 9 25 66 47 44 58
REMARK Flexibility Score: inf
ROOT
ATOM      1  C   UNL     1       6.857  -3.282  -0.999  1.00  0.00     0.275 C 
ENDROOT
BRANCH   1   2
ATOM      2  O   UNL     1       6.111  -2.510  -0.044  1.00  0.00    -0.458 OA
BRANCH   2   3
ATOM      3  C   UNL     1       5.722  -3.177   1.069  1.00  0.00     0.338 C 
ATOM      4  O   UNL     1       5.825  -4.379   1.268  1.00  0.00    -0.246 OA
BRANCH   3   5
ATOM      5  C   UNL     1       5.223  -2.231   2.098  1.00  0.00     0.060 A 
ATOM      6  C   UNL     1       4.129  -0.611   4.079  1.00  0.00    -0.005 A 
ATOM      7  C   UNL     1       4.677  -1.846   4.429  1.00  0.00     0.010 A 
ATOM      8  C   UNL     1       4.192  -0.147   2.761  1.00  0.00     0.010 A 
ATOM      9  C   UNL     1       5.213  -2.661   3.434  1.00  0.00     0.016 A 
ATOM     10  C   UNL     1       4.750  -0.955   1.769  1.00  0.00     0.016 A 
BRANCH   6  11
ATOM     11  C   UNL     1       3.385   0.135   5.108  1.00  0.00     0.141 C 
ATOM     12  N   UNL     1       2.524   1.040   4.774  1.00  0.00    -0.180 NA
BRANCH  12  13
ATOM     13  N   UNL     1       1.819   1.623   5.758  1.00  0.00    -0.233 NA
ATOM     14  C   UNL     1       0.636   2.437   5.510  1.00  0.00     0.274 C 
ATOM     15  N   UNL     1       0.104   2.846   6.838  1.00  0.00    -0.161 NA
ATOM     16  N   UNL     1       0.850   2.429   7.759  1.00  0.00    -0.153 NA
ATOM     17  C   UNL     1       2.016   1.709   7.197  1.00  0.00     0.298 C 
BRANCH  14  18
ATOM     18  C   UNL     1       0.911   3.670   4.611  1.00  0.00     0.201 C 
ATOM     19  C   UNL     1       2.359   6.759   6.039  1.00  0.00     0.068 C 
ATOM     20  C   UNL     1       1.590   5.653   5.417  1.00  0.00     0.058 C 
ATOM     21  C   UNL     1       2.088   4.490   5.008  1.00  0.00     0.031 C 
ATOM     22  N   UNL     1       0.234   5.737   5.232  1.00  0.00    -0.160 NA
ATOM     23  N   UNL     1      -0.205   4.659   4.735  1.00  0.00    -0.177 NA
ENDBRANCH  14  18
BRANCH  17  24
ATOM     24  S   UNL     1       3.617   2.478   7.640  1.00  0.00    -0.128 SA
ATOM     25  H   UNL     1       3.664   3.744   7.147  1.00  0.00     0.106 HD
ENDBRANCH  17  24
ENDBRANCH  12  13
ENDBRANCH   6  11
ENDBRANCH   3   5
ENDBRANCH   2   3
ENDBRANCH   1   2
BRANCH   1  26
ATOM     26  C   UNL     1       8.350  -3.215  -0.707  1.00  0.00     0.275 C 
BRANCH  26  27
ATOM     27  O   UNL     1       8.698  -3.978   0.449  1.00  0.00    -0.458 OA
BRANCH  27  28
ATOM     28  C   UNL     1       8.750  -3.289   1.611  1.00  0.00     0.338 C 
ATOM     29  O   UNL     1       8.322  -2.167   1.827  1.00  0.00    -0.246 OA
BRANCH  28  30
ATOM     30  C   UNL     1       9.606  -4.012   2.561  1.00  0.00     0.060 A 
ATOM     31  C   UNL     1       9.742  -3.477   3.846  1.00  0.00     0.016 A 
ATOM     32  C   UNL     1      10.452  -5.031   2.099  1.00  0.00     0.016 A 
ATOM     33  C   UNL     1      10.834  -3.848   4.607  1.00  0.00     0.010 A 
ATOM     34  C   UNL     1      11.542  -5.396   2.857  1.00  0.00     0.010 A 
ATOM     35  C   UNL     1      11.764  -4.743   4.067  1.00  0.00    -0.014 A 
BRANCH  35  36
ATOM     36  C   UNL     1      12.986  -4.989   4.808  1.00  0.00     0.031 A 
ATOM     37  C   UNL     1      12.828  -5.781   6.050  1.00  0.00     0.074 A 
ATOM     38  C   UNL     1      14.195  -4.643   4.327  1.00  0.00     0.049 A 
ATOM     39  N   UNL     1      13.161  -5.454   7.254  1.00  0.00    -0.248 NA
ATOM     40  C   UNL     1      12.138  -7.076   5.940  1.00  0.00     0.031 C 
ATOM     41  C   UNL     1      14.531  -4.147   2.988  1.00  0.00     0.029 A 
ATOM     42  N   UNL     1      15.411  -4.796   4.915  1.00  0.00    -0.354 N 
ATOM     43  C   UNL     1      12.851  -6.555   8.047  1.00  0.00     0.074 A 
ATOM     44  C   UNL     1      12.129  -7.479   7.209  1.00  0.00     0.031 C 
ATOM     45  C   UNL     1      15.863  -4.277   2.792  1.00  0.00     0.029 A 
ATOM     46  C   UNL     1      16.475  -4.726   4.031  1.00  0.00     0.049 A 
ATOM     47  H   UNL     1      15.525  -4.944   5.882  1.00  0.00     0.167 HD
ATOM     48  C   UNL     1      13.361  -6.719   9.297  1.00  0.00     0.031 A 
ATOM     49  C   UNL     1      17.753  -5.095   4.284  1.00  0.00     0.031 A 
ATOM     50  C   UNL     1      13.897  -5.500   9.834  1.00  0.00     0.049 A 
ATOM     51  C   UNL     1      17.927  -5.152   5.754  1.00  0.00     0.074 A 
ATOM     52  C   UNL     1      13.367  -4.272  10.173  1.00  0.00     0.029 A 
ATOM     53  N   UNL     1      15.258  -5.323   9.776  1.00  0.00    -0.354 N 
ATOM     54  N   UNL     1      17.905  -4.104   6.526  1.00  0.00    -0.248 NA
ATOM     55  C   UNL     1      17.713  -6.425   6.427  1.00  0.00     0.031 C 
ATOM     56  C   UNL     1      14.381  -3.329   9.836  1.00  0.00     0.029 A 
ATOM     57  C   UNL     1      15.478  -4.041   9.345  1.00  0.00     0.049 A 
ATOM     58  H   UNL     1      15.945  -5.991  10.001  1.00  0.00     0.167 HD
ATOM     59  C   UNL     1      17.267  -4.526   7.684  1.00  0.00     0.074 A 
ATOM     60  C   UNL     1      17.276  -5.984   7.610  1.00  0.00     0.031 C 
ATOM     61  C   UNL     1      16.547  -3.656   8.451  1.00  0.00     0.031 A 
BRANCH  48  62
ATOM     62  C   UNL     1      13.682  -8.063   9.889  1.00  0.00    -0.014 A 
ATOM     63  C   UNL     1      14.088  -8.138  11.232  1.00  0.00     0.009 A 
ATOM     64  C   UNL     1      13.862  -9.217   9.103  1.00  0.00     0.009 A 
ATOM     65  C   UNL     1      14.694  -9.292  11.744  1.00  0.00     0.001 A 
ATOM     66  C   UNL     1      14.428 -10.384   9.621  1.00  0.00     0.001 A 
ATOM     67  C   UNL     1      14.869 -10.412  10.936  1.00  0.00     0.000 A 
ENDBRANCH  48  62
BRANCH  49  68
ATOM     68  C   UNL     1      18.724  -5.689   3.344  1.00  0.00    -0.014 A 
ATOM     69  C   UNL     1      20.097  -5.684   3.627  1.00  0.00     0.009 A 
ATOM     70  C   UNL     1      18.276  -6.492   2.278  1.00  0.00     0.009 A 
ATOM     71  C   UNL     1      20.984  -6.478   2.888  1.00  0.00     0.001 A 
ATOM     72  C   UNL     1      19.160  -7.280   1.537  1.00  0.00     0.001 A 
ATOM     73  C   UNL     1      20.514  -7.284   1.852  1.00  0.00     0.000 A 
ENDBRANCH  49  68
BRANCH  61  74
ATOM     74  C   UNL     1      16.648  -2.184   8.134  1.00  0.00    -0.014 A 
ATOM     75  C   UNL     1      16.226  -1.646   6.905  1.00  0.00     0.009 A 
ATOM     76  C   UNL     1      17.007  -1.299   9.160  1.00  0.00     0.009 A 
ATOM     77  C   UNL     1      16.187  -0.262   6.704  1.00  0.00     0.001 A 
ATOM     78  C   UNL     1      16.948   0.083   8.966  1.00  0.00     0.001 A 
ATOM     79  C   UNL     1      16.541   0.601   7.738  1.00  0.00     0.000 A 
ENDBRANCH  61  74
ENDBRANCH  35  36
ENDBRANCH  28  30
ENDBRANCH  27  28
ENDBRANCH  26  27
ENDBRANCH   1  26
TORSDOF 15
