REMARK SMILES Cc1cc2c(=O)cc(-c3ccc(F)cc3)oc2c(C(=O)OCCOC(=O)c2ccc(-c3c4nc(c(-c5ccccc5)c5ccc([nH]5)c(-c5ccccc5)c5nc(c(-c6ccccc6)c6ccc3[nH]6)C=C5)C=C4)cc2)c1C
REMARK SMILES IDX 23 1 22 2 21 3 19 4 20 5 18 6 1 7 2 8 3 9 75 10 4 11 76 12
REMARK SMILES IDX 5 13 17 14 6 15 7 16 16 17 8 18 9 19 10 20 15 21 11 22 14 23
REMARK SMILES IDX 12 24 13 25 24 26 25 27 26 28 27 29 28 30 74 31 29 32 73 33
REMARK SMILES IDX 30 34 31 35 32 36 67 37 33 38 72 39 66 40 68 41 34 42 71 43
REMARK SMILES IDX 65 44 64 45 35 47 57 48 42 49 56 50 43 51 46 52 55 53 69 54
REMARK SMILES IDX 44 55 45 56 54 58 70 59 47 60 36 61 37 62 41 63 38 64 40 65
REMARK SMILES IDX 39 66 58 67 59 68 63 69 60 70 62 71 61 72 48 73 49 74 53 75
REMARK SMILES IDX 50 76 52 77 51 78
REMARK H PARENT 68 46 46 57
REMARK Flexibility Score: inf
ROOT
ATOM      1  C   UNL     1      -1.518   5.547   4.045  1.00  0.00     0.275 C 
ENDROOT
BRANCH   1   2
ATOM      2  C   UNL     1      -0.080   5.048   3.902  1.00  0.00     0.275 C 
BRANCH   2   3
ATOM      3  O   UNL     1      -0.060   3.767   3.246  1.00  0.00    -0.458 OA
BRANCH   3   4
ATOM      4  C   UNL     1       0.405   2.718   3.963  1.00  0.00     0.342 C 
ATOM      5  O   UNL     1       0.793   2.769   5.120  1.00  0.00    -0.246 OA
BRANCH   4   6
ATOM      6  C   UNL     1       0.339   1.454   3.165  1.00  0.00     0.106 A 
ATOM      7  C   UNL     1       0.879  -0.008  -0.369  1.00  0.00     0.044 C 
ATOM      8  C   UNL     1       0.575   0.147   1.099  1.00  0.00    -0.046 A 
ATOM      9  C   UNL     1       0.255  -1.010   1.819  1.00  0.00     0.019 A 
ATOM     10  C   UNL     1       0.634   1.396   1.770  1.00  0.00    -0.030 A 
ATOM     11  C   UNL     1      -0.033  -0.939   3.179  1.00  0.00     0.066 A 
ATOM     12  C   UNL     1       0.975   2.643   0.988  1.00  0.00     0.046 C 
ATOM     13  C   UNL     1      -0.411  -2.160   3.898  1.00  0.00     0.193 A 
ATOM     14  C   UNL     1       0.006   0.274   3.861  1.00  0.00     0.153 A 
ATOM     15  O   UNL     1      -0.432  -3.261   3.364  1.00  0.00    -0.289 OA
ATOM     16  C   UNL     1      -0.799  -2.000   5.301  1.00  0.00     0.100 A 
ATOM     17  O   UNL     1      -0.304   0.348   5.202  1.00  0.00    -0.455 OA
ATOM     18  C   UNL     1      -0.725  -0.789   5.869  1.00  0.00     0.138 A 
BRANCH  18  19
ATOM     19  C   UNL     1      -1.123  -0.562   7.285  1.00  0.00     0.018 A 
ATOM     20  C   UNL     1      -1.314   1.069   7.825  1.00  0.00     0.015 A 
ATOM     21  C   UNL     1      -1.188  -1.879   8.276  1.00  0.00     0.015 A 
ATOM     22  C   UNL     1      -1.626   1.577   9.396  1.00  0.00     0.040 A 
ATOM     23  C   UNL     1      -1.405  -1.609   9.934  1.00  0.00     0.040 A 
ATOM     24  C   UNL     1      -1.669   0.361  10.594  1.00  0.00     0.123 A 
ATOM     25  F   UNL     1      -1.952   0.869  11.833  1.00  0.00    -0.207 F 
ENDBRANCH  18  19
ENDBRANCH   4   6
ENDBRANCH   3   4
ENDBRANCH   2   3
ENDBRANCH   1   2
BRANCH   1  26
ATOM     26  O   UNL     1      -2.294   4.665   4.879  1.00  0.00    -0.458 OA
BRANCH  26  27
ATOM     27  C   UNL     1      -2.995   3.697   4.232  1.00  0.00     0.338 C 
ATOM     28  O   UNL     1      -3.079   3.533   3.028  1.00  0.00    -0.246 OA
BRANCH  27  29
ATOM     29  C   UNL     1      -3.510   2.732   5.231  1.00  0.00     0.060 A 
ATOM     30  C   UNL     1      -3.937   3.144   6.496  1.00  0.00     0.016 A 
ATOM     31  C   UNL     1      -3.471   1.368   4.919  1.00  0.00     0.016 A 
ATOM     32  C   UNL     1      -4.147   2.190   7.495  1.00  0.00     0.010 A 
ATOM     33  C   UNL     1      -3.697   0.414   5.918  1.00  0.00     0.010 A 
ATOM     34  C   UNL     1      -3.898   0.824   7.246  1.00  0.00    -0.014 A 
BRANCH  34  35
ATOM     35  C   UNL     1      -3.861  -0.138   8.402  1.00  0.00     0.031 A 
ATOM     36  C   UNL     1      -2.565  -0.449   9.327  1.00  0.00     0.074 A 
ATOM     37  C   UNL     1      -5.099  -0.580   8.751  1.00  0.00     0.049 A 
ATOM     38  N   UNL     1      -2.974  -1.047  10.886  1.00  0.00    -0.248 NA
ATOM     39  C   UNL     1      -0.378  -0.199   9.456  1.00  0.00     0.031 C 
ATOM     40  C   UNL     1      -6.305  -0.261   7.970  1.00  0.00     0.029 A 
ATOM     41  N   UNL     1      -5.597  -1.302   9.823  1.00  0.00    -0.354 N 
ATOM     42  C   UNL     1      -1.477  -1.215  11.931  1.00  0.00     0.074 A 
ATOM     43  C   UNL     1       0.057  -0.646  10.958  1.00  0.00     0.031 C 
ATOM     44  C   UNL     1      -7.386  -0.726   8.600  1.00  0.00     0.029 A 
ATOM     45  C   UNL     1      -6.979  -1.421   9.818  1.00  0.00     0.049 A 
ATOM     46  H   UNL     1      -5.025  -1.694  10.522  1.00  0.00     0.167 HD
ATOM     47  C   UNL     1      -1.268  -1.805  13.132  1.00  0.00     0.031 A 
ATOM     48  C   UNL     1      -7.884  -1.978  10.657  1.00  0.00     0.031 A 
ATOM     49  C   UNL     1      -2.239  -2.495  13.915  1.00  0.00     0.049 A 
ATOM     50  C   UNL     1      -7.486  -2.593  11.969  1.00  0.00     0.074 A 
ATOM     51  C   UNL     1      -2.012  -3.214  15.077  1.00  0.00     0.029 A 
ATOM     52  N   UNL     1      -3.589  -2.587  13.630  1.00  0.00    -0.354 N 
ATOM     53  N   UNL     1      -6.307  -2.666  12.533  1.00  0.00    -0.248 NA
ATOM     54  C   UNL     1      -8.574  -3.172  12.778  1.00  0.00     0.031 C 
ATOM     55  C   UNL     1      -3.211  -3.797  15.468  1.00  0.00     0.029 A 
ATOM     56  C   UNL     1      -4.203  -3.346  14.614  1.00  0.00     0.049 A 
ATOM     57  H   UNL     1      -4.040  -2.180  12.855  1.00  0.00     0.167 HD
ATOM     58  C   UNL     1      -6.520  -3.261  13.773  1.00  0.00     0.074 A 
ATOM     59  C   UNL     1      -7.937  -3.514  13.889  1.00  0.00     0.031 C 
ATOM     60  C   UNL     1      -5.617  -3.572  14.731  1.00  0.00     0.031 A 
BRANCH  47  61
ATOM     61  C   UNL     1       0.169  -1.845  13.577  1.00  0.00    -0.014 A 
ATOM     62  C   UNL     1       0.869  -3.065  13.562  1.00  0.00     0.009 A 
ATOM     63  C   UNL     1       0.839  -0.688  14.005  1.00  0.00     0.009 A 
ATOM     64  C   UNL     1       2.205  -3.127  13.960  1.00  0.00     0.001 A 
ATOM     65  C   UNL     1       2.189  -0.745  14.362  1.00  0.00     0.001 A 
ATOM     66  C   UNL     1       2.869  -1.964  14.345  1.00  0.00     0.000 A 
ENDBRANCH  47  61
BRANCH  48  67
ATOM     67  C   UNL     1      -9.334  -1.935  10.270  1.00  0.00    -0.014 A 
ATOM     68  C   UNL     1      -9.795  -2.665   9.160  1.00  0.00     0.009 A 
ATOM     69  C   UNL     1     -10.244  -1.117  10.960  1.00  0.00     0.009 A 
ATOM     70  C   UNL     1     -11.115  -2.538   8.719  1.00  0.00     0.001 A 
ATOM     71  C   UNL     1     -11.575  -1.026  10.542  1.00  0.00     0.001 A 
ATOM     72  C   UNL     1     -12.005  -1.721   9.412  1.00  0.00     0.000 A 
ENDBRANCH  48  67
BRANCH  60  73
ATOM     73  C   UNL     1      -6.099  -4.185  16.021  1.00  0.00    -0.014 A 
ATOM     74  C   UNL     1      -5.908  -3.485  17.226  1.00  0.00     0.009 A 
ATOM     75  C   UNL     1      -6.593  -5.497  16.074  1.00  0.00     0.009 A 
ATOM     76  C   UNL     1      -6.182  -4.088  18.453  1.00  0.00     0.001 A 
ATOM     77  C   UNL     1      -6.900  -6.087  17.303  1.00  0.00     0.001 A 
ATOM     78  C   UNL     1      -6.682  -5.388  18.491  1.00  0.00     0.000 A 
ENDBRANCH  60  73
ENDBRANCH  34  35
ENDBRANCH  27  29
ENDBRANCH  26  27
ENDBRANCH   1  26
TORSDOF 12
