REMARK SMILES O=C(OCCOC(=O)c1ccc(F)c(NS(=O)(=O)c2cc(Cl)sc2Cl)c1)c1ccc(-c2c3nc(c(-c4ccccc4)c4ccc([nH]4)c(-c4ccccc4)c4nc(c(-c5ccccc5)c5ccc2[nH]5)C=C4)C=C3)cc1
REMARK SMILES IDX 5 1 4 2 3 3 2 4 1 5 27 6 28 7 74 8 29 9 73 10 30 11 31 12
REMARK SMILES IDX 32 13 67 14 33 15 72 16 66 17 68 18 34 19 71 20 65 21 64 22
REMARK SMILES IDX 35 24 57 25 42 26 56 27 43 28 46 29 55 30 69 31 44 32 45 33
REMARK SMILES IDX 54 35 70 36 47 37 36 38 37 39 41 40 38 41 40 42 39 43 58 44
REMARK SMILES IDX 59 45 63 46 60 47 62 48 61 49 48 50 49 51 53 52 50 53 52 54
REMARK SMILES IDX 51 55 6 56 7 57 8 58 9 59 10 60 26 61 11 62 14 63 12 64
REMARK SMILES IDX 13 65 15 66 16 68 17 69 18 70 19 71 20 72 24 73 21 74 23 75
REMARK SMILES IDX 25 76 22 77
REMARK H PARENT 68 23 46 34 15 67
REMARK Flexibility Score: inf
ROOT
ATOM      1  C   UNL     1       3.736   0.894   2.468  1.00  0.00     0.275 C 
ENDROOT
BRANCH   1   2
ATOM      2  C   UNL     1       4.602   1.399   1.307  1.00  0.00     0.275 C 
BRANCH   2   3
ATOM      3  O   UNL     1       4.106   1.243  -0.039  1.00  0.00    -0.458 OA
BRANCH   3   4
ATOM      4  C   UNL     1       3.406   0.165  -0.451  1.00  0.00     0.338 C 
ATOM      5  O   UNL     1       2.253   0.267  -0.855  1.00  0.00    -0.246 OA
BRANCH   4   6
ATOM      6  C   UNL     1       4.113  -1.152  -0.533  1.00  0.00     0.060 A 
ATOM      7  C   UNL     1       5.375  -1.423  -0.003  1.00  0.00     0.016 A 
ATOM      8  C   UNL     1       3.412  -2.204  -1.142  1.00  0.00     0.016 A 
ATOM      9  C   UNL     1       5.884  -2.724  -0.007  1.00  0.00     0.010 A 
ATOM     10  C   UNL     1       3.901  -3.507  -1.132  1.00  0.00     0.010 A 
ATOM     11  C   UNL     1       5.144  -3.775  -0.556  1.00  0.00    -0.014 A 
BRANCH  11  12
ATOM     12  C   UNL     1       5.691  -5.147  -0.571  1.00  0.00     0.031 A 
ATOM     13  C   UNL     1       6.177  -5.729  -1.863  1.00  0.00     0.074 A 
ATOM     14  C   UNL     1       5.738  -5.859   0.570  1.00  0.00     0.049 A 
ATOM     15  N   UNL     1       6.762  -6.878  -2.076  1.00  0.00    -0.248 NA
ATOM     16  C   UNL     1       5.987  -4.912  -3.072  1.00  0.00     0.031 C 
ATOM     17  C   UNL     1       5.283  -5.389   1.879  1.00  0.00     0.029 A 
ATOM     18  N   UNL     1       6.177  -7.134   0.811  1.00  0.00    -0.354 N 
ATOM     19  C   UNL     1       7.042  -6.904  -3.435  1.00  0.00     0.074 A 
ATOM     20  C   UNL     1       6.489  -5.699  -4.011  1.00  0.00     0.031 C 
ATOM     21  C   UNL     1       5.434  -6.374   2.779  1.00  0.00     0.029 A 
ATOM     22  C   UNL     1       6.012  -7.536   2.114  1.00  0.00     0.049 A 
ATOM     23  H   UNL     1       6.574  -7.708   0.116  1.00  0.00     0.167 HD
ATOM     24  C   UNL     1       7.741  -7.830  -4.131  1.00  0.00     0.031 A 
ATOM     25  C   UNL     1       6.309  -8.708   2.704  1.00  0.00     0.031 A 
ATOM     26  C   UNL     1       8.266  -9.034  -3.551  1.00  0.00     0.049 A 
ATOM     27  C   UNL     1       7.021  -9.756   1.897  1.00  0.00     0.074 A 
ATOM     28  C   UNL     1       9.023 -10.026  -4.146  1.00  0.00     0.029 A 
ATOM     29  N   UNL     1       8.073  -9.411  -2.230  1.00  0.00    -0.354 N 
ATOM     30  N   UNL     1       7.378  -9.719   0.635  1.00  0.00    -0.248 NA
ATOM     31  C   UNL     1       7.415 -10.981   2.603  1.00  0.00     0.031 C 
ATOM     32  C   UNL     1       9.256 -11.023  -3.192  1.00  0.00     0.029 A 
ATOM     33  C   UNL     1       8.680 -10.631  -1.993  1.00  0.00     0.049 A 
ATOM     34  H   UNL     1       7.576  -8.888  -1.560  1.00  0.00     0.167 HD
ATOM     35  C   UNL     1       8.084 -10.892   0.408  1.00  0.00     0.074 A 
ATOM     36  C   UNL     1       8.098 -11.620   1.663  1.00  0.00     0.031 C 
ATOM     37  C   UNL     1       8.682 -11.322  -0.730  1.00  0.00     0.031 A 
BRANCH  24  38
ATOM     38  C   UNL     1       7.976  -7.545  -5.587  1.00  0.00    -0.014 A 
ATOM     39  C   UNL     1       8.852  -6.520  -5.983  1.00  0.00     0.009 A 
ATOM     40  C   UNL     1       7.306  -8.285  -6.571  1.00  0.00     0.009 A 
ATOM     41  C   UNL     1       9.015  -6.210  -7.335  1.00  0.00     0.001 A 
ATOM     42  C   UNL     1       7.491  -7.988  -7.924  1.00  0.00     0.001 A 
ATOM     43  C   UNL     1       8.334  -6.944  -8.303  1.00  0.00     0.000 A 
ENDBRANCH  24  38
BRANCH  25  44
ATOM     44  C   UNL     1       5.983  -8.924   4.138  1.00  0.00    -0.014 A 
ATOM     45  C   UNL     1       6.992  -8.932   5.112  1.00  0.00     0.009 A 
ATOM     46  C   UNL     1       4.651  -9.114   4.540  1.00  0.00     0.009 A 
ATOM     47  C   UNL     1       6.677  -9.153   6.456  1.00  0.00     0.001 A 
ATOM     48  C   UNL     1       4.337  -9.313   5.887  1.00  0.00     0.001 A 
ATOM     49  C   UNL     1       5.351  -9.341   6.842  1.00  0.00     0.000 A 
ENDBRANCH  25  44
BRANCH  37  50
ATOM     50  C   UNL     1       9.442 -12.613  -0.649  1.00  0.00    -0.014 A 
ATOM     51  C   UNL     1       8.778 -13.847  -0.599  1.00  0.00     0.009 A 
ATOM     52  C   UNL     1      10.845 -12.589  -0.672  1.00  0.00     0.009 A 
ATOM     53  C   UNL     1       9.508 -15.035  -0.544  1.00  0.00     0.001 A 
ATOM     54  C   UNL     1      11.572 -13.779  -0.643  1.00  0.00     0.001 A 
ATOM     55  C   UNL     1      10.903 -15.000  -0.572  1.00  0.00     0.000 A 
ENDBRANCH  37  50
ENDBRANCH  11  12
ENDBRANCH   4   6
ENDBRANCH   3   4
ENDBRANCH   2   3
ENDBRANCH   1   2
BRANCH   1  56
ATOM     56  O   UNL     1       3.323  -0.474   2.315  1.00  0.00    -0.458 OA
BRANCH  56  57
ATOM     57  C   UNL     1       1.986  -0.689   2.439  1.00  0.00     0.338 C 
ATOM     58  O   UNL     1       1.126   0.125   2.720  1.00  0.00    -0.246 OA
BRANCH  57  59
ATOM     59  C   UNL     1       1.683  -2.083   2.065  1.00  0.00     0.062 A 
ATOM     60  C   UNL     1       2.225  -3.146   2.795  1.00  0.00     0.019 A 
ATOM     61  C   UNL     1       0.862  -2.312   0.948  1.00  0.00     0.045 A 
ATOM     62  C   UNL     1       1.954  -4.453   2.395  1.00  0.00     0.042 A 
ATOM     63  C   UNL     1       0.620  -3.620   0.527  1.00  0.00     0.085 A 
ATOM     64  C   UNL     1       1.184  -4.676   1.256  1.00  0.00     0.147 A 
ATOM     65  F   UNL     1       0.996  -5.937   0.836  1.00  0.00    -0.205 F 
BRANCH  63  66
ATOM     66  N   UNL     1      -0.002  -3.944  -0.732  1.00  0.00    -0.277 N 
ATOM     67  H   UNL     1       0.414  -4.604  -1.332  1.00  0.00     0.180 HD
BRANCH  66  68
ATOM     68  S   UNL     1      -1.446  -3.188  -1.176  1.00  0.00     0.264 S 
ATOM     69  O   UNL     1      -2.013  -4.003  -2.227  1.00  0.00    -0.201 OA
ATOM     70  O   UNL     1      -2.174  -2.844   0.021  1.00  0.00    -0.201 OA
BRANCH  68  71
ATOM     71  C   UNL     1      -1.081  -1.712  -1.985  1.00  0.00     0.118 A 
ATOM     72  C   UNL     1       0.046  -1.574  -2.861  1.00  0.00     0.056 A 
ATOM     73  C   UNL     1      -1.828  -0.560  -1.954  1.00  0.00     0.115 A 
ATOM     74  C   UNL     1       0.145  -0.294  -3.342  1.00  0.00     0.096 A 
ATOM     75  S   UNL     1      -1.123   0.709  -2.846  1.00  0.00    -0.110 S 
ATOM     76  Cl  UNL     1      -3.329  -0.247  -1.178  1.00  0.00    -0.071 Cl
ATOM     77  Cl  UNL     1       1.382   0.322  -4.360  1.00  0.00    -0.072 Cl
ENDBRANCH  68  71
ENDBRANCH  66  68
ENDBRANCH  63  66
ENDBRANCH  57  59
ENDBRANCH  56  57
ENDBRANCH   1  56
TORSDOF 14
