REMARK SMILES CCCc1cc(OCC(=O)OCCOC(=O)c2ccc(-c3c4nc(c(-c5ccccc5)c5ccc([nH]5)c(-c5ccccc5)c5nc(c(-c6ccccc6)c6ccc3[nH]6)C=C5)C=C4)cc2)nc(Nc2ccc(C#N)cc2)n1
REMARK SMILES IDX 11 1 9 2 10 3 8 4 7 5 6 6 4 7 5 8 76 9 66 10 65 11 3 12 2 13
REMARK SMILES IDX 1 14 67 15 68 17 69 18 75 19 70 20 74 21 71 22 72 23 73 24
REMARK SMILES IDX 12 25 13 26 14 27 15 28 16 29 17 30 18 31 64 32 19 33 63 34
REMARK SMILES IDX 20 35 21 36 22 37 57 38 23 39 62 40 56 41 58 42 24 43 61 44
REMARK SMILES IDX 55 45 54 46 25 48 47 49 32 50 46 51 33 52 36 53 45 54 59 55
REMARK SMILES IDX 34 56 35 57 44 59 60 60 37 61 26 62 27 63 31 64 28 65 30 66
REMARK SMILES IDX 29 67 48 68 49 69 53 70 50 71 52 72 51 73 38 74 39 75 43 76
REMARK SMILES IDX 40 77 42 78 41 79
REMARK H PARENT 67 16 58 47 36 58
REMARK Flexibility Score: inf
ROOT
ATOM      1  O   UNL     1      -1.741   2.431  -1.774  1.00  0.00    -0.460 OA
ENDROOT
BRANCH   1   2
ATOM      2  C   UNL     1      -2.859   2.305  -1.011  1.00  0.00     0.344 C 
ATOM      3  O   UNL     1      -3.756   1.494  -1.241  1.00  0.00    -0.248 OA
BRANCH   2   4
ATOM      4  C   UNL     1      -2.914   3.220   0.233  1.00  0.00     0.353 C 
BRANCH   4   5
ATOM      5  O   UNL     1      -1.930   4.166   0.586  1.00  0.00    -0.466 OA
BRANCH   5   6
ATOM      6  C   UNL     1      -0.871   3.848   1.385  1.00  0.00     0.218 A 
ATOM      7  C   UNL     1       0.706   2.419   2.377  1.00  0.00     0.050 A 
ATOM      8  C   UNL     1      -0.584   2.615   1.931  1.00  0.00     0.092 A 
ATOM      9  N   UNL     1       1.541   3.446   2.482  1.00  0.00    -0.218 NA
ATOM     10  C   UNL     1       1.106   4.670   2.175  1.00  0.00     0.230 A 
ATOM     11  N   UNL     1      -0.066   4.907   1.586  1.00  0.00    -0.177 NA
BRANCH   7  12
ATOM     12  C   UNL     1       1.311   1.114   2.811  1.00  0.00     0.056 C 
BRANCH  12  13
ATOM     13  C   UNL     1       1.538   0.045   1.748  1.00  0.00     0.003 C 
ATOM     14  C   UNL     1       2.288   0.454   0.492  1.00  0.00     0.004 C 
ENDBRANCH  12  13
ENDBRANCH   7  12
BRANCH  10  15
ATOM     15  N   UNL     1       1.887   5.737   2.613  1.00  0.00    -0.324 N 
ATOM     16  H   UNL     1       1.546   6.649   2.466  1.00  0.00     0.170 HD
BRANCH  15  17
ATOM     17  C   UNL     1       3.127   5.594   3.249  1.00  0.00     0.041 A 
ATOM     18  C   UNL     1       3.332   6.098   4.536  1.00  0.00     0.027 A 
ATOM     19  C   UNL     1       4.117   4.768   2.689  1.00  0.00     0.027 A 
ATOM     20  C   UNL     1       4.508   5.796   5.236  1.00  0.00     0.021 A 
ATOM     21  C   UNL     1       5.292   4.469   3.376  1.00  0.00     0.021 A 
ATOM     22  C   UNL     1       5.492   4.988   4.654  1.00  0.00     0.052 A 
BRANCH  22  23
ATOM     23  C   UNL     1       6.696   4.681   5.362  1.00  0.00     0.099 C 
ATOM     24  N   UNL     1       7.684   4.430   5.926  1.00  0.00    -0.192 NA
ENDBRANCH  22  23
ENDBRANCH  15  17
ENDBRANCH  10  15
ENDBRANCH   5   6
ENDBRANCH   4   5
ENDBRANCH   2   4
ENDBRANCH   1   2
BRANCH   1  25
ATOM     25  C   UNL     1      -1.560   1.438  -2.823  1.00  0.00     0.274 C 
BRANCH  25  26
ATOM     26  C   UNL     1      -0.653   0.252  -2.413  1.00  0.00     0.275 C 
BRANCH  26  27
ATOM     27  O   UNL     1      -1.305  -0.718  -1.540  1.00  0.00    -0.458 OA
BRANCH  27  28
ATOM     28  C   UNL     1      -1.322  -0.269  -0.274  1.00  0.00     0.338 C 
ATOM     29  O   UNL     1      -0.860   0.817   0.044  1.00  0.00    -0.246 OA
BRANCH  28  30
ATOM     30  C   UNL     1      -1.888  -1.070   0.828  1.00  0.00     0.060 A 
ATOM     31  C   UNL     1      -2.823  -0.389   1.619  1.00  0.00     0.016 A 
ATOM     32  C   UNL     1      -1.109  -2.079   1.407  1.00  0.00     0.016 A 
ATOM     33  C   UNL     1      -2.874  -0.598   2.998  1.00  0.00     0.010 A 
ATOM     34  C   UNL     1      -1.207  -2.336   2.788  1.00  0.00     0.010 A 
ATOM     35  C   UNL     1      -2.070  -1.581   3.601  1.00  0.00    -0.014 A 
BRANCH  35  36
ATOM     36  C   UNL     1      -2.366  -1.987   5.002  1.00  0.00     0.031 A 
ATOM     37  C   UNL     1      -1.475  -1.725   6.187  1.00  0.00     0.074 A 
ATOM     38  C   UNL     1      -3.523  -2.652   5.172  1.00  0.00     0.049 A 
ATOM     39  N   UNL     1      -1.677  -2.023   7.450  1.00  0.00    -0.248 NA
ATOM     40  C   UNL     1      -0.200  -1.050   5.937  1.00  0.00     0.031 C 
ATOM     41  C   UNL     1      -4.468  -2.969   4.096  1.00  0.00     0.029 A 
ATOM     42  N   UNL     1      -4.102  -3.177   6.293  1.00  0.00    -0.354 N 
ATOM     43  C   UNL     1      -0.558  -1.568   8.144  1.00  0.00     0.074 A 
ATOM     44  C   UNL     1       0.325  -0.981   7.156  1.00  0.00     0.031 C 
ATOM     45  C   UNL     1      -5.517  -3.615   4.612  1.00  0.00     0.029 A 
ATOM     46  C   UNL     1      -5.285  -3.819   6.034  1.00  0.00     0.049 A 
ATOM     47  H   UNL     1      -3.710  -3.103   7.193  1.00  0.00     0.167 HD
ATOM     48  C   UNL     1      -0.287  -1.653   9.473  1.00  0.00     0.031 A 
ATOM     49  C   UNL     1      -6.091  -4.529   6.838  1.00  0.00     0.031 A 
ATOM     50  C   UNL     1      -1.145  -2.305  10.438  1.00  0.00     0.049 A 
ATOM     51  C   UNL     1      -5.737  -4.660   8.284  1.00  0.00     0.074 A 
ATOM     52  C   UNL     1      -0.973  -2.425  11.808  1.00  0.00     0.029 A 
ATOM     53  N   UNL     1      -2.320  -2.975  10.129  1.00  0.00    -0.354 N 
ATOM     54  N   UNL     1      -4.708  -4.170   8.931  1.00  0.00    -0.248 NA
ATOM     55  C   UNL     1      -6.670  -5.428   9.113  1.00  0.00     0.031 C 
ATOM     56  C   UNL     1      -1.997  -3.235  12.312  1.00  0.00     0.029 A 
ATOM     57  C   UNL     1      -2.860  -3.544  11.274  1.00  0.00     0.049 A 
ATOM     58  H   UNL     1      -2.714  -3.039   9.229  1.00  0.00     0.167 HD
ATOM     59  C   UNL     1      -4.885  -4.545  10.255  1.00  0.00     0.074 A 
ATOM     60  C   UNL     1      -6.133  -5.280  10.315  1.00  0.00     0.031 C 
ATOM     61  C   UNL     1      -4.089  -4.297  11.323  1.00  0.00     0.031 A 
BRANCH  48  62
ATOM     62  C   UNL     1       1.018  -1.076   9.974  1.00  0.00    -0.014 A 
ATOM     63  C   UNL     1       1.256   0.308   9.988  1.00  0.00     0.009 A 
ATOM     64  C   UNL     1       1.999  -1.928  10.511  1.00  0.00     0.009 A 
ATOM     65  C   UNL     1       2.457   0.820  10.493  1.00  0.00     0.001 A 
ATOM     66  C   UNL     1       3.184  -1.413  11.043  1.00  0.00     0.001 A 
ATOM     67  C   UNL     1       3.418  -0.040  11.024  1.00  0.00     0.000 A 
ENDBRANCH  48  62
BRANCH  49  68
ATOM     68  C   UNL     1      -7.301  -5.168   6.267  1.00  0.00    -0.014 A 
ATOM     69  C   UNL     1      -8.579  -4.705   6.606  1.00  0.00     0.009 A 
ATOM     70  C   UNL     1      -7.177  -6.218   5.341  1.00  0.00     0.009 A 
ATOM     71  C   UNL     1      -9.712  -5.302   6.052  1.00  0.00     0.001 A 
ATOM     72  C   UNL     1      -8.310  -6.784   4.758  1.00  0.00     0.001 A 
ATOM     73  C   UNL     1      -9.576  -6.335   5.124  1.00  0.00     0.000 A 
ENDBRANCH  49  68
BRANCH  61  74
ATOM     74  C   UNL     1      -4.577  -4.798  12.657  1.00  0.00    -0.014 A 
ATOM     75  C   UNL     1      -4.677  -6.170  12.940  1.00  0.00     0.009 A 
ATOM     76  C   UNL     1      -4.965  -3.874  13.641  1.00  0.00     0.009 A 
ATOM     77  C   UNL     1      -5.215  -6.604  14.154  1.00  0.00     0.001 A 
ATOM     78  C   UNL     1      -5.461  -4.311  14.869  1.00  0.00     0.001 A 
ATOM     79  C   UNL     1      -5.603  -5.675  15.118  1.00  0.00     0.000 A 
ENDBRANCH  61  74
ENDBRANCH  35  36
ENDBRANCH  28  30
ENDBRANCH  27  28
ENDBRANCH  26  27
ENDBRANCH  25  26
ENDBRANCH   1  25
TORSDOF 18
