REMARK SMILES COc1cc2c(cc1OC)[C@@H](CC(=O)OCCOC(=O)c1ccc(-c3c4nc(c(-c5ccccc5)c5ccc([nH]5)c(-c5ccccc5)c5nc(c(-c6ccccc6)c6ccc3[nH]6)C=C5)C=C4)cc1)N(C(=O)Nc1ccc(Cl)cc1)CC2
REMARK SMILES IDX 16 1 15 2 13 3 14 4 12 5 11 6 3 7 4 8 8 9 5 10 7 11 6 12
REMARK SMILES IDX 81 13 80 14 69 15 2 16 1 17 9 18 10 19 70 20 71 21 72 22
REMARK SMILES IDX 73 24 74 25 79 26 75 27 78 28 76 29 77 30 17 31 18 32 19 33
REMARK SMILES IDX 20 34 21 35 22 36 68 37 23 38 67 39 24 40 25 41 26 42 61 43
REMARK SMILES IDX 27 44 66 45 60 46 62 47 28 48 65 49 59 50 58 51 29 53 51 54
REMARK SMILES IDX 36 55 50 56 37 57 40 58 49 59 63 60 38 61 39 62 48 64 64 65
REMARK SMILES IDX 41 66 30 67 31 68 35 69 32 70 34 71 33 72 52 73 53 74 57 75
REMARK SMILES IDX 54 76 56 77 55 78 42 79 43 80 47 81 44 82 46 83 45 84
REMARK H PARENT 72 23 62 52 40 63
REMARK Flexibility Score: inf
ROOT
ATOM      1  C   UNL     1       3.251  -2.947 -10.020  1.00  0.00     0.274 C 
ENDROOT
BRANCH   1   2
ATOM      2  O   UNL     1       2.851  -2.858  -8.640  1.00  0.00    -0.462 OA
BRANCH   2   3
ATOM      3  C   UNL     1       3.832  -2.675  -7.727  1.00  0.00     0.308 C 
ATOM      4  O   UNL     1       5.009  -2.463  -8.012  1.00  0.00    -0.252 OA
BRANCH   3   5
ATOM      5  C   UNL     1       3.379  -2.729  -6.282  1.00  0.00     0.152 C 
BRANCH   5   6
ATOM      6  C   UNL     1       1.878  -2.562  -5.952  1.00  0.00     0.128 C 
ATOM      7  C   UNL     1       1.026  -1.213  -1.852  1.00  0.00     0.161 A 
ATOM      8  C   UNL     1       0.008  -1.570  -2.731  1.00  0.00     0.054 A 
ATOM      9  C   UNL     1       2.361  -1.238  -2.280  1.00  0.00     0.161 A 
ATOM     10  C   UNL     1       0.311  -1.972  -4.036  1.00  0.00    -0.037 A 
ATOM     11  C   UNL     1       2.652  -1.656  -3.594  1.00  0.00     0.056 A 
ATOM     12  C   UNL     1       1.641  -2.048  -4.494  1.00  0.00    -0.018 A 
ATOM     13  C   UNL     1      -0.768  -2.459  -4.952  1.00  0.00     0.057 C 
ATOM     14  C   UNL     1      -0.288  -3.798  -5.490  1.00  0.00     0.127 C 
ATOM     15  N   UNL     1       0.952  -3.717  -6.278  1.00  0.00    -0.317 N 
BRANCH   7  16
ATOM     16  O   UNL     1       0.621  -0.984  -0.562  1.00  0.00    -0.493 OA
ATOM     17  C   UNL     1       1.009   0.288  -0.055  1.00  0.00     0.278 C 
ENDBRANCH   7  16
BRANCH   9  18
ATOM     18  O   UNL     1       3.315  -0.911  -1.352  1.00  0.00    -0.493 OA
ATOM     19  C   UNL     1       4.640  -0.689  -1.817  1.00  0.00     0.278 C 
ENDBRANCH   9  18
BRANCH  15  20
ATOM     20  C   UNL     1       1.358  -4.723  -7.119  1.00  0.00     0.322 C 
ATOM     21  O   UNL     1       2.537  -5.086  -7.199  1.00  0.00    -0.248 OA
ATOM     22  N   UNL     1       0.525  -5.370  -7.977  1.00  0.00    -0.308 N 
ATOM     23  H   UNL     1       0.938  -5.631  -8.832  1.00  0.00     0.171 HD
BRANCH  22  24
ATOM     24  C   UNL     1      -0.815  -5.725  -7.846  1.00  0.00     0.042 A 
ATOM     25  C   UNL     1      -1.078  -7.023  -7.403  1.00  0.00     0.028 A 
ATOM     26  C   UNL     1      -1.860  -4.855  -8.162  1.00  0.00     0.028 A 
ATOM     27  C   UNL     1      -2.389  -7.421  -7.159  1.00  0.00     0.022 A 
ATOM     28  C   UNL     1      -3.177  -5.256  -7.916  1.00  0.00     0.022 A 
ATOM     29  C   UNL     1      -3.433  -6.529  -7.397  1.00  0.00     0.041 A 
ATOM     30  Cl  UNL     1      -5.045  -6.998  -7.026  1.00  0.00    -0.084 Cl
ENDBRANCH  22  24
ENDBRANCH  15  20
ENDBRANCH   5   6
ENDBRANCH   3   5
ENDBRANCH   2   3
ENDBRANCH   1   2
BRANCH   1  31
ATOM     31  C   UNL     1       2.711  -1.756 -10.809  1.00  0.00     0.275 C 
BRANCH  31  32
ATOM     32  O   UNL     1       3.314  -0.530 -10.361  1.00  0.00    -0.458 OA
BRANCH  32  33
ATOM     33  C   UNL     1       2.699   0.049  -9.308  1.00  0.00     0.338 C 
ATOM     34  O   UNL     1       1.646  -0.286  -8.777  1.00  0.00    -0.246 OA
BRANCH  33  35
ATOM     35  C   UNL     1       3.553   1.106  -8.757  1.00  0.00     0.060 A 
ATOM     36  C   UNL     1       3.862   1.054  -7.394  1.00  0.00     0.016 A 
ATOM     37  C   UNL     1       3.969   2.180  -9.546  1.00  0.00     0.016 A 
ATOM     38  C   UNL     1       4.568   2.094  -6.802  1.00  0.00     0.010 A 
ATOM     39  C   UNL     1       4.671   3.228  -8.949  1.00  0.00     0.010 A 
ATOM     40  C   UNL     1       4.948   3.201  -7.570  1.00  0.00    -0.014 A 
BRANCH  40  41
ATOM     41  C   UNL     1       5.526   4.387  -6.904  1.00  0.00     0.031 A 
ATOM     42  C   UNL     1       4.649   5.578  -6.646  1.00  0.00     0.074 A 
ATOM     43  C   UNL     1       6.811   4.385  -6.510  1.00  0.00     0.049 A 
ATOM     44  N   UNL     1       4.962   6.740  -6.133  1.00  0.00    -0.248 NA
ATOM     45  C   UNL     1       3.231   5.442  -7.016  1.00  0.00     0.031 C 
ATOM     46  C   UNL     1       7.741   3.267  -6.660  1.00  0.00     0.029 A 
ATOM     47  N   UNL     1       7.553   5.364  -5.903  1.00  0.00    -0.354 N 
ATOM     48  C   UNL     1       3.787   7.481  -6.139  1.00  0.00     0.074 A 
ATOM     49  C   UNL     1       2.759   6.644  -6.720  1.00  0.00     0.031 C 
ATOM     50  C   UNL     1       8.935   3.625  -6.157  1.00  0.00     0.029 A 
ATOM     51  C   UNL     1       8.860   5.005  -5.688  1.00  0.00     0.049 A 
ATOM     52  H   UNL     1       7.184   6.240  -5.646  1.00  0.00     0.167 HD
ATOM     53  C   UNL     1       3.584   8.745  -5.701  1.00  0.00     0.031 A 
ATOM     54  C   UNL     1       9.883   5.721  -5.187  1.00  0.00     0.031 A 
ATOM     55  C   UNL     1       4.609   9.576  -5.129  1.00  0.00     0.049 A 
ATOM     56  C   UNL     1       9.644   7.141  -4.754  1.00  0.00     0.074 A 
ATOM     57  C   UNL     1       4.508  10.874  -4.662  1.00  0.00     0.029 A 
ATOM     58  N   UNL     1       5.926   9.184  -4.946  1.00  0.00    -0.354 N 
ATOM     59  N   UNL     1       8.531   7.835  -4.773  1.00  0.00    -0.248 NA
ATOM     60  C   UNL     1      10.802   7.873  -4.223  1.00  0.00     0.031 C 
ATOM     61  C   UNL     1       5.776  11.281  -4.228  1.00  0.00     0.029 A 
ATOM     62  C   UNL     1       6.652  10.218  -4.381  1.00  0.00     0.049 A 
ATOM     63  H   UNL     1       6.290   8.300  -5.183  1.00  0.00     0.167 HD
ATOM     64  C   UNL     1       8.848   9.074  -4.231  1.00  0.00     0.074 A 
ATOM     65  C   UNL     1      10.254   9.031  -3.883  1.00  0.00     0.031 C 
ATOM     66  C   UNL     1       8.048  10.151  -4.037  1.00  0.00     0.031 A 
BRANCH  53  67
ATOM     67  C   UNL     1       2.204   9.315  -5.865  1.00  0.00    -0.014 A 
ATOM     68  C   UNL     1       1.138   8.891  -5.056  1.00  0.00     0.009 A 
ATOM     69  C   UNL     1       1.970  10.299  -6.838  1.00  0.00     0.009 A 
ATOM     70  C   UNL     1      -0.142   9.418  -5.241  1.00  0.00     0.001 A 
ATOM     71  C   UNL     1       0.695  10.842  -7.004  1.00  0.00     0.001 A 
ATOM     72  C   UNL     1      -0.362  10.395  -6.212  1.00  0.00     0.000 A 
ENDBRANCH  53  67
BRANCH  54  73
ATOM     73  C   UNL     1      11.234   5.113  -5.082  1.00  0.00    -0.014 A 
ATOM     74  C   UNL     1      11.778   4.794  -3.829  1.00  0.00     0.009 A 
ATOM     75  C   UNL     1      11.990   4.857  -6.237  1.00  0.00     0.009 A 
ATOM     76  C   UNL     1      13.063   4.253  -3.734  1.00  0.00     0.001 A 
ATOM     77  C   UNL     1      13.262   4.291  -6.140  1.00  0.00     0.001 A 
ATOM     78  C   UNL     1      13.801   3.998  -4.888  1.00  0.00     0.000 A 
ENDBRANCH  54  73
BRANCH  66  79
ATOM     79  C   UNL     1       8.665  11.349  -3.374  1.00  0.00    -0.014 A 
ATOM     80  C   UNL     1       9.557  12.186  -4.062  1.00  0.00     0.009 A 
ATOM     81  C   UNL     1       8.323  11.657  -2.048  1.00  0.00     0.009 A 
ATOM     82  C   UNL     1      10.123  13.290  -3.420  1.00  0.00     0.001 A 
ATOM     83  C   UNL     1       8.870  12.775  -1.418  1.00  0.00     0.001 A 
ATOM     84  C   UNL     1       9.777  13.584  -2.101  1.00  0.00     0.000 A 
ENDBRANCH  66  79
ENDBRANCH  40  41
ENDBRANCH  33  35
ENDBRANCH  32  33
ENDBRANCH  31  32
ENDBRANCH   1  31
TORSDOF 16
