REMARK SMILES NC(=O)c1c(NC(=O)[C@H]2[C@@H](C(=O)OCCOC(=O)c3ccc(-c4c5nc(c(-c6ccccc6)c6ccc([nH]6)c(-c6ccccc6)c6nc(c(-c7ccccc7)c7ccc4[nH]7)C=C6)C=C5)cc3)[C@@H]3C=C[C@H]2C3)sc2c1CCCCCC2
REMARK SMILES IDX 13 1 11 2 12 3 10 4 9 5 70 6 67 7 69 8 71 9 68 10 7 11 6 12
REMARK SMILES IDX 8 14 5 15 4 16 74 17 72 18 73 19 2 20 1 21 3 24 75 25 76 26
REMARK SMILES IDX 77 27 80 29 79 30 78 31 14 33 15 34 16 35 17 36 18 37 19 38
REMARK SMILES IDX 20 39 66 40 21 41 65 42 22 43 23 44 24 45 59 46 25 47 64 48
REMARK SMILES IDX 58 49 60 50 26 51 63 52 57 53 56 54 27 56 49 57 34 58 48 59
REMARK SMILES IDX 35 60 38 61 47 62 61 63 36 64 37 65 46 67 62 68 39 69 28 70
REMARK SMILES IDX 29 71 33 72 30 73 32 74 31 75 50 76 51 77 55 78 52 79 54 80
REMARK SMILES IDX 53 81 40 82 41 83 45 84 42 85 44 86 43 87
REMARK H PARENT 6 13 1 22 1 23 60 55 38 66
REMARK Flexibility Score: 90.00
ROOT
ATOM      1  O   UNL     1       0.329  -2.909  -2.233  1.00  0.00    -0.462 OA
ENDROOT
BRANCH   1   2
ATOM      2  C   UNL     1       1.110  -1.927  -2.738  1.00  0.00     0.310 C 
ATOM      3  O   UNL     1       1.030  -1.638  -3.932  1.00  0.00    -0.252 OA
BRANCH   2   4
ATOM      4  C   UNL     1       2.063  -1.155  -1.762  1.00  0.00     0.119 C 
ATOM      5  C   UNL     1       2.782  -1.962  -0.705  1.00  0.00     0.100 C 
ATOM      6  C   UNL     1       3.477  -0.861   0.186  1.00  0.00     0.025 C 
ATOM      7  C   UNL     1       1.921   0.206  -0.938  1.00  0.00     0.027 C 
ATOM      8  C   UNL     1       4.154   0.263  -0.616  1.00  0.00    -0.027 C 
ATOM      9  C   UNL     1       2.251  -0.056   0.548  1.00  0.00     0.017 C 
ATOM     10  C   UNL     1       3.186   0.957  -1.238  1.00  0.00    -0.027 C 
BRANCH   5  11
ATOM     11  C   UNL     1       1.832  -2.819   0.122  1.00  0.00     0.229 C 
ATOM     12  N   UNL     1       0.487  -2.656   0.257  1.00  0.00    -0.317 N 
ATOM     13  H   UNL     1       0.136  -3.329   0.884  1.00  0.00     0.170 HD
ATOM     14  O   UNL     1       2.339  -3.733   0.792  1.00  0.00    -0.274 OA
BRANCH  12  15
ATOM     15  C   UNL     1      -0.571  -1.840  -0.205  1.00  0.00     0.108 A 
ATOM     16  C   UNL     1      -1.159  -0.402  -1.161  1.00  0.00     0.077 A 
ATOM     17  C   UNL     1      -3.040  -0.058  -0.889  1.00  0.00    -0.019 A 
ATOM     18  S   UNL     1      -2.376  -2.768   1.016  1.00  0.00    -0.122 S 
ATOM     19  C   UNL     1      -3.837  -1.204   0.156  1.00  0.00     0.011 A 
BRANCH  16  20
ATOM     20  C   UNL     1      -0.650   0.665  -2.053  1.00  0.00     0.251 C 
ATOM     21  N   UNL     1      -0.321   0.411  -3.344  1.00  0.00    -0.365 N 
ATOM     22  H   UNL     1       0.016   1.136  -3.918  1.00  0.00     0.159 HD
ATOM     23  H   UNL     1      -0.418  -0.499  -3.707  1.00  0.00     0.159 HD
ATOM     24  O   UNL     1      -0.665   1.845  -1.703  1.00  0.00    -0.269 OA
ENDBRANCH  16  20
BRANCH  17  25
ATOM     25  C   UNL     1      -3.699   1.187  -1.441  1.00  0.00     0.037 C 
BRANCH  25  26
ATOM     26  C   UNL     1      -4.662   0.909  -2.574  1.00  0.00     0.005 C 
BRANCH  26  27
ATOM     27  C   UNL     1      -5.746  -0.119  -2.260  1.00  0.00     0.000 CG0
ATOM     28  G   UNL     1      -6.644   0.203  -1.063  1.00  0.00     0.000 G0
ENDBRANCH  26  27
ENDBRANCH  25  26
ENDBRANCH  17  25
BRANCH  19  29
ATOM     29  C   UNL     1      -5.288  -1.305   0.595  1.00  0.00     0.047 C 
BRANCH  29  30
ATOM     30  C   UNL     1      -6.088  -0.007   0.354  1.00  0.00     0.006 C 
BRANCH  30  31
ATOM     31  C   UNL     1      -6.644   0.203  -1.063  1.00  0.00     0.000 CG0
ATOM     32  G   UNL     1      -5.746  -0.119  -2.260  1.00  0.00     0.000 G0
ENDBRANCH  30  31
ENDBRANCH  29  30
ENDBRANCH  19  29
ENDBRANCH  12  15
ENDBRANCH   5  11
ENDBRANCH   2   4
ENDBRANCH   1   2
BRANCH   1  33
ATOM     33  C   UNL     1      -1.020  -3.059  -2.767  1.00  0.00     0.274 C 
BRANCH  33  34
ATOM     34  C   UNL     1      -2.089  -3.137  -1.653  1.00  0.00     0.275 C 
BRANCH  34  35
ATOM     35  O   UNL     1      -2.301  -1.742  -0.688  1.00  0.00    -0.458 OA
BRANCH  35  36
ATOM     36  C   UNL     1      -1.806  -0.642   0.812  1.00  0.00     0.338 C 
ATOM     37  O   UNL     1      -0.860  -0.869   1.655  1.00  0.00    -0.246 OA
BRANCH  36  38
ATOM     38  C   UNL     1      -2.352   0.614   1.427  1.00  0.00     0.060 A 
ATOM     39  C   UNL     1      -1.460   1.660   1.686  1.00  0.00     0.016 A 
ATOM     40  C   UNL     1      -3.434   0.415   2.272  1.00  0.00     0.016 A 
ATOM     41  C   UNL     1      -1.605   2.273   2.910  1.00  0.00     0.010 A 
ATOM     42  C   UNL     1      -3.858   1.409   3.055  1.00  0.00     0.010 A 
ATOM     43  C   UNL     1      -2.793   2.045   3.620  1.00  0.00    -0.014 A 
BRANCH  43  44
ATOM     44  C   UNL     1      -3.046   2.630   4.907  1.00  0.00     0.031 A 
ATOM     45  C   UNL     1      -2.913   4.083   4.775  1.00  0.00     0.074 A 
ATOM     46  C   UNL     1      -3.567   1.946   5.946  1.00  0.00     0.049 A 
ATOM     47  N   UNL     1      -1.965   4.811   5.249  1.00  0.00    -0.248 NA
ATOM     48  C   UNL     1      -3.723   4.732   3.719  1.00  0.00     0.031 C 
ATOM     49  C   UNL     1      -4.027   0.550   6.020  1.00  0.00     0.029 A 
ATOM     50  N   UNL     1      -3.942   2.433   7.149  1.00  0.00    -0.354 N 
ATOM     51  C   UNL     1      -2.217   6.071   4.741  1.00  0.00     0.074 A 
ATOM     52  C   UNL     1      -3.089   5.897   3.610  1.00  0.00     0.031 C 
ATOM     53  C   UNL     1      -4.848   0.405   7.088  1.00  0.00     0.029 A 
ATOM     54  C   UNL     1      -4.849   1.646   7.843  1.00  0.00     0.049 A 
ATOM     55  H   UNL     1      -3.598   3.284   7.506  1.00  0.00     0.167 HD
ATOM     56  C   UNL     1      -2.013   7.163   5.519  1.00  0.00     0.031 A 
ATOM     57  C   UNL     1      -5.591   2.049   8.906  1.00  0.00     0.031 A 
ATOM     58  C   UNL     1      -1.131   6.860   6.622  1.00  0.00     0.049 A 
ATOM     59  C   UNL     1      -4.967   3.300   9.421  1.00  0.00     0.074 A 
ATOM     60  C   UNL     1       0.151   6.346   6.693  1.00  0.00     0.029 A 
ATOM     61  N   UNL     1      -1.714   6.599   7.843  1.00  0.00    -0.354 N 
ATOM     62  N   UNL     1      -3.782   3.335   9.965  1.00  0.00    -0.248 NA
ATOM     63  C   UNL     1      -5.429   4.567   8.869  1.00  0.00     0.031 C 
ATOM     64  C   UNL     1       0.116   5.405   7.764  1.00  0.00     0.029 A 
ATOM     65  C   UNL     1      -1.146   5.458   8.360  1.00  0.00     0.049 A 
ATOM     66  H   UNL     1      -2.418   7.138   8.272  1.00  0.00     0.167 HD
ATOM     67  C   UNL     1      -3.178   4.471   9.438  1.00  0.00     0.074 A 
ATOM     68  C   UNL     1      -4.274   5.243   8.852  1.00  0.00     0.031 C 
ATOM     69  C   UNL     1      -1.825   4.528   9.244  1.00  0.00     0.031 A 
BRANCH  56  70
ATOM     70  C   UNL     1      -2.986   8.307   5.511  1.00  0.00    -0.014 A 
ATOM     71  C   UNL     1      -2.671   9.461   6.233  1.00  0.00     0.009 A 
ATOM     72  C   UNL     1      -4.308   8.201   5.022  1.00  0.00     0.009 A 
ATOM     73  C   UNL     1      -3.643  10.436   6.487  1.00  0.00     0.001 A 
ATOM     74  C   UNL     1      -5.267   9.188   5.235  1.00  0.00     0.001 A 
ATOM     75  C   UNL     1      -4.938  10.298   5.991  1.00  0.00     0.000 A 
ENDBRANCH  56  70
BRANCH  57  76
ATOM     76  C   UNL     1      -6.957   1.625   9.291  1.00  0.00    -0.014 A 
ATOM     77  C   UNL     1      -7.467   1.918  10.566  1.00  0.00     0.009 A 
ATOM     78  C   UNL     1      -7.864   1.159   8.320  1.00  0.00     0.009 A 
ATOM     79  C   UNL     1      -8.837   1.790  10.844  1.00  0.00     0.001 A 
ATOM     80  C   UNL     1      -9.230   1.027   8.598  1.00  0.00     0.001 A 
ATOM     81  C   UNL     1      -9.719   1.359   9.856  1.00  0.00     0.000 A 
ENDBRANCH  57  76
BRANCH  69  82
ATOM     82  C   UNL     1      -0.988   3.394   9.804  1.00  0.00    -0.014 A 
ATOM     83  C   UNL     1      -1.132   2.050   9.409  1.00  0.00     0.009 A 
ATOM     84  C   UNL     1       0.082   3.715  10.652  1.00  0.00     0.009 A 
ATOM     85  C   UNL     1      -0.257   1.060   9.875  1.00  0.00     0.001 A 
ATOM     86  C   UNL     1       0.968   2.732  11.100  1.00  0.00     0.001 A 
ATOM     87  C   UNL     1       0.795   1.403  10.719  1.00  0.00     0.000 A 
ENDBRANCH  69  82
ENDBRANCH  43  44
ENDBRANCH  36  38
ENDBRANCH  35  36
ENDBRANCH  34  35
ENDBRANCH  33  34
ENDBRANCH   1  33
TORSDOF 14
