REMARK SMILES CC(C)[NH2+][C@]1(C(=O)OCCOC(=O)c2ccc(-c3c4nc(c(-c5ccccc5)c5ccc([nH]5)c(-c5ccccc5)c5nc(c(-c6ccccc6)c6ccc3[nH]6)C=C5)C=C4)cc2)CC[C@H]([NH+]2CCC(C)(C)CC2)C1
REMARK SMILES IDX 9 1 8 2 6 3 7 4 5 5 62 6 73 7 63 8 64 9 4 10 2 13 1 14 3 15
REMARK SMILES IDX 65 16 66 17 72 18 67 20 71 21 68 22 69 23 70 24 10 25 11 26
REMARK SMILES IDX 12 27 13 28 14 29 15 30 61 31 16 32 60 33 17 34 18 35 19 36
REMARK SMILES IDX 54 37 20 38 59 39 53 40 55 41 21 42 58 43 52 44 51 45 22 47
REMARK SMILES IDX 44 48 29 49 43 50 30 51 33 52 42 53 56 54 31 55 32 56 41 58
REMARK SMILES IDX 57 59 34 60 23 61 24 62 28 63 25 64 27 65 26 66 45 67 46 68
REMARK SMILES IDX 50 69 47 70 49 71 48 72 35 73 36 74 40 75 37 76 39 77 38 78
REMARK H PARENT 4 11 4 12 65 19 55 46 33 57
REMARK Flexibility Score: inf
ROOT
ATOM      1  C   UNL     1       0.619  -0.249  -0.043  1.00  0.00     0.274 C 
ENDROOT
BRANCH   1   2
ATOM      2  O   UNL     1       0.072  -0.547   1.258  1.00  0.00    -0.457 OA
BRANCH   2   3
ATOM      3  C   UNL     1      -0.820   0.349   1.774  1.00  0.00     0.368 C 
ATOM      4  O   UNL     1      -1.186   1.373   1.206  1.00  0.00    -0.245 OA
BRANCH   3   5
ATOM      5  C   UNL     1      -1.191   0.009   3.249  1.00  0.00     0.200 C 
ATOM      6  C   UNL     1      -2.639   0.448   3.523  1.00  0.00     0.087 C 
ATOM      7  C   UNL     1      -1.333  -1.529   3.432  1.00  0.00     0.146 C 
ATOM      8  C   UNL     1      -3.145  -0.427   4.655  1.00  0.00     0.072 C 
ATOM      9  C   UNL     1      -2.454  -1.796   4.478  1.00  0.00     0.191 C 
BRANCH   5  10
ATOM     10  N   UNL     1      -0.087   0.563   4.072  1.00  0.00    -0.330 N 
ATOM     11  H   UNL     1       0.516  -0.226   4.304  1.00  0.00     0.347 HD
ATOM     12  H   UNL     1       0.267   1.308   3.473  1.00  0.00     0.347 HD
BRANCH  10  13
ATOM     13  C   UNL     1      -0.321   1.274   5.324  1.00  0.00     0.176 C 
ATOM     14  C   UNL     1       0.989   1.167   6.120  1.00  0.00     0.075 C 
ATOM     15  C   UNL     1      -0.673   2.751   5.163  1.00  0.00     0.075 C 
ENDBRANCH  10  13
ENDBRANCH   5  10
BRANCH   9  16
ATOM     16  N   UNL     1      -2.108  -2.526   5.726  1.00  0.00    -0.332 N 
ATOM     17  C   UNL     1      -3.181  -2.486   6.734  1.00  0.00     0.263 C 
ATOM     18  C   UNL     1      -0.757  -2.249   6.210  1.00  0.00     0.263 C 
ATOM     19  H   UNL     1      -2.057  -3.515   5.481  1.00  0.00     0.348 HD
ATOM     20  C   UNL     1      -2.795  -2.936   8.150  1.00  0.00     0.068 C 
ATOM     21  C   UNL     1      -0.416  -2.691   7.629  1.00  0.00     0.068 C 
ATOM     22  C   UNL     1      -1.492  -2.279   8.639  1.00  0.00    -0.025 C 
ATOM     23  C   UNL     1      -1.112  -2.808  10.030  1.00  0.00     0.011 C 
ATOM     24  C   UNL     1      -1.624  -0.745   8.742  1.00  0.00     0.011 C 
ENDBRANCH   9  16
ENDBRANCH   3   5
ENDBRANCH   2   3
ENDBRANCH   1   2
BRANCH   1  25
ATOM     25  C   UNL     1      -0.016  -1.139  -1.108  1.00  0.00     0.275 C 
BRANCH  25  26
ATOM     26  O   UNL     1      -1.425  -0.866  -1.146  1.00  0.00    -0.458 OA
BRANCH  26  27
ATOM     27  C   UNL     1      -2.244  -1.938  -1.178  1.00  0.00     0.338 C 
ATOM     28  O   UNL     1      -1.931  -3.111  -1.323  1.00  0.00    -0.246 OA
BRANCH  27  29
ATOM     29  C   UNL     1      -3.631  -1.485  -0.968  1.00  0.00     0.060 A 
ATOM     30  C   UNL     1      -3.911  -0.561   0.037  1.00  0.00     0.016 A 
ATOM     31  C   UNL     1      -4.674  -2.042  -1.703  1.00  0.00     0.016 A 
ATOM     32  C   UNL     1      -5.225  -0.244   0.369  1.00  0.00     0.010 A 
ATOM     33  C   UNL     1      -5.990  -1.645  -1.439  1.00  0.00     0.010 A 
ATOM     34  C   UNL     1      -6.285  -0.765  -0.380  1.00  0.00    -0.014 A 
BRANCH  34  35
ATOM     35  C   UNL     1      -7.698  -0.442  -0.035  1.00  0.00     0.031 A 
ATOM     36  C   UNL     1      -8.667  -1.559   0.247  1.00  0.00     0.074 A 
ATOM     37  C   UNL     1      -8.131   0.834   0.027  1.00  0.00     0.049 A 
ATOM     38  N   UNL     1      -9.975  -1.530   0.290  1.00  0.00    -0.248 NA
ATOM     39  C   UNL     1      -8.086  -2.888   0.496  1.00  0.00     0.031 C 
ATOM     40  C   UNL     1      -7.304   2.031  -0.138  1.00  0.00     0.029 A 
ATOM     41  N   UNL     1      -9.392   1.334   0.248  1.00  0.00    -0.354 N 
ATOM     42  C   UNL     1     -10.373  -2.847   0.488  1.00  0.00     0.074 A 
ATOM     43  C   UNL     1      -9.170  -3.646   0.573  1.00  0.00     0.031 C 
ATOM     44  C   UNL     1      -8.070   3.121   0.022  1.00  0.00     0.029 A 
ATOM     45  C   UNL     1      -9.456   2.705   0.194  1.00  0.00     0.049 A 
ATOM     46  H   UNL     1     -10.175   0.764   0.428  1.00  0.00     0.167 HD
ATOM     47  C   UNL     1     -11.630  -3.344   0.579  1.00  0.00     0.031 A 
ATOM     48  C   UNL     1     -10.514   3.539   0.216  1.00  0.00     0.031 A 
ATOM     49  C   UNL     1     -12.822  -2.541   0.551  1.00  0.00     0.049 A 
ATOM     50  C   UNL     1     -11.900   2.965   0.273  1.00  0.00     0.074 A 
ATOM     51  C   UNL     1     -14.142  -2.950   0.633  1.00  0.00     0.029 A 
ATOM     52  N   UNL     1     -12.837  -1.158   0.459  1.00  0.00    -0.354 N 
ATOM     53  N   UNL     1     -12.272   1.712   0.358  1.00  0.00    -0.248 NA
ATOM     54  C   UNL     1     -13.014   3.923   0.207  1.00  0.00     0.031 C 
ATOM     55  C   UNL     1     -14.957  -1.815   0.559  1.00  0.00     0.029 A 
ATOM     56  C   UNL     1     -14.142  -0.699   0.475  1.00  0.00     0.049 A 
ATOM     57  H   UNL     1     -12.037  -0.588   0.392  1.00  0.00     0.167 HD
ATOM     58  C   UNL     1     -13.660   1.729   0.362  1.00  0.00     0.074 A 
ATOM     59  C   UNL     1     -14.064   3.119   0.295  1.00  0.00     0.031 C 
ATOM     60  C   UNL     1     -14.524   0.687   0.409  1.00  0.00     0.031 A 
BRANCH  47  61
ATOM     61  C   UNL     1     -11.778  -4.837   0.660  1.00  0.00    -0.014 A 
ATOM     62  C   UNL     1     -11.477  -5.546   1.832  1.00  0.00     0.009 A 
ATOM     63  C   UNL     1     -12.255  -5.540  -0.458  1.00  0.00     0.009 A 
ATOM     64  C   UNL     1     -11.620  -6.935   1.871  1.00  0.00     0.001 A 
ATOM     65  C   UNL     1     -12.421  -6.925  -0.407  1.00  0.00     0.001 A 
ATOM     66  C   UNL     1     -12.095  -7.622   0.754  1.00  0.00     0.000 A 
ENDBRANCH  47  61
BRANCH  48  67
ATOM     67  C   UNL     1     -10.305   5.006   0.105  1.00  0.00    -0.014 A 
ATOM     68  C   UNL     1     -10.557   5.848   1.199  1.00  0.00     0.009 A 
ATOM     69  C   UNL     1      -9.853   5.573  -1.098  1.00  0.00     0.009 A 
ATOM     70  C   UNL     1     -10.371   7.228   1.085  1.00  0.00     0.001 A 
ATOM     71  C   UNL     1      -9.639   6.949  -1.198  1.00  0.00     0.001 A 
ATOM     72  C   UNL     1      -9.906   7.776  -0.109  1.00  0.00     0.000 A 
ENDBRANCH  48  67
BRANCH  60  73
ATOM     73  C   UNL     1     -15.988   1.014   0.425  1.00  0.00    -0.014 A 
ATOM     74  C   UNL     1     -16.653   1.416  -0.743  1.00  0.00     0.009 A 
ATOM     75  C   UNL     1     -16.716   0.886   1.617  1.00  0.00     0.009 A 
ATOM     76  C   UNL     1     -18.017   1.710  -0.710  1.00  0.00     0.001 A 
ATOM     77  C   UNL     1     -18.084   1.159   1.642  1.00  0.00     0.001 A 
ATOM     78  C   UNL     1     -18.732   1.578   0.481  1.00  0.00     0.000 A 
ENDBRANCH  60  73
ENDBRANCH  34  35
ENDBRANCH  27  29
ENDBRANCH  26  27
ENDBRANCH  25  26
ENDBRANCH   1  25
TORSDOF 14
