REMARK SMILES Cc1ccc(-c2ncccc2C(=O)OCCOC(=O)c2ccc(-c3c4nc(c(-c5ccccc5)c5ccc([nH]5)c(-c5ccccc5)c5nc(c(-c6ccccc6)c6ccc3[nH]6)C=C5)C=C4)cc2)c(C)c1
REMARK SMILES IDX 16 1 15 2 14 3 12 4 13 5 11 6 6 7 7 8 8 9 10 10 9 11 5 12
REMARK SMILES IDX 1 13 2 14 3 15 70 16 4 17 68 18 69 19 17 20 18 21 19 22
REMARK SMILES IDX 20 23 21 24 67 25 22 26 66 27 23 28 24 29 25 30 60 31 26 32
REMARK SMILES IDX 65 33 59 34 61 35 27 36 64 37 58 38 57 39 28 41 50 42 35 43
REMARK SMILES IDX 49 44 36 45 39 46 48 47 62 48 37 49 38 50 47 52 63 53 40 54
REMARK SMILES IDX 29 55 30 56 34 57 31 58 33 59 32 60 51 61 52 62 56 63 53 64
REMARK SMILES IDX 55 65 54 66 41 67 42 68 46 69 43 70 45 71 44 72
REMARK H PARENT 61 40 39 51
REMARK Flexibility Score: inf
ROOT
ATOM      1  C   UNL     1      -0.271  -4.302   4.197  1.00  0.00     0.275 C 
ENDROOT
BRANCH   1   2
ATOM      2  C   UNL     1      -1.736  -3.877   4.178  1.00  0.00     0.275 C 
BRANCH   2   3
ATOM      3  O   UNL     1      -2.220  -3.842   2.814  1.00  0.00    -0.458 OA
BRANCH   3   4
ATOM      4  C   UNL     1      -2.607  -2.627   2.347  1.00  0.00     0.340 C 
ATOM      5  O   UNL     1      -2.671  -1.593   2.989  1.00  0.00    -0.246 OA
BRANCH   4   6
ATOM      6  C   UNL     1      -3.095  -2.753   0.959  1.00  0.00     0.086 A 
ATOM      7  C   UNL     1      -2.549  -2.069  -0.149  1.00  0.00     0.085 A 
ATOM      8  N   UNL     1      -3.162  -2.083  -1.361  1.00  0.00    -0.255 NA
ATOM      9  C   UNL     1      -4.335  -2.760  -1.459  1.00  0.00     0.112 A 
ATOM     10  C   UNL     1      -4.290  -3.466   0.809  1.00  0.00     0.019 A 
ATOM     11  C   UNL     1      -4.929  -3.461  -0.420  1.00  0.00     0.021 A 
BRANCH   7  12
ATOM     12  C   UNL     1      -1.379  -1.171  -0.049  1.00  0.00     0.004 A 
ATOM     13  C   UNL     1       2.569   1.534   2.038  1.00  0.00     0.044 C 
ATOM     14  C   UNL     1       1.450   0.693   1.524  1.00  0.00    -0.051 A 
ATOM     15  C   UNL     1       1.833  -0.737   0.515  1.00  0.00     0.004 A 
ATOM     16  C   UNL     1      -0.229   1.168   1.689  1.00  0.00     0.007 A 
ATOM     17  C   UNL     1       0.315  -1.733  -0.381  1.00  0.00     0.011 A 
ATOM     18  C   UNL     1      -1.580   0.290   0.940  1.00  0.00    -0.041 A 
ATOM     19  C   UNL     1      -2.911   0.996   0.872  1.00  0.00     0.045 C 
ENDBRANCH   7  12
ENDBRANCH   4   6
ENDBRANCH   3   4
ENDBRANCH   2   3
ENDBRANCH   1   2
BRANCH   1  20
ATOM     20  O   UNL     1       0.480  -3.329   3.454  1.00  0.00    -0.458 OA
BRANCH  20  21
ATOM     21  C   UNL     1       0.792  -3.723   2.206  1.00  0.00     0.338 C 
ATOM     22  O   UNL     1       0.711  -4.844   1.729  1.00  0.00    -0.246 OA
BRANCH  21  23
ATOM     23  C   UNL     1       1.167  -2.575   1.391  1.00  0.00     0.060 A 
ATOM     24  C   UNL     1       0.193  -1.061   1.385  1.00  0.00     0.016 A 
ATOM     25  C   UNL     1       2.211  -2.898   0.015  1.00  0.00     0.016 A 
ATOM     26  C   UNL     1       0.336   0.143  -0.234  1.00  0.00     0.010 A 
ATOM     27  C   UNL     1       2.376  -1.790  -1.363  1.00  0.00     0.010 A 
ATOM     28  C   UNL     1       1.497  -0.256  -1.542  1.00  0.00    -0.014 A 
BRANCH  28  29
ATOM     29  C   UNL     1       2.076   0.820  -2.468  1.00  0.00     0.031 A 
ATOM     30  C   UNL     1       2.831   0.391  -3.711  1.00  0.00     0.074 A 
ATOM     31  C   UNL     1       2.160   2.138  -2.139  1.00  0.00     0.049 A 
ATOM     32  N   UNL     1       3.777   1.010  -4.378  1.00  0.00    -0.248 NA
ATOM     33  C   UNL     1       2.490  -0.931  -4.256  1.00  0.00     0.031 C 
ATOM     34  C   UNL     1       1.465   2.847  -1.071  1.00  0.00     0.029 A 
ATOM     35  N   UNL     1       2.974   3.139  -2.658  1.00  0.00    -0.354 N 
ATOM     36  C   UNL     1       4.172   0.131  -5.381  1.00  0.00     0.074 A 
ATOM     37  C   UNL     1       3.440  -1.100  -5.165  1.00  0.00     0.031 C 
ATOM     38  C   UNL     1       1.951   4.082  -0.915  1.00  0.00     0.029 A 
ATOM     39  C   UNL     1       2.991   4.292  -1.893  1.00  0.00     0.049 A 
ATOM     40  H   UNL     1       3.490   3.037  -3.490  1.00  0.00     0.167 HD
ATOM     41  C   UNL     1       5.007   0.336  -6.432  1.00  0.00     0.031 A 
ATOM     42  C   UNL     1       3.735   5.414  -1.924  1.00  0.00     0.031 A 
ATOM     43  C   UNL     1       5.659   1.584  -6.730  1.00  0.00     0.049 A 
ATOM     44  C   UNL     1       4.694   5.617  -3.049  1.00  0.00     0.074 A 
ATOM     45  C   UNL     1       6.440   1.909  -7.827  1.00  0.00     0.029 A 
ATOM     46  N   UNL     1       5.575   2.725  -5.950  1.00  0.00    -0.354 N 
ATOM     47  N   UNL     1       5.029   4.780  -3.995  1.00  0.00    -0.248 NA
ATOM     48  C   UNL     1       5.318   6.943  -3.157  1.00  0.00     0.031 C 
ATOM     49  C   UNL     1       6.842   3.243  -7.703  1.00  0.00     0.029 A 
ATOM     50  C   UNL     1       6.281   3.758  -6.547  1.00  0.00     0.049 A 
ATOM     51  H   UNL     1       5.087   2.793  -5.097  1.00  0.00     0.167 HD
ATOM     52  C   UNL     1       5.830   5.504  -4.861  1.00  0.00     0.074 A 
ATOM     53  C   UNL     1       5.956   6.838  -4.314  1.00  0.00     0.031 C 
ATOM     54  C   UNL     1       6.382   5.094  -6.026  1.00  0.00     0.031 A 
BRANCH  41  55
ATOM     55  C   UNL     1       5.203  -0.812  -7.389  1.00  0.00    -0.014 A 
ATOM     56  C   UNL     1       4.144  -1.266  -8.194  1.00  0.00     0.009 A 
ATOM     57  C   UNL     1       6.456  -1.434  -7.509  1.00  0.00     0.009 A 
ATOM     58  C   UNL     1       4.314  -2.358  -9.045  1.00  0.00     0.001 A 
ATOM     59  C   UNL     1       6.634  -2.503  -8.392  1.00  0.00     0.001 A 
ATOM     60  C   UNL     1       5.559  -2.975  -9.144  1.00  0.00     0.000 A 
ENDBRANCH  41  55
BRANCH  42  61
ATOM     61  C   UNL     1       3.553   6.470  -0.887  1.00  0.00    -0.014 A 
ATOM     62  C   UNL     1       2.880   7.664  -1.189  1.00  0.00     0.009 A 
ATOM     63  C   UNL     1       4.061   6.291   0.411  1.00  0.00     0.009 A 
ATOM     64  C   UNL     1       2.764   8.676  -0.233  1.00  0.00     0.001 A 
ATOM     65  C   UNL     1       3.921   7.296   1.373  1.00  0.00     0.001 A 
ATOM     66  C   UNL     1       3.286   8.493   1.046  1.00  0.00     0.000 A 
ENDBRANCH  42  61
BRANCH  54  67
ATOM     67  C   UNL     1       7.097   6.123  -6.846  1.00  0.00    -0.014 A 
ATOM     68  C   UNL     1       8.357   6.614  -6.476  1.00  0.00     0.009 A 
ATOM     69  C   UNL     1       6.509   6.575  -8.038  1.00  0.00     0.009 A 
ATOM     70  C   UNL     1       9.008   7.551  -7.279  1.00  0.00     0.001 A 
ATOM     71  C   UNL     1       7.174   7.491  -8.852  1.00  0.00     0.001 A 
ATOM     72  C   UNL     1       8.421   7.981  -8.469  1.00  0.00     0.000 A 
ENDBRANCH  54  67
ENDBRANCH  28  29
ENDBRANCH  21  23
ENDBRANCH  20  21
ENDBRANCH   1  20
TORSDOF 12
