REMARK SMILES Cc1cc2nc(NC3=[NH+][C@H](CC(=O)OCCOC(=O)c4ccc(-c5c6nc(c(-c7ccccc7)c7ccc([nH]7)c(-c7ccccc7)c7nc(c(-c8ccccc8)c8ccc5[nH]8)C=C7)C=C6)cc4)C(=O)N3)nc(C)c2cc1C
REMARK SMILES IDX 15 1 14 2 12 3 13 4 11 5 10 6 7 7 8 8 9 10 70 11 68 13 69 15
REMARK SMILES IDX 6 16 1 17 2 18 3 19 76 20 4 21 75 22 77 23 5 24 74 25 72 26
REMARK SMILES IDX 71 27 73 28 16 29 17 30 18 31 19 32 20 33 21 34 67 35 22 36
REMARK SMILES IDX 66 37 23 38 24 39 25 40 60 41 26 42 65 43 59 44 61 45 27 46
REMARK SMILES IDX 64 47 58 48 57 49 28 51 50 52 35 53 49 54 36 55 39 56 48 57
REMARK SMILES IDX 62 58 37 59 38 60 47 62 63 63 40 64 29 65 30 66 34 67 31 68
REMARK SMILES IDX 33 69 32 70 51 71 52 72 56 73 53 74 55 75 54 76 41 77 42 78
REMARK SMILES IDX 46 79 43 80 45 81 44 82
REMARK H PARENT 7 9 9 12 70 14 61 50 39 61
REMARK Flexibility Score: inf
ROOT
ATOM      1  C   UNL     1       0.886  -5.089   2.482  1.00  0.00     0.274 C 
ENDROOT
BRANCH   1   2
ATOM      2  O   UNL     1       1.617  -5.557   1.337  1.00  0.00    -0.462 OA
BRANCH   2   3
ATOM      3  C   UNL     1       2.969  -5.533   1.390  1.00  0.00     0.310 C 
ATOM      4  O   UNL     1       3.621  -5.078   2.324  1.00  0.00    -0.252 OA
BRANCH   3   5
ATOM      5  C   UNL     1       3.619  -6.069   0.138  1.00  0.00     0.175 C 
BRANCH   5   6
ATOM      6  C   UNL     1       2.897  -7.264  -0.471  1.00  0.00     0.262 C 
ATOM      7  N   UNL     1       1.147  -6.415  -3.427  1.00  0.00    -0.212 N 
ATOM      8  C   UNL     1       1.919  -6.925  -2.441  1.00  0.00     0.358 C 
ATOM      9  H   UNL     1       0.964  -6.962  -4.224  1.00  0.00     0.270 HD
ATOM     10  N   UNL     1       1.700  -6.768  -1.176  1.00  0.00    -0.263 N 
ATOM     11  N   UNL     1       3.021  -7.643  -2.732  1.00  0.00    -0.211 N 
ATOM     12  H   UNL     1       0.890  -6.390  -0.763  1.00  0.00     0.261 HD
ATOM     13  C   UNL     1       3.712  -7.879  -1.587  1.00  0.00     0.320 C 
ATOM     14  H   UNL     1       3.284  -7.947  -3.631  1.00  0.00     0.270 HD
ATOM     15  O   UNL     1       4.803  -8.416  -1.502  1.00  0.00    -0.252 OA
BRANCH   7  16
ATOM     16  C   UNL     1       0.606  -5.136  -3.341  1.00  0.00     0.291 A 
ATOM     17  C   UNL     1       1.075  -0.115   0.004  1.00  0.00     0.044 C 
ATOM     18  C   UNL     1       0.535  -0.913  -1.151  1.00  0.00    -0.046 A 
ATOM     19  C   UNL     1       0.994  -2.233  -1.305  1.00  0.00     0.033 A 
ATOM     20  C   UNL     1      -0.424  -0.425  -2.050  1.00  0.00    -0.047 A 
ATOM     21  C   UNL     1       0.547  -3.068  -2.320  1.00  0.00     0.078 A 
ATOM     22  C   UNL     1      -0.875  -1.266  -3.083  1.00  0.00     0.016 A 
ATOM     23  C   UNL     1      -0.988   0.964  -1.934  1.00  0.00     0.044 C 
ATOM     24  N   UNL     1       1.040  -4.301  -2.386  1.00  0.00    -0.198 NA
ATOM     25  C   UNL     1      -0.392  -2.591  -3.227  1.00  0.00     0.022 A 
ATOM     26  C   UNL     1      -0.767  -3.516  -4.216  1.00  0.00     0.052 A 
ATOM     27  N   UNL     1      -0.260  -4.771  -4.291  1.00  0.00    -0.203 NA
ATOM     28  C   UNL     1      -1.770  -3.165  -5.276  1.00  0.00     0.067 C 
ENDBRANCH   7  16
ENDBRANCH   5   6
ENDBRANCH   3   5
ENDBRANCH   2   3
ENDBRANCH   1   2
BRANCH   1  29
ATOM     29  C   UNL     1       0.435  -6.263   3.352  1.00  0.00     0.275 C 
BRANCH  29  30
ATOM     30  O   UNL     1       1.557  -6.849   4.037  1.00  0.00    -0.458 OA
BRANCH  30  31
ATOM     31  C   UNL     1       2.106  -7.932   3.441  1.00  0.00     0.338 C 
ATOM     32  O   UNL     1       1.711  -8.525   2.454  1.00  0.00    -0.246 OA
BRANCH  31  33
ATOM     33  C   UNL     1       3.378  -8.240   4.108  1.00  0.00     0.060 A 
ATOM     34  C   UNL     1       3.394  -8.642   5.443  1.00  0.00     0.016 A 
ATOM     35  C   UNL     1       4.562  -8.160   3.368  1.00  0.00     0.016 A 
ATOM     36  C   UNL     1       4.615  -8.945   6.045  1.00  0.00     0.010 A 
ATOM     37  C   UNL     1       5.780  -8.465   3.971  1.00  0.00     0.010 A 
ATOM     38  C   UNL     1       5.814  -8.856   5.315  1.00  0.00    -0.014 A 
BRANCH  38  39
ATOM     39  C   UNL     1       7.098  -9.230   5.951  1.00  0.00     0.031 A 
ATOM     40  C   UNL     1       8.089  -8.182   6.360  1.00  0.00     0.074 A 
ATOM     41  C   UNL     1       7.358 -10.533   6.164  1.00  0.00     0.049 A 
ATOM     42  N   UNL     1       9.200  -8.328   7.037  1.00  0.00    -0.248 NA
ATOM     43  C   UNL     1       7.804  -6.796   5.957  1.00  0.00     0.031 C 
ATOM     44  C   UNL     1       6.481 -11.637   5.770  1.00  0.00     0.029 A 
ATOM     45  N   UNL     1       8.419 -11.148   6.777  1.00  0.00    -0.354 N 
ATOM     46  C   UNL     1       9.736  -7.053   7.159  1.00  0.00     0.074 A 
ATOM     47  C   UNL     1       8.859  -6.154   6.441  1.00  0.00     0.031 C 
ATOM     48  C   UNL     1       7.019 -12.792   6.191  1.00  0.00     0.029 A 
ATOM     49  C   UNL     1       8.287 -12.512   6.860  1.00  0.00     0.049 A 
ATOM     50  H   UNL     1       9.200 -10.659   7.124  1.00  0.00     0.167 HD
ATOM     51  C   UNL     1      10.847  -6.670   7.832  1.00  0.00     0.031 A 
ATOM     52  C   UNL     1       9.088 -13.436   7.426  1.00  0.00     0.031 A 
ATOM     53  C   UNL     1      11.723  -7.578   8.526  1.00  0.00     0.049 A 
ATOM     54  C   UNL     1      10.334 -12.988   8.136  1.00  0.00     0.074 A 
ATOM     55  C   UNL     1      12.851  -7.279   9.271  1.00  0.00     0.029 A 
ATOM     56  N   UNL     1      11.579  -8.957   8.551  1.00  0.00    -0.354 N 
ATOM     57  N   UNL     1      10.783 -11.770   8.322  1.00  0.00    -0.248 NA
ATOM     58  C   UNL     1      11.175 -14.037   8.730  1.00  0.00     0.031 C 
ATOM     59  C   UNL     1      13.426  -8.481   9.690  1.00  0.00     0.029 A 
ATOM     60  C   UNL     1      12.617  -9.524   9.272  1.00  0.00     0.049 A 
ATOM     61  H   UNL     1      10.848  -9.457   8.121  1.00  0.00     0.167 HD
ATOM     62  C   UNL     1      11.945 -11.903   9.071  1.00  0.00     0.074 A 
ATOM     63  C   UNL     1      12.122 -13.319   9.321  1.00  0.00     0.031 C 
ATOM     64  C   UNL     1      12.787 -10.936   9.510  1.00  0.00     0.031 A 
BRANCH  51  65
ATOM     65  C   UNL     1      11.182  -5.204   7.870  1.00  0.00    -0.014 A 
ATOM     66  C   UNL     1      12.347  -4.732   7.245  1.00  0.00     0.009 A 
ATOM     67  C   UNL     1      10.402  -4.307   8.617  1.00  0.00     0.009 A 
ATOM     68  C   UNL     1      12.733  -3.397   7.379  1.00  0.00     0.001 A 
ATOM     69  C   UNL     1      10.775  -2.965   8.726  1.00  0.00     0.001 A 
ATOM     70  C   UNL     1      11.945  -2.514   8.116  1.00  0.00     0.000 A 
ENDBRANCH  51  65
BRANCH  52  71
ATOM     71  C   UNL     1       8.690 -14.867   7.384  1.00  0.00    -0.014 A 
ATOM     72  C   UNL     1       8.675 -15.571   6.169  1.00  0.00     0.009 A 
ATOM     73  C   UNL     1       8.264 -15.521   8.550  1.00  0.00     0.009 A 
ATOM     74  C   UNL     1       8.218 -16.890   6.117  1.00  0.00     0.001 A 
ATOM     75  C   UNL     1       7.836 -16.850   8.501  1.00  0.00     0.001 A 
ATOM     76  C   UNL     1       7.803 -17.529   7.284  1.00  0.00     0.000 A 
ENDBRANCH  52  71
BRANCH  64  77
ATOM     77  C   UNL     1      13.985 -11.357  10.317  1.00  0.00    -0.014 A 
ATOM     78  C   UNL     1      14.072 -11.002  11.673  1.00  0.00     0.009 A 
ATOM     79  C   UNL     1      15.073 -12.005   9.714  1.00  0.00     0.009 A 
ATOM     80  C   UNL     1      15.231 -11.266  12.403  1.00  0.00     0.001 A 
ATOM     81  C   UNL     1      16.220 -12.297  10.455  1.00  0.00     0.001 A 
ATOM     82  C   UNL     1      16.302 -11.918  11.795  1.00  0.00     0.000 A 
ENDBRANCH  64  77
ENDBRANCH  38  39
ENDBRANCH  31  33
ENDBRANCH  30  31
ENDBRANCH  29  30
ENDBRANCH   1  29
TORSDOF 13
