REMARK SMILES C[NH2+][C@@]1(C(=O)OCCOC(=O)c2ccc(-c3c4nc(c(-c5ccccc5)c5ccc([nH]5)c(-c5ccccc5)c5nc(c(-c6ccccc6)c6ccc3[nH]6)C=C5)C=C4)cc2)CC[C@H]([NH+]2CC[NH+](C)CC2)C1
REMARK SMILES IDX 8 1 7 2 6 3 4 4 5 5 3 6 60 7 70 8 61 9 62 10 2 11 1 12 63 15
REMARK SMILES IDX 64 16 69 17 65 19 68 20 66 21 67 22 9 24 10 25 11 26 12 27
REMARK SMILES IDX 13 28 59 29 14 30 58 31 15 32 16 33 17 34 52 35 18 36 57 37
REMARK SMILES IDX 51 38 53 39 19 40 56 41 50 42 49 43 20 45 42 46 27 47 41 48
REMARK SMILES IDX 28 49 31 50 40 51 54 52 29 53 30 54 39 56 55 57 32 58 21 59
REMARK SMILES IDX 22 60 26 61 23 62 25 63 24 64 43 65 44 66 48 67 45 68 47 69
REMARK SMILES IDX 46 70 33 71 34 72 38 73 35 74 37 75 36 76
REMARK H PARENT 2 13 2 14 63 18 66 23 53 44 31 55
REMARK Flexibility Score: inf
ROOT
ATOM      1  C   UNL     1      -1.922  -1.407   2.933  1.00  0.00     0.275 C 
ENDROOT
BRANCH   1   2
ATOM      2  C   UNL     1      -2.044  -0.053   2.230  1.00  0.00     0.274 C 
BRANCH   2   3
ATOM      3  O   UNL     1      -1.667  -0.237   0.856  1.00  0.00    -0.457 OA
BRANCH   3   4
ATOM      4  C   UNL     1      -1.657   0.854   0.050  1.00  0.00     0.368 C 
ATOM      5  O   UNL     1      -1.953   1.983   0.425  1.00  0.00    -0.245 OA
BRANCH   4   6
ATOM      6  C   UNL     1      -1.117   0.495  -1.366  1.00  0.00     0.200 C 
ATOM      7  C   UNL     1      -1.635   1.460  -2.442  1.00  0.00     0.087 C 
ATOM      8  C   UNL     1      -1.687  -0.853  -1.871  1.00  0.00     0.146 C 
ATOM      9  C   UNL     1      -3.058   0.990  -2.726  1.00  0.00     0.072 C 
ATOM     10  C   UNL     1      -3.054  -0.537  -2.531  1.00  0.00     0.191 C 
BRANCH   6  11
ATOM     11  N   UNL     1       0.371   0.451  -1.365  1.00  0.00    -0.334 N 
ATOM     12  C   UNL     1       1.013   1.446  -0.513  1.00  0.00     0.331 C 
ATOM     13  H   UNL     1       0.660  -0.474  -1.046  1.00  0.00     0.347 HD
ATOM     14  H   UNL     1       0.664   0.658  -2.319  1.00  0.00     0.347 HD
ENDBRANCH   6  11
BRANCH  10  15
ATOM     15  N   UNL     1      -4.245  -1.198  -1.975  1.00  0.00    -0.323 N 
ATOM     16  C   UNL     1      -5.519  -0.855  -2.633  1.00  0.00     0.324 C 
ATOM     17  C   UNL     1      -4.467  -1.153  -0.526  1.00  0.00     0.324 C 
ATOM     18  H   UNL     1      -3.969  -2.155  -2.195  1.00  0.00     0.348 HD
ATOM     19  C   UNL     1      -6.215   0.440  -2.136  1.00  0.00     0.324 C 
ATOM     20  C   UNL     1      -5.002   0.193  -0.008  1.00  0.00     0.324 C 
ATOM     21  N   UNL     1      -6.228   0.658  -0.675  1.00  0.00    -0.328 N 
ATOM     22  C   UNL     1      -6.443   2.077  -0.372  1.00  0.00     0.333 C 
ATOM     23  H   UNL     1      -6.999   0.099  -0.310  1.00  0.00     0.348 HD
ENDBRANCH  10  15
ENDBRANCH   4   6
ENDBRANCH   3   4
ENDBRANCH   2   3
ENDBRANCH   1   2
BRANCH   1  24
ATOM     24  O   UNL     1      -0.546  -1.823   2.884  1.00  0.00    -0.458 OA
BRANCH  24  25
ATOM     25  C   UNL     1      -0.199  -2.528   1.777  1.00  0.00     0.338 C 
ATOM     26  O   UNL     1      -0.943  -3.120   1.013  1.00  0.00    -0.246 OA
BRANCH  25  27
ATOM     27  C   UNL     1       1.234  -2.284   1.520  1.00  0.00     0.060 A 
ATOM     28  C   UNL     1       1.644  -2.064   0.200  1.00  0.00     0.016 A 
ATOM     29  C   UNL     1       2.155  -2.211   2.567  1.00  0.00     0.016 A 
ATOM     30  C   UNL     1       2.971  -1.736  -0.074  1.00  0.00     0.010 A 
ATOM     31  C   UNL     1       3.488  -1.912   2.292  1.00  0.00     0.010 A 
ATOM     32  C   UNL     1       3.900  -1.677   0.971  1.00  0.00    -0.014 A 
BRANCH  32  33
ATOM     33  C   UNL     1       5.340  -1.536   0.682  1.00  0.00     0.031 A 
ATOM     34  C   UNL     1       6.128  -2.781   0.408  1.00  0.00     0.074 A 
ATOM     35  C   UNL     1       5.936  -0.331   0.711  1.00  0.00     0.049 A 
ATOM     36  N   UNL     1       7.410  -2.921   0.198  1.00  0.00    -0.248 NA
ATOM     37  C   UNL     1       5.364  -4.040   0.369  1.00  0.00     0.031 C 
ATOM     38  C   UNL     1       5.257   0.945   0.931  1.00  0.00     0.029 A 
ATOM     39  N   UNL     1       7.257   0.007   0.571  1.00  0.00    -0.354 N 
ATOM     40  C   UNL     1       7.604  -4.280  -0.009  1.00  0.00     0.074 A 
ATOM     41  C   UNL     1       6.318  -4.925   0.127  1.00  0.00     0.031 C 
ATOM     42  C   UNL     1       6.174   1.930   0.931  1.00  0.00     0.029 A 
ATOM     43  C   UNL     1       7.501   1.348   0.743  1.00  0.00     0.049 A 
ATOM     44  H   UNL     1       7.963  -0.647   0.367  1.00  0.00     0.167 HD
ATOM     45  C   UNL     1       8.757  -4.934  -0.281  1.00  0.00     0.031 A 
ATOM     46  C   UNL     1       8.670   2.017   0.768  1.00  0.00     0.031 A 
ATOM     47  C   UNL     1      10.042  -4.296  -0.344  1.00  0.00     0.049 A 
ATOM     48  C   UNL     1       9.952   1.249   0.571  1.00  0.00     0.074 A 
ATOM     49  C   UNL     1      11.279  -4.865  -0.588  1.00  0.00     0.029 A 
ATOM     50  N   UNL     1      10.255  -2.941  -0.134  1.00  0.00    -0.354 N 
ATOM     51  N   UNL     1      10.124  -0.030   0.337  1.00  0.00    -0.248 NA
ATOM     52  C   UNL     1      11.202   2.021   0.637  1.00  0.00     0.031 C 
ATOM     53  C   UNL     1      12.247  -3.862  -0.467  1.00  0.00     0.029 A 
ATOM     54  C   UNL     1      11.606  -2.659  -0.212  1.00  0.00     0.049 A 
ATOM     55  H   UNL     1       9.548  -2.279   0.045  1.00  0.00     0.167 HD
ATOM     56  C   UNL     1      11.495  -0.211   0.197  1.00  0.00     0.074 A 
ATOM     57  C   UNL     1      12.107   1.092   0.360  1.00  0.00     0.031 C 
ATOM     58  C   UNL     1      12.188  -1.351  -0.048  1.00  0.00     0.031 A 
BRANCH  45  59
ATOM     59  C   UNL     1       8.666  -6.420  -0.474  1.00  0.00    -0.014 A 
ATOM     60  C   UNL     1       8.066  -6.968  -1.620  1.00  0.00     0.009 A 
ATOM     61  C   UNL     1       9.175  -7.284   0.507  1.00  0.00     0.009 A 
ATOM     62  C   UNL     1       7.945  -8.352  -1.760  1.00  0.00     0.001 A 
ATOM     63  C   UNL     1       9.075  -8.667   0.352  1.00  0.00     0.001 A 
ATOM     64  C   UNL     1       8.451  -9.200  -0.776  1.00  0.00     0.000 A 
ENDBRANCH  45  59
BRANCH  46  65
ATOM     65  C   UNL     1       8.695   3.484   1.010  1.00  0.00    -0.014 A 
ATOM     66  C   UNL     1       9.089   4.370  -0.005  1.00  0.00     0.009 A 
ATOM     67  C   UNL     1       8.356   4.007   2.269  1.00  0.00     0.009 A 
ATOM     68  C   UNL     1       9.171   5.743   0.243  1.00  0.00     0.001 A 
ATOM     69  C   UNL     1       8.411   5.383   2.505  1.00  0.00     0.001 A 
ATOM     70  C   UNL     1       8.828   6.248   1.496  1.00  0.00     0.000 A 
ENDBRANCH  46  65
BRANCH  58  71
ATOM     71  C   UNL     1      13.679  -1.233  -0.195  1.00  0.00    -0.014 A 
ATOM     72  C   UNL     1      14.507  -0.995   0.912  1.00  0.00     0.009 A 
ATOM     73  C   UNL     1      14.265  -1.419  -1.458  1.00  0.00     0.009 A 
ATOM     74  C   UNL     1      15.892  -0.917   0.751  1.00  0.00     0.001 A 
ATOM     75  C   UNL     1      15.650  -1.371  -1.610  1.00  0.00     0.001 A 
ATOM     76  C   UNL     1      16.462  -1.111  -0.507  1.00  0.00     0.000 A 
ENDBRANCH  58  71
ENDBRANCH  32  33
ENDBRANCH  25  27
ENDBRANCH  24  25
ENDBRANCH   1  24
TORSDOF 13
