REMARK SMILES CC1(C)CCN(S(=O)(=O)c2ccc(O)c(C(=O)OCCOC(=O)c3ccc(-c4c5nc(c(-c6ccccc6)c6ccc([nH]6)c(-c6ccccc6)c6nc(c(-c7ccccc7)c7ccc4[nH]7)C=C6)C=C5)cc3)c2)C1
REMARK SMILES IDX 19 1 18 2 16 3 17 4 15 5 10 6 11 7 72 8 12 9 13 10 7 11 8 12
REMARK SMILES IDX 9 13 6 14 1 15 2 16 3 17 4 18 73 19 5 20 14 21 20 23 21 24
REMARK SMILES IDX 22 25 23 26 24 27 25 28 71 29 26 30 70 31 27 32 28 33 29 34
REMARK SMILES IDX 64 35 30 36 69 37 63 38 65 39 31 40 68 41 62 42 61 43 32 45
REMARK SMILES IDX 54 46 39 47 53 48 40 49 43 50 52 51 66 52 41 53 42 54 51 56
REMARK SMILES IDX 67 57 44 58 33 59 34 60 38 61 35 62 37 63 36 64 55 65 56 66
REMARK SMILES IDX 60 67 57 68 59 69 58 70 45 71 46 72 50 73 47 74 49 75 48 76
REMARK H PARENT 14 22 65 44 43 55
REMARK Flexibility Score: inf
ROOT
ATOM      1  C   UNL     1       5.718   7.969  -0.318  1.00  0.00     0.275 C 
ENDROOT
BRANCH   1   2
ATOM      2  O   UNL     1       4.607   7.239   0.236  1.00  0.00    -0.458 OA
BRANCH   2   3
ATOM      3  C   UNL     1       4.135   6.191  -0.484  1.00  0.00     0.342 C 
ATOM      4  O   UNL     1       4.602   5.749  -1.522  1.00  0.00    -0.246 OA
BRANCH   3   5
ATOM      5  C   UNL     1       3.040   5.514   0.251  1.00  0.00     0.103 A 
ATOM      6  C   UNL     1       2.139   3.433   1.112  1.00  0.00     0.083 A 
ATOM      7  C   UNL     1       1.135   4.138   1.780  1.00  0.00     0.025 A 
ATOM      8  C   UNL     1       3.073   4.113   0.327  1.00  0.00     0.041 A 
ATOM      9  C   UNL     1       1.048   5.525   1.635  1.00  0.00     0.048 A 
ATOM     10  C   UNL     1       2.004   6.212   0.880  1.00  0.00     0.130 A 
BRANCH   6  11
ATOM     11  S   UNL     1       2.349   1.688   1.403  1.00  0.00     0.243 S 
ATOM     12  O   UNL     1       1.811   1.392   2.718  1.00  0.00    -0.207 OA
ATOM     13  O   UNL     1       3.712   1.350   1.067  1.00  0.00    -0.207 OA
BRANCH  11  14
ATOM     14  N   UNL     1       1.334   0.965   0.248  1.00  0.00    -0.197 NA
ATOM     15  C   UNL     1      -1.049  -0.103  -1.570  1.00  0.00     0.012 C 
ATOM     16  C   UNL     1      -0.840  -0.044  -0.050  1.00  0.00    -0.020 C 
ATOM     17  C   UNL     1      -2.192  -0.180   0.655  1.00  0.00     0.012 C 
ATOM     18  C   UNL     1       0.147  -1.112   0.425  1.00  0.00     0.024 C 
ATOM     19  C   UNL     1      -0.124   1.249   0.367  1.00  0.00     0.109 C 
ATOM     20  C   UNL     1       1.512  -0.512   0.119  1.00  0.00     0.103 C 
ENDBRANCH  11  14
ENDBRANCH   6  11
BRANCH  10  21
ATOM     21  O   UNL     1       1.898   7.566   0.739  1.00  0.00    -0.507 OA
ATOM     22  H   UNL     1       1.202   8.029   1.162  1.00  0.00     0.293 HD
ENDBRANCH  10  21
ENDBRANCH   3   5
ENDBRANCH   2   3
ENDBRANCH   1   2
BRANCH   1  23
ATOM     23  C   UNL     1       6.963   7.787   0.547  1.00  0.00     0.275 C 
BRANCH  23  24
ATOM     24  O   UNL     1       7.415   6.425   0.450  1.00  0.00    -0.458 OA
BRANCH  24  25
ATOM     25  C   UNL     1       7.301   5.688   1.577  1.00  0.00     0.338 C 
ATOM     26  O   UNL     1       6.949   6.056   2.684  1.00  0.00    -0.246 OA
BRANCH  25  27
ATOM     27  C   UNL     1       7.624   4.289   1.268  1.00  0.00     0.060 A 
ATOM     28  C   UNL     1       6.723   3.555   0.505  1.00  0.00     0.016 A 
ATOM     29  C   UNL     1       8.727   3.666   1.846  1.00  0.00     0.016 A 
ATOM     30  C   UNL     1       6.857   2.173   0.407  1.00  0.00     0.010 A 
ATOM     31  C   UNL     1       8.917   2.291   1.654  1.00  0.00     0.010 A 
ATOM     32  C   UNL     1       7.960   1.517   0.971  1.00  0.00    -0.014 A 
BRANCH  32  33
ATOM     33  C   UNL     1       8.082   0.030   0.892  1.00  0.00     0.031 A 
ATOM     34  C   UNL     1       8.214  -0.789   2.152  1.00  0.00     0.074 A 
ATOM     35  C   UNL     1       8.056  -0.605  -0.298  1.00  0.00     0.049 A 
ATOM     36  N   UNL     1       8.529  -2.055   2.290  1.00  0.00    -0.248 NA
ATOM     37  C   UNL     1       7.983  -0.090   3.426  1.00  0.00     0.031 C 
ATOM     38  C   UNL     1       7.870   0.033  -1.602  1.00  0.00     0.029 A 
ATOM     39  N   UNL     1       8.174  -1.941  -0.601  1.00  0.00    -0.354 N 
ATOM     40  C   UNL     1       8.600  -2.281   3.660  1.00  0.00     0.074 A 
ATOM     41  C   UNL     1       8.299  -1.025   4.311  1.00  0.00     0.031 C 
ATOM     42  C   UNL     1       7.833  -0.911  -2.554  1.00  0.00     0.029 A 
ATOM     43  C   UNL     1       8.094  -2.210  -1.946  1.00  0.00     0.049 A 
ATOM     44  H   UNL     1       8.303  -2.639   0.082  1.00  0.00     0.167 HD
ATOM     45  C   UNL     1       8.892  -3.431   4.317  1.00  0.00     0.031 A 
ATOM     46  C   UNL     1       8.256  -3.360  -2.628  1.00  0.00     0.031 A 
ATOM     47  C   UNL     1       9.130  -4.697   3.674  1.00  0.00     0.049 A 
ATOM     48  C   UNL     1       8.611  -4.614  -1.883  1.00  0.00     0.074 A 
ATOM     49  C   UNL     1       9.421  -5.919   4.257  1.00  0.00     0.029 A 
ATOM     50  N   UNL     1       9.077  -4.910   2.306  1.00  0.00    -0.354 N 
ATOM     51  N   UNL     1       8.750  -4.797  -0.594  1.00  0.00    -0.248 NA
ATOM     52  C   UNL     1       8.851  -5.817  -2.693  1.00  0.00     0.031 C 
ATOM     53  C   UNL     1       9.584  -6.864   3.238  1.00  0.00     0.029 A 
ATOM     54  C   UNL     1       9.343  -6.240   2.025  1.00  0.00     0.049 A 
ATOM     55  H   UNL     1       8.881  -4.218   1.633  1.00  0.00     0.167 HD
ATOM     56  C   UNL     1       9.084  -6.135  -0.436  1.00  0.00     0.074 A 
ATOM     57  C   UNL     1       9.102  -6.724  -1.759  1.00  0.00     0.031 C 
ATOM     58  C   UNL     1       9.357  -6.814   0.705  1.00  0.00     0.031 A 
BRANCH  45  59
ATOM     59  C   UNL     1       9.019  -3.365   5.815  1.00  0.00    -0.014 A 
ATOM     60  C   UNL     1       7.899  -3.219   6.647  1.00  0.00     0.009 A 
ATOM     61  C   UNL     1      10.288  -3.495   6.402  1.00  0.00     0.009 A 
ATOM     62  C   UNL     1       8.053  -3.169   8.036  1.00  0.00     0.001 A 
ATOM     63  C   UNL     1      10.436  -3.474   7.790  1.00  0.00     0.001 A 
ATOM     64  C   UNL     1       9.319  -3.302   8.605  1.00  0.00     0.000 A 
ENDBRANCH  45  59
BRANCH  46  65
ATOM     65  C   UNL     1       8.140  -3.364  -4.110  1.00  0.00    -0.014 A 
ATOM     66  C   UNL     1       7.069  -4.014  -4.742  1.00  0.00     0.009 A 
ATOM     67  C   UNL     1       9.097  -2.709  -4.902  1.00  0.00     0.009 A 
ATOM     68  C   UNL     1       6.968  -4.018  -6.136  1.00  0.00     0.001 A 
ATOM     69  C   UNL     1       8.975  -2.686  -6.292  1.00  0.00     0.001 A 
ATOM     70  C   UNL     1       7.915  -3.347  -6.908  1.00  0.00     0.000 A 
ENDBRANCH  46  65
BRANCH  58  71
ATOM     71  C   UNL     1       9.662  -8.278   0.573  1.00  0.00    -0.014 A 
ATOM     72  C   UNL     1      10.893  -8.722   0.065  1.00  0.00     0.009 A 
ATOM     73  C   UNL     1       8.715  -9.225   0.991  1.00  0.00     0.009 A 
ATOM     74  C   UNL     1      11.155 -10.089  -0.051  1.00  0.00     0.001 A 
ATOM     75  C   UNL     1       8.989 -10.589   0.897  1.00  0.00     0.001 A 
ATOM     76  C   UNL     1      10.205 -11.020   0.368  1.00  0.00     0.000 A 
ENDBRANCH  58  71
ENDBRANCH  32  33
ENDBRANCH  25  27
ENDBRANCH  24  25
ENDBRANCH  23  24
ENDBRANCH   1  23
TORSDOF 14
