REMARK SMILES O=C(OCCOC(=O)c1nnn(-c2cccc(C(F)(F)F)c2)c1[C@H]1COc2ccccc2O1)c1ccc(-c2c3nc(c(-c4ccccc4)c4ccc([nH]4)c(-c4ccccc4)c4nc(c(-c5ccccc5)c5ccc2[nH]5)C=C4)C=C3)cc1
REMARK SMILES IDX 4 1 3 2 2 3 1 4 34 5 35 6 81 7 36 8 80 9 37 10 38 11 39 12
REMARK SMILES IDX 74 13 40 14 79 15 73 16 75 17 41 18 78 19 72 20 71 21 42 23
REMARK SMILES IDX 64 24 49 25 63 26 50 27 53 28 62 29 76 30 51 31 52 32 61 34
REMARK SMILES IDX 77 35 54 36 43 37 44 38 48 39 45 40 47 41 46 42 65 43 66 44
REMARK SMILES IDX 70 45 67 46 69 47 68 48 55 49 56 50 60 51 57 52 59 53 58 54
REMARK SMILES IDX 5 55 6 56 7 57 8 58 9 59 10 60 23 61 11 62 12 63 24 64 25 65
REMARK SMILES IDX 33 66 26 67 32 68 27 69 31 70 28 71 30 72 29 73 13 74 14 75
REMARK SMILES IDX 22 76 15 77 17 78 16 79 18 80 19 81 20 82 21 83
REMARK H PARENT 75 22 53 33
REMARK Flexibility Score: inf
ROOT
ATOM      1  C   UNL     1       9.029   3.993  -1.812  1.00  0.00     0.275 C 
ENDROOT
BRANCH   1   2
ATOM      2  O   UNL     1       9.881   2.898  -1.423  1.00  0.00    -0.458 OA
BRANCH   2   3
ATOM      3  C   UNL     1       9.510   1.631  -1.710  1.00  0.00     0.338 C 
ATOM      4  O   UNL     1       9.896   1.015  -2.689  1.00  0.00    -0.246 OA
BRANCH   3   5
ATOM      5  C   UNL     1       8.812   0.982  -0.577  1.00  0.00     0.060 A 
ATOM      6  C   UNL     1       8.132   1.711   0.406  1.00  0.00     0.016 A 
ATOM      7  C   UNL     1       8.902  -0.413  -0.485  1.00  0.00     0.016 A 
ATOM      8  C   UNL     1       7.668   1.069   1.540  1.00  0.00     0.010 A 
ATOM      9  C   UNL     1       8.446  -1.057   0.651  1.00  0.00     0.010 A 
ATOM     10  C   UNL     1       7.884  -0.303   1.680  1.00  0.00    -0.014 A 
BRANCH  10  11
ATOM     11  C   UNL     1       7.391  -0.950   2.884  1.00  0.00     0.031 A 
ATOM     12  C   UNL     1       5.911  -1.042   2.952  1.00  0.00     0.074 A 
ATOM     13  C   UNL     1       8.211  -1.525   3.787  1.00  0.00     0.049 A 
ATOM     14  N   UNL     1       5.122  -0.484   3.809  1.00  0.00    -0.248 NA
ATOM     15  C   UNL     1       5.215  -1.732   1.853  1.00  0.00     0.031 C 
ATOM     16  C   UNL     1       9.657  -1.729   3.676  1.00  0.00     0.029 A 
ATOM     17  N   UNL     1       7.902  -2.163   4.950  1.00  0.00    -0.354 N 
ATOM     18  C   UNL     1       3.843  -0.931   3.489  1.00  0.00     0.074 A 
ATOM     19  C   UNL     1       3.939  -1.538   2.186  1.00  0.00     0.031 C 
ATOM     20  C   UNL     1      10.049  -2.646   4.590  1.00  0.00     0.029 A 
ATOM     21  C   UNL     1       8.914  -2.989   5.431  1.00  0.00     0.049 A 
ATOM     22  H   UNL     1       7.038  -2.051   5.410  1.00  0.00     0.167 HD
ATOM     23  C   UNL     1       2.877  -1.033   4.444  1.00  0.00     0.031 A 
ATOM     24  C   UNL     1       8.806  -3.931   6.402  1.00  0.00     0.031 A 
ATOM     25  C   UNL     1       3.188  -0.233   5.602  1.00  0.00     0.049 A 
ATOM     26  C   UNL     1       7.579  -3.642   7.177  1.00  0.00     0.074 A 
ATOM     27  C   UNL     1       3.455   1.105   5.823  1.00  0.00     0.029 A 
ATOM     28  N   UNL     1       3.645  -0.893   6.717  1.00  0.00    -0.354 N 
ATOM     29  N   UNL     1       7.452  -2.611   7.959  1.00  0.00    -0.248 NA
ATOM     30  C   UNL     1       6.335  -4.253   6.739  1.00  0.00     0.031 C 
ATOM     31  C   UNL     1       4.483   1.116   6.812  1.00  0.00     0.029 A 
ATOM     32  C   UNL     1       4.725  -0.204   7.196  1.00  0.00     0.049 A 
ATOM     33  H   UNL     1       3.263  -1.715   7.102  1.00  0.00     0.167 HD
ATOM     34  C   UNL     1       6.161  -2.161   7.730  1.00  0.00     0.074 A 
ATOM     35  C   UNL     1       5.487  -3.271   7.056  1.00  0.00     0.031 C 
ATOM     36  C   UNL     1       5.851  -0.836   7.843  1.00  0.00     0.031 A 
BRANCH  23  37
ATOM     37  C   UNL     1       1.942  -2.222   4.524  1.00  0.00    -0.014 A 
ATOM     38  C   UNL     1       1.031  -2.285   5.596  1.00  0.00     0.009 A 
ATOM     39  C   UNL     1       2.135  -3.412   3.795  1.00  0.00     0.009 A 
ATOM     40  C   UNL     1       0.445  -3.496   5.985  1.00  0.00     0.001 A 
ATOM     41  C   UNL     1       1.516  -4.612   4.152  1.00  0.00     0.001 A 
ATOM     42  C   UNL     1       0.700  -4.662   5.271  1.00  0.00     0.000 A 
ENDBRANCH  23  37
BRANCH  24  43
ATOM     43  C   UNL     1       9.525  -5.218   6.546  1.00  0.00    -0.014 A 
ATOM     44  C   UNL     1       9.494  -5.927   7.759  1.00  0.00     0.009 A 
ATOM     45  C   UNL     1      10.009  -5.891   5.411  1.00  0.00     0.009 A 
ATOM     46  C   UNL     1       9.890  -7.271   7.821  1.00  0.00     0.001 A 
ATOM     47  C   UNL     1      10.409  -7.231   5.473  1.00  0.00     0.001 A 
ATOM     48  C   UNL     1      10.334  -7.926   6.675  1.00  0.00     0.000 A 
ENDBRANCH  24  43
BRANCH  36  49
ATOM     49  C   UNL     1       6.872   0.081   8.470  1.00  0.00    -0.014 A 
ATOM     50  C   UNL     1       8.169   0.265   7.958  1.00  0.00     0.009 A 
ATOM     51  C   UNL     1       6.458   0.890   9.538  1.00  0.00     0.009 A 
ATOM     52  C   UNL     1       9.036   1.205   8.526  1.00  0.00     0.001 A 
ATOM     53  C   UNL     1       7.315   1.844  10.090  1.00  0.00     0.001 A 
ATOM     54  C   UNL     1       8.606   1.996   9.589  1.00  0.00     0.000 A 
ENDBRANCH  36  49
ENDBRANCH  10  11
ENDBRANCH   3   5
ENDBRANCH   2   3
ENDBRANCH   1   2
BRANCH   1  55
ATOM     55  C   UNL     1       8.098   3.767  -2.998  1.00  0.00     0.275 C 
BRANCH  55  56
ATOM     56  O   UNL     1       7.126   2.755  -2.689  1.00  0.00    -0.457 OA
BRANCH  56  57
ATOM     57  C   UNL     1       7.035   1.717  -3.573  1.00  0.00     0.361 C 
ATOM     58  O   UNL     1       7.727   1.576  -4.581  1.00  0.00    -0.244 OA
BRANCH  57  59
ATOM     59  C   UNL     1       5.901   0.874  -3.278  1.00  0.00     0.198 A 
ATOM     60  N   UNL     1       5.935  -0.315  -2.594  1.00  0.00    -0.122 NA
ATOM     61  C   UNL     1       4.592   1.170  -3.609  1.00  0.00     0.123 A 
ATOM     62  N   UNL     1       4.688  -0.776  -2.511  1.00  0.00    -0.061 NA
ATOM     63  N   UNL     1       3.913   0.026  -3.269  1.00  0.00    -0.213 N 
BRANCH  61  64
ATOM     64  C   UNL     1       3.964   2.413  -4.145  1.00  0.00     0.262 C 
ATOM     65  C   UNL     1       3.347   3.249  -3.016  1.00  0.00     0.281 C 
ATOM     66  O   UNL     1       5.018   3.111  -4.811  1.00  0.00    -0.477 OA
ATOM     67  O   UNL     1       2.821   4.481  -3.523  1.00  0.00    -0.485 OA
ATOM     68  C   UNL     1       4.834   4.459  -4.880  1.00  0.00     0.162 A 
ATOM     69  C   UNL     1       3.766   5.125  -4.279  1.00  0.00     0.161 A 
ATOM     70  C   UNL     1       5.804   5.168  -5.583  1.00  0.00     0.050 A 
ATOM     71  C   UNL     1       3.634   6.501  -4.435  1.00  0.00     0.050 A 
ATOM     72  C   UNL     1       5.694   6.551  -5.707  1.00  0.00     0.004 A 
ATOM     73  C   UNL     1       4.603   7.215  -5.145  1.00  0.00     0.004 A 
ENDBRANCH  61  64
BRANCH  63  74
ATOM     74  C   UNL     1       2.616  -0.314  -3.679  1.00  0.00     0.067 A 
ATOM     75  C   UNL     1       1.632  -0.609  -2.742  1.00  0.00     0.028 A 
ATOM     76  C   UNL     1       2.311  -0.180  -5.041  1.00  0.00     0.041 A 
ATOM     77  C   UNL     1       0.305  -0.667  -3.173  1.00  0.00     0.003 A 
ATOM     78  C   UNL     1       0.988  -0.241  -5.478  1.00  0.00     0.058 A 
ATOM     79  C   UNL     1      -0.016  -0.469  -4.525  1.00  0.00     0.013 A 
BRANCH  78  80
ATOM     80  C   UNL     1       0.659  -0.004  -6.932  1.00  0.00     0.416 C 
ATOM     81  F   UNL     1      -0.041  -1.027  -7.489  1.00  0.00    -0.166 F 
ATOM     82  F   UNL     1      -0.091   1.117  -7.112  1.00  0.00    -0.166 F 
ATOM     83  F   UNL     1       1.765   0.163  -7.710  1.00  0.00    -0.166 F 
ENDBRANCH  78  80
ENDBRANCH  63  74
ENDBRANCH  57  59
ENDBRANCH  56  57
ENDBRANCH  55  56
ENDBRANCH   1  55
TORSDOF 14
