REMARK SMILES CC(C)C[C@H](NC(=O)c1cc(Cl)nnc1Cl)C(=O)OCCOC(=O)c1ccc(-c2c3nc(c(-c4ccccc4)c4ccc([nH]4)c(-c4ccccc4)c4nc(c(-c5ccccc5)c5ccc2[nH]5)C=C4)C=C3)cc1
REMARK SMILES IDX 20 1 19 2 17 3 18 4 5 5 4 6 2 7 1 8 3 9 6 10 7 11 8 13 9 14
REMARK SMILES IDX 10 15 15 16 11 17 14 18 16 19 12 20 13 21 21 22 22 23 23 24
REMARK SMILES IDX 24 25 25 26 26 27 72 28 27 29 71 30 28 31 29 32 30 33 65 34
REMARK SMILES IDX 31 35 70 36 64 37 66 38 32 39 69 40 63 41 62 42 33 44 55 45
REMARK SMILES IDX 40 46 54 47 41 48 44 49 53 50 67 51 42 52 43 53 52 55 68 56
REMARK SMILES IDX 45 57 34 58 35 59 39 60 36 61 38 62 37 63 56 64 57 65 61 66
REMARK SMILES IDX 58 67 60 68 59 69 46 70 47 71 51 72 48 73 50 74 49 75
REMARK H PARENT 6 12 66 43 44 54
REMARK Flexibility Score: inf
ROOT
ATOM      1  C   UNL     1      -5.111  -1.883  -0.633  1.00  0.00     0.274 C 
ENDROOT
BRANCH   1   2
ATOM      2  O   UNL     1      -3.678  -1.928  -0.783  1.00  0.00    -0.461 OA
BRANCH   2   3
ATOM      3  C   UNL     1      -3.156  -0.999  -1.633  1.00  0.00     0.328 C 
ATOM      4  O   UNL     1      -3.832  -0.207  -2.280  1.00  0.00    -0.250 OA
BRANCH   3   5
ATOM      5  C   UNL     1      -1.618  -1.089  -1.749  1.00  0.00     0.192 C 
BRANCH   5   6
ATOM      6  C   UNL     1      -1.213  -1.792  -3.056  1.00  0.00     0.040 C 
BRANCH   6   7
ATOM      7  C   UNL     1      -1.920  -1.306  -4.340  1.00  0.00    -0.015 C 
ATOM      8  C   UNL     1      -1.750   0.195  -4.595  1.00  0.00     0.007 C 
ATOM      9  C   UNL     1      -1.394  -2.085  -5.547  1.00  0.00     0.007 C 
ENDBRANCH   6   7
ENDBRANCH   5   6
BRANCH   5  10
ATOM     10  N   UNL     1      -1.034  -1.720  -0.549  1.00  0.00    -0.338 N 
ATOM     11  C   UNL     1       0.264  -1.853  -0.138  1.00  0.00     0.255 C 
ATOM     12  H   UNL     1      -1.696  -2.114   0.064  1.00  0.00     0.164 HD
ATOM     13  O   UNL     1       0.546  -2.326   0.957  1.00  0.00    -0.269 OA
BRANCH  11  14
ATOM     14  C   UNL     1       1.362  -1.539  -1.046  1.00  0.00     0.082 A 
ATOM     15  C   UNL     1       2.030  -2.611  -1.641  1.00  0.00     0.060 A 
ATOM     16  C   UNL     1       1.779  -0.249  -1.304  1.00  0.00     0.164 A 
ATOM     17  C   UNL     1       3.041  -2.314  -2.524  1.00  0.00     0.152 A 
ATOM     18  N   UNL     1       2.771   0.001  -2.184  1.00  0.00    -0.136 NA
ATOM     19  Cl  UNL     1       1.116   1.155  -0.579  1.00  0.00    -0.059 Cl
ATOM     20  Cl  UNL     1       3.894  -3.539  -3.357  1.00  0.00    -0.060 Cl
ATOM     21  N   UNL     1       3.403  -1.048  -2.812  1.00  0.00    -0.137 NA
ENDBRANCH  11  14
ENDBRANCH   5  10
ENDBRANCH   3   5
ENDBRANCH   2   3
ENDBRANCH   1   2
BRANCH   1  22
ATOM     22  C   UNL     1      -5.545  -1.060   0.586  1.00  0.00     0.275 C 
BRANCH  22  23
ATOM     23  O   UNL     1      -5.208   0.337   0.477  1.00  0.00    -0.458 OA
BRANCH  23  24
ATOM     24  C   UNL     1      -3.960   0.652   0.896  1.00  0.00     0.338 C 
ATOM     25  O   UNL     1      -3.112  -0.115   1.321  1.00  0.00    -0.246 OA
BRANCH  24  26
ATOM     26  C   UNL     1      -3.676   2.073   0.648  1.00  0.00     0.060 A 
ATOM     27  C   UNL     1      -2.651   2.389  -0.246  1.00  0.00     0.016 A 
ATOM     28  C   UNL     1      -4.304   3.075   1.389  1.00  0.00     0.016 A 
ATOM     29  C   UNL     1      -2.216   3.702  -0.382  1.00  0.00     0.010 A 
ATOM     30  C   UNL     1      -3.869   4.397   1.251  1.00  0.00     0.010 A 
ATOM     31  C   UNL     1      -2.806   4.711   0.386  1.00  0.00    -0.014 A 
BRANCH  31  32
ATOM     32  C   UNL     1      -2.241   6.077   0.343  1.00  0.00     0.031 A 
ATOM     33  C   UNL     1      -1.341   6.542   1.451  1.00  0.00     0.074 A 
ATOM     34  C   UNL     1      -2.488   6.876  -0.710  1.00  0.00     0.049 A 
ATOM     35  N   UNL     1      -0.802   7.720   1.633  1.00  0.00    -0.248 NA
ATOM     36  C   UNL     1      -0.993   5.551   2.483  1.00  0.00     0.031 C 
ATOM     37  C   UNL     1      -3.274   6.505  -1.887  1.00  0.00     0.029 A 
ATOM     38  N   UNL     1      -2.091   8.164  -0.961  1.00  0.00    -0.354 N 
ATOM     39  C   UNL     1      -0.063   7.616   2.804  1.00  0.00     0.074 A 
ATOM     40  C   UNL     1      -0.229   6.267   3.297  1.00  0.00     0.031 C 
ATOM     41  C   UNL     1      -3.295   7.543  -2.740  1.00  0.00     0.029 A 
ATOM     42  C   UNL     1      -2.564   8.662  -2.149  1.00  0.00     0.049 A 
ATOM     43  H   UNL     1      -1.521   8.682  -0.348  1.00  0.00     0.167 HD
ATOM     44  C   UNL     1       0.689   8.564   3.409  1.00  0.00     0.031 A 
ATOM     45  C   UNL     1      -2.444   9.889  -2.691  1.00  0.00     0.031 A 
ATOM     46  C   UNL     1       0.860   9.902   2.915  1.00  0.00     0.049 A 
ATOM     47  C   UNL     1      -1.683  10.952  -1.951  1.00  0.00     0.074 A 
ATOM     48  C   UNL     1       1.592  10.936   3.473  1.00  0.00     0.029 A 
ATOM     49  N   UNL     1       0.301  10.388   1.746  1.00  0.00    -0.354 N 
ATOM     50  N   UNL     1      -1.032  10.858  -0.817  1.00  0.00    -0.248 NA
ATOM     51  C   UNL     1      -1.649  12.291  -2.557  1.00  0.00     0.031 C 
ATOM     52  C   UNL     1       1.445  12.061   2.658  1.00  0.00     0.029 A 
ATOM     53  C   UNL     1       0.657  11.713   1.573  1.00  0.00     0.049 A 
ATOM     54  H   UNL     1      -0.265   9.868   1.130  1.00  0.00     0.167 HD
ATOM     55  C   UNL     1      -0.500  12.118  -0.581  1.00  0.00     0.074 A 
ATOM     56  C   UNL     1      -0.897  12.960  -1.691  1.00  0.00     0.031 C 
ATOM     57  C   UNL     1       0.253  12.536   0.464  1.00  0.00     0.031 A 
BRANCH  44  58
ATOM     58  C   UNL     1       1.374   8.201   4.693  1.00  0.00    -0.014 A 
ATOM     59  C   UNL     1       2.563   7.457   4.691  1.00  0.00     0.009 A 
ATOM     60  C   UNL     1       0.870   8.685   5.910  1.00  0.00     0.009 A 
ATOM     61  C   UNL     1       3.232   7.200   5.889  1.00  0.00     0.001 A 
ATOM     62  C   UNL     1       1.550   8.441   7.103  1.00  0.00     0.001 A 
ATOM     63  C   UNL     1       2.730   7.698   7.092  1.00  0.00     0.000 A 
ENDBRANCH  44  58
BRANCH  45  64
ATOM     64  C   UNL     1      -3.085  10.177  -3.997  1.00  0.00    -0.014 A 
ATOM     65  C   UNL     1      -2.311  10.292  -5.159  1.00  0.00     0.009 A 
ATOM     66  C   UNL     1      -4.481  10.303  -4.090  1.00  0.00     0.009 A 
ATOM     67  C   UNL     1      -2.922  10.532  -6.392  1.00  0.00     0.001 A 
ATOM     68  C   UNL     1      -5.089  10.523  -5.327  1.00  0.00     0.001 A 
ATOM     69  C   UNL     1      -4.310  10.640  -6.476  1.00  0.00     0.000 A 
ENDBRANCH  45  64
BRANCH  57  70
ATOM     70  C   UNL     1       0.720  13.961   0.466  1.00  0.00    -0.014 A 
ATOM     71  C   UNL     1      -0.138  14.997   0.862  1.00  0.00     0.009 A 
ATOM     72  C   UNL     1       2.063  14.253   0.182  1.00  0.00     0.009 A 
ATOM     73  C   UNL     1       0.341  16.304   0.969  1.00  0.00     0.001 A 
ATOM     74  C   UNL     1       2.543  15.557   0.308  1.00  0.00     0.001 A 
ATOM     75  C   UNL     1       1.682  16.581   0.701  1.00  0.00     0.000 A 
ENDBRANCH  57  70
ENDBRANCH  31  32
ENDBRANCH  24  26
ENDBRANCH  23  24
ENDBRANCH  22  23
ENDBRANCH   1  22
TORSDOF 15
