REMARK SMILES C[C@]1(C(=O)OCCOC(=O)c2ccc(-c3c4nc(c(-c5ccccc5)c5ccc([nH]5)c(-c5ccccc5)c5nc(c(-c6ccccc6)c6ccc3[nH]6)C=C5)C=C4)cc2)CCN(c2ccc([N+](=O)[O-])c(N)n2)C1
REMARK SMILES IDX 6 1 5 2 3 3 4 4 2 5 1 6 59 7 72 8 60 9 61 10 62 11 63 12
REMARK SMILES IDX 71 13 64 14 69 15 65 16 70 17 66 20 67 21 68 22 7 23 8 24
REMARK SMILES IDX 9 25 10 26 11 27 12 28 58 29 13 30 57 31 14 32 15 33 16 34
REMARK SMILES IDX 51 35 17 36 56 37 50 38 52 39 18 40 55 41 49 42 48 43 19 45
REMARK SMILES IDX 41 46 26 47 40 48 27 49 30 50 39 51 53 52 28 53 29 54 38 56
REMARK SMILES IDX 54 57 31 58 20 59 21 60 25 61 22 62 24 63 23 64 42 65 43 66
REMARK SMILES IDX 47 67 44 68 46 69 45 70 32 71 33 72 37 73 34 74 36 75 35 76
REMARK H PARENT 70 18 70 19 52 44 30 55
REMARK Flexibility Score: inf
ROOT
ATOM      1  C   UNL     1       2.582   0.050   1.348  1.00  0.00     0.274 C 
ENDROOT
BRANCH   1   2
ATOM      2  O   UNL     1       2.082   0.671   0.143  1.00  0.00    -0.462 OA
BRANCH   2   3
ATOM      3  C   UNL     1       1.344  -0.132  -0.668  1.00  0.00     0.313 C 
ATOM      4  O   UNL     1       1.112  -1.316  -0.446  1.00  0.00    -0.252 OA
BRANCH   3   5
ATOM      5  C   UNL     1       0.868   0.559  -1.933  1.00  0.00     0.084 C 
ATOM      6  C   UNL     1       1.687   0.004  -3.104  1.00  0.00     0.026 C 
ATOM      7  C   UNL     1      -0.636   0.304  -2.118  1.00  0.00     0.042 C 
ATOM      8  C   UNL     1       0.905   2.095  -1.895  1.00  0.00     0.136 C 
ATOM      9  C   UNL     1      -1.119   1.410  -3.044  1.00  0.00     0.119 C 
ATOM     10  N   UNL     1      -0.165   2.485  -2.814  1.00  0.00    -0.355 N 
BRANCH  10  11
ATOM     11  C   UNL     1      -0.546   3.791  -2.985  1.00  0.00     0.131 A 
ATOM     12  C   UNL     1       0.389   4.759  -3.338  1.00  0.00     0.054 A 
ATOM     13  N   UNL     1      -1.854   4.108  -2.839  1.00  0.00    -0.207 NA
ATOM     14  C   UNL     1      -0.030   6.066  -3.571  1.00  0.00     0.093 A 
ATOM     15  C   UNL     1      -2.268   5.382  -3.007  1.00  0.00     0.204 A 
ATOM     16  C   UNL     1      -1.380   6.374  -3.399  1.00  0.00     0.311 A 
BRANCH  15  17
ATOM     17  N   UNL     1      -3.627   5.562  -2.837  1.00  0.00    -0.378 N 
ATOM     18  H   UNL     1      -4.021   6.458  -2.939  1.00  0.00     0.158 HD
ATOM     19  H   UNL     1      -4.201   4.794  -2.613  1.00  0.00     0.158 HD
ENDBRANCH  15  17
BRANCH  16  20
ATOM     20  N   UNL     1      -1.829   7.733  -3.630  1.00  0.00     0.066 N 
ATOM     21  O   UNL     1      -1.252   8.378  -4.519  1.00  0.00    -0.258 OA
ATOM     22  O   UNL     1      -2.729   8.183  -2.903  1.00  0.00    -0.258 OA
ENDBRANCH  16  20
ENDBRANCH  10  11
ENDBRANCH   3   5
ENDBRANCH   2   3
ENDBRANCH   1   2
BRANCH   1  23
ATOM     23  C   UNL     1       1.672   0.350   2.537  1.00  0.00     0.275 C 
BRANCH  23  24
ATOM     24  O   UNL     1       0.366  -0.202   2.296  1.00  0.00    -0.458 OA
BRANCH  24  25
ATOM     25  C   UNL     1      -0.678   0.587   2.641  1.00  0.00     0.338 C 
ATOM     26  O   UNL     1      -0.622   1.675   3.187  1.00  0.00    -0.246 OA
BRANCH  25  27
ATOM     27  C   UNL     1      -1.957  -0.042   2.240  1.00  0.00     0.060 A 
ATOM     28  C   UNL     1      -2.070  -0.740   1.039  1.00  0.00     0.016 A 
ATOM     29  C   UNL     1      -3.095   0.180   3.015  1.00  0.00     0.016 A 
ATOM     30  C   UNL     1      -3.328  -1.084   0.543  1.00  0.00     0.010 A 
ATOM     31  C   UNL     1      -4.342  -0.278   2.574  1.00  0.00     0.010 A 
ATOM     32  C   UNL     1      -4.486  -0.865   1.305  1.00  0.00    -0.014 A 
BRANCH  32  33
ATOM     33  C   UNL     1      -5.839  -1.191   0.763  1.00  0.00     0.031 A 
ATOM     34  C   UNL     1      -6.914  -0.130   0.707  1.00  0.00     0.074 A 
ATOM     35  C   UNL     1      -6.124  -2.425   0.297  1.00  0.00     0.049 A 
ATOM     36  N   UNL     1      -8.195  -0.261   0.462  1.00  0.00    -0.248 NA
ATOM     37  C   UNL     1      -6.499   1.256   0.979  1.00  0.00     0.031 C 
ATOM     38  C   UNL     1      -5.192  -3.552   0.234  1.00  0.00     0.029 A 
ATOM     39  N   UNL     1      -7.287  -2.931  -0.234  1.00  0.00    -0.354 N 
ATOM     40  C   UNL     1      -8.747   1.003   0.633  1.00  0.00     0.074 A 
ATOM     41  C   UNL     1      -7.662   1.892   0.988  1.00  0.00     0.031 C 
ATOM     42  C   UNL     1      -5.795  -4.590  -0.365  1.00  0.00     0.029 A 
ATOM     43  C   UNL     1      -7.183  -4.239  -0.641  1.00  0.00     0.049 A 
ATOM     44  H   UNL     1      -8.116  -2.406  -0.315  1.00  0.00     0.167 HD
ATOM     45  C   UNL     1     -10.040   1.391   0.514  1.00  0.00     0.031 A 
ATOM     46  C   UNL     1      -8.103  -5.081  -1.146  1.00  0.00     0.031 A 
ATOM     47  C   UNL     1     -11.115   0.533   0.091  1.00  0.00     0.049 A 
ATOM     48  C   UNL     1      -9.526  -4.628  -1.287  1.00  0.00     0.074 A 
ATOM     49  C   UNL     1     -12.458   0.839  -0.056  1.00  0.00     0.029 A 
ATOM     50  N   UNL     1     -10.963  -0.790  -0.288  1.00  0.00    -0.354 N 
ATOM     51  N   UNL     1     -10.049  -3.457  -1.019  1.00  0.00    -0.248 NA
ATOM     52  C   UNL     1     -10.492  -5.625  -1.772  1.00  0.00     0.031 C 
ATOM     53  C   UNL     1     -13.122  -0.308  -0.507  1.00  0.00     0.029 A 
ATOM     54  C   UNL     1     -12.185  -1.314  -0.672  1.00  0.00     0.049 A 
ATOM     55  H   UNL     1     -10.111  -1.284  -0.285  1.00  0.00     0.167 HD
ATOM     56  C   UNL     1     -11.403  -3.577  -1.296  1.00  0.00     0.074 A 
ATOM     57  C   UNL     1     -11.617  -4.925  -1.782  1.00  0.00     0.031 C 
ATOM     58  C   UNL     1     -12.385  -2.656  -1.146  1.00  0.00     0.031 A 
BRANCH  45  59
ATOM     59  C   UNL     1     -10.375   2.807   0.889  1.00  0.00    -0.014 A 
ATOM     60  C   UNL     1     -10.078   3.883   0.041  1.00  0.00     0.009 A 
ATOM     61  C   UNL     1     -11.037   3.057   2.102  1.00  0.00     0.009 A 
ATOM     62  C   UNL     1     -10.413   5.187   0.414  1.00  0.00     0.001 A 
ATOM     63  C   UNL     1     -11.391   4.358   2.462  1.00  0.00     0.001 A 
ATOM     64  C   UNL     1     -11.072   5.423   1.621  1.00  0.00     0.000 A 
ENDBRANCH  45  59
BRANCH  46  65
ATOM     65  C   UNL     1      -7.712  -6.465  -1.516  1.00  0.00    -0.014 A 
ATOM     66  C   UNL     1      -7.623  -6.841  -2.865  1.00  0.00     0.009 A 
ATOM     67  C   UNL     1      -7.413  -7.412  -0.523  1.00  0.00     0.009 A 
ATOM     68  C   UNL     1      -7.250  -8.141  -3.211  1.00  0.00     0.001 A 
ATOM     69  C   UNL     1      -7.015  -8.702  -0.874  1.00  0.00     0.001 A 
ATOM     70  C   UNL     1      -6.939  -9.068  -2.217  1.00  0.00     0.000 A 
ENDBRANCH  46  65
BRANCH  58  71
ATOM     71  C   UNL     1     -13.773  -3.077  -1.527  1.00  0.00    -0.014 A 
ATOM     72  C   UNL     1     -14.534  -3.895  -0.678  1.00  0.00     0.009 A 
ATOM     73  C   UNL     1     -14.329  -2.639  -2.737  1.00  0.00     0.009 A 
ATOM     74  C   UNL     1     -15.820  -4.291  -1.050  1.00  0.00     0.001 A 
ATOM     75  C   UNL     1     -15.621  -3.023  -3.098  1.00  0.00     0.001 A 
ATOM     76  C   UNL     1     -16.362  -3.854  -2.259  1.00  0.00     0.000 A 
ENDBRANCH  58  71
ENDBRANCH  32  33
ENDBRANCH  25  27
ENDBRANCH  24  25
ENDBRANCH  23  24
ENDBRANCH   1  23
TORSDOF 14
