REMARK SMILES O=C(CCCC(=O)OCCOC(=O)c1ccc(-c2c3nc(c(-c4ccccc4)c4ccc([nH]4)c(-c4ccccc4)c4nc(c(-c5ccccc5)c5ccc2[nH]5)C=C4)C=C3)cc1)Nc1ccccc1F
REMARK SMILES IDX 9 1 8 2 6 3 7 4 5 5 4 6 3 7 2 8 1 9 62 10 63 12 64 13 68 14
REMARK SMILES IDX 65 15 67 16 69 17 66 18 10 19 11 20 12 21 13 22 14 23 15 24
REMARK SMILES IDX 61 25 16 26 60 27 17 28 18 29 19 30 54 31 20 32 59 33 53 34
REMARK SMILES IDX 55 35 21 36 58 37 52 38 51 39 22 41 44 42 29 43 43 44 30 45
REMARK SMILES IDX 33 46 42 47 56 48 31 49 32 50 41 52 57 53 34 54 23 55 24 56
REMARK SMILES IDX 28 57 25 58 27 59 26 60 45 61 46 62 50 63 47 64 49 65 48 66
REMARK SMILES IDX 35 67 36 68 40 69 37 70 39 71 38 72
REMARK H PARENT 62 11 55 40 33 51
REMARK Flexibility Score: inf
ROOT
ATOM      1  C   UNL     1       6.113  -1.845  -0.717  1.00  0.00     0.274 C 
ENDROOT
BRANCH   1   2
ATOM      2  O   UNL     1       5.135  -0.793  -0.573  1.00  0.00    -0.462 OA
BRANCH   2   3
ATOM      3  C   UNL     1       5.414   0.214   0.286  1.00  0.00     0.305 C 
ATOM      4  O   UNL     1       6.388   0.247   1.028  1.00  0.00    -0.252 OA
BRANCH   3   5
ATOM      5  C   UNL     1       4.341   1.289   0.308  1.00  0.00     0.123 C 
BRANCH   5   6
ATOM      6  C   UNL     1       3.365   1.352  -0.871  1.00  0.00     0.022 C 
BRANCH   6   7
ATOM      7  C   UNL     1       2.406   0.171  -1.080  1.00  0.00     0.101 C 
BRANCH   7   8
ATOM      8  C   UNL     1       1.542  -0.144   0.127  1.00  0.00     0.224 C 
ATOM      9  O   UNL     1       0.382   0.247   0.198  1.00  0.00    -0.275 OA
ATOM     10  N   UNL     1       2.239  -0.798   1.129  1.00  0.00    -0.324 N 
ATOM     11  H   UNL     1       3.164  -1.077   0.942  1.00  0.00     0.170 HD
BRANCH  10  12
ATOM     12  C   UNL     1       1.706  -1.089   2.395  1.00  0.00     0.077 A 
ATOM     13  C   UNL     1       2.502  -0.816   3.513  1.00  0.00     0.029 A 
ATOM     14  C   UNL     1       0.443  -1.658   2.574  1.00  0.00     0.146 A 
ATOM     15  C   UNL     1       2.011  -1.058   4.798  1.00  0.00     0.002 A 
ATOM     16  C   UNL     1      -0.030  -1.940   3.852  1.00  0.00     0.041 A 
ATOM     17  F   UNL     1      -0.290  -2.048   1.521  1.00  0.00    -0.205 F 
ATOM     18  C   UNL     1       0.748  -1.626   4.967  1.00  0.00     0.003 A 
ENDBRANCH  10  12
ENDBRANCH   7   8
ENDBRANCH   6   7
ENDBRANCH   5   6
ENDBRANCH   3   5
ENDBRANCH   2   3
ENDBRANCH   1   2
BRANCH   1  19
ATOM     19  C   UNL     1       6.919  -1.676  -2.008  1.00  0.00     0.275 C 
BRANCH  19  20
ATOM     20  O   UNL     1       7.807  -0.546  -1.919  1.00  0.00    -0.458 OA
BRANCH  20  21
ATOM     21  C   UNL     1       7.300   0.617  -2.389  1.00  0.00     0.338 C 
ATOM     22  O   UNL     1       6.220   0.795  -2.922  1.00  0.00    -0.246 OA
BRANCH  21  23
ATOM     23  C   UNL     1       8.188   1.721  -2.004  1.00  0.00     0.060 A 
ATOM     24  C   UNL     1       7.742   2.594  -1.012  1.00  0.00     0.016 A 
ATOM     25  C   UNL     1       9.397   1.949  -2.659  1.00  0.00     0.016 A 
ATOM     26  C   UNL     1       8.490   3.711  -0.670  1.00  0.00     0.010 A 
ATOM     27  C   UNL     1      10.157   3.070  -2.309  1.00  0.00     0.010 A 
ATOM     28  C   UNL     1       9.700   3.962  -1.321  1.00  0.00    -0.014 A 
BRANCH  28  29
ATOM     29  C   UNL     1      10.444   5.200  -1.002  1.00  0.00     0.031 A 
ATOM     30  C   UNL     1      10.452   6.333  -1.986  1.00  0.00     0.074 A 
ATOM     31  C   UNL     1      11.059   5.325   0.188  1.00  0.00     0.049 A 
ATOM     32  N   UNL     1      11.114   7.459  -1.941  1.00  0.00    -0.248 NA
ATOM     33  C   UNL     1       9.599   6.179  -3.176  1.00  0.00     0.031 C 
ATOM     34  C   UNL     1      11.050   4.324   1.257  1.00  0.00     0.029 A 
ATOM     35  N   UNL     1      11.803   6.355   0.701  1.00  0.00    -0.354 N 
ATOM     36  C   UNL     1      10.780   8.138  -3.105  1.00  0.00     0.074 A 
ATOM     37  C   UNL     1       9.862   7.295  -3.842  1.00  0.00     0.031 C 
ATOM     38  C   UNL     1      11.750   4.794   2.302  1.00  0.00     0.029 A 
ATOM     39  C   UNL     1      12.302   6.099   1.955  1.00  0.00     0.049 A 
ATOM     40  H   UNL     1      11.965   7.197   0.217  1.00  0.00     0.167 HD
ATOM     41  C   UNL     1      11.203   9.354  -3.521  1.00  0.00     0.031 A 
ATOM     42  C   UNL     1      13.139   6.823   2.721  1.00  0.00     0.031 A 
ATOM     43  C   UNL     1      12.110  10.190  -2.782  1.00  0.00     0.049 A 
ATOM     44  C   UNL     1      13.653   8.136   2.200  1.00  0.00     0.074 A 
ATOM     45  C   UNL     1      12.624  11.427  -3.131  1.00  0.00     0.029 A 
ATOM     46  N   UNL     1      12.629   9.876  -1.536  1.00  0.00    -0.354 N 
ATOM     47  N   UNL     1      13.370   8.745   1.074  1.00  0.00    -0.248 NA
ATOM     48  C   UNL     1      14.608   8.856   3.053  1.00  0.00     0.031 C 
ATOM     49  C   UNL     1      13.482  11.845  -2.109  1.00  0.00     0.029 A 
ATOM     50  C   UNL     1      13.466  10.890  -1.106  1.00  0.00     0.049 A 
ATOM     51  H   UNL     1      12.432   9.053  -1.033  1.00  0.00     0.167 HD
ATOM     52  C   UNL     1      14.097   9.927   1.092  1.00  0.00     0.074 A 
ATOM     53  C   UNL     1      14.818   9.958   2.348  1.00  0.00     0.031 C 
ATOM     54  C   UNL     1      14.166  10.900   0.151  1.00  0.00     0.031 A 
BRANCH  41  55
ATOM     55  C   UNL     1      10.717   9.835  -4.858  1.00  0.00    -0.014 A 
ATOM     56  C   UNL     1       9.408  10.311  -5.029  1.00  0.00     0.009 A 
ATOM     57  C   UNL     1      11.595   9.844  -5.952  1.00  0.00     0.009 A 
ATOM     58  C   UNL     1       8.982  10.766  -6.279  1.00  0.00     0.001 A 
ATOM     59  C   UNL     1      11.173  10.320  -7.195  1.00  0.00     0.001 A 
ATOM     60  C   UNL     1       9.866  10.775  -7.359  1.00  0.00     0.000 A 
ENDBRANCH  41  55
BRANCH  42  61
ATOM     61  C   UNL     1      13.586   6.302   4.038  1.00  0.00    -0.014 A 
ATOM     62  C   UNL     1      13.180   6.920   5.230  1.00  0.00     0.009 A 
ATOM     63  C   UNL     1      14.447   5.195   4.107  1.00  0.00     0.009 A 
ATOM     64  C   UNL     1      13.648   6.455   6.462  1.00  0.00     0.001 A 
ATOM     65  C   UNL     1      14.889   4.714   5.341  1.00  0.00     0.001 A 
ATOM     66  C   UNL     1      14.498   5.351   6.516  1.00  0.00     0.000 A 
ENDBRANCH  42  61
BRANCH  54  67
ATOM     67  C   UNL     1      15.021  12.092   0.467  1.00  0.00    -0.014 A 
ATOM     68  C   UNL     1      16.421  12.017   0.408  1.00  0.00     0.009 A 
ATOM     69  C   UNL     1      14.414  13.313   0.795  1.00  0.00     0.009 A 
ATOM     70  C   UNL     1      17.198  13.138   0.703  1.00  0.00     0.001 A 
ATOM     71  C   UNL     1      15.193  14.438   1.065  1.00  0.00     0.001 A 
ATOM     72  C   UNL     1      16.584  14.348   1.027  1.00  0.00     0.000 A 
ENDBRANCH  54  67
ENDBRANCH  28  29
ENDBRANCH  21  23
ENDBRANCH  20  21
ENDBRANCH  19  20
ENDBRANCH   1  19
TORSDOF 15
