REMARK SMILES CCCCc1ncc(C[N@H+]2C[C@@H]3c4ccccc4OC[C@]3(C(=O)OCCOC(=O)c3ccc(-c4c5nc(c(-c6ccccc6)c6ccc([nH]6)c(-c6ccccc6)c6nc(c(-c7ccccc7)c7ccc4[nH]7)C=C6)C=C5)cc3)C2)[nH]1
REMARK SMILES IDX 24 1 22 2 23 3 21 4 10 5 11 6 78 7 12 9 13 10 20 11 14 12
REMARK SMILES IDX 18 13 19 14 15 15 17 16 16 17 9 18 8 19 5 20 6 21 79 22 7 23
REMARK SMILES IDX 4 25 3 26 2 27 1 28 25 29 26 30 27 31 28 32 29 33 30 34
REMARK SMILES IDX 31 35 77 36 32 37 76 38 33 39 34 40 35 41 70 42 36 43 75 44
REMARK SMILES IDX 69 45 71 46 37 47 74 48 68 49 67 50 38 52 60 53 45 54 59 55
REMARK SMILES IDX 46 56 49 57 58 58 72 59 47 60 48 61 57 63 73 64 50 65 39 66
REMARK SMILES IDX 40 67 44 68 41 69 43 70 42 71 61 72 62 73 66 74 63 75 65 76
REMARK SMILES IDX 64 77 51 78 52 79 56 80 53 81 55 82 54 83
REMARK H PARENT 10 8 79 24 71 51 49 62
REMARK Flexibility Score: inf
ROOT
ATOM      1  O   UNL     1      -2.282  -2.650  -1.020  1.00  0.00    -0.461 OA
ENDROOT
BRANCH   1   2
ATOM      2  C   UNL     1      -2.063  -1.422  -1.587  1.00  0.00     0.322 C 
ATOM      3  O   UNL     1      -0.965  -0.961  -1.854  1.00  0.00    -0.251 OA
BRANCH   2   4
ATOM      4  C   UNL     1      -3.402  -0.736  -1.817  1.00  0.00     0.162 C 
ATOM      5  N   UNL     1      -4.699   0.664  -0.310  1.00  0.00    -0.328 N 
ATOM      6  C   UNL     1      -4.564   1.348  -1.591  1.00  0.00     0.272 C 
ATOM      7  C   UNL     1      -4.020  -0.625  -0.402  1.00  0.00     0.286 C 
ATOM      8  H   UNL     1      -5.690   0.492  -0.142  1.00  0.00     0.348 HD
ATOM      9  C   UNL     1      -3.333   0.725  -2.261  1.00  0.00     0.105 C 
ATOM     10  C   UNL     1      -3.419   0.949  -3.738  1.00  0.00     0.004 A 
ATOM     11  C   UNL     1      -4.215  -1.625  -2.780  1.00  0.00     0.255 C 
ATOM     12  C   UNL     1      -3.030   2.179  -4.295  1.00  0.00     0.008 A 
ATOM     13  C   UNL     1      -4.010  -0.004  -4.554  1.00  0.00     0.123 A 
ATOM     14  O   UNL     1      -4.516  -1.176  -4.101  1.00  0.00    -0.492 OA
ATOM     15  C   UNL     1      -3.219   2.435  -5.654  1.00  0.00     0.001 A 
ATOM     16  C   UNL     1      -4.181   0.244  -5.918  1.00  0.00     0.047 A 
ATOM     17  C   UNL     1      -3.784   1.461  -6.470  1.00  0.00     0.004 A 
BRANCH   5  18
ATOM     18  C   UNL     1      -4.397   1.464   0.876  1.00  0.00     0.319 C 
BRANCH  18  19
ATOM     19  C   UNL     1      -3.171   2.308   0.811  1.00  0.00     0.090 A 
ATOM     20  C   UNL     1      -1.029   2.915   0.742  1.00  0.00     0.106 A 
ATOM     21  N   UNL     1      -1.710   4.040   0.811  1.00  0.00    -0.241 NA
ATOM     22  N   UNL     1      -1.884   1.839   0.724  1.00  0.00    -0.341 N 
ATOM     23  C   UNL     1      -3.029   3.679   0.855  1.00  0.00     0.140 A 
ATOM     24  H   UNL     1      -1.618   0.894   0.659  1.00  0.00     0.168 HD
BRANCH  20  25
ATOM     25  C   UNL     1       0.456   2.806   0.627  1.00  0.00     0.075 C 
BRANCH  25  26
ATOM     26  C   UNL     1       1.129   1.992   1.737  1.00  0.00     0.008 C 
BRANCH  26  27
ATOM     27  C   UNL     1       0.972   0.469   1.662  1.00  0.00    -0.003 C 
ATOM     28  C   UNL     1       1.427  -0.134   0.343  1.00  0.00     0.004 C 
ENDBRANCH  26  27
ENDBRANCH  25  26
ENDBRANCH  20  25
ENDBRANCH  18  19
ENDBRANCH   5  18
ENDBRANCH   2   4
ENDBRANCH   1   2
BRANCH   1  29
ATOM     29  C   UNL     1      -1.239  -3.644  -1.097  1.00  0.00     0.274 C 
BRANCH  29  30
ATOM     30  C   UNL     1      -1.493  -4.492  -2.343  1.00  0.00     0.275 C 
BRANCH  30  31
ATOM     31  O   UNL     1      -1.122  -3.684  -3.468  1.00  0.00    -0.458 OA
BRANCH  31  32
ATOM     32  C   UNL     1      -1.739  -3.931  -4.643  1.00  0.00     0.338 C 
ATOM     33  O   UNL     1      -2.522  -4.835  -4.888  1.00  0.00    -0.246 OA
BRANCH  32  34
ATOM     34  C   UNL     1      -1.232  -2.943  -5.616  1.00  0.00     0.060 A 
ATOM     35  C   UNL     1      -0.946  -3.349  -6.917  1.00  0.00     0.016 A 
ATOM     36  C   UNL     1      -0.988  -1.622  -5.225  1.00  0.00     0.016 A 
ATOM     37  C   UNL     1      -0.315  -2.455  -7.785  1.00  0.00     0.010 A 
ATOM     38  C   UNL     1      -0.425  -0.711  -6.111  1.00  0.00     0.010 A 
ATOM     39  C   UNL     1      -0.024  -1.139  -7.378  1.00  0.00    -0.014 A 
BRANCH  39  40
ATOM     40  C   UNL     1       0.748  -0.234  -8.260  1.00  0.00     0.031 A 
ATOM     41  C   UNL     1       2.144   0.185  -7.882  1.00  0.00     0.074 A 
ATOM     42  C   UNL     1       0.201   0.181  -9.417  1.00  0.00     0.049 A 
ATOM     43  N   UNL     1       3.022   0.848  -8.592  1.00  0.00    -0.248 NA
ATOM     44  C   UNL     1       2.618  -0.174  -6.534  1.00  0.00     0.031 C 
ATOM     45  C   UNL     1      -1.163  -0.121  -9.854  1.00  0.00     0.029 A 
ATOM     46  N   UNL     1       0.731   0.913 -10.448  1.00  0.00    -0.354 N 
ATOM     47  C   UNL     1       4.143   0.982  -7.780  1.00  0.00     0.074 A 
ATOM     48  C   UNL     1       3.818   0.387  -6.505  1.00  0.00     0.031 C 
ATOM     49  C   UNL     1      -1.339   0.360 -11.094  1.00  0.00     0.029 A 
ATOM     50  C   UNL     1      -0.113   1.028 -11.525  1.00  0.00     0.049 A 
ATOM     51  H   UNL     1       1.629   1.315 -10.419  1.00  0.00     0.167 HD
ATOM     52  C   UNL     1       5.344   1.526  -8.082  1.00  0.00     0.031 A 
ATOM     53  C   UNL     1       0.086   1.584 -12.735  1.00  0.00     0.031 A 
ATOM     54  C   UNL     1       5.660   2.104  -9.360  1.00  0.00     0.049 A 
ATOM     55  C   UNL     1       1.433   2.170 -13.056  1.00  0.00     0.074 A 
ATOM     56  C   UNL     1       6.862   2.638  -9.787  1.00  0.00     0.029 A 
ATOM     57  N   UNL     1       4.767   2.221 -10.414  1.00  0.00    -0.354 N 
ATOM     58  N   UNL     1       2.510   2.215 -12.308  1.00  0.00    -0.248 NA
ATOM     59  C   UNL     1       1.603   2.767 -14.389  1.00  0.00     0.031 C 
ATOM     60  C   UNL     1       6.682   3.129 -11.081  1.00  0.00     0.029 A 
ATOM     61  C   UNL     1       5.387   2.841 -11.484  1.00  0.00     0.049 A 
ATOM     62  H   UNL     1       3.833   1.911 -10.402  1.00  0.00     0.167 HD
ATOM     63  C   UNL     1       3.487   2.826 -13.082  1.00  0.00     0.074 A 
ATOM     64  C   UNL     1       2.882   3.120 -14.365  1.00  0.00     0.031 C 
ATOM     65  C   UNL     1       4.769   3.118 -12.755  1.00  0.00     0.031 A 
BRANCH  52  66
ATOM     66  C   UNL     1       6.419   1.508  -7.029  1.00  0.00    -0.014 A 
ATOM     67  C   UNL     1       6.886   2.713  -6.480  1.00  0.00     0.009 A 
ATOM     68  C   UNL     1       7.035   0.306  -6.644  1.00  0.00     0.009 A 
ATOM     69  C   UNL     1       7.951   2.716  -5.576  1.00  0.00     0.001 A 
ATOM     70  C   UNL     1       8.080   0.309  -5.717  1.00  0.00     0.001 A 
ATOM     71  C   UNL     1       8.543   1.514  -5.192  1.00  0.00     0.000 A 
ENDBRANCH  52  66
BRANCH  53  72
ATOM     72  C   UNL     1      -1.006   1.539 -13.742  1.00  0.00    -0.014 A 
ATOM     73  C   UNL     1      -2.183   2.282 -13.554  1.00  0.00     0.009 A 
ATOM     74  C   UNL     1      -0.911   0.696 -14.859  1.00  0.00     0.009 A 
ATOM     75  C   UNL     1      -3.252   2.160 -14.445  1.00  0.00     0.001 A 
ATOM     76  C   UNL     1      -1.970   0.598 -15.766  1.00  0.00     0.001 A 
ATOM     77  C   UNL     1      -3.143   1.320 -15.552  1.00  0.00     0.000 A 
ENDBRANCH  53  72
BRANCH  65  78
ATOM     78  C   UNL     1       5.631   3.785 -13.790  1.00  0.00    -0.014 A 
ATOM     79  C   UNL     1       6.704   3.079 -14.358  1.00  0.00     0.009 A 
ATOM     80  C   UNL     1       5.476   5.147 -14.084  1.00  0.00     0.009 A 
ATOM     81  C   UNL     1       7.625   3.733 -15.178  1.00  0.00     0.001 A 
ATOM     82  C   UNL     1       6.383   5.791 -14.927  1.00  0.00     0.001 A 
ATOM     83  C   UNL     1       7.463   5.088 -15.462  1.00  0.00     0.000 A 
ENDBRANCH  65  78
ENDBRANCH  39  40
ENDBRANCH  32  34
ENDBRANCH  31  32
ENDBRANCH  30  31
ENDBRANCH  29  30
ENDBRANCH   1  29
TORSDOF 16
