REMARK SMILES [NH3+]CCOCC(=O)Nc1ccc(C(=O)OCCOC(=O)c2ccc(-c3c4nc(c(-c5ccccc5)c5ccc([nH]5)c(-c5ccccc5)c5nc(c(-c6ccccc6)c6ccc3[nH]6)C=C5)C=C4)cc2)c(Cl)c1
REMARK SMILES IDX 13 1 14 2 12 3 9 4 10 5 71 6 11 7 69 8 70 9 8 10 6 11 7 12
REMARK SMILES IDX 5 14 4 15 3 16 2 17 1 18 15 22 16 23 17 24 18 25 19 26 20 27
REMARK SMILES IDX 21 28 22 29 68 30 23 31 67 32 24 33 25 34 26 35 61 36 27 37
REMARK SMILES IDX 66 38 60 39 62 40 28 41 65 42 59 43 58 44 29 46 51 47 36 48
REMARK SMILES IDX 50 49 37 50 40 51 49 52 63 53 38 54 39 55 48 57 64 58 41 59
REMARK SMILES IDX 30 60 31 61 35 62 32 63 34 64 33 65 52 66 53 67 57 68 54 69
REMARK SMILES IDX 56 70 55 71 42 72 43 73 47 74 44 75 46 76 45 77
REMARK H PARENT 8 13 1 19 1 20 1 21 62 45 40 56
REMARK Flexibility Score: inf
ROOT
ATOM      1  C   UNL     1       1.384   0.529   8.846  1.00  0.00     0.339 C 
ATOM      2  O   UNL     1       1.270  -0.611   9.265  1.00  0.00    -0.246 OA
ENDROOT
BRANCH   1   3
ATOM      3  C   UNL     1       1.951   0.826   7.511  1.00  0.00     0.078 A 
ATOM      4  C   UNL     1       2.759   1.272   4.852  1.00  0.00     0.042 A 
ATOM      5  C   UNL     1       2.019   0.142   5.180  1.00  0.00     0.027 A 
ATOM      6  C   UNL     1       3.187   2.122   5.876  1.00  0.00     0.047 A 
ATOM      7  C   UNL     1       1.646  -0.094   6.500  1.00  0.00     0.019 A 
ATOM      8  C   UNL     1       2.763   1.919   7.202  1.00  0.00     0.057 A 
ATOM      9  Cl  UNL     1       3.356   3.016   8.397  1.00  0.00    -0.083 Cl
BRANCH   4  10
ATOM     10  N   UNL     1       3.178   1.520   3.537  1.00  0.00    -0.324 N 
ATOM     11  C   UNL     1       2.544   1.222   2.356  1.00  0.00     0.250 C 
ATOM     12  O   UNL     1       3.192   1.214   1.306  1.00  0.00    -0.272 OA
ATOM     13  H   UNL     1       4.048   1.972   3.448  1.00  0.00     0.170 HD
BRANCH  11  14
ATOM     14  C   UNL     1       1.010   1.033   2.336  1.00  0.00     0.260 C 
BRANCH  14  15
ATOM     15  O   UNL     1       0.427  -0.239   2.527  1.00  0.00    -0.366 OA
BRANCH  15  16
ATOM     16  C   UNL     1       0.961  -1.297   1.734  1.00  0.00     0.222 C 
BRANCH  16  17
ATOM     17  C   UNL     1       0.434  -1.337   0.292  1.00  0.00     0.287 C 
BRANCH  17  18
ATOM     18  N   UNL     1       1.040  -0.360  -0.612  1.00  0.00    -0.356 N 
ATOM     19  H   UNL     1       0.633  -0.458  -1.542  1.00  0.00     0.344 HD
ATOM     20  H   UNL     1       2.046  -0.521  -0.663  1.00  0.00     0.344 HD
ATOM     21  H   UNL     1       0.865   0.582  -0.262  1.00  0.00     0.344 HD
ENDBRANCH  17  18
ENDBRANCH  16  17
ENDBRANCH  15  16
ENDBRANCH  14  15
ENDBRANCH  11  14
ENDBRANCH   4  10
ENDBRANCH   1   3
BRANCH   1  22
ATOM     22  O   UNL     1       0.880   1.650   9.412  1.00  0.00    -0.458 OA
BRANCH  22  23
ATOM     23  C   UNL     1       0.172   1.484  10.656  1.00  0.00     0.275 C 
BRANCH  23  24
ATOM     24  C   UNL     1      -1.310   1.814  10.482  1.00  0.00     0.275 C 
BRANCH  24  25
ATOM     25  O   UNL     1      -1.976   0.806   9.697  1.00  0.00    -0.458 OA
BRANCH  25  26
ATOM     26  C   UNL     1      -2.161   1.119   8.395  1.00  0.00     0.338 C 
ATOM     27  O   UNL     1      -1.836   2.140   7.814  1.00  0.00    -0.246 OA
BRANCH  26  28
ATOM     28  C   UNL     1      -2.784  -0.018   7.705  1.00  0.00     0.060 A 
ATOM     29  C   UNL     1      -1.953  -0.944   7.079  1.00  0.00     0.016 A 
ATOM     30  C   UNL     1      -4.167  -0.098   7.556  1.00  0.00     0.016 A 
ATOM     31  C   UNL     1      -2.490  -1.917   6.239  1.00  0.00     0.010 A 
ATOM     32  C   UNL     1      -4.710  -1.115   6.763  1.00  0.00     0.010 A 
ATOM     33  C   UNL     1      -3.877  -2.018   6.073  1.00  0.00    -0.014 A 
BRANCH  33  34
ATOM     34  C   UNL     1      -4.467  -3.021   5.144  1.00  0.00     0.031 A 
ATOM     35  C   UNL     1      -5.272  -2.558   3.958  1.00  0.00     0.074 A 
ATOM     36  C   UNL     1      -4.293  -4.342   5.347  1.00  0.00     0.049 A 
ATOM     37  N   UNL     1      -6.068  -3.245   3.178  1.00  0.00    -0.248 NA
ATOM     38  C   UNL     1      -5.174  -1.131   3.611  1.00  0.00     0.031 C 
ATOM     39  C   UNL     1      -3.473  -4.944   6.398  1.00  0.00     0.029 A 
ATOM     40  N   UNL     1      -4.809  -5.421   4.670  1.00  0.00    -0.354 N 
ATOM     41  C   UNL     1      -6.603  -2.327   2.282  1.00  0.00     0.074 A 
ATOM     42  C   UNL     1      -6.041  -1.035   2.613  1.00  0.00     0.031 C 
ATOM     43  C   UNL     1      -3.526  -6.281   6.286  1.00  0.00     0.029 A 
ATOM     44  C   UNL     1      -4.450  -6.632   5.213  1.00  0.00     0.049 A 
ATOM     45  H   UNL     1      -5.381  -5.336   3.873  1.00  0.00     0.167 HD
ATOM     46  C   UNL     1      -7.488  -2.541   1.279  1.00  0.00     0.031 A 
ATOM     47  C   UNL     1      -4.857  -7.881   4.917  1.00  0.00     0.031 A 
ATOM     48  C   UNL     1      -8.024  -3.829   0.929  1.00  0.00     0.049 A 
ATOM     49  C   UNL     1      -5.891  -8.087   3.846  1.00  0.00     0.074 A 
ATOM     50  C   UNL     1      -8.956  -4.143  -0.046  1.00  0.00     0.029 A 
ATOM     51  N   UNL     1      -7.651  -5.023   1.525  1.00  0.00    -0.354 N 
ATOM     52  N   UNL     1      -6.467  -7.200   3.072  1.00  0.00    -0.248 NA
ATOM     53  C   UNL     1      -6.345  -9.468   3.621  1.00  0.00     0.031 C 
ATOM     54  C   UNL     1      -9.164  -5.526  -0.024  1.00  0.00     0.029 A 
ATOM     55  C   UNL     1      -8.330  -6.075   0.936  1.00  0.00     0.049 A 
ATOM     56  H   UNL     1      -7.000  -5.109   2.258  1.00  0.00     0.167 HD
ATOM     57  C   UNL     1      -7.332  -7.917   2.256  1.00  0.00     0.074 A 
ATOM     58  C   UNL     1      -7.198  -9.312   2.618  1.00  0.00     0.031 C 
ATOM     59  C   UNL     1      -8.167  -7.458   1.293  1.00  0.00     0.031 A 
BRANCH  46  60
ATOM     60  C   UNL     1      -7.964  -1.345   0.505  1.00  0.00    -0.014 A 
ATOM     61  C   UNL     1      -7.149  -0.723  -0.452  1.00  0.00     0.009 A 
ATOM     62  C   UNL     1      -9.269  -0.865   0.705  1.00  0.00     0.009 A 
ATOM     63  C   UNL     1      -7.624   0.373  -1.177  1.00  0.00     0.001 A 
ATOM     64  C   UNL     1      -9.748   0.215  -0.038  1.00  0.00     0.001 A 
ATOM     65  C   UNL     1      -8.923   0.837  -0.973  1.00  0.00     0.000 A 
ENDBRANCH  46  60
BRANCH  47  66
ATOM     66  C   UNL     1      -4.335  -9.040   5.689  1.00  0.00    -0.014 A 
ATOM     67  C   UNL     1      -3.490  -9.979   5.080  1.00  0.00     0.009 A 
ATOM     68  C   UNL     1      -4.699  -9.224   7.032  1.00  0.00     0.009 A 
ATOM     69  C   UNL     1      -3.039 -11.092   5.794  1.00  0.00     0.001 A 
ATOM     70  C   UNL     1      -4.223 -10.321   7.752  1.00  0.00     0.001 A 
ATOM     71  C   UNL     1      -3.401 -11.259   7.130  1.00  0.00     0.000 A 
ENDBRANCH  47  66
BRANCH  59  72
ATOM     72  C   UNL     1      -8.953  -8.478   0.523  1.00  0.00    -0.014 A 
ATOM     73  C   UNL     1     -10.086  -9.092   1.074  1.00  0.00     0.009 A 
ATOM     74  C   UNL     1      -8.574  -8.792  -0.792  1.00  0.00     0.009 A 
ATOM     75  C   UNL     1     -10.813 -10.023   0.330  1.00  0.00     0.001 A 
ATOM     76  C   UNL     1      -9.315  -9.707  -1.540  1.00  0.00     0.001 A 
ATOM     77  C   UNL     1     -10.429 -10.326  -0.977  1.00  0.00     0.000 A 
ENDBRANCH  59  72
ENDBRANCH  33  34
ENDBRANCH  26  28
ENDBRANCH  25  26
ENDBRANCH  24  25
ENDBRANCH  23  24
ENDBRANCH  22  23
ENDBRANCH   1  22
TORSDOF 17
