REMARK SMILES O=C(OCCOC(=O)c1ccc(C[NH2+]C[C@H]2C[C@H](O)C2)nc1)c1ccc(-c2c3nc(c(-c4ccccc4)c4ccc([nH]4)c(-c4ccccc4)c4nc(c(-c5ccccc5)c5ccc2[nH]5)C=C4)C=C3)cc1
REMARK SMILES IDX 6 1 5 2 4 3 3 4 2 5 1 6 23 7 24 8 70 9 25 10 69 11 26 12
REMARK SMILES IDX 27 13 28 14 63 15 29 16 68 17 62 18 64 19 30 20 67 21 61 22
REMARK SMILES IDX 60 23 31 25 53 26 38 27 52 28 39 29 42 30 51 31 65 32 40 33
REMARK SMILES IDX 41 34 50 36 66 37 43 38 32 39 33 40 37 41 34 42 36 43 35 44
REMARK SMILES IDX 54 45 55 46 59 47 56 48 58 49 57 50 44 51 45 52 49 53 46 54
REMARK SMILES IDX 48 55 47 56 7 57 8 58 9 59 10 60 22 61 11 62 21 63 12 64
REMARK SMILES IDX 13 65 14 66 15 69 16 70 20 71 17 72 18 73 19 74
REMARK H PARENT 64 24 42 35 14 67 14 68 19 75
REMARK Flexibility Score: inf
ROOT
ATOM      1  O   UNL     1       3.308  -1.750   1.062  1.00  0.00    -0.458 OA
ENDROOT
BRANCH   1   2
ATOM      2  C   UNL     1       3.779  -0.811   2.041  1.00  0.00     0.275 C 
BRANCH   2   3
ATOM      3  C   UNL     1       4.096   0.572   1.466  1.00  0.00     0.275 C 
BRANCH   3   4
ATOM      4  O   UNL     1       3.139   1.058   0.510  1.00  0.00    -0.458 OA
BRANCH   4   5
ATOM      5  C   UNL     1       3.145   0.955  -0.840  1.00  0.00     0.338 C 
ATOM      6  O   UNL     1       2.411   1.691  -1.496  1.00  0.00    -0.246 OA
BRANCH   5   7
ATOM      7  C   UNL     1       3.865  -0.133  -1.573  1.00  0.00     0.060 A 
ATOM      8  C   UNL     1       5.101  -0.684  -1.227  1.00  0.00     0.016 A 
ATOM      9  C   UNL     1       3.226  -0.626  -2.724  1.00  0.00     0.016 A 
ATOM     10  C   UNL     1       5.638  -1.762  -1.943  1.00  0.00     0.010 A 
ATOM     11  C   UNL     1       3.755  -1.702  -3.440  1.00  0.00     0.010 A 
ATOM     12  C   UNL     1       4.962  -2.287  -3.043  1.00  0.00    -0.014 A 
BRANCH  12  13
ATOM     13  C   UNL     1       5.553  -3.375  -3.850  1.00  0.00     0.031 A 
ATOM     14  C   UNL     1       6.168  -3.036  -5.172  1.00  0.00     0.074 A 
ATOM     15  C   UNL     1       5.523  -4.650  -3.419  1.00  0.00     0.049 A 
ATOM     16  N   UNL     1       6.697  -3.836  -6.058  1.00  0.00    -0.248 NA
ATOM     17  C   UNL     1       6.231  -1.608  -5.527  1.00  0.00     0.031 C 
ATOM     18  C   UNL     1       5.055  -5.090  -2.108  1.00  0.00     0.029 A 
ATOM     19  N   UNL     1       5.854  -5.818  -4.058  1.00  0.00    -0.354 N 
ATOM     20  C   UNL     1       7.197  -3.007  -7.051  1.00  0.00     0.074 A 
ATOM     21  C   UNL     1       6.848  -1.650  -6.697  1.00  0.00     0.031 C 
ATOM     22  C   UNL     1       5.021  -6.433  -2.078  1.00  0.00     0.029 A 
ATOM     23  C   UNL     1       5.474  -6.943  -3.365  1.00  0.00     0.049 A 
ATOM     24  H   UNL     1       6.319  -5.847  -4.926  1.00  0.00     0.167 HD
ATOM     25  C   UNL     1       7.918  -3.351  -8.142  1.00  0.00     0.031 A 
ATOM     26  C   UNL     1       5.461  -8.235  -3.746  1.00  0.00     0.031 A 
ATOM     27  C   UNL     1       8.233  -4.706  -8.497  1.00  0.00     0.049 A 
ATOM     28  C   UNL     1       6.064  -8.592  -5.078  1.00  0.00     0.074 A 
ATOM     29  C   UNL     1       8.999  -5.167  -9.551  1.00  0.00     0.029 A 
ATOM     30  N   UNL     1       7.766  -5.820  -7.817  1.00  0.00    -0.354 N 
ATOM     31  N   UNL     1       6.635  -7.802  -5.954  1.00  0.00    -0.248 NA
ATOM     32  C   UNL     1       6.062 -10.012  -5.454  1.00  0.00     0.031 C 
ATOM     33  C   UNL     1       8.940  -6.564  -9.548  1.00  0.00     0.029 A 
ATOM     34  C   UNL     1       8.178  -6.971  -8.463  1.00  0.00     0.049 A 
ATOM     35  H   UNL     1       7.223  -5.795  -6.997  1.00  0.00     0.167 HD
ATOM     36  C   UNL     1       7.123  -8.635  -6.952  1.00  0.00     0.074 A 
ATOM     37  C   UNL     1       6.765  -9.988  -6.579  1.00  0.00     0.031 C 
ATOM     38  C   UNL     1       7.825  -8.309  -8.064  1.00  0.00     0.031 A 
BRANCH  25  39
ATOM     39  C   UNL     1       8.399  -2.238  -9.023  1.00  0.00    -0.014 A 
ATOM     40  C   UNL     1       9.449  -1.398  -8.617  1.00  0.00     0.009 A 
ATOM     41  C   UNL     1       7.808  -2.034 -10.277  1.00  0.00     0.009 A 
ATOM     42  C   UNL     1       9.878  -0.356  -9.440  1.00  0.00     0.001 A 
ATOM     43  C   UNL     1       8.253  -1.004 -11.107  1.00  0.00     0.001 A 
ATOM     44  C   UNL     1       9.281  -0.162 -10.686  1.00  0.00     0.000 A 
ENDBRANCH  25  39
BRANCH  26  45
ATOM     45  C   UNL     1       4.827  -9.272  -2.889  1.00  0.00    -0.014 A 
ATOM     46  C   UNL     1       5.581 -10.290  -2.290  1.00  0.00     0.009 A 
ATOM     47  C   UNL     1       3.431  -9.277  -2.717  1.00  0.00     0.009 A 
ATOM     48  C   UNL     1       4.949 -11.317  -1.582  1.00  0.00     0.001 A 
ATOM     49  C   UNL     1       2.802 -10.295  -1.997  1.00  0.00     0.001 A 
ATOM     50  C   UNL     1       3.561 -11.322  -1.442  1.00  0.00     0.000 A 
ENDBRANCH  26  45
BRANCH  38  51
ATOM     51  C   UNL     1       8.302  -9.438  -8.930  1.00  0.00    -0.014 A 
ATOM     52  C   UNL     1       7.416 -10.147  -9.753  1.00  0.00     0.009 A 
ATOM     53  C   UNL     1       9.671  -9.749  -8.966  1.00  0.00     0.009 A 
ATOM     54  C   UNL     1       7.892 -11.163 -10.584  1.00  0.00     0.001 A 
ATOM     55  C   UNL     1      10.146 -10.744  -9.819  1.00  0.00     0.001 A 
ATOM     56  C   UNL     1       9.256 -11.454 -10.622  1.00  0.00     0.000 A 
ENDBRANCH  38  51
ENDBRANCH  12  13
ENDBRANCH   5   7
ENDBRANCH   4   5
ENDBRANCH   3   4
ENDBRANCH   2   3
ENDBRANCH   1   2
BRANCH   1  57
ATOM     57  C   UNL     1       1.951  -1.841   0.960  1.00  0.00     0.339 C 
ATOM     58  O   UNL     1       1.125  -1.248   1.615  1.00  0.00    -0.246 OA
BRANCH  57  59
ATOM     59  C   UNL     1       1.624  -2.698  -0.189  1.00  0.00     0.078 A 
ATOM     60  C   UNL     1       2.122  -3.988  -0.331  1.00  0.00     0.019 A 
ATOM     61  C   UNL     1       0.828  -2.182  -1.196  1.00  0.00     0.127 A 
ATOM     62  C   UNL     1       1.855  -4.685  -1.510  1.00  0.00     0.031 A 
ATOM     63  N   UNL     1       0.607  -2.819  -2.375  1.00  0.00    -0.254 NA
ATOM     64  C   UNL     1       1.156  -4.050  -2.537  1.00  0.00     0.094 A 
BRANCH  64  65
ATOM     65  C   UNL     1       1.044  -4.715  -3.901  1.00  0.00     0.317 C 
BRANCH  65  66
ATOM     66  N   UNL     1      -0.229  -5.408  -4.083  1.00  0.00    -0.341 N 
ATOM     67  H   UNL     1      -0.979  -4.717  -4.054  1.00  0.00     0.346 HD
ATOM     68  H   UNL     1      -0.307  -6.096  -3.334  1.00  0.00     0.346 HD
BRANCH  66  69
ATOM     69  C   UNL     1      -0.321  -6.136  -5.346  1.00  0.00     0.264 C 
BRANCH  69  70
ATOM     70  C   UNL     1       0.495  -7.428  -5.338  1.00  0.00     0.049 C 
ATOM     71  C   UNL     1       1.654  -7.540  -6.366  1.00  0.00     0.041 C 
ATOM     72  C   UNL     1      -0.164  -8.629  -6.064  1.00  0.00     0.041 C 
ATOM     73  C   UNL     1       1.221  -8.998  -6.634  1.00  0.00     0.115 C 
BRANCH  73  74
ATOM     74  O   UNL     1       1.950 -10.030  -5.942  1.00  0.00    -0.393 OA
ATOM     75  H   UNL     1       1.982  -9.824  -4.995  1.00  0.00     0.210 HD
ENDBRANCH  73  74
ENDBRANCH  69  70
ENDBRANCH  66  69
ENDBRANCH  65  66
ENDBRANCH  64  65
ENDBRANCH  57  59
ENDBRANCH   1  57
TORSDOF 16
