REMARK SMILES O=C(/C=C/[C@@]12C=C(O)C(=O)C=C1C(=O)C1=Cc3cc(O)c(O)cc3O[C@@H](c3ccc(O)c(O)c3)[C@@H]12)OCCOC(=O)c1ccc(-c2c3nc(c(-c4ccccc4)c4ccc([nH]4)c(-c4ccccc4)c4nc(c(-c5ccccc5)c5ccc2[nH]5)C=C4)C=C3)cc1
REMARK SMILES IDX 1 1 2 2 3 3 4 4 5 5 6 6 12 7 35 8 7 9 11 10 13 11 15 12 9 14
REMARK SMILES IDX 14 15 16 16 10 17 8 18 17 20 18 21 24 22 19 23 23 24 21 25
REMARK SMILES IDX 25 26 26 27 27 29 28 30 34 31 29 32 32 33 30 34 33 35 31 37
REMARK SMILES IDX 20 39 22 41 36 43 37 44 38 45 39 46 40 47 41 48 42 49 43 50
REMARK SMILES IDX 89 51 44 52 88 53 45 54 46 55 47 56 82 57 48 58 87 59 81 60
REMARK SMILES IDX 83 61 49 62 86 63 80 64 79 65 50 67 72 68 57 69 71 70 58 71
REMARK SMILES IDX 61 72 70 73 84 74 59 75 60 76 69 78 85 79 62 80 51 81 52 82
REMARK SMILES IDX 56 83 53 84 55 85 54 86 73 87 74 88 78 89 75 90 77 91 76 92
REMARK SMILES IDX 63 93 64 94 68 95 65 96 67 97 66 98
REMARK H PARENT 8 19 33 36 31 38 20 40 22 42 83 66 61 77
REMARK Flexibility Score: 80.00
ROOT
ATOM      1  O   UNL     1       1.513   1.405   1.091  1.00  0.00    -0.247 OA
ATOM      2  C   UNL     1       2.458   0.814   0.573  1.00  0.00     0.330 C 
ENDROOT
BRANCH   2   3
ATOM      3  C   UNL     1       3.473   1.638  -0.121  1.00  0.00     0.090 C 
ATOM      4  C   UNL     1       4.234   1.376  -1.203  1.00  0.00    -0.003 C 
BRANCH   4   5
ATOM      5  C   UNL     1       5.383   2.233  -1.808  1.00  0.00     0.051 C 
ATOM      6  C   UNL     1       5.320   3.585  -1.161  1.00  0.00     0.040 C 
ATOM      7  C   UNL     1       6.644   1.484  -1.455  1.00  0.00     0.018 C 
ATOM      8  C   UNL     1       5.460   2.185  -3.379  1.00  0.00     0.087 CG0
ATOM      9  C   UNL     1       6.098   3.923  -0.125  1.00  0.00     0.160 C 
ATOM     10  C   UNL     1       7.486   1.797  -0.467  1.00  0.00     0.065 C 
ATOM     11  C   UNL     1       6.784   0.373  -2.445  1.00  0.00     0.186 C 
ATOM     12  C   UNL     1       5.952   0.771  -3.625  1.00  0.00     0.009 C 
ATOM     13  G   UNL     1       6.509   3.016  -4.184  1.00  0.00     0.000 G0
ATOM     14  C   UNL     1       7.198   3.014   0.337  1.00  0.00     0.220 C 
ATOM     15  O   UNL     1       7.440  -0.629  -2.319  1.00  0.00    -0.289 OA
ATOM     16  C   UNL     1       5.811   0.107  -4.779  1.00  0.00     0.020 C 
ATOM     17  O   UNL     1       7.859   3.312   1.324  1.00  0.00    -0.286 OA
BRANCH   9  18
ATOM     18  O   UNL     1       5.882   5.104   0.555  1.00  0.00    -0.504 OA
ATOM     19  H   UNL     1       5.200   5.684   0.280  1.00  0.00     0.293 HD
ENDBRANCH   9  18
BRANCH  16  20
ATOM     20  C   UNL     1       5.199   0.800  -5.929  1.00  0.00     0.021 A 
ATOM     21  C   UNL     1       4.254   0.120  -6.723  1.00  0.00     0.062 A 
ATOM     22  C   UNL     1       5.539   2.129  -6.267  1.00  0.00     0.131 A 
ATOM     23  C   UNL     1       3.654   0.773  -7.802  1.00  0.00     0.158 A 
ATOM     24  C   UNL     1       4.975   2.743  -7.391  1.00  0.00     0.097 A 
ATOM     25  C   UNL     1       4.024   2.070  -8.137  1.00  0.00     0.161 A 
BRANCH  22  26
ATOM     26  O   UNL     1       6.458   2.911  -5.626  1.00  0.00    -0.484 OA
BRANCH  26  27
ATOM     27  C   UNL     1       6.509   3.016  -4.184  1.00  0.00     0.213 CG0
ATOM     28  G   UNL     1       5.460   2.185  -3.379  1.00  0.00     0.000 G0
BRANCH  27  29
ATOM     29  C   UNL     1       6.479   4.491  -3.871  1.00  0.00    -0.003 A 
ATOM     30  C   UNL     1       7.421   4.996  -2.954  1.00  0.00     0.011 A 
ATOM     31  C   UNL     1       5.503   5.343  -4.410  1.00  0.00     0.057 A 
ATOM     32  C   UNL     1       7.293   6.281  -2.452  1.00  0.00     0.050 A 
ATOM     33  C   UNL     1       5.417   6.642  -3.937  1.00  0.00     0.157 A 
ATOM     34  C   UNL     1       6.258   7.069  -2.911  1.00  0.00     0.157 A 
BRANCH  33  35
ATOM     35  O   UNL     1       4.508   7.524  -4.430  1.00  0.00    -0.504 OA
ATOM     36  H   UNL     1       4.472   8.397  -4.091  1.00  0.00     0.293 HD
ENDBRANCH  33  35
BRANCH  34  37
ATOM     37  O   UNL     1       6.032   8.236  -2.250  1.00  0.00    -0.504 OA
ATOM     38  H   UNL     1       6.609   8.505  -1.563  1.00  0.00     0.293 HD
ENDBRANCH  34  37
ENDBRANCH  27  29
ENDBRANCH  26  27
ENDBRANCH  22  26
BRANCH  23  39
ATOM     39  O   UNL     1       2.678   0.186  -8.561  1.00  0.00    -0.504 OA
ATOM     40  H   UNL     1       2.398  -0.687  -8.369  1.00  0.00     0.293 HD
ENDBRANCH  23  39
BRANCH  25  41
ATOM     41  O   UNL     1       3.452   2.705  -9.201  1.00  0.00    -0.504 OA
ATOM     42  H   UNL     1       2.806   2.264  -9.717  1.00  0.00     0.293 HD
ENDBRANCH  25  41
ENDBRANCH  16  20
ENDBRANCH   4   5
ENDBRANCH   2   3
BRANCH   2  43
ATOM     43  O   UNL     1       2.575  -0.523   0.703  1.00  0.00    -0.459 OA
BRANCH  43  44
ATOM     44  C   UNL     1       3.614  -1.392   0.208  1.00  0.00     0.275 C 
BRANCH  44  45
ATOM     45  C   UNL     1       3.137  -2.136  -1.050  1.00  0.00     0.275 C 
BRANCH  45  46
ATOM     46  O   UNL     1       2.700  -1.216  -2.073  1.00  0.00    -0.458 OA
BRANCH  46  47
ATOM     47  C   UNL     1       1.396  -0.824  -2.027  1.00  0.00     0.338 C 
ATOM     48  O   UNL     1       0.504  -1.351  -1.389  1.00  0.00    -0.246 OA
BRANCH  47  49
ATOM     49  C   UNL     1       1.268   0.486  -2.728  1.00  0.00     0.060 A 
ATOM     50  C   UNL     1       2.049   0.783  -3.841  1.00  0.00     0.016 A 
ATOM     51  C   UNL     1       0.415   1.474  -2.218  1.00  0.00     0.016 A 
ATOM     52  C   UNL     1       2.001   2.062  -4.408  1.00  0.00     0.010 A 
ATOM     53  C   UNL     1       0.346   2.749  -2.817  1.00  0.00     0.010 A 
ATOM     54  C   UNL     1       1.143   3.067  -3.924  1.00  0.00    -0.014 A 
BRANCH  54  55
ATOM     55  C   UNL     1       1.040   4.366  -4.668  1.00  0.00     0.031 A 
ATOM     56  C   UNL     1       1.347   5.712  -4.047  1.00  0.00     0.074 A 
ATOM     57  C   UNL     1       0.696   4.337  -5.975  1.00  0.00     0.049 A 
ATOM     58  N   UNL     1       1.346   6.894  -4.624  1.00  0.00    -0.248 NA
ATOM     59  C   UNL     1       1.717   5.751  -2.625  1.00  0.00     0.031 C 
ATOM     60  C   UNL     1       0.361   3.127  -6.729  1.00  0.00     0.029 A 
ATOM     61  N   UNL     1       0.595   5.343  -6.909  1.00  0.00    -0.354 N 
ATOM     62  C   UNL     1       1.684   7.815  -3.636  1.00  0.00     0.074 A 
ATOM     63  C   UNL     1       1.894   7.054  -2.421  1.00  0.00     0.031 C 
ATOM     64  C   UNL     1       0.168   3.447  -8.014  1.00  0.00     0.029 A 
ATOM     65  C   UNL     1       0.275   4.894  -8.169  1.00  0.00     0.049 A 
ATOM     66  H   UNL     1       0.738   6.293  -6.696  1.00  0.00     0.167 HD
ATOM     67  C   UNL     1       1.866   9.156  -3.747  1.00  0.00     0.031 A 
ATOM     68  C   UNL     1       0.057   5.548  -9.328  1.00  0.00     0.031 A 
ATOM     69  C   UNL     1       1.730   9.923  -4.957  1.00  0.00     0.049 A 
ATOM     70  C   UNL     1       0.152   7.043  -9.383  1.00  0.00     0.074 A 
ATOM     71  C   UNL     1       1.990  11.273  -5.137  1.00  0.00     0.029 A 
ATOM     72  N   UNL     1       1.295   9.435  -6.172  1.00  0.00    -0.354 N 
ATOM     73  N   UNL     1       0.560   7.872  -8.456  1.00  0.00    -0.248 NA
ATOM     74  C   UNL     1      -0.267   7.696 -10.634  1.00  0.00     0.031 C 
ATOM     75  C   UNL     1       1.672  11.612  -6.452  1.00  0.00     0.029 A 
ATOM     76  C   UNL     1       1.230  10.469  -7.092  1.00  0.00     0.049 A 
ATOM     77  H   UNL     1       1.065   8.496  -6.357  1.00  0.00     0.167 HD
ATOM     78  C   UNL     1       0.450   9.140  -9.011  1.00  0.00     0.074 A 
ATOM     79  C   UNL     1      -0.046   8.976 -10.359  1.00  0.00     0.031 C 
ATOM     80  C   UNL     1       0.735  10.331  -8.435  1.00  0.00     0.031 A 
BRANCH  67  81
ATOM     81  C   UNL     1       2.315   9.929  -2.540  1.00  0.00    -0.014 A 
ATOM     82  C   UNL     1       1.391  10.457  -1.633  1.00  0.00     0.009 A 
ATOM     83  C   UNL     1       3.664  10.296  -2.421  1.00  0.00     0.009 A 
ATOM     84  C   UNL     1       1.822  11.299  -0.603  1.00  0.00     0.001 A 
ATOM     85  C   UNL     1       4.102  11.098  -1.368  1.00  0.00     0.001 A 
ATOM     86  C   UNL     1       3.177  11.603  -0.460  1.00  0.00     0.000 A 
ENDBRANCH  67  81
BRANCH  68  87
ATOM     87  C   UNL     1      -0.309   4.763 -10.535  1.00  0.00    -0.014 A 
ATOM     88  C   UNL     1      -1.547   4.101 -10.602  1.00  0.00     0.009 A 
ATOM     89  C   UNL     1       0.602   4.612 -11.589  1.00  0.00     0.009 A 
ATOM     90  C   UNL     1      -1.847   3.265 -11.678  1.00  0.00     0.001 A 
ATOM     91  C   UNL     1       0.285   3.800 -12.681  1.00  0.00     0.001 A 
ATOM     92  C   UNL     1      -0.931   3.116 -12.717  1.00  0.00     0.000 A 
ENDBRANCH  68  87
BRANCH  80  93
ATOM     93  C   UNL     1       0.505  11.589  -9.220  1.00  0.00    -0.014 A 
ATOM     94  C   UNL     1       1.596  12.351  -9.670  1.00  0.00     0.009 A 
ATOM     95  C   UNL     1      -0.792  12.097  -9.381  1.00  0.00     0.009 A 
ATOM     96  C   UNL     1       1.393  13.610 -10.240  1.00  0.00     0.001 A 
ATOM     97  C   UNL     1      -0.993  13.347  -9.972  1.00  0.00     0.001 A 
ATOM     98  C   UNL     1       0.099  14.107 -10.389  1.00  0.00     0.000 A 
ENDBRANCH  80  93
ENDBRANCH  54  55
ENDBRANCH  47  49
ENDBRANCH  46  47
ENDBRANCH  45  46
ENDBRANCH  44  45
ENDBRANCH  43  44
ENDBRANCH   2  43
TORSDOF 18
