REMARK SMILES O=C(Cc1ccn[nH]1)Nc1sc2c(c1C(=O)OCCOC(=O)c1ccc(-c3c4nc(c(-c5ccccc5)c5ccc([nH]5)c(-c5ccccc5)c5nc(c(-c6ccccc6)c6ccc3[nH]6)C=C5)C=C4)cc1)CCC2
REMARK SMILES IDX 18 1 17 2 15 3 16 4 14 5 10 6 11 7 12 8 13 9 73 10 71 11
REMARK SMILES IDX 72 12 9 13 1 14 2 15 3 17 4 18 5 19 8 20 6 21 7 22 19 24
REMARK SMILES IDX 20 25 21 26 22 27 23 28 24 29 70 30 25 31 69 32 26 33 27 34
REMARK SMILES IDX 28 35 63 36 29 37 68 38 62 39 64 40 30 41 67 42 61 43 60 44
REMARK SMILES IDX 31 46 53 47 38 48 52 49 39 50 42 51 51 52 65 53 40 54 41 55
REMARK SMILES IDX 50 57 66 58 43 59 32 60 33 61 37 62 34 63 36 64 35 65 54 66
REMARK SMILES IDX 55 67 59 68 56 69 58 70 57 71 44 72 45 73 49 74 46 75 48 76
REMARK SMILES IDX 47 77
REMARK H PARENT 9 16 8 23 64 45 42 56
REMARK Flexibility Score: inf
ROOT
ATOM      1  C   UNL     1      -0.682  -3.248  -2.405  1.00  0.00     0.275 C 
ENDROOT
BRANCH   1   2
ATOM      2  O   UNL     1      -0.128  -3.433  -1.089  1.00  0.00    -0.458 OA
BRANCH   2   3
ATOM      3  C   UNL     1       0.991  -2.707  -0.768  1.00  0.00     0.341 C 
ATOM      4  O   UNL     1       1.528  -1.917  -1.537  1.00  0.00    -0.246 OA
BRANCH   3   5
ATOM      5  C   UNL     1       1.529  -3.054   0.550  1.00  0.00     0.098 A 
ATOM      6  C   UNL     1       2.709  -2.542   1.088  1.00  0.00     0.110 A 
ATOM      7  S   UNL     1       3.238  -3.339   2.510  1.00  0.00    -0.122 S 
ATOM      8  C   UNL     1       1.808  -4.199   2.562  1.00  0.00     0.011 A 
ATOM      9  C   UNL     1       1.002  -4.008   1.474  1.00  0.00    -0.017 A 
ATOM     10  C   UNL     1       1.286  -5.168   3.551  1.00  0.00     0.047 C 
ATOM     11  C   UNL     1      -0.200  -4.881   1.547  1.00  0.00     0.038 C 
ATOM     12  C   UNL     1      -0.165  -5.387   3.023  1.00  0.00     0.010 C 
BRANCH   6  13
ATOM     13  N   UNL     1       3.541  -1.517   0.689  1.00  0.00    -0.317 N 
ATOM     14  O   UNL     1       2.004   0.109   1.262  1.00  0.00    -0.274 OA
ATOM     15  C   UNL     1       3.046  -0.225   0.703  1.00  0.00     0.230 C 
ATOM     16  H   UNL     1       4.464  -1.700   0.401  1.00  0.00     0.170 HD
BRANCH  15  17
ATOM     17  C   UNL     1       3.937   0.794   0.017  1.00  0.00     0.155 C 
BRANCH  17  18
ATOM     18  C   UNL     1       4.646   1.656   1.004  1.00  0.00     0.044 A 
ATOM     19  C   UNL     1       5.713   1.419   1.846  1.00  0.00     0.045 A 
ATOM     20  N   UNL     1       4.298   2.966   1.217  1.00  0.00    -0.282 N 
ATOM     21  C   UNL     1       5.959   2.653   2.476  1.00  0.00     0.135 A 
ATOM     22  N   UNL     1       5.118   3.604   2.069  1.00  0.00    -0.184 NA
ATOM     23  H   UNL     1       3.523   3.397   0.788  1.00  0.00     0.190 HD
ENDBRANCH  17  18
ENDBRANCH  15  17
ENDBRANCH   6  13
ENDBRANCH   3   5
ENDBRANCH   2   3
ENDBRANCH   1   2
BRANCH   1  24
ATOM     24  C   UNL     1      -1.796  -2.204  -2.441  1.00  0.00     0.275 C 
BRANCH  24  25
ATOM     25  O   UNL     1      -1.286  -0.881  -2.266  1.00  0.00    -0.458 OA
BRANCH  25  26
ATOM     26  C   UNL     1      -1.205  -0.496  -0.971  1.00  0.00     0.338 C 
ATOM     27  O   UNL     1      -1.451  -1.182   0.006  1.00  0.00    -0.246 OA
BRANCH  26  28
ATOM     28  C   UNL     1      -0.845   0.925  -0.885  1.00  0.00     0.060 A 
ATOM     29  C   UNL     1      -0.453   1.395   0.370  1.00  0.00     0.016 A 
ATOM     30  C   UNL     1      -1.045   1.804  -1.957  1.00  0.00     0.016 A 
ATOM     31  C   UNL     1      -0.334   2.750   0.589  1.00  0.00     0.010 A 
ATOM     32  C   UNL     1      -0.960   3.167  -1.734  1.00  0.00     0.010 A 
ATOM     33  C   UNL     1      -0.661   3.623  -0.446  1.00  0.00    -0.014 A 
BRANCH  33  34
ATOM     34  C   UNL     1      -0.784   5.025  -0.092  1.00  0.00     0.031 A 
ATOM     35  C   UNL     1       0.473   5.794   0.070  1.00  0.00     0.074 A 
ATOM     36  C   UNL     1      -2.002   5.588   0.012  1.00  0.00     0.049 A 
ATOM     37  N   UNL     1       0.847   6.511   1.079  1.00  0.00    -0.248 NA
ATOM     38  C   UNL     1       1.463   5.715  -1.015  1.00  0.00     0.031 C 
ATOM     39  C   UNL     1      -3.288   5.011  -0.391  1.00  0.00     0.029 A 
ATOM     40  N   UNL     1      -2.326   6.861   0.368  1.00  0.00    -0.354 N 
ATOM     41  C   UNL     1       2.049   7.104   0.705  1.00  0.00     0.074 A 
ATOM     42  C   UNL     1       2.432   6.503  -0.549  1.00  0.00     0.031 C 
ATOM     43  C   UNL     1      -4.193   6.005  -0.508  1.00  0.00     0.029 A 
ATOM     44  C   UNL     1      -3.577   7.251  -0.080  1.00  0.00     0.049 A 
ATOM     45  H   UNL     1      -1.731   7.445   0.891  1.00  0.00     0.167 HD
ATOM     46  C   UNL     1       2.557   8.194   1.341  1.00  0.00     0.031 A 
ATOM     47  C   UNL     1      -4.023   8.522  -0.211  1.00  0.00     0.031 A 
ATOM     48  C   UNL     1       2.028   8.363   2.664  1.00  0.00     0.049 A 
ATOM     49  C   UNL     1      -3.161   9.401   0.614  1.00  0.00     0.074 A 
ATOM     50  C   UNL     1       2.012   7.586   3.806  1.00  0.00     0.029 A 
ATOM     51  N   UNL     1       1.101   9.354   2.879  1.00  0.00    -0.354 N 
ATOM     52  N   UNL     1      -3.153   9.394   1.916  1.00  0.00    -0.248 NA
ATOM     53  C   UNL     1      -1.991  10.000  -0.011  1.00  0.00     0.031 C 
ATOM     54  C   UNL     1       0.749   7.848   4.413  1.00  0.00     0.029 A 
ATOM     55  C   UNL     1       0.094   8.790   3.619  1.00  0.00     0.049 A 
ATOM     56  H   UNL     1       1.151  10.285   2.563  1.00  0.00     0.167 HD
ATOM     57  C   UNL     1      -1.825   9.589   2.266  1.00  0.00     0.074 A 
ATOM     58  C   UNL     1      -1.177  10.065   1.047  1.00  0.00     0.031 C 
ATOM     59  C   UNL     1      -1.309   9.077   3.425  1.00  0.00     0.031 A 
BRANCH  46  60
ATOM     60  C   UNL     1       3.277   9.296   0.610  1.00  0.00    -0.014 A 
ATOM     61  C   UNL     1       3.891  10.325   1.344  1.00  0.00     0.009 A 
ATOM     62  C   UNL     1       3.137   9.500  -0.777  1.00  0.00     0.009 A 
ATOM     63  C   UNL     1       4.295  11.515   0.726  1.00  0.00     0.001 A 
ATOM     64  C   UNL     1       3.579  10.667  -1.404  1.00  0.00     0.001 A 
ATOM     65  C   UNL     1       4.136  11.687  -0.646  1.00  0.00     0.000 A 
ENDBRANCH  46  60
BRANCH  47  66
ATOM     66  C   UNL     1      -4.923   9.036  -1.266  1.00  0.00    -0.014 A 
ATOM     67  C   UNL     1      -5.541  10.287  -1.140  1.00  0.00     0.009 A 
ATOM     68  C   UNL     1      -4.999   8.393  -2.518  1.00  0.00     0.009 A 
ATOM     69  C   UNL     1      -6.193  10.878  -2.231  1.00  0.00     0.001 A 
ATOM     70  C   UNL     1      -5.659   8.975  -3.603  1.00  0.00     0.001 A 
ATOM     71  C   UNL     1      -6.245  10.226  -3.462  1.00  0.00     0.000 A 
ENDBRANCH  47  66
BRANCH  59  72
ATOM     72  C   UNL     1      -2.263   8.476   4.427  1.00  0.00    -0.014 A 
ATOM     73  C   UNL     1      -3.109   7.397   4.110  1.00  0.00     0.009 A 
ATOM     74  C   UNL     1      -2.190   8.888   5.766  1.00  0.00     0.009 A 
ATOM     75  C   UNL     1      -3.885   6.778   5.093  1.00  0.00     0.001 A 
ATOM     76  C   UNL     1      -2.950   8.255   6.753  1.00  0.00     0.001 A 
ATOM     77  C   UNL     1      -3.802   7.205   6.416  1.00  0.00     0.000 A 
ENDBRANCH  59  72
ENDBRANCH  33  34
ENDBRANCH  26  28
ENDBRANCH  25  26
ENDBRANCH  24  25
ENDBRANCH   1  24
TORSDOF 14
