REMARK SMILES O=C(NC[C@@H]1CC[C@H](C(=O)OCCOC(=O)c2ccc(-c3c4nc(c(-c5ccccc5)c5ccc([nH]5)c(-c5ccccc5)c5nc(c(-c6ccccc6)c6ccc3[nH]6)C=C5)C=C4)cc2)O1)Nc1ncccn1
REMARK SMILES IDX 12 1 11 2 9 3 10 4 8 5 5 6 6 7 65 8 7 9 4 10 3 11 1 12 2 13
REMARK SMILES IDX 66 14 67 17 68 18 72 19 69 20 71 21 70 22 13 23 14 24 15 25
REMARK SMILES IDX 16 26 17 27 18 28 64 29 19 30 63 31 20 32 21 33 22 34 57 35
REMARK SMILES IDX 23 36 62 37 56 38 58 39 24 40 61 41 55 42 54 43 25 45 47 46
REMARK SMILES IDX 32 47 46 48 33 49 36 50 45 51 59 52 34 53 35 54 44 56 60 57
REMARK SMILES IDX 37 58 26 59 27 60 31 61 28 62 30 63 29 64 48 65 49 66 53 67
REMARK SMILES IDX 50 68 52 69 51 70 38 71 39 72 43 73 40 74 42 75 41 76
REMARK H PARENT 3 15 66 16 58 44 36 55
REMARK Flexibility Score: inf
ROOT
ATOM      1  C   UNL     1       0.844  -2.007  -2.496  1.00  0.00     0.274 C 
ENDROOT
BRANCH   1   2
ATOM      2  O   UNL     1       2.030  -1.277  -2.866  1.00  0.00    -0.460 OA
BRANCH   2   3
ATOM      3  C   UNL     1       3.205  -1.939  -2.702  1.00  0.00     0.335 C 
ATOM      4  O   UNL     1       3.310  -3.095  -2.304  1.00  0.00    -0.249 OA
BRANCH   3   5
ATOM      5  C   UNL     1       4.426  -1.084  -3.059  1.00  0.00     0.228 C 
ATOM      6  C   UNL     1       4.843   0.935  -1.965  1.00  0.00     0.138 C 
ATOM      7  C   UNL     1       4.045   1.258  -3.223  1.00  0.00     0.037 C 
ATOM      8  O   UNL     1       4.974  -0.490  -1.880  1.00  0.00    -0.361 OA
ATOM      9  C   UNL     1       4.215   0.025  -4.075  1.00  0.00     0.047 C 
BRANCH   6  10
ATOM     10  C   UNL     1       4.259   1.470  -0.646  1.00  0.00     0.149 C 
BRANCH  10  11
ATOM     11  N   UNL     1       2.824   1.242  -0.526  1.00  0.00    -0.335 N 
ATOM     12  O   UNL     1       0.886   0.314  -0.084  1.00  0.00    -0.248 OA
ATOM     13  C   UNL     1       2.088   0.336   0.168  1.00  0.00     0.321 C 
ATOM     14  N   UNL     1       2.730  -0.400   1.102  1.00  0.00    -0.276 N 
ATOM     15  H   UNL     1       2.280   1.870  -1.053  1.00  0.00     0.165 HD
ATOM     16  H   UNL     1       3.695  -0.246   1.223  1.00  0.00     0.175 HD
BRANCH  14  17
ATOM     17  C   UNL     1       2.124  -1.358   1.904  1.00  0.00     0.230 A 
ATOM     18  N   UNL     1       2.807  -1.663   3.021  1.00  0.00    -0.221 NA
ATOM     19  N   UNL     1       0.939  -1.894   1.580  1.00  0.00    -0.221 NA
ATOM     20  C   UNL     1       2.209  -2.515   3.878  1.00  0.00     0.117 A 
ATOM     21  C   UNL     1       0.399  -2.762   2.453  1.00  0.00     0.117 A 
ATOM     22  C   UNL     1       0.989  -3.101   3.643  1.00  0.00     0.040 A 
ENDBRANCH  14  17
ENDBRANCH  10  11
ENDBRANCH   6  10
ENDBRANCH   3   5
ENDBRANCH   2   3
ENDBRANCH   1   2
BRANCH   1  23
ATOM     23  C   UNL     1       0.131  -2.583  -3.722  1.00  0.00     0.275 C 
BRANCH  23  24
ATOM     24  O   UNL     1       0.945  -3.546  -4.418  1.00  0.00    -0.458 OA
BRANCH  24  25
ATOM     25  C   UNL     1       1.662  -3.053  -5.454  1.00  0.00     0.338 C 
ATOM     26  O   UNL     1       1.671  -1.914  -5.886  1.00  0.00    -0.246 OA
BRANCH  25  27
ATOM     27  C   UNL     1       2.582  -4.089  -5.941  1.00  0.00     0.060 A 
ATOM     28  C   UNL     1       3.937  -3.957  -5.634  1.00  0.00     0.016 A 
ATOM     29  C   UNL     1       2.133  -5.134  -6.749  1.00  0.00     0.016 A 
ATOM     30  C   UNL     1       4.857  -4.877  -6.122  1.00  0.00     0.010 A 
ATOM     31  C   UNL     1       3.058  -6.063  -7.237  1.00  0.00     0.010 A 
ATOM     32  C   UNL     1       4.424  -5.939  -6.925  1.00  0.00    -0.014 A 
BRANCH  32  33
ATOM     33  C   UNL     1       5.411  -6.916  -7.439  1.00  0.00     0.031 A 
ATOM     34  C   UNL     1       5.809  -6.898  -8.884  1.00  0.00     0.074 A 
ATOM     35  C   UNL     1       5.963  -7.806  -6.593  1.00  0.00     0.049 A 
ATOM     36  N   UNL     1       6.581  -7.730  -9.537  1.00  0.00    -0.248 NA
ATOM     37  C   UNL     1       5.272  -5.801  -9.704  1.00  0.00     0.031 C 
ATOM     38  C   UNL     1       5.697  -7.884  -5.155  1.00  0.00     0.029 A 
ATOM     39  N   UNL     1       6.861  -8.816  -6.824  1.00  0.00    -0.354 N 
ATOM     40  C   UNL     1       6.609  -7.268 -10.846  1.00  0.00     0.074 A 
ATOM     41  C   UNL     1       5.769  -6.090 -10.899  1.00  0.00     0.031 C 
ATOM     42  C   UNL     1       6.418  -8.889  -4.632  1.00  0.00     0.029 A 
ATOM     43  C   UNL     1       7.150  -9.556  -5.704  1.00  0.00     0.049 A 
ATOM     44  H   UNL     1       7.259  -8.994  -7.706  1.00  0.00     0.167 HD
ATOM     45  C   UNL     1       7.275  -7.783 -11.907  1.00  0.00     0.031 A 
ATOM     46  C   UNL     1       7.892 -10.670  -5.563  1.00  0.00     0.031 A 
ATOM     47  C   UNL     1       8.104  -8.957 -11.852  1.00  0.00     0.049 A 
ATOM     48  C   UNL     1       8.553 -11.267  -6.772  1.00  0.00     0.074 A 
ATOM     49  C   UNL     1       8.816  -9.560 -12.875  1.00  0.00     0.029 A 
ATOM     50  N   UNL     1       8.333  -9.707 -10.709  1.00  0.00    -0.354 N 
ATOM     51  N   UNL     1       8.554 -10.835  -8.009  1.00  0.00    -0.248 NA
ATOM     52  C   UNL     1       9.305 -12.513  -6.566  1.00  0.00     0.031 C 
ATOM     53  C   UNL     1       9.442 -10.700 -12.358  1.00  0.00     0.029 A 
ATOM     54  C   UNL     1       9.155 -10.780 -11.005  1.00  0.00     0.049 A 
ATOM     55  H   UNL     1       7.965  -9.506  -9.818  1.00  0.00     0.167 HD
ATOM     56  C   UNL     1       9.309 -11.751  -8.728  1.00  0.00     0.074 A 
ATOM     57  C   UNL     1       9.771 -12.749  -7.784  1.00  0.00     0.031 C 
ATOM     58  C   UNL     1       9.591 -11.768 -10.053  1.00  0.00     0.031 A 
BRANCH  45  59
ATOM     59  C   UNL     1       7.101  -7.096 -13.230  1.00  0.00    -0.014 A 
ATOM     60  C   UNL     1       7.742  -5.879 -13.508  1.00  0.00     0.009 A 
ATOM     61  C   UNL     1       6.315  -7.696 -14.226  1.00  0.00     0.009 A 
ATOM     62  C   UNL     1       7.578  -5.264 -14.752  1.00  0.00     0.001 A 
ATOM     63  C   UNL     1       6.170  -7.090 -15.475  1.00  0.00     0.001 A 
ATOM     64  C   UNL     1       6.797  -5.872 -15.735  1.00  0.00     0.000 A 
ENDBRANCH  45  59
BRANCH  46  65
ATOM     65  C   UNL     1       8.000 -11.325  -4.235  1.00  0.00    -0.014 A 
ATOM     66  C   UNL     1       9.206 -11.307  -3.521  1.00  0.00     0.009 A 
ATOM     67  C   UNL     1       6.889 -11.980  -3.678  1.00  0.00     0.009 A 
ATOM     68  C   UNL     1       9.302 -11.946  -2.282  1.00  0.00     0.001 A 
ATOM     69  C   UNL     1       6.981 -12.595  -2.428  1.00  0.00     0.001 A 
ATOM     70  C   UNL     1       8.190 -12.584  -1.735  1.00  0.00     0.000 A 
ENDBRANCH  46  65
BRANCH  58  71
ATOM     71  C   UNL     1      10.445 -12.897 -10.550  1.00  0.00    -0.014 A 
ATOM     72  C   UNL     1       9.915 -14.187 -10.708  1.00  0.00     0.009 A 
ATOM     73  C   UNL     1      11.786 -12.663 -10.890  1.00  0.00     0.009 A 
ATOM     74  C   UNL     1      10.721 -15.228 -11.170  1.00  0.00     0.001 A 
ATOM     75  C   UNL     1      12.583 -13.701 -11.374  1.00  0.00     0.001 A 
ATOM     76  C   UNL     1      12.053 -14.983 -11.506  1.00  0.00     0.000 A 
ENDBRANCH  58  71
ENDBRANCH  32  33
ENDBRANCH  25  27
ENDBRANCH  24  25
ENDBRANCH  23  24
ENDBRANCH   1  23
TORSDOF 14
