REMARK SMILES C[C@@H](C(=O)OCCOC(=O)c1ccc(-c2c3nc(c(-c4ccccc4)c4ccc([nH]4)c(-c4ccccc4)c4nc(c(-c5ccccc5)c5ccc2[nH]5)C=C4)C=C3)cc1)c1ccc(N[C@H]2CCC[C@@H]2O)cc1F
REMARK SMILES IDX 6 1 5 2 3 3 4 4 2 5 1 6 59 7 60 8 71 9 61 10 70 11 72 12
REMARK SMILES IDX 62 13 63 14 64 16 65 17 68 18 66 19 67 20 69 21 7 23 8 24
REMARK SMILES IDX 9 25 10 26 11 27 12 28 58 29 13 30 57 31 14 32 15 33 16 34
REMARK SMILES IDX 51 35 17 36 56 37 50 38 52 39 18 40 55 41 49 42 48 43 19 45
REMARK SMILES IDX 41 46 26 47 40 48 27 49 30 50 39 51 53 52 28 53 29 54 38 56
REMARK SMILES IDX 54 57 31 58 20 59 21 60 25 61 22 62 24 63 23 64 42 65 43 66
REMARK SMILES IDX 47 67 44 68 46 69 45 70 32 71 33 72 37 73 34 74 36 75 35 76
REMARK H PARENT 63 15 69 22 52 44 30 55
REMARK Flexibility Score: inf
ROOT
ATOM      1  C   UNL     1       2.732  -1.215   3.592  1.00  0.00     0.274 C 
ENDROOT
BRANCH   1   2
ATOM      2  O   UNL     1       2.312  -1.004   2.229  1.00  0.00    -0.462 OA
BRANCH   2   3
ATOM      3  C   UNL     1       1.178  -1.647   1.831  1.00  0.00     0.313 C 
ATOM      4  O   UNL     1       0.527  -2.385   2.562  1.00  0.00    -0.252 OA
BRANCH   3   5
ATOM      5  C   UNL     1       0.846  -1.388   0.352  1.00  0.00     0.129 C 
ATOM      6  C   UNL     1       1.623  -0.205  -0.239  1.00  0.00     0.025 C 
BRANCH   5   7
ATOM      7  C   UNL     1      -0.659  -1.280   0.131  1.00  0.00     0.002 A 
ATOM      8  C   UNL     1      -1.338  -0.060   0.037  1.00  0.00     0.010 A 
ATOM      9  C   UNL     1      -1.434  -2.441   0.086  1.00  0.00     0.129 A 
ATOM     10  C   UNL     1      -2.737  -0.019  -0.092  1.00  0.00     0.026 A 
ATOM     11  C   UNL     1      -2.826  -2.395  -0.026  1.00  0.00     0.065 A 
ATOM     12  F   UNL     1      -0.840  -3.641   0.171  1.00  0.00    -0.207 F 
ATOM     13  C   UNL     1      -3.514  -1.179  -0.117  1.00  0.00     0.037 A 
BRANCH  13  14
ATOM     14  N   UNL     1      -4.890  -1.202  -0.175  1.00  0.00    -0.380 N 
ATOM     15  H   UNL     1      -5.285  -2.103  -0.148  1.00  0.00     0.160 HD
BRANCH  14  16
ATOM     16  C   UNL     1      -5.862  -0.115  -0.271  1.00  0.00     0.107 C 
ATOM     17  C   UNL     1      -5.810   0.884   0.884  1.00  0.00     0.027 C 
ATOM     18  C   UNL     1      -5.782   0.720  -1.564  1.00  0.00     0.136 C 
ATOM     19  C   UNL     1      -5.727   2.270   0.253  1.00  0.00     0.005 C 
ATOM     20  C   UNL     1      -6.305   2.089  -1.137  1.00  0.00     0.034 C 
BRANCH  18  21
ATOM     21  O   UNL     1      -6.578   0.190  -2.618  1.00  0.00    -0.391 OA
ATOM     22  H   UNL     1      -7.503   0.142  -2.332  1.00  0.00     0.211 HD
ENDBRANCH  18  21
ENDBRANCH  14  16
ENDBRANCH  13  14
ENDBRANCH   5   7
ENDBRANCH   3   5
ENDBRANCH   2   3
ENDBRANCH   1   2
BRANCH   1  23
ATOM     23  C   UNL     1       2.327  -0.045   4.490  1.00  0.00     0.275 C 
BRANCH  23  24
ATOM     24  O   UNL     1       0.915  -0.069   4.774  1.00  0.00    -0.458 OA
BRANCH  24  25
ATOM     25  C   UNL     1       0.164   0.805   4.068  1.00  0.00     0.338 C 
ATOM     26  O   UNL     1       0.545   1.620   3.245  1.00  0.00    -0.246 OA
BRANCH  25  27
ATOM     27  C   UNL     1      -1.260   0.578   4.357  1.00  0.00     0.060 A 
ATOM     28  C   UNL     1      -1.955  -0.271   3.508  1.00  0.00     0.016 A 
ATOM     29  C   UNL     1      -1.941   1.298   5.340  1.00  0.00     0.016 A 
ATOM     30  C   UNL     1      -3.341  -0.337   3.574  1.00  0.00     0.010 A 
ATOM     31  C   UNL     1      -3.338   1.173   5.449  1.00  0.00     0.010 A 
ATOM     32  C   UNL     1      -4.064   0.390   4.535  1.00  0.00    -0.014 A 
BRANCH  32  33
ATOM     33  C   UNL     1      -5.559   0.354   4.481  1.00  0.00     0.031 A 
ATOM     34  C   UNL     1      -6.356   1.599   4.158  1.00  0.00     0.074 A 
ATOM     35  C   UNL     1      -6.204  -0.832   4.519  1.00  0.00     0.049 A 
ATOM     36  N   UNL     1      -7.641   1.710   3.903  1.00  0.00    -0.248 NA
ATOM     37  C   UNL     1      -5.622   2.870   4.054  1.00  0.00     0.031 C 
ATOM     38  C   UNL     1      -5.568  -2.133   4.740  1.00  0.00     0.029 A 
ATOM     39  N   UNL     1      -7.529  -1.145   4.315  1.00  0.00    -0.354 N 
ATOM     40  C   UNL     1      -7.847   3.037   3.546  1.00  0.00     0.074 A 
ATOM     41  C   UNL     1      -6.582   3.718   3.709  1.00  0.00     0.031 C 
ATOM     42  C   UNL     1      -6.485  -3.102   4.598  1.00  0.00     0.029 A 
ATOM     43  C   UNL     1      -7.788  -2.495   4.352  1.00  0.00     0.049 A 
ATOM     44  H   UNL     1      -8.224  -0.466   4.158  1.00  0.00     0.167 HD
ATOM     45  C   UNL     1      -8.965   3.629   3.060  1.00  0.00     0.031 A 
ATOM     46  C   UNL     1      -8.943  -3.179   4.230  1.00  0.00     0.031 A 
ATOM     47  C   UNL     1     -10.239   2.986   2.893  1.00  0.00     0.049 A 
ATOM     48  C   UNL     1     -10.225  -2.437   3.993  1.00  0.00     0.074 A 
ATOM     49  C   UNL     1     -11.421   3.528   2.417  1.00  0.00     0.029 A 
ATOM     50  N   UNL     1     -10.504   1.667   3.211  1.00  0.00    -0.354 N 
ATOM     51  N   UNL     1     -10.401  -1.179   3.677  1.00  0.00    -0.248 NA
ATOM     52  C   UNL     1     -11.471  -3.208   4.120  1.00  0.00     0.031 C 
ATOM     53  C   UNL     1     -12.418   2.549   2.497  1.00  0.00     0.029 A 
ATOM     54  C   UNL     1     -11.843   1.388   2.987  1.00  0.00     0.049 A 
ATOM     55  H   UNL     1      -9.841   1.021   3.546  1.00  0.00     0.167 HD
ATOM     56  C   UNL     1     -11.774  -1.007   3.565  1.00  0.00     0.074 A 
ATOM     57  C   UNL     1     -12.385  -2.294   3.822  1.00  0.00     0.031 C 
ATOM     58  C   UNL     1     -12.462   0.123   3.273  1.00  0.00     0.031 A 
BRANCH  45  59
ATOM     59  C   UNL     1      -8.854   5.063   2.632  1.00  0.00    -0.014 A 
ATOM     60  C   UNL     1      -8.350   5.383   1.362  1.00  0.00     0.009 A 
ATOM     61  C   UNL     1      -9.321   6.092   3.462  1.00  0.00     0.009 A 
ATOM     62  C   UNL     1      -8.293   6.711   0.937  1.00  0.00     0.001 A 
ATOM     63  C   UNL     1      -9.277   7.418   3.028  1.00  0.00     0.001 A 
ATOM     64  C   UNL     1      -8.759   7.727   1.769  1.00  0.00     0.000 A 
ENDBRANCH  45  59
BRANCH  46  65
ATOM     65  C   UNL     1      -8.958  -4.655   4.418  1.00  0.00    -0.014 A 
ATOM     66  C   UNL     1      -9.302  -5.518   3.368  1.00  0.00     0.009 A 
ATOM     67  C   UNL     1      -8.655  -5.204   5.675  1.00  0.00     0.009 A 
ATOM     68  C   UNL     1      -9.351  -6.899   3.577  1.00  0.00     0.001 A 
ATOM     69  C   UNL     1      -8.675  -6.585   5.873  1.00  0.00     0.001 A 
ATOM     70  C   UNL     1      -9.031  -7.431   4.827  1.00  0.00     0.000 A 
ENDBRANCH  46  65
BRANCH  58  71
ATOM     71  C   UNL     1     -13.959   0.026   3.229  1.00  0.00    -0.014 A 
ATOM     72  C   UNL     1     -14.705  -0.067   4.414  1.00  0.00     0.009 A 
ATOM     73  C   UNL     1     -14.634   0.053   1.999  1.00  0.00     0.009 A 
ATOM     74  C   UNL     1     -16.097  -0.155   4.367  1.00  0.00     0.001 A 
ATOM     75  C   UNL     1     -16.028  -0.012   1.956  1.00  0.00     0.001 A 
ATOM     76  C   UNL     1     -16.758  -0.123   3.139  1.00  0.00     0.000 A 
ENDBRANCH  58  71
ENDBRANCH  32  33
ENDBRANCH  25  27
ENDBRANCH  24  25
ENDBRANCH  23  24
ENDBRANCH   1  23
TORSDOF 15
