REMARK SMILES COc1ccc([C@@H]2[C@@H](C(=O)c3cccc4c3CCCC4)[C@H](C(=O)OCCOC(=O)c3ccc(-c4c5nc(c(-c6ccccc6)c6ccc([nH]6)c(-c6ccccc6)c6nc(c(-c7ccccc7)c7ccc4[nH]7)C=C6)C=C5)cc3)SC3=NC(=O)S[C@H]32)cc1
REMARK SMILES IDX 25 1 24 2 22 3 23 4 21 5 7 6 8 7 84 8 79 9 83 10 78 11 80 12
REMARK SMILES IDX 81 13 82 14 6 15 3 16 4 17 86 18 5 19 85 20 2 21 1 22 9 23
REMARK SMILES IDX 10 24 11 25 12 26 16 27 13 28 15 29 17 30 14 31 20 32 18 33
REMARK SMILES IDX 19 34 26 35 27 36 28 37 29 38 30 39 31 40 77 41 32 42 76 43
REMARK SMILES IDX 33 44 34 45 35 46 70 47 36 48 75 49 69 50 71 51 37 52 74 53
REMARK SMILES IDX 68 54 67 55 38 57 60 58 45 59 59 60 46 61 49 62 58 63 72 64
REMARK SMILES IDX 47 65 48 66 57 68 73 69 50 70 39 71 40 72 44 73 41 74 43 75
REMARK SMILES IDX 42 76 61 77 62 78 66 79 63 80 65 81 64 82 51 83 52 84 56 85
REMARK SMILES IDX 53 86 55 87 54 88
REMARK H PARENT 71 56 49 67
REMARK Flexibility Score: inf
ROOT
ATOM      1  C   UNL     1       6.483  -8.586  -0.925  1.00  0.00     0.274 C 
ENDROOT
BRANCH   1   2
ATOM      2  O   UNL     1       5.243  -7.916  -1.322  1.00  0.00    -0.461 OA
BRANCH   2   3
ATOM      3  C   UNL     1       4.417  -8.653  -2.115  1.00  0.00     0.320 C 
ATOM      4  O   UNL     1       4.737  -9.774  -2.516  1.00  0.00    -0.251 OA
BRANCH   3   5
ATOM      5  C   UNL     1       3.133  -7.955  -2.672  1.00  0.00     0.174 C 
ATOM      6  C   UNL     1       1.495  -5.811  -2.623  1.00  0.00     0.052 C 
ATOM      7  C   UNL     1       2.392  -6.858  -1.873  1.00  0.00     0.095 C 
ATOM      8  C   UNL     1       2.024  -5.327  -3.989  1.00  0.00     0.121 C 
ATOM      9  C   UNL     1       2.432  -6.481  -4.837  1.00  0.00     0.093 C 
ATOM     10  S   UNL     1       0.724  -4.561  -5.020  1.00  0.00    -0.052 SA
ATOM     11  S   UNL     1       3.799  -7.368  -4.310  1.00  0.00    -0.093 SA
ATOM     12  N   UNL     1       1.815  -6.786  -5.923  1.00  0.00    -0.200 NA
ATOM     13  C   UNL     1       0.805  -5.897  -6.169  1.00  0.00     0.306 C 
ATOM     14  O   UNL     1      -0.001  -5.996  -7.078  1.00  0.00    -0.259 OA
BRANCH   6  15
ATOM     15  C   UNL     1       1.272  -4.560  -1.750  1.00  0.00    -0.042 A 
ATOM     16  C   UNL     1       0.825  -2.243  -0.211  1.00  0.00     0.118 A 
ATOM     17  C   UNL     1      -0.236  -3.080  -0.548  1.00  0.00     0.047 A 
ATOM     18  C   UNL     1       2.120  -2.577  -0.596  1.00  0.00     0.047 A 
ATOM     19  C   UNL     1      -0.019  -4.221  -1.326  1.00  0.00     0.008 A 
ATOM     20  C   UNL     1       2.341  -3.726  -1.362  1.00  0.00     0.008 A 
BRANCH  16  21
ATOM     21  O   UNL     1       0.530  -1.147   0.553  1.00  0.00    -0.497 OA
ATOM     22  C   UNL     1       1.070   0.061   0.018  1.00  0.00     0.278 C 
ENDBRANCH  16  21
ENDBRANCH   6  15
BRANCH   7  23
ATOM     23  C   UNL     1       1.675  -7.236  -0.538  1.00  0.00     0.168 C 
ATOM     24  O   UNL     1       2.249  -6.678   0.422  1.00  0.00    -0.294 OA
BRANCH  23  25
ATOM     25  C   UNL     1       0.150  -7.927  -0.221  1.00  0.00     0.021 A 
ATOM     26  C   UNL     1      -0.228  -7.310   0.924  1.00  0.00     0.012 A 
ATOM     27  C   UNL     1      -0.002  -9.350   0.049  1.00  0.00    -0.034 A 
ATOM     28  C   UNL     1       0.513  -7.845   1.965  1.00  0.00     0.001 A 
ATOM     29  C   UNL     1       1.142 -10.079   0.427  1.00  0.00    -0.044 A 
ATOM     30  C   UNL     1      -1.382  -9.996   1.173  1.00  0.00     0.036 C 
ATOM     31  C   UNL     1       1.308  -9.058   1.673  1.00  0.00     0.004 A 
ATOM     32  C   UNL     1       1.300 -12.235   0.425  1.00  0.00     0.036 C 
ATOM     33  C   UNL     1      -1.551 -11.838   1.889  1.00  0.00     0.005 C 
ATOM     34  C   UNL     1      -0.204 -13.151   1.367  1.00  0.00     0.005 C 
ENDBRANCH  23  25
ENDBRANCH   7  23
ENDBRANCH   3   5
ENDBRANCH   2   3
ENDBRANCH   1   2
BRANCH   1  35
ATOM     35  C   UNL     1       6.403  -9.340   0.417  1.00  0.00     0.275 C 
BRANCH  35  36
ATOM     36  O   UNL     1       5.481 -10.447   0.347  1.00  0.00    -0.458 OA
BRANCH  36  37
ATOM     37  C   UNL     1       4.230 -10.011   0.562  1.00  0.00     0.338 C 
ATOM     38  O   UNL     1       3.936  -8.860   0.841  1.00  0.00    -0.246 OA
BRANCH  37  39
ATOM     39  C   UNL     1       3.167 -11.014   0.411  1.00  0.00     0.060 A 
ATOM     40  C   UNL     1       2.369 -11.068  -1.159  1.00  0.00     0.016 A 
ATOM     41  C   UNL     1       2.284 -11.203   1.908  1.00  0.00     0.016 A 
ATOM     42  C   UNL     1       0.653 -11.282  -1.410  1.00  0.00     0.010 A 
ATOM     43  C   UNL     1       0.471 -11.292   1.770  1.00  0.00     0.010 A 
ATOM     44  C   UNL     1      -0.406 -11.508  -0.002  1.00  0.00    -0.014 A 
BRANCH  44  45
ATOM     45  C   UNL     1      -2.005 -12.150  -0.571  1.00  0.00     0.031 A 
ATOM     46  C   UNL     1      -3.556 -11.916   0.082  1.00  0.00     0.074 A 
ATOM     47  C   UNL     1      -2.012 -13.226  -1.421  1.00  0.00     0.049 A 
ATOM     48  N   UNL     1      -4.495 -12.848   0.290  1.00  0.00    -0.248 NA
ATOM     49  C   UNL     1      -3.966 -10.665   0.786  1.00  0.00     0.031 C 
ATOM     50  C   UNL     1      -0.882 -13.765  -2.178  1.00  0.00     0.029 A 
ATOM     51  N   UNL     1      -3.029 -14.126  -1.746  1.00  0.00    -0.354 N 
ATOM     52  C   UNL     1      -5.343 -12.316   1.285  1.00  0.00     0.074 A 
ATOM     53  C   UNL     1      -4.678 -11.157   1.783  1.00  0.00     0.031 C 
ATOM     54  C   UNL     1      -1.255 -14.836  -2.890  1.00  0.00     0.029 A 
ATOM     55  C   UNL     1      -2.638 -15.156  -2.585  1.00  0.00     0.049 A 
ATOM     56  H   UNL     1      -3.949 -14.035  -1.406  1.00  0.00     0.167 HD
ATOM     57  C   UNL     1      -6.607 -12.586   1.720  1.00  0.00     0.031 A 
ATOM     58  C   UNL     1      -3.258 -16.264  -3.052  1.00  0.00     0.031 A 
ATOM     59  C   UNL     1      -7.408 -13.635   1.189  1.00  0.00     0.049 A 
ATOM     60  C   UNL     1      -4.664 -16.596  -2.624  1.00  0.00     0.074 A 
ATOM     61  C   UNL     1      -8.713 -13.987   1.478  1.00  0.00     0.029 A 
ATOM     62  N   UNL     1      -6.949 -14.498   0.217  1.00  0.00    -0.354 N 
ATOM     63  N   UNL     1      -5.436 -15.988  -1.758  1.00  0.00    -0.248 NA
ATOM     64  C   UNL     1      -5.285 -17.773  -3.257  1.00  0.00     0.031 C 
ATOM     65  C   UNL     1      -9.019 -15.124   0.720  1.00  0.00     0.029 A 
ATOM     66  C   UNL     1      -7.929 -15.412  -0.087  1.00  0.00     0.049 A 
ATOM     67  H   UNL     1      -6.056 -14.464  -0.196  1.00  0.00     0.167 HD
ATOM     68  C   UNL     1      -6.646 -16.676  -1.781  1.00  0.00     0.074 A 
ATOM     69  C   UNL     1      -6.507 -17.745  -2.744  1.00  0.00     0.031 C 
ATOM     70  C   UNL     1      -7.777 -16.442  -1.073  1.00  0.00     0.031 A 
BRANCH  57  71
ATOM     71  C   UNL     1      -7.186 -11.679   2.808  1.00  0.00    -0.014 A 
ATOM     72  C   UNL     1      -7.346 -10.291   2.600  1.00  0.00     0.009 A 
ATOM     73  C   UNL     1      -7.428 -12.180   4.097  1.00  0.00     0.009 A 
ATOM     74  C   UNL     1      -7.562  -9.421   3.674  1.00  0.00     0.001 A 
ATOM     75  C   UNL     1      -7.710 -11.311   5.160  1.00  0.00     0.001 A 
ATOM     76  C   UNL     1      -7.734  -9.932   4.957  1.00  0.00     0.000 A 
ENDBRANCH  57  71
BRANCH  58  77
ATOM     77  C   UNL     1      -2.574 -17.129  -4.071  1.00  0.00    -0.014 A 
ATOM     78  C   UNL     1      -2.989 -17.071  -5.414  1.00  0.00     0.009 A 
ATOM     79  C   UNL     1      -1.509 -17.984  -3.741  1.00  0.00     0.009 A 
ATOM     80  C   UNL     1      -2.366 -17.848  -6.396  1.00  0.00     0.001 A 
ATOM     81  C   UNL     1      -0.866 -18.738  -4.732  1.00  0.00     0.001 A 
ATOM     82  C   UNL     1      -1.297 -18.673  -6.057  1.00  0.00     0.000 A 
ENDBRANCH  58  77
BRANCH  70  83
ATOM     83  C   UNL     1      -8.980 -17.284  -1.350  1.00  0.00    -0.014 A 
ATOM     84  C   UNL     1      -9.064 -18.608  -0.900  1.00  0.00     0.009 A 
ATOM     85  C   UNL     1     -10.095 -16.689  -1.961  1.00  0.00     0.009 A 
ATOM     86  C   UNL     1     -10.245 -19.328  -1.075  1.00  0.00     0.001 A 
ATOM     87  C   UNL     1     -11.283 -17.400  -2.104  1.00  0.00     0.001 A 
ATOM     88  C   UNL     1     -11.355 -18.721  -1.665  1.00  0.00     0.000 A 
ENDBRANCH  70  83
ENDBRANCH  44  45
ENDBRANCH  37  39
ENDBRANCH  36  37
ENDBRANCH  35  36
ENDBRANCH   1  35
TORSDOF 15
