REMARK SMILES C[NH2+][C@@]1(C(=O)OCCOC(=O)c2ccc(-c3c4nc(c(-c5ccccc5)c5ccc([nH]5)c(-c5ccccc5)c5nc(c(-c6ccccc6)c6ccc3[nH]6)C=C5)C=C4)cc2)CCC[C@@H](Oc2cc(F)cc(F)c2)C1
REMARK SMILES IDX 7 1 6 2 4 3 5 4 3 5 60 6 73 7 61 8 63 9 62 10 2 11 1 12
REMARK SMILES IDX 64 15 65 16 66 17 72 18 67 19 70 20 68 21 69 22 71 23 8 24
REMARK SMILES IDX 9 25 10 26 11 27 12 28 13 29 59 30 14 31 58 32 15 33 16 34
REMARK SMILES IDX 17 35 52 36 18 37 57 38 51 39 53 40 19 41 56 42 50 43 49 44
REMARK SMILES IDX 20 46 42 47 27 48 41 49 28 50 31 51 40 52 54 53 29 54 30 55
REMARK SMILES IDX 39 57 55 58 32 59 21 60 22 61 26 62 23 63 25 64 24 65 43 66
REMARK SMILES IDX 44 67 48 68 45 69 47 70 46 71 33 72 34 73 38 74 35 75 37 76
REMARK SMILES IDX 36 77
REMARK H PARENT 2 13 2 14 53 45 31 56
REMARK Flexibility Score: inf
ROOT
ATOM      1  C   UNL     1      -3.073   1.396  -2.380  1.00  0.00     0.274 C 
ENDROOT
BRANCH   1   2
ATOM      2  O   UNL     1      -2.612   1.433  -1.013  1.00  0.00    -0.457 OA
BRANCH   2   3
ATOM      3  C   UNL     1      -1.696   0.499  -0.637  1.00  0.00     0.368 C 
ATOM      4  O   UNL     1      -1.276  -0.368  -1.395  1.00  0.00    -0.245 OA
BRANCH   3   5
ATOM      5  C   UNL     1      -1.343   0.588   0.892  1.00  0.00     0.197 C 
ATOM      6  C   UNL     1      -2.114  -0.519   1.643  1.00  0.00     0.081 C 
ATOM      7  C   UNL     1      -1.650   1.981   1.510  1.00  0.00     0.126 C 
ATOM      8  C   UNL     1      -3.597  -0.203   1.835  1.00  0.00     0.011 C 
ATOM      9  C   UNL     1      -3.130   2.270   1.808  1.00  0.00     0.180 C 
ATOM     10  C   UNL     1      -3.796   1.119   2.567  1.00  0.00     0.046 C 
BRANCH   5  11
ATOM     11  N   UNL     1       0.141   0.430   1.095  1.00  0.00    -0.334 N 
ATOM     12  C   UNL     1       0.742  -0.831   0.679  1.00  0.00     0.331 C 
ATOM     13  H   UNL     1       0.603   1.176   0.576  1.00  0.00     0.347 HD
ATOM     14  H   UNL     1       0.271   0.461   2.107  1.00  0.00     0.347 HD
ENDBRANCH   5  11
BRANCH   9  15
ATOM     15  O   UNL     1      -3.347   3.570   2.399  1.00  0.00    -0.490 OA
BRANCH  15  16
ATOM     16  C   UNL     1      -2.947   3.746   3.691  1.00  0.00     0.125 A 
ATOM     17  C   UNL     1      -3.907   3.715   4.700  1.00  0.00     0.085 A 
ATOM     18  C   UNL     1      -1.634   4.103   3.990  1.00  0.00     0.085 A 
ATOM     19  C   UNL     1      -3.526   3.968   6.014  1.00  0.00     0.129 A 
ATOM     20  C   UNL     1      -1.273   4.337   5.314  1.00  0.00     0.129 A 
ATOM     21  F   UNL     1      -4.447   3.929   6.986  1.00  0.00    -0.207 F 
ATOM     22  C   UNL     1      -2.208   4.266   6.337  1.00  0.00     0.078 A 
ATOM     23  F   UNL     1      -0.002   4.642   5.605  1.00  0.00    -0.207 F 
ENDBRANCH  15  16
ENDBRANCH   9  15
ENDBRANCH   3   5
ENDBRANCH   2   3
ENDBRANCH   1   2
BRANCH   1  24
ATOM     24  C   UNL     1      -2.684   2.678  -3.115  1.00  0.00     0.275 C 
BRANCH  24  25
ATOM     25  O   UNL     1      -1.253   2.781  -3.221  1.00  0.00    -0.458 OA
BRANCH  25  26
ATOM     26  C   UNL     1      -0.667   3.558  -2.283  1.00  0.00     0.338 C 
ATOM     27  O   UNL     1      -1.215   4.248  -1.436  1.00  0.00    -0.246 OA
BRANCH  26  28
ATOM     28  C   UNL     1       0.783   3.328  -2.308  1.00  0.00     0.060 A 
ATOM     29  C   UNL     1       1.349   2.692  -1.203  1.00  0.00     0.016 A 
ATOM     30  C   UNL     1       1.585   3.777  -3.357  1.00  0.00     0.016 A 
ATOM     31  C   UNL     1       2.723   2.490  -1.135  1.00  0.00     0.010 A 
ATOM     32  C   UNL     1       2.969   3.586  -3.284  1.00  0.00     0.010 A 
ATOM     33  C   UNL     1       3.545   2.949  -2.169  1.00  0.00    -0.014 A 
BRANCH  33  34
ATOM     34  C   UNL     1       5.014   2.833  -2.034  1.00  0.00     0.031 A 
ATOM     35  C   UNL     1       5.816   4.036  -1.634  1.00  0.00     0.074 A 
ATOM     36  C   UNL     1       5.622   1.648  -2.222  1.00  0.00     0.049 A 
ATOM     37  N   UNL     1       7.114   4.170  -1.538  1.00  0.00    -0.248 NA
ATOM     38  C   UNL     1       5.055   5.248  -1.291  1.00  0.00     0.031 C 
ATOM     39  C   UNL     1       4.945   0.389  -2.532  1.00  0.00     0.029 A 
ATOM     40  N   UNL     1       6.952   1.315  -2.178  1.00  0.00    -0.354 N 
ATOM     41  C   UNL     1       7.327   5.483  -1.140  1.00  0.00     0.074 A 
ATOM     42  C   UNL     1       6.027   6.108  -1.023  1.00  0.00     0.031 C 
ATOM     43  C   UNL     1       5.867  -0.581  -2.653  1.00  0.00     0.029 A 
ATOM     44  C   UNL     1       7.196  -0.002  -2.477  1.00  0.00     0.049 A 
ATOM     45  H   UNL     1       7.662   1.959  -1.952  1.00  0.00     0.167 HD
ATOM     46  C   UNL     1       8.502   6.112  -0.896  1.00  0.00     0.031 A 
ATOM     47  C   UNL     1       8.363  -0.657  -2.626  1.00  0.00     0.031 A 
ATOM     48  C   UNL     1       9.794   5.494  -1.021  1.00  0.00     0.049 A 
ATOM     49  C   UNL     1       9.657   0.088  -2.445  1.00  0.00     0.074 A 
ATOM     50  C   UNL     1      11.043   6.056  -0.818  1.00  0.00     0.029 A 
ATOM     51  N   UNL     1      10.003   4.173  -1.384  1.00  0.00    -0.354 N 
ATOM     52  N   UNL     1       9.849   1.338  -2.101  1.00  0.00    -0.248 NA
ATOM     53  C   UNL     1      10.895  -0.669  -2.682  1.00  0.00     0.031 C 
ATOM     54  C   UNL     1      12.010   5.085  -1.100  1.00  0.00     0.029 A 
ATOM     55  C   UNL     1      11.361   3.906  -1.431  1.00  0.00     0.049 A 
ATOM     56  H   UNL     1       9.292   3.521  -1.579  1.00  0.00     0.167 HD
ATOM     57  C   UNL     1      11.226   1.513  -2.062  1.00  0.00     0.074 A 
ATOM     58  C   UNL     1      11.822   0.237  -2.402  1.00  0.00     0.031 C 
ATOM     59  C   UNL     1      11.935   2.631  -1.773  1.00  0.00     0.031 A 
BRANCH  46  60
ATOM     60  C   UNL     1       8.435   7.562  -0.517  1.00  0.00    -0.014 A 
ATOM     61  C   UNL     1       8.016   7.964   0.760  1.00  0.00     0.009 A 
ATOM     62  C   UNL     1       8.812   8.540  -1.450  1.00  0.00     0.009 A 
ATOM     63  C   UNL     1       7.947   9.321   1.085  1.00  0.00     0.001 A 
ATOM     64  C   UNL     1       8.764   9.894  -1.116  1.00  0.00     0.001 A 
ATOM     65  C   UNL     1       8.323  10.284   0.148  1.00  0.00     0.000 A 
ENDBRANCH  46  60
BRANCH  47  66
ATOM     66  C   UNL     1       8.366  -2.091  -3.014  1.00  0.00    -0.014 A 
ATOM     67  C   UNL     1       8.776  -3.079  -2.107  1.00  0.00     0.009 A 
ATOM     68  C   UNL     1       7.973  -2.475  -4.306  1.00  0.00     0.009 A 
ATOM     69  C   UNL     1       8.814  -4.421  -2.495  1.00  0.00     0.001 A 
ATOM     70  C   UNL     1       7.987  -3.819  -4.682  1.00  0.00     0.001 A 
ATOM     71  C   UNL     1       8.415  -4.790  -3.779  1.00  0.00     0.000 A 
ENDBRANCH  47  66
BRANCH  59  72
ATOM     72  C   UNL     1      13.433   2.515  -1.782  1.00  0.00    -0.014 A 
ATOM     73  C   UNL     1      14.148   2.440  -2.987  1.00  0.00     0.009 A 
ATOM     74  C   UNL     1      14.138   2.521  -0.569  1.00  0.00     0.009 A 
ATOM     75  C   UNL     1      15.541   2.345  -2.975  1.00  0.00     0.001 A 
ATOM     76  C   UNL     1      15.532   2.449  -0.561  1.00  0.00     0.001 A 
ATOM     77  C   UNL     1      16.231   2.354  -1.763  1.00  0.00     0.000 A 
ENDBRANCH  59  72
ENDBRANCH  33  34
ENDBRANCH  26  28
ENDBRANCH  25  26
ENDBRANCH  24  25
ENDBRANCH   1  24
TORSDOF 14
