REMARK SMILES O=C(COc1ccccc1/C=C1/SC(=S)N(c2ccc(F)c(Cl)c2)C1=O)OCCOC(=O)c1ccc(-c2c3nc(c(-c4ccccc4)c4ccc([nH]4)c(-c4ccccc4)c4nc(c(-c5ccccc5)c5ccc2[nH]5)C=C4)C=C3)cc1
REMARK SMILES IDX 28 1 27 2 2 3 1 4 3 5 4 6 5 7 6 8 10 9 7 10 9 11 8 12 11 13
REMARK SMILES IDX 12 14 13 15 25 16 14 17 16 18 26 19 15 20 17 21 18 22 24 23
REMARK SMILES IDX 19 24 22 25 20 26 23 27 21 28 29 29 30 30 31 31 32 32 33 33
REMARK SMILES IDX 34 34 80 35 35 36 79 37 36 38 37 39 38 40 73 41 39 42 78 43
REMARK SMILES IDX 72 44 74 45 40 46 77 47 71 48 70 49 41 51 63 52 48 53 62 54
REMARK SMILES IDX 49 55 52 56 61 57 75 58 50 59 51 60 60 62 76 63 53 64 42 65
REMARK SMILES IDX 43 66 47 67 44 68 46 69 45 70 64 71 65 72 69 73 66 74 68 75
REMARK SMILES IDX 67 76 54 77 55 78 59 79 56 80 58 81 57 82
REMARK H PARENT 74 50 52 61
REMARK Flexibility Score: inf
ROOT
ATOM      1  C   UNL     1       4.523   1.204   0.034  1.00  0.00     0.274 C 
ENDROOT
BRANCH   1   2
ATOM      2  O   UNL     1       3.118   0.972  -0.202  1.00  0.00    -0.460 OA
BRANCH   2   3
ATOM      3  C   UNL     1       2.371   0.022   0.413  1.00  0.00     0.344 C 
ATOM      4  O   UNL     1       1.144   0.049   0.330  1.00  0.00    -0.248 OA
BRANCH   3   5
ATOM      5  C   UNL     1       3.085  -1.092   1.152  1.00  0.00     0.352 C 
BRANCH   5   6
ATOM      6  O   UNL     1       3.874  -1.883   0.266  1.00  0.00    -0.481 OA
BRANCH   6   7
ATOM      7  C   UNL     1       3.203  -3.031  -0.086  1.00  0.00     0.127 A 
ATOM      8  C   UNL     1       3.440  -4.172   0.686  1.00  0.00     0.047 A 
ATOM      9  C   UNL     1       2.350  -3.078  -1.204  1.00  0.00     0.018 A 
ATOM     10  C   UNL     1       2.773  -5.358   0.390  1.00  0.00     0.004 A 
ATOM     11  C   UNL     1       1.666  -4.271  -1.468  1.00  0.00     0.012 A 
ATOM     12  C   UNL     1       1.876  -5.403  -0.676  1.00  0.00     0.001 A 
BRANCH   9  13
ATOM     13  C   UNL     1       2.097  -1.924  -2.084  1.00  0.00     0.033 C 
ATOM     14  C   UNL     1       3.020  -1.225  -2.761  1.00  0.00     0.081 C 
ATOM     15  S   UNL     1       2.670   0.243  -3.586  1.00  0.00    -0.054 SA
ATOM     16  C   UNL     1       4.483  -1.494  -2.824  1.00  0.00     0.270 C 
ATOM     17  C   UNL     1       4.373   0.703  -3.678  1.00  0.00     0.152 C 
ATOM     18  N   UNL     1       5.168  -0.336  -3.206  1.00  0.00    -0.261 N 
ATOM     19  O   UNL     1       4.967  -2.586  -2.558  1.00  0.00    -0.268 OA
ATOM     20  S   UNL     1       4.814   2.174  -4.342  1.00  0.00    -0.051 S 
BRANCH  18  21
ATOM     21  C   UNL     1       6.598  -0.294  -3.059  1.00  0.00     0.052 A 
ATOM     22  C   UNL     1       7.377  -1.420  -3.378  1.00  0.00     0.030 A 
ATOM     23  C   UNL     1       7.248   0.808  -2.478  1.00  0.00     0.050 A 
ATOM     24  C   UNL     1       8.745  -1.461  -3.099  1.00  0.00     0.043 A 
ATOM     25  C   UNL     1       8.612   0.755  -2.170  1.00  0.00     0.078 A 
ATOM     26  C   UNL     1       9.354  -0.379  -2.480  1.00  0.00     0.141 A 
ATOM     27  Cl  UNL     1       9.341   2.082  -1.349  1.00  0.00    -0.081 Cl
ATOM     28  F   UNL     1      10.656  -0.456  -2.174  1.00  0.00    -0.205 F 
ENDBRANCH  18  21
ENDBRANCH   9  13
ENDBRANCH   6   7
ENDBRANCH   5   6
ENDBRANCH   3   5
ENDBRANCH   2   3
ENDBRANCH   1   2
BRANCH   1  29
ATOM     29  C   UNL     1       4.731   2.455   0.882  1.00  0.00     0.275 C 
BRANCH  29  30
ATOM     30  O   UNL     1       4.233   2.187   2.196  1.00  0.00    -0.458 OA
BRANCH  30  31
ATOM     31  C   UNL     1       2.934   2.527   2.391  1.00  0.00     0.338 C 
ATOM     32  O   UNL     1       2.239   3.227   1.687  1.00  0.00    -0.246 OA
BRANCH  31  33
ATOM     33  C   UNL     1       2.434   1.691   3.499  1.00  0.00     0.060 A 
ATOM     34  C   UNL     1       1.137   1.172   3.402  1.00  0.00     0.016 A 
ATOM     35  C   UNL     1       3.248   1.390   4.595  1.00  0.00     0.016 A 
ATOM     36  C   UNL     1       0.629   0.389   4.433  1.00  0.00     0.010 A 
ATOM     37  C   UNL     1       2.739   0.615   5.630  1.00  0.00     0.010 A 
ATOM     38  C   UNL     1       1.413   0.158   5.570  1.00  0.00    -0.014 A 
BRANCH  38  39
ATOM     39  C   UNL     1       0.770  -0.301   6.814  1.00  0.00     0.031 A 
ATOM     40  C   UNL     1       0.291   0.755   7.769  1.00  0.00     0.074 A 
ATOM     41  C   UNL     1       0.639  -1.607   7.089  1.00  0.00     0.049 A 
ATOM     42  N   UNL     1      -0.271   0.624   8.940  1.00  0.00    -0.248 NA
ATOM     43  C   UNL     1       0.483   2.155   7.344  1.00  0.00     0.031 C 
ATOM     44  C   UNL     1       1.049  -2.707   6.217  1.00  0.00     0.029 A 
ATOM     45  N   UNL     1       0.125  -2.225   8.197  1.00  0.00    -0.354 N 
ATOM     46  C   UNL     1      -0.495   1.919   9.390  1.00  0.00     0.074 A 
ATOM     47  C   UNL     1       0.025   2.821   8.391  1.00  0.00     0.031 C 
ATOM     48  C   UNL     1       0.771  -3.872   6.829  1.00  0.00     0.029 A 
ATOM     49  C   UNL     1       0.189  -3.594   8.140  1.00  0.00     0.049 A 
ATOM     50  H   UNL     1      -0.254  -1.734   8.962  1.00  0.00     0.167 HD
ATOM     51  C   UNL     1      -1.092   2.321  10.535  1.00  0.00     0.031 A 
ATOM     52  C   UNL     1      -0.179  -4.509   9.056  1.00  0.00     0.031 A 
ATOM     53  C   UNL     1      -1.578   1.415  11.536  1.00  0.00     0.049 A 
ATOM     54  C   UNL     1      -0.779  -4.036  10.354  1.00  0.00     0.074 A 
ATOM     55  C   UNL     1      -2.206   1.702  12.733  1.00  0.00     0.029 A 
ATOM     56  N   UNL     1      -1.474   0.034  11.454  1.00  0.00    -0.354 N 
ATOM     57  N   UNL     1      -1.028  -2.811  10.754  1.00  0.00    -0.248 NA
ATOM     58  C   UNL     1      -1.159  -5.074  11.321  1.00  0.00     0.031 C 
ATOM     59  C   UNL     1      -2.437   0.494  13.400  1.00  0.00     0.029 A 
ATOM     60  C   UNL     1      -2.006  -0.547  12.590  1.00  0.00     0.049 A 
ATOM     61  H   UNL     1      -1.081  -0.460  10.698  1.00  0.00     0.167 HD
ATOM     62  C   UNL     1      -1.626  -2.933  12.002  1.00  0.00     0.074 A 
ATOM     63  C   UNL     1      -1.710  -4.352  12.286  1.00  0.00     0.031 C 
ATOM     64  C   UNL     1      -2.073  -1.964  12.839  1.00  0.00     0.031 A 
BRANCH  51  65
ATOM     65  C   UNL     1      -1.203   3.802  10.763  1.00  0.00    -0.014 A 
ATOM     66  C   UNL     1      -2.068   4.595   9.991  1.00  0.00     0.009 A 
ATOM     67  C   UNL     1      -0.417   4.416  11.749  1.00  0.00     0.009 A 
ATOM     68  C   UNL     1      -2.111   5.979  10.174  1.00  0.00     0.001 A 
ATOM     69  C   UNL     1      -0.484   5.796  11.949  1.00  0.00     0.001 A 
ATOM     70  C   UNL     1      -1.321   6.578  11.154  1.00  0.00     0.000 A 
ENDBRANCH  51  65
BRANCH  52  71
ATOM     71  C   UNL     1      -0.007  -5.958   8.778  1.00  0.00    -0.014 A 
ATOM     72  C   UNL     1      -1.124  -6.780   8.565  1.00  0.00     0.009 A 
ATOM     73  C   UNL     1       1.274  -6.532   8.738  1.00  0.00     0.009 A 
ATOM     74  C   UNL     1      -0.965  -8.150   8.346  1.00  0.00     0.001 A 
ATOM     75  C   UNL     1       1.431  -7.898   8.492  1.00  0.00     0.001 A 
ATOM     76  C   UNL     1       0.312  -8.707   8.305  1.00  0.00     0.000 A 
ENDBRANCH  52  71
BRANCH  64  77
ATOM     77  C   UNL     1      -2.728  -2.411  14.115  1.00  0.00    -0.014 A 
ATOM     78  C   UNL     1      -1.978  -2.950  15.171  1.00  0.00     0.009 A 
ATOM     79  C   UNL     1      -4.113  -2.247  14.274  1.00  0.00     0.009 A 
ATOM     80  C   UNL     1      -2.611  -3.350  16.350  1.00  0.00     0.001 A 
ATOM     81  C   UNL     1      -4.738  -2.620  15.464  1.00  0.00     0.001 A 
ATOM     82  C   UNL     1      -3.988  -3.180  16.496  1.00  0.00     0.000 A 
ENDBRANCH  64  77
ENDBRANCH  38  39
ENDBRANCH  31  33
ENDBRANCH  30  31
ENDBRANCH  29  30
ENDBRANCH   1  29
TORSDOF 15
