REMARK SMILES COc1cc(C(=O)OCCOC(=O)c2ccc(-c3c4nc(c(-c5ccccc5)c5ccc([nH]5)c(-c5ccccc5)c5nc(c(-c6ccccc6)c6ccc3[nH]6)C=C5)C=C4)cc2)ccc1OCC(=O)N[C@H]1CCCC[C@H]1C
REMARK SMILES IDX 9 1 8 2 6 3 7 4 5 5 3 6 4 7 64 8 63 9 62 10 2 11 1 12 65 13
REMARK SMILES IDX 66 14 67 15 68 16 69 17 70 19 71 20 75 21 72 22 74 23 76 24
REMARK SMILES IDX 73 25 10 26 11 27 12 28 13 29 14 30 15 31 61 32 16 33 60 34
REMARK SMILES IDX 17 35 18 36 19 37 54 38 20 39 59 40 53 41 55 42 21 43 58 44
REMARK SMILES IDX 52 45 51 46 22 48 44 49 29 50 43 51 30 52 33 53 42 54 56 55
REMARK SMILES IDX 31 56 32 57 41 59 57 60 34 61 23 62 24 63 28 64 25 65 27 66
REMARK SMILES IDX 26 67 45 68 46 69 50 70 47 71 49 72 48 73 35 74 36 75 40 76
REMARK SMILES IDX 37 77 39 78 38 79
REMARK H PARENT 69 18 55 47 33 58
REMARK Flexibility Score: inf
ROOT
ATOM      1  C   UNL     1      -0.690   4.866   6.224  1.00  0.00     0.275 C 
ENDROOT
BRANCH   1   2
ATOM      2  O   UNL     1       0.230   4.111   5.411  1.00  0.00    -0.458 OA
BRANCH   2   3
ATOM      3  C   UNL     1      -0.234   2.951   4.879  1.00  0.00     0.338 C 
ATOM      4  O   UNL     1      -1.308   2.426   5.086  1.00  0.00    -0.246 OA
BRANCH   3   5
ATOM      5  C   UNL     1       0.734   2.462   3.866  1.00  0.00     0.064 A 
ATOM      6  C   UNL     1       1.127   1.526   1.650  1.00  0.00     0.161 A 
ATOM      7  C   UNL     1       0.248   1.927   2.661  1.00  0.00     0.066 A 
ATOM      8  C   UNL     1       2.501   1.535   1.906  1.00  0.00     0.161 A 
ATOM      9  C   UNL     1       2.980   2.092   3.104  1.00  0.00     0.051 A 
ATOM     10  C   UNL     1       2.105   2.561   4.081  1.00  0.00     0.020 A 
BRANCH   6  11
ATOM     11  O   UNL     1       0.728   1.222   0.380  1.00  0.00    -0.493 OA
ATOM     12  C   UNL     1      -0.599   0.745   0.194  1.00  0.00     0.278 C 
ENDBRANCH   6  11
BRANCH   8  13
ATOM     13  O   UNL     1       3.490   1.020   1.112  1.00  0.00    -0.480 OA
BRANCH  13  14
ATOM     14  C   UNL     1       3.195  -0.021   0.195  1.00  0.00     0.329 C 
BRANCH  14  15
ATOM     15  C   UNL     1       2.212  -1.188   0.446  1.00  0.00     0.258 C 
ATOM     16  O   UNL     1       1.317  -1.458  -0.364  1.00  0.00    -0.271 OA
ATOM     17  N   UNL     1       2.309  -2.012   1.523  1.00  0.00    -0.350 N 
ATOM     18  H   UNL     1       1.467  -2.451   1.783  1.00  0.00     0.163 HD
BRANCH  17  19
ATOM     19  C   UNL     1       3.456  -2.352   2.358  1.00  0.00     0.085 C 
ATOM     20  C   UNL     1       3.817  -1.293   3.401  1.00  0.00     0.025 C 
ATOM     21  C   UNL     1       3.216  -3.728   3.037  1.00  0.00     0.008 C 
ATOM     22  C   UNL     1       5.013  -1.704   4.253  1.00  0.00     0.002 C 
ATOM     23  C   UNL     1       4.449  -4.128   3.861  1.00  0.00     0.005 C 
ATOM     24  C   UNL     1       1.933  -3.777   3.892  1.00  0.00     0.010 C 
ATOM     25  C   UNL     1       4.829  -3.071   4.894  1.00  0.00     0.000 C 
ENDBRANCH  17  19
ENDBRANCH  14  15
ENDBRANCH  13  14
ENDBRANCH   8  13
ENDBRANCH   3   5
ENDBRANCH   2   3
ENDBRANCH   1   2
BRANCH   1  26
ATOM     26  C   UNL     1      -1.188   6.081   5.443  1.00  0.00     0.275 C 
BRANCH  26  27
ATOM     27  O   UNL     1      -2.044   5.630   4.378  1.00  0.00    -0.458 OA
BRANCH  27  28
ATOM     28  C   UNL     1      -1.643   5.919   3.121  1.00  0.00     0.338 C 
ATOM     29  O   UNL     1      -0.693   6.602   2.777  1.00  0.00    -0.246 OA
BRANCH  28  30
ATOM     30  C   UNL     1      -2.534   5.239   2.166  1.00  0.00     0.060 A 
ATOM     31  C   UNL     1      -2.709   3.862   2.257  1.00  0.00     0.016 A 
ATOM     32  C   UNL     1      -3.109   5.942   1.111  1.00  0.00     0.016 A 
ATOM     33  C   UNL     1      -3.352   3.167   1.237  1.00  0.00     0.010 A 
ATOM     34  C   UNL     1      -3.862   5.253   0.151  1.00  0.00     0.010 A 
ATOM     35  C   UNL     1      -3.957   3.848   0.174  1.00  0.00    -0.014 A 
BRANCH  35  36
ATOM     36  C   UNL     1      -4.660   3.106  -0.916  1.00  0.00     0.031 A 
ATOM     37  C   UNL     1      -4.316   3.376  -2.362  1.00  0.00     0.074 A 
ATOM     38  C   UNL     1      -5.617   2.196  -0.634  1.00  0.00     0.049 A 
ATOM     39  N   UNL     1      -4.981   3.053  -3.444  1.00  0.00    -0.248 NA
ATOM     40  C   UNL     1      -3.076   4.124  -2.625  1.00  0.00     0.031 C 
ATOM     41  C   UNL     1      -6.031   1.773   0.707  1.00  0.00     0.029 A 
ATOM     42  N   UNL     1      -6.426   1.462  -1.470  1.00  0.00    -0.354 N 
ATOM     43  C   UNL     1      -4.287   3.629  -4.502  1.00  0.00     0.074 A 
ATOM     44  C   UNL     1      -3.142   4.310  -3.936  1.00  0.00     0.031 C 
ATOM     45  C   UNL     1      -6.982   0.834   0.602  1.00  0.00     0.029 A 
ATOM     46  C   UNL     1      -7.332   0.672  -0.802  1.00  0.00     0.049 A 
ATOM     47  H   UNL     1      -6.362   1.498  -2.451  1.00  0.00     0.167 HD
ATOM     48  C   UNL     1      -4.585   3.604  -5.824  1.00  0.00     0.031 A 
ATOM     49  C   UNL     1      -8.376  -0.051  -1.250  1.00  0.00     0.031 A 
ATOM     50  C   UNL     1      -5.680   2.866  -6.396  1.00  0.00     0.049 A 
ATOM     51  C   UNL     1      -8.701  -0.044  -2.714  1.00  0.00     0.074 A 
ATOM     52  C   UNL     1      -6.042   2.756  -7.728  1.00  0.00     0.029 A 
ATOM     53  N   UNL     1      -6.573   2.093  -5.673  1.00  0.00    -0.354 N 
ATOM     54  N   UNL     1      -8.079   0.562  -3.694  1.00  0.00    -0.248 NA
ATOM     55  C   UNL     1      -9.889  -0.804  -3.131  1.00  0.00     0.031 C 
ATOM     56  C   UNL     1      -7.179   1.946  -7.807  1.00  0.00     0.029 A 
ATOM     57  C   UNL     1      -7.495   1.515  -6.529  1.00  0.00     0.049 A 
ATOM     58  H   UNL     1      -6.555   1.972  -4.696  1.00  0.00     0.167 HD
ATOM     59  C   UNL     1      -8.789   0.246  -4.844  1.00  0.00     0.074 A 
ATOM     60  C   UNL     1      -9.877  -0.621  -4.444  1.00  0.00     0.031 C 
ATOM     61  C   UNL     1      -8.564   0.646  -6.118  1.00  0.00     0.031 A 
BRANCH  48  62
ATOM     62  C   UNL     1      -3.743   4.434  -6.752  1.00  0.00    -0.014 A 
ATOM     63  C   UNL     1      -2.447   4.048  -7.124  1.00  0.00     0.009 A 
ATOM     64  C   UNL     1      -4.296   5.595  -7.321  1.00  0.00     0.009 A 
ATOM     65  C   UNL     1      -1.714   4.820  -8.028  1.00  0.00     0.001 A 
ATOM     66  C   UNL     1      -3.570   6.350  -8.243  1.00  0.00     0.001 A 
ATOM     67  C   UNL     1      -2.277   5.966  -8.592  1.00  0.00     0.000 A 
ENDBRANCH  48  62
BRANCH  49  68
ATOM     68  C   UNL     1      -9.247  -0.772  -0.284  1.00  0.00    -0.014 A 
ATOM     69  C   UNL     1      -9.271  -2.174  -0.248  1.00  0.00     0.009 A 
ATOM     70  C   UNL     1     -10.067  -0.057   0.604  1.00  0.00     0.009 A 
ATOM     71  C   UNL     1     -10.112  -2.843   0.644  1.00  0.00     0.001 A 
ATOM     72  C   UNL     1     -10.881  -0.727   1.518  1.00  0.00     0.001 A 
ATOM     73  C   UNL     1     -10.911  -2.120   1.530  1.00  0.00     0.000 A 
ENDBRANCH  49  68
BRANCH  61  74
ATOM     74  C   UNL     1      -9.486   0.115  -7.175  1.00  0.00    -0.014 A 
ATOM     75  C   UNL     1     -10.789   0.614  -7.320  1.00  0.00     0.009 A 
ATOM     76  C   UNL     1      -9.027  -0.871  -8.063  1.00  0.00     0.009 A 
ATOM     77  C   UNL     1     -11.625   0.115  -8.320  1.00  0.00     0.001 A 
ATOM     78  C   UNL     1      -9.857  -1.350  -9.076  1.00  0.00     0.001 A 
ATOM     79  C   UNL     1     -11.157  -0.863  -9.199  1.00  0.00     0.000 A 
ENDBRANCH  61  74
ENDBRANCH  35  36
ENDBRANCH  28  30
ENDBRANCH  27  28
ENDBRANCH  26  27
ENDBRANCH   1  26
TORSDOF 16
