REMARK SMILES O=C(OCCOC(=O)[C@@H]1CC[C@@H](CN2C(=O)CC3(CCCC3)CC2=O)O1)c1ccc(-c2c3nc(c(-c4ccccc4)c4ccc([nH]4)c(-c4ccccc4)c4nc(c(-c5ccccc5)c5ccc2[nH]5)C=C4)C=C3)cc1
REMARK SMILES IDX 4 1 3 2 2 3 1 4 27 5 28 6 74 7 29 8 73 9 30 10 31 11 32 12
REMARK SMILES IDX 67 13 33 14 72 15 66 16 68 17 34 18 71 19 65 20 64 21 35 23
REMARK SMILES IDX 57 24 42 25 56 26 43 27 46 28 55 29 69 30 44 31 45 32 54 34
REMARK SMILES IDX 70 35 47 36 36 37 37 38 41 39 38 40 40 41 39 42 58 43 59 44
REMARK SMILES IDX 63 45 60 46 62 47 61 48 48 49 49 50 53 51 50 52 52 53 51 54
REMARK SMILES IDX 5 55 6 56 7 57 8 58 9 59 10 60 26 61 11 62 12 63 13 64 14 65
REMARK SMILES IDX 15 66 24 67 16 68 17 69 23 70 25 71 18 72 19 73 22 74 20 75
REMARK SMILES IDX 21 76
REMARK H PARENT 68 22 46 33
REMARK Flexibility Score: inf
ROOT
ATOM      1  C   UNL     1       4.059   1.469  -1.018  1.00  0.00     0.275 C 
ENDROOT
BRANCH   1   2
ATOM      2  O   UNL     1       3.087   0.488  -1.408  1.00  0.00    -0.458 OA
BRANCH   2   3
ATOM      3  C   UNL     1       3.054  -0.849  -1.216  1.00  0.00     0.338 C 
ATOM      4  O   UNL     1       2.137  -1.490  -1.729  1.00  0.00    -0.246 OA
BRANCH   3   5
ATOM      5  C   UNL     1       3.975  -1.592  -0.292  1.00  0.00     0.060 A 
ATOM      6  C   UNL     1       5.202  -1.149   0.210  1.00  0.00     0.016 A 
ATOM      7  C   UNL     1       3.479  -2.813   0.203  1.00  0.00     0.016 A 
ATOM      8  C   UNL     1       5.840  -1.817   1.266  1.00  0.00     0.010 A 
ATOM      9  C   UNL     1       4.087  -3.453   1.291  1.00  0.00     0.010 A 
ATOM     10  C   UNL     1       5.266  -2.946   1.851  1.00  0.00    -0.014 A 
BRANCH  10  11
ATOM     11  C   UNL     1       5.969  -3.666   2.944  1.00  0.00     0.031 A 
ATOM     12  C   UNL     1       6.499  -5.041   2.643  1.00  0.00     0.074 A 
ATOM     13  C   UNL     1       6.184  -3.101   4.153  1.00  0.00     0.049 A 
ATOM     14  N   UNL     1       7.233  -5.825   3.388  1.00  0.00    -0.248 NA
ATOM     15  C   UNL     1       6.167  -5.607   1.322  1.00  0.00     0.031 C 
ATOM     16  C   UNL     1       5.743  -1.768   4.579  1.00  0.00     0.029 A 
ATOM     17  N   UNL     1       6.853  -3.581   5.255  1.00  0.00    -0.354 N 
ATOM     18  C   UNL     1       7.485  -6.942   2.603  1.00  0.00     0.074 A 
ATOM     19  C   UNL     1       6.717  -6.804   1.391  1.00  0.00     0.031 C 
ATOM     20  C   UNL     1       6.155  -1.541   5.841  1.00  0.00     0.029 A 
ATOM     21  C   UNL     1       6.893  -2.703   6.317  1.00  0.00     0.049 A 
ATOM     22  H   UNL     1       7.266  -4.474   5.283  1.00  0.00     0.167 HD
ATOM     23  C   UNL     1       8.349  -7.958   2.821  1.00  0.00     0.031 A 
ATOM     24  C   UNL     1       7.482  -2.825   7.523  1.00  0.00     0.031 A 
ATOM     25  C   UNL     1       9.102  -8.118   4.026  1.00  0.00     0.049 A 
ATOM     26  C   UNL     1       8.305  -4.052   7.808  1.00  0.00     0.074 A 
ATOM     27  C   UNL     1       9.996  -9.116   4.362  1.00  0.00     0.029 A 
ATOM     28  N   UNL     1       9.034  -7.249   5.104  1.00  0.00    -0.354 N 
ATOM     29  N   UNL     1       8.571  -5.071   7.028  1.00  0.00    -0.248 NA
ATOM     30  C   UNL     1       8.943  -4.117   9.131  1.00  0.00     0.031 C 
ATOM     31  C   UNL     1      10.434  -8.877   5.669  1.00  0.00     0.029 A 
ATOM     32  C   UNL     1       9.856  -7.699   6.119  1.00  0.00     0.049 A 
ATOM     33  H   UNL     1       8.484  -6.434   5.140  1.00  0.00     0.167 HD
ATOM     34  C   UNL     1       9.446  -5.874   7.748  1.00  0.00     0.074 A 
ATOM     35  C   UNL     1       9.663  -5.223   9.024  1.00  0.00     0.031 C 
ATOM     36  C   UNL     1      10.038  -7.036   7.382  1.00  0.00     0.031 A 
BRANCH  23  37
ATOM     37  C   UNL     1       8.515  -8.937   1.696  1.00  0.00    -0.014 A 
ATOM     38  C   UNL     1       9.148  -8.546   0.501  1.00  0.00     0.009 A 
ATOM     39  C   UNL     1       7.980 -10.227   1.794  1.00  0.00     0.009 A 
ATOM     40  C   UNL     1       9.192  -9.411  -0.592  1.00  0.00     0.001 A 
ATOM     41  C   UNL     1       8.053 -11.101   0.708  1.00  0.00     0.001 A 
ATOM     42  C   UNL     1       8.645 -10.688  -0.487  1.00  0.00     0.000 A 
ENDBRANCH  23  37
BRANCH  24  43
ATOM     43  C   UNL     1       7.366  -1.787   8.584  1.00  0.00    -0.014 A 
ATOM     44  C   UNL     1       8.418  -0.894   8.843  1.00  0.00     0.009 A 
ATOM     45  C   UNL     1       6.278  -1.818   9.466  1.00  0.00     0.009 A 
ATOM     46  C   UNL     1       8.387  -0.067   9.973  1.00  0.00     0.001 A 
ATOM     47  C   UNL     1       6.251  -0.990  10.593  1.00  0.00     0.001 A 
ATOM     48  C   UNL     1       7.303  -0.115  10.847  1.00  0.00     0.000 A 
ENDBRANCH  24  43
BRANCH  36  49
ATOM     49  C   UNL     1      11.001  -7.644   8.357  1.00  0.00    -0.014 A 
ATOM     50  C   UNL     1      10.559  -8.234   9.550  1.00  0.00     0.009 A 
ATOM     51  C   UNL     1      12.372  -7.646   8.057  1.00  0.00     0.009 A 
ATOM     52  C   UNL     1      11.480  -8.783  10.444  1.00  0.00     0.001 A 
ATOM     53  C   UNL     1      13.285  -8.227   8.935  1.00  0.00     0.001 A 
ATOM     54  C   UNL     1      12.840  -8.785  10.132  1.00  0.00     0.000 A 
ENDBRANCH  36  49
ENDBRANCH  10  11
ENDBRANCH   3   5
ENDBRANCH   2   3
ENDBRANCH   1   2
BRANCH   1  55
ATOM     55  C   UNL     1       3.910   2.016   0.407  1.00  0.00     0.274 C 
BRANCH  55  56
ATOM     56  O   UNL     1       3.349   1.095   1.356  1.00  0.00    -0.460 OA
BRANCH  56  57
ATOM     57  C   UNL     1       1.982   1.119   1.465  1.00  0.00     0.335 C 
ATOM     58  O   UNL     1       1.260   1.851   0.792  1.00  0.00    -0.249 OA
BRANCH  57  59
ATOM     59  C   UNL     1       1.488   0.206   2.608  1.00  0.00     0.228 C 
ATOM     60  C   UNL     1       2.310  -1.044   2.812  1.00  0.00     0.047 C 
ATOM     61  O   UNL     1       0.127  -0.205   2.489  1.00  0.00    -0.361 OA
ATOM     62  C   UNL     1       1.360  -2.212   2.848  1.00  0.00     0.037 C 
ATOM     63  C   UNL     1      -0.027  -1.612   2.725  1.00  0.00     0.139 C 
BRANCH  63  64
ATOM     64  C   UNL     1      -0.940  -1.883   3.950  1.00  0.00     0.160 C 
BRANCH  64  65
ATOM     65  N   UNL     1      -0.206  -1.667   5.197  1.00  0.00    -0.280 N 
ATOM     66  C   UNL     1       0.091  -2.751   6.007  1.00  0.00     0.229 C 
ATOM     67  C   UNL     1       0.081  -0.361   5.548  1.00  0.00     0.229 C 
ATOM     68  O   UNL     1      -0.447  -3.852   5.886  1.00  0.00    -0.274 OA
ATOM     69  C   UNL     1       1.225  -2.573   6.994  1.00  0.00     0.108 C 
ATOM     70  C   UNL     1       1.409  -0.200   6.229  1.00  0.00     0.108 C 
ATOM     71  O   UNL     1      -0.618   0.609   5.273  1.00  0.00    -0.274 OA
ATOM     72  C   UNL     1       1.539  -1.134   7.414  1.00  0.00    -0.012 C 
ATOM     73  C   UNL     1       2.984  -1.062   7.962  1.00  0.00     0.008 C 
ATOM     74  C   UNL     1       0.637  -0.639   8.566  1.00  0.00     0.008 C 
ATOM     75  C   UNL     1       2.883  -0.245   9.235  1.00  0.00     0.001 C 
ATOM     76  C   UNL     1       1.532  -0.640   9.793  1.00  0.00     0.001 C 
ENDBRANCH  64  65
ENDBRANCH  63  64
ENDBRANCH  57  59
ENDBRANCH  56  57
ENDBRANCH  55  56
ENDBRANCH   1  55
TORSDOF 13
