REMARK SMILES O=C(OCCOC(=O)[C@H]1CC2=c3ccccc3=N[C@H]2[C@H](c2ccccc2F)[NH2+]1)c1ccc(-c2c3nc(c(-c4ccccc4)c4ccc([nH]4)c(-c4ccccc4)c4nc(c(-c5ccccc5)c5ccc2[nH]5)C=C4)C=C3)cc1
REMARK SMILES IDX 4 1 3 2 2 3 1 4 29 5 30 6 76 7 31 8 75 9 32 10 33 11 34 12
REMARK SMILES IDX 69 13 35 14 74 15 68 16 70 17 36 18 73 19 67 20 66 21 37 23
REMARK SMILES IDX 59 24 44 25 58 26 45 27 48 28 57 29 71 30 46 31 47 32 56 34
REMARK SMILES IDX 72 35 49 36 38 37 39 38 43 39 40 40 42 41 41 42 60 43 61 44
REMARK SMILES IDX 65 45 62 46 64 47 63 48 50 49 51 50 55 51 52 52 54 53 53 54
REMARK SMILES IDX 5 55 6 56 7 57 8 58 9 59 10 60 28 61 11 62 20 63 12 66 19 67
REMARK SMILES IDX 13 68 17 69 18 70 14 71 16 72 15 73 21 74 22 75 26 76 23 77
REMARK SMILES IDX 25 78 27 79 24 80
REMARK H PARENT 70 22 48 33 28 64 28 65
REMARK Flexibility Score: inf
ROOT
ATOM      1  C   UNL     1       3.973  -0.101   2.122  1.00  0.00     0.275 C 
ENDROOT
BRANCH   1   2
ATOM      2  O   UNL     1       3.282   1.090   1.759  1.00  0.00    -0.458 OA
BRANCH   2   3
ATOM      3  C   UNL     1       3.315   1.635   0.523  1.00  0.00     0.338 C 
ATOM      4  O   UNL     1       2.796   2.730   0.321  1.00  0.00    -0.246 OA
BRANCH   3   5
ATOM      5  C   UNL     1       3.731   0.795  -0.638  1.00  0.00     0.060 A 
ATOM      6  C   UNL     1       2.867   0.897  -1.672  1.00  0.00     0.016 A 
ATOM      7  C   UNL     1       4.706  -0.204  -0.751  1.00  0.00     0.016 A 
ATOM      8  C   UNL     1       2.948  -0.065  -2.685  1.00  0.00     0.010 A 
ATOM      9  C   UNL     1       4.677  -1.274  -1.752  1.00  0.00     0.010 A 
ATOM     10  C   UNL     1       3.796  -1.415  -3.010  1.00  0.00    -0.014 A 
BRANCH  10  11
ATOM     11  C   UNL     1       4.122  -2.528  -4.876  1.00  0.00     0.031 A 
ATOM     12  C   UNL     1       4.760  -4.309  -4.861  1.00  0.00     0.074 A 
ATOM     13  C   UNL     1       4.482  -2.280  -6.291  1.00  0.00     0.049 A 
ATOM     14  N   UNL     1       4.757  -5.177  -5.872  1.00  0.00    -0.248 NA
ATOM     15  C   UNL     1       5.020  -5.065  -3.565  1.00  0.00     0.031 C 
ATOM     16  C   UNL     1       4.282  -1.072  -7.124  1.00  0.00     0.029 A 
ATOM     17  N   UNL     1       5.524  -2.874  -7.051  1.00  0.00    -0.354 N 
ATOM     18  C   UNL     1       4.770  -6.467  -5.305  1.00  0.00     0.074 A 
ATOM     19  C   UNL     1       4.799  -6.326  -3.881  1.00  0.00     0.031 C 
ATOM     20  C   UNL     1       5.372  -0.791  -7.843  1.00  0.00     0.029 A 
ATOM     21  C   UNL     1       6.198  -1.980  -7.880  1.00  0.00     0.049 A 
ATOM     22  H   UNL     1       5.750  -3.831  -6.997  1.00  0.00     0.167 HD
ATOM     23  C   UNL     1       4.860  -7.705  -5.851  1.00  0.00     0.031 A 
ATOM     24  C   UNL     1       7.263  -2.042  -8.717  1.00  0.00     0.031 A 
ATOM     25  C   UNL     1       5.478  -7.947  -7.118  1.00  0.00     0.049 A 
ATOM     26  C   UNL     1       7.697  -3.378  -9.227  1.00  0.00     0.074 A 
ATOM     27  C   UNL     1       5.782  -9.159  -7.712  1.00  0.00     0.029 A 
ATOM     28  N   UNL     1       6.088  -6.958  -7.865  1.00  0.00    -0.354 N 
ATOM     29  N   UNL     1       7.316  -4.560  -8.822  1.00  0.00    -0.248 NA
ATOM     30  C   UNL     1       8.566  -3.397 -10.416  1.00  0.00     0.031 C 
ATOM     31  C   UNL     1       6.725  -8.911  -8.712  1.00  0.00     0.029 A 
ATOM     32  C   UNL     1       6.880  -7.539  -8.833  1.00  0.00     0.049 A 
ATOM     33  H   UNL     1       5.975  -5.990  -7.728  1.00  0.00     0.167 HD
ATOM     34  C   UNL     1       7.844  -5.460  -9.736  1.00  0.00     0.074 A 
ATOM     35  C   UNL     1       8.583  -4.691 -10.713  1.00  0.00     0.031 C 
ATOM     36  C   UNL     1       7.684  -6.802  -9.769  1.00  0.00     0.031 A 
BRANCH  23  37
ATOM     37  C   UNL     1       4.499  -8.902  -4.992  1.00  0.00    -0.014 A 
ATOM     38  C   UNL     1       5.480  -9.797  -4.534  1.00  0.00     0.009 A 
ATOM     39  C   UNL     1       3.153  -9.175  -4.690  1.00  0.00     0.009 A 
ATOM     40  C   UNL     1       5.125 -10.943  -3.812  1.00  0.00     0.001 A 
ATOM     41  C   UNL     1       2.802 -10.314  -3.955  1.00  0.00     0.001 A 
ATOM     42  C   UNL     1       3.787 -11.201  -3.524  1.00  0.00     0.000 A 
ENDBRANCH  23  37
BRANCH  24  43
ATOM     43  C   UNL     1       7.764  -0.768  -9.334  1.00  0.00    -0.014 A 
ATOM     44  C   UNL     1       8.593   0.103  -8.602  1.00  0.00     0.009 A 
ATOM     45  C   UNL     1       7.258  -0.328 -10.568  1.00  0.00     0.009 A 
ATOM     46  C   UNL     1       8.854   1.399  -9.066  1.00  0.00     0.001 A 
ATOM     47  C   UNL     1       7.520   0.967 -11.028  1.00  0.00     0.001 A 
ATOM     48  C   UNL     1       8.302   1.836 -10.269  1.00  0.00     0.000 A 
ENDBRANCH  24  43
BRANCH  36  49
ATOM     49  C   UNL     1       8.384  -7.596 -10.828  1.00  0.00    -0.014 A 
ATOM     50  C   UNL     1       7.628  -8.360 -11.732  1.00  0.00     0.009 A 
ATOM     51  C   UNL     1       9.777  -7.746 -10.798  1.00  0.00     0.009 A 
ATOM     52  C   UNL     1       8.250  -9.300 -12.551  1.00  0.00     0.001 A 
ATOM     53  C   UNL     1      10.399  -8.663 -11.645  1.00  0.00     0.001 A 
ATOM     54  C   UNL     1       9.635  -9.452 -12.504  1.00  0.00     0.000 A 
ENDBRANCH  36  49
ENDBRANCH  10  11
ENDBRANCH   3   5
ENDBRANCH   2   3
ENDBRANCH   1   2
BRANCH   1  55
ATOM     55  C   UNL     1       3.243  -1.417   1.798  1.00  0.00     0.274 C 
BRANCH  55  56
ATOM     56  O   UNL     1       2.798  -1.679   0.437  1.00  0.00    -0.458 OA
BRANCH  56  57
ATOM     57  C   UNL     1       1.586  -1.269  -0.112  1.00  0.00     0.365 C 
ATOM     58  O   UNL     1       0.833  -0.475   0.428  1.00  0.00    -0.245 OA
BRANCH  57  59
ATOM     59  C   UNL     1       1.265  -2.110  -1.462  1.00  0.00     0.298 C 
ATOM     60  C   UNL     1       0.990  -1.539  -3.105  1.00  0.00     0.111 C 
ATOM     61  N   UNL     1       2.107  -3.325  -1.261  1.00  0.00    -0.326 N 
ATOM     62  C   UNL     1       2.262  -1.670  -4.311  1.00  0.00    -0.024 C 
ATOM     63  C   UNL     1       2.251  -4.110  -2.439  1.00  0.00     0.246 C 
ATOM     64  H   UNL     1       1.677  -3.901  -0.538  1.00  0.00     0.347 HD
ATOM     65  H   UNL     1       3.039  -3.006  -0.995  1.00  0.00     0.347 HD
ATOM     66  C   UNL     1       3.482  -0.596  -4.816  1.00  0.00     0.002 A 
ATOM     67  C   UNL     1       3.100  -3.215  -3.434  1.00  0.00     0.196 C 
ATOM     68  C   UNL     1       3.615   0.855  -5.098  1.00  0.00     0.010 A 
ATOM     69  C   UNL     1       5.280  -1.246  -4.156  1.00  0.00     0.066 A 
ATOM     70  N   UNL     1       5.104  -2.718  -3.346  1.00  0.00    -0.270 NA
ATOM     71  C   UNL     1       4.790   1.500  -4.932  1.00  0.00     0.001 A 
ATOM     72  C   UNL     1       6.401  -0.312  -4.195  1.00  0.00     0.028 A 
ATOM     73  C   UNL     1       6.090   0.952  -4.526  1.00  0.00     0.002 A 
BRANCH  63  74
ATOM     74  C   UNL     1       0.815  -4.588  -2.903  1.00  0.00     0.048 A 
ATOM     75  C   UNL     1       0.414  -4.669  -4.250  1.00  0.00     0.013 A 
ATOM     76  C   UNL     1      -0.216  -4.758  -1.945  1.00  0.00     0.132 A 
ATOM     77  C   UNL     1      -0.953  -4.657  -4.598  1.00  0.00     0.001 A 
ATOM     78  C   UNL     1      -1.569  -4.681  -2.285  1.00  0.00     0.040 A 
ATOM     79  F   UNL     1       0.067  -4.843  -0.636  1.00  0.00    -0.206 F 
ATOM     80  C   UNL     1      -1.941  -4.588  -3.617  1.00  0.00     0.003 A 
ENDBRANCH  63  74
ENDBRANCH  57  59
ENDBRANCH  56  57
ENDBRANCH  55  56
ENDBRANCH   1  55
TORSDOF 12
