REMARK SMILES COc1cccc2c(C)cc(S[C@H](C)C(=O)Nc3ccc(C(=O)OCCOC(=O)c4ccc(-c5c6nc(c(-c7ccccc7)c7ccc([nH]7)c(-c7ccccc7)c7nc(c(-c8ccccc8)c8ccc5[nH]8)C=C7)C=C6)cc4)cc3)nc12
REMARK SMILES IDX 24 1 22 2 23 3 21 4 18 5 19 6 79 7 20 8 78 9 17 10 15 11
REMARK SMILES IDX 16 12 13 14 14 15 12 16 11 17 3 18 4 19 81 20 5 21 7 22
REMARK SMILES IDX 80 23 6 24 8 25 9 26 10 27 2 28 1 29 25 30 26 31 27 32 28 33
REMARK SMILES IDX 29 34 30 35 31 36 77 37 32 38 76 39 33 40 34 41 35 42 70 43
REMARK SMILES IDX 36 44 75 45 69 46 71 47 37 48 74 49 68 50 67 51 38 53 60 54
REMARK SMILES IDX 45 55 59 56 46 57 49 58 58 59 72 60 47 61 48 62 57 64 73 65
REMARK SMILES IDX 50 66 39 67 40 68 44 69 41 70 43 71 42 72 61 73 62 74 66 75
REMARK SMILES IDX 63 76 65 77 64 78 51 79 52 80 56 81 53 82 55 83 54 84
REMARK H PARENT 17 13 71 52 49 63
REMARK Flexibility Score: inf
ROOT
ATOM      1  O   UNL     1       1.310  -4.008  -2.474  1.00  0.00    -0.458 OA
ENDROOT
BRANCH   1   2
ATOM      2  C   UNL     1       2.467  -4.214  -3.148  1.00  0.00     0.338 C 
ATOM      3  O   UNL     1       2.851  -5.295  -3.574  1.00  0.00    -0.246 OA
BRANCH   2   4
ATOM      4  C   UNL     1       3.270  -2.978  -3.334  1.00  0.00     0.060 A 
ATOM      5  C   UNL     1       5.160  -0.934  -3.450  1.00  0.00     0.041 A 
ATOM      6  C   UNL     1       5.203  -1.954  -4.393  1.00  0.00     0.027 A 
ATOM      7  C   UNL     1       4.105  -0.853  -2.540  1.00  0.00     0.027 A 
ATOM      8  C   UNL     1       4.294  -3.001  -4.295  1.00  0.00     0.018 A 
ATOM      9  C   UNL     1       3.137  -1.863  -2.501  1.00  0.00     0.018 A 
BRANCH   5  10
ATOM     10  N   UNL     1       6.184   0.005  -3.470  1.00  0.00    -0.325 N 
ATOM     11  C   UNL     1       7.172   0.194  -2.549  1.00  0.00     0.237 C 
ATOM     12  O   UNL     1       8.006   1.072  -2.812  1.00  0.00    -0.273 OA
ATOM     13  H   UNL     1       6.199   0.609  -4.247  1.00  0.00     0.169 HD
BRANCH  11  14
ATOM     14  C   UNL     1       7.301  -0.610  -1.245  1.00  0.00     0.139 C 
ATOM     15  C   UNL     1       6.440  -0.116  -0.095  1.00  0.00     0.030 C 
BRANCH  14  16
ATOM     16  S   UNL     1       7.788  -2.373  -1.511  1.00  0.00    -0.093 SA
BRANCH  16  17
ATOM     17  C   UNL     1       6.469  -3.535  -1.269  1.00  0.00     0.098 A 
ATOM     18  C   UNL     1       6.135  -7.008  -2.359  1.00  0.00     0.145 A 
ATOM     19  C   UNL     1       5.218  -8.064  -2.375  1.00  0.00     0.049 A 
ATOM     20  C   UNL     1       5.870  -5.776  -1.734  1.00  0.00     0.114 A 
ATOM     21  C   UNL     1       4.034  -7.946  -1.671  1.00  0.00     0.005 A 
ATOM     22  C   UNL     1       4.677  -5.672  -0.991  1.00  0.00     0.007 A 
ATOM     23  N   UNL     1       6.731  -4.732  -1.844  1.00  0.00    -0.238 NA
ATOM     24  C   UNL     1       3.783  -6.774  -0.959  1.00  0.00     0.011 A 
ATOM     25  C   UNL     1       4.432  -4.445  -0.332  1.00  0.00    -0.039 A 
ATOM     26  C   UNL     1       3.201  -4.186   0.497  1.00  0.00     0.045 C 
ATOM     27  C   UNL     1       5.332  -3.377  -0.507  1.00  0.00     0.039 A 
BRANCH  18  28
ATOM     28  O   UNL     1       7.323  -7.264  -3.014  1.00  0.00    -0.494 OA
ATOM     29  C   UNL     1       8.403  -7.284  -2.076  1.00  0.00     0.278 C 
ENDBRANCH  18  28
ENDBRANCH  16  17
ENDBRANCH  14  16
ENDBRANCH  11  14
ENDBRANCH   5  10
ENDBRANCH   2   4
ENDBRANCH   1   2
BRANCH   1  30
ATOM     30  C   UNL     1       0.570  -5.212  -2.178  1.00  0.00     0.275 C 
BRANCH  30  31
ATOM     31  C   UNL     1      -0.585  -5.449  -3.149  1.00  0.00     0.275 C 
BRANCH  31  32
ATOM     32  O   UNL     1      -0.094  -5.650  -4.484  1.00  0.00    -0.458 OA
BRANCH  32  33
ATOM     33  C   UNL     1      -0.212  -4.577  -5.297  1.00  0.00     0.338 C 
ATOM     34  O   UNL     1      -0.755  -3.513  -5.055  1.00  0.00    -0.246 OA
BRANCH  33  35
ATOM     35  C   UNL     1       0.519  -4.815  -6.548  1.00  0.00     0.060 A 
ATOM     36  C   UNL     1       1.899  -4.645  -6.536  1.00  0.00     0.016 A 
ATOM     37  C   UNL     1      -0.152  -4.992  -7.752  1.00  0.00     0.016 A 
ATOM     38  C   UNL     1       2.622  -4.559  -7.711  1.00  0.00     0.010 A 
ATOM     39  C   UNL     1       0.583  -4.982  -8.941  1.00  0.00     0.010 A 
ATOM     40  C   UNL     1       1.968  -4.722  -8.929  1.00  0.00    -0.014 A 
BRANCH  40  41
ATOM     41  C   UNL     1       2.711  -4.486 -10.187  1.00  0.00     0.031 A 
ATOM     42  C   UNL     1       2.277  -3.359 -11.078  1.00  0.00     0.074 A 
ATOM     43  C   UNL     1       3.787  -5.230 -10.504  1.00  0.00     0.049 A 
ATOM     44  N   UNL     1       2.587  -3.123 -12.325  1.00  0.00    -0.248 NA
ATOM     45  C   UNL     1       1.355  -2.373 -10.488  1.00  0.00     0.031 C 
ATOM     46  C   UNL     1       4.390  -6.265  -9.659  1.00  0.00     0.029 A 
ATOM     47  N   UNL     1       4.569  -5.224 -11.629  1.00  0.00    -0.354 N 
ATOM     48  C   UNL     1       1.838  -2.012 -12.691  1.00  0.00     0.074 A 
ATOM     49  C   UNL     1       1.068  -1.613 -11.534  1.00  0.00     0.031 C 
ATOM     50  C   UNL     1       5.457  -6.779 -10.289  1.00  0.00     0.029 A 
ATOM     51  C   UNL     1       5.546  -6.189 -11.618  1.00  0.00     0.049 A 
ATOM     52  H   UNL     1       4.442  -4.590 -12.372  1.00  0.00     0.167 HD
ATOM     53  C   UNL     1       1.790  -1.399 -13.896  1.00  0.00     0.031 A 
ATOM     54  C   UNL     1       6.373  -6.598 -12.597  1.00  0.00     0.031 A 
ATOM     55  C   UNL     1       2.597  -1.795 -15.018  1.00  0.00     0.049 A 
ATOM     56  C   UNL     1       6.252  -5.954 -13.949  1.00  0.00     0.074 A 
ATOM     57  C   UNL     1       2.625  -1.268 -16.296  1.00  0.00     0.029 A 
ATOM     58  N   UNL     1       3.541  -2.812 -14.981  1.00  0.00    -0.354 N 
ATOM     59  N   UNL     1       5.464  -4.977 -14.331  1.00  0.00    -0.248 NA
ATOM     60  C   UNL     1       7.116  -6.485 -15.010  1.00  0.00     0.031 C 
ATOM     61  C   UNL     1       3.558  -1.994 -17.044  1.00  0.00     0.029 A 
ATOM     62  C   UNL     1       4.150  -2.937 -16.216  1.00  0.00     0.049 A 
ATOM     63  H   UNL     1       3.747  -3.364 -14.192  1.00  0.00     0.167 HD
ATOM     64  C   UNL     1       5.747  -4.765 -15.672  1.00  0.00     0.074 A 
ATOM     65  C   UNL     1       6.794  -5.702 -16.030  1.00  0.00     0.031 C 
ATOM     66  C   UNL     1       5.191  -3.880 -16.535  1.00  0.00     0.031 A 
BRANCH  53  67
ATOM     67  C   UNL     1       0.787  -0.294 -14.072  1.00  0.00    -0.014 A 
ATOM     68  C   UNL     1       0.945   0.959 -13.459  1.00  0.00     0.009 A 
ATOM     69  C   UNL     1      -0.344  -0.517 -14.874  1.00  0.00     0.009 A 
ATOM     70  C   UNL     1      -0.027   1.950 -13.617  1.00  0.00     0.001 A 
ATOM     71  C   UNL     1      -1.299   0.485 -15.054  1.00  0.00     0.001 A 
ATOM     72  C   UNL     1      -1.145   1.714 -14.417  1.00  0.00     0.000 A 
ENDBRANCH  53  67
BRANCH  54  73
ATOM     73  C   UNL     1       7.319  -7.719 -12.356  1.00  0.00    -0.014 A 
ATOM     74  C   UNL     1       8.704  -7.497 -12.344  1.00  0.00     0.009 A 
ATOM     75  C   UNL     1       6.841  -9.020 -12.126  1.00  0.00     0.009 A 
ATOM     76  C   UNL     1       9.589  -8.556 -12.123  1.00  0.00     0.001 A 
ATOM     77  C   UNL     1       7.725 -10.070 -11.872  1.00  0.00     0.001 A 
ATOM     78  C   UNL     1       9.099  -9.839 -11.880  1.00  0.00     0.000 A 
ENDBRANCH  54  73
BRANCH  66  79
ATOM     79  C   UNL     1       5.741  -3.861 -17.930  1.00  0.00    -0.014 A 
ATOM     80  C   UNL     1       5.441  -4.881 -18.845  1.00  0.00     0.009 A 
ATOM     81  C   UNL     1       6.546  -2.787 -18.340  1.00  0.00     0.009 A 
ATOM     82  C   UNL     1       5.966  -4.841 -20.137  1.00  0.00     0.001 A 
ATOM     83  C   UNL     1       7.045  -2.735 -19.640  1.00  0.00     0.001 A 
ATOM     84  C   UNL     1       6.763  -3.767 -20.535  1.00  0.00     0.000 A 
ENDBRANCH  66  79
ENDBRANCH  40  41
ENDBRANCH  33  35
ENDBRANCH  32  33
ENDBRANCH  31  32
ENDBRANCH  30  31
ENDBRANCH   1  30
TORSDOF 16
