REMARK SMILES O=C(OCCOC(=O)c1cnc(Nc2ccccc2)nc1)c1ccc(-c2c3nc(c(-c4ccccc4)c4ccc([nH]4)c(-c4ccccc4)c4nc(c(-c5ccccc5)c5ccc2[nH]5)C=C4)C=C3)cc1
REMARK SMILES IDX 4 1 3 2 2 3 1 4 22 5 23 6 69 7 24 8 68 9 25 10 26 11 27 12
REMARK SMILES IDX 62 13 28 14 67 15 61 16 63 17 29 18 66 19 60 20 59 21 30 23
REMARK SMILES IDX 52 24 37 25 51 26 38 27 41 28 50 29 64 30 39 31 40 32 49 34
REMARK SMILES IDX 65 35 42 36 31 37 32 38 36 39 33 40 35 41 34 42 53 43 54 44
REMARK SMILES IDX 58 45 55 46 57 47 56 48 43 49 44 50 48 51 45 52 47 53 46 54
REMARK SMILES IDX 5 55 6 56 7 57 8 58 9 59 10 60 21 61 11 62 20 63 12 64 13 65
REMARK SMILES IDX 14 67 15 68 19 69 16 70 18 71 17 72
REMARK H PARENT 63 22 41 33 13 66
REMARK Flexibility Score: inf
ROOT
ATOM      1  C   UNL     1       4.027  -0.821  -1.474  1.00  0.00     0.275 C 
ENDROOT
BRANCH   1   2
ATOM      2  O   UNL     1       2.968  -1.026  -0.519  1.00  0.00    -0.458 OA
BRANCH   2   3
ATOM      3  C   UNL     1       2.816  -0.566   0.743  1.00  0.00     0.338 C 
ATOM      4  O   UNL     1       1.938  -1.056   1.452  1.00  0.00    -0.246 OA
BRANCH   3   5
ATOM      5  C   UNL     1       3.558   0.608   1.296  1.00  0.00     0.060 A 
ATOM      6  C   UNL     1       4.894   0.924   1.046  1.00  0.00     0.016 A 
ATOM      7  C   UNL     1       2.850   1.416   2.207  1.00  0.00     0.016 A 
ATOM      8  C   UNL     1       5.492   2.037   1.647  1.00  0.00     0.010 A 
ATOM      9  C   UNL     1       3.440   2.535   2.804  1.00  0.00     0.010 A 
ATOM     10  C   UNL     1       4.776   2.840   2.540  1.00  0.00    -0.014 A 
BRANCH  10  11
ATOM     11  C   UNL     1       5.494   3.878   3.315  1.00  0.00     0.031 A 
ATOM     12  C   UNL     1       5.931   3.555   4.714  1.00  0.00     0.074 A 
ATOM     13  C   UNL     1       5.833   5.050   2.749  1.00  0.00     0.049 A 
ATOM     14  N   UNL     1       6.695   4.245   5.521  1.00  0.00    -0.248 NA
ATOM     15  C   UNL     1       5.465   2.273   5.270  1.00  0.00     0.031 C 
ATOM     16  C   UNL     1       5.504   5.452   1.385  1.00  0.00     0.029 A 
ATOM     17  N   UNL     1       6.545   6.112   3.247  1.00  0.00    -0.354 N 
ATOM     18  C   UNL     1       6.832   3.464   6.660  1.00  0.00     0.074 A 
ATOM     19  C   UNL     1       6.022   2.282   6.471  1.00  0.00     0.031 C 
ATOM     20  C   UNL     1       6.014   6.672   1.148  1.00  0.00     0.029 A 
ATOM     21  C   UNL     1       6.703   7.139   2.346  1.00  0.00     0.049 A 
ATOM     22  H   UNL     1       6.909   6.136   4.162  1.00  0.00     0.167 HD
ATOM     23  C   UNL     1       7.591   3.695   7.756  1.00  0.00     0.031 A 
ATOM     24  C   UNL     1       7.340   8.319   2.477  1.00  0.00     0.031 A 
ATOM     25  C   UNL     1       8.364   4.887   7.961  1.00  0.00     0.049 A 
ATOM     26  C   UNL     1       8.041   8.619   3.774  1.00  0.00     0.074 A 
ATOM     27  C   UNL     1       9.163   5.229   9.037  1.00  0.00     0.029 A 
ATOM     28  N   UNL     1       8.417   5.945   7.066  1.00  0.00    -0.354 N 
ATOM     29  N   UNL     1       8.211   7.846   4.820  1.00  0.00    -0.248 NA
ATOM     30  C   UNL     1       8.651   9.950   3.902  1.00  0.00     0.031 C 
ATOM     31  C   UNL     1       9.667   6.515   8.810  1.00  0.00     0.029 A 
ATOM     32  C   UNL     1       9.215   6.953   7.575  1.00  0.00     0.049 A 
ATOM     33  H   UNL     1       7.955   5.974   6.197  1.00  0.00     0.167 HD
ATOM     34  C   UNL     1       8.999   8.572   5.703  1.00  0.00     0.074 A 
ATOM     35  C   UNL     1       9.260   9.852   5.076  1.00  0.00     0.031 C 
ATOM     36  C   UNL     1       9.482   8.205   6.915  1.00  0.00     0.031 A 
BRANCH  23  37
ATOM     37  C   UNL     1       7.589   2.626   8.809  1.00  0.00    -0.014 A 
ATOM     38  C   UNL     1       8.265   1.412   8.601  1.00  0.00     0.009 A 
ATOM     39  C   UNL     1       6.873   2.813  10.000  1.00  0.00     0.009 A 
ATOM     40  C   UNL     1       8.186   0.389   9.546  1.00  0.00     0.001 A 
ATOM     41  C   UNL     1       6.814   1.795  10.953  1.00  0.00     0.001 A 
ATOM     42  C   UNL     1       7.460   0.580  10.721  1.00  0.00     0.000 A 
ENDBRANCH  23  37
BRANCH  24  43
ATOM     43  C   UNL     1       7.353   9.304   1.361  1.00  0.00    -0.014 A 
ATOM     44  C   UNL     1       8.543   9.648   0.703  1.00  0.00     0.009 A 
ATOM     45  C   UNL     1       6.166   9.941   0.972  1.00  0.00     0.009 A 
ATOM     46  C   UNL     1       8.544  10.629  -0.295  1.00  0.00     0.001 A 
ATOM     47  C   UNL     1       6.162  10.902  -0.041  1.00  0.00     0.001 A 
ATOM     48  C   UNL     1       7.354  11.254  -0.666  1.00  0.00     0.000 A 
ENDBRANCH  24  43
BRANCH  36  49
ATOM     49  C   UNL     1      10.409   9.167   7.597  1.00  0.00    -0.014 A 
ATOM     50  C   UNL     1       9.932  10.326   8.225  1.00  0.00     0.009 A 
ATOM     51  C   UNL     1      11.783   8.881   7.636  1.00  0.00     0.009 A 
ATOM     52  C   UNL     1      10.822  11.198   8.855  1.00  0.00     0.001 A 
ATOM     53  C   UNL     1      12.666   9.741   8.288  1.00  0.00     0.001 A 
ATOM     54  C   UNL     1      12.185  10.903   8.890  1.00  0.00     0.000 A 
ENDBRANCH  36  49
ENDBRANCH  10  11
ENDBRANCH   3   5
ENDBRANCH   2   3
ENDBRANCH   1   2
BRANCH   1  55
ATOM     55  C   UNL     1       3.780   0.334  -2.443  1.00  0.00     0.275 C 
BRANCH  55  56
ATOM     56  O   UNL     1       3.437   1.560  -1.782  1.00  0.00    -0.458 OA
BRANCH  56  57
ATOM     57  C   UNL     1       2.107   1.832  -1.726  1.00  0.00     0.341 C 
ATOM     58  O   UNL     1       1.195   1.158  -2.169  1.00  0.00    -0.246 OA
BRANCH  57  59
ATOM     59  C   UNL     1       1.899   3.022  -0.909  1.00  0.00     0.096 A 
ATOM     60  C   UNL     1       2.621   4.178  -1.047  1.00  0.00     0.132 A 
ATOM     61  C   UNL     1       0.980   3.012   0.109  1.00  0.00     0.132 A 
ATOM     62  N   UNL     1       2.484   5.234  -0.215  1.00  0.00    -0.220 NA
ATOM     63  N   UNL     1       0.865   4.014   1.009  1.00  0.00    -0.220 NA
ATOM     64  C   UNL     1       1.641   5.098   0.827  1.00  0.00     0.227 A 
BRANCH  64  65
ATOM     65  N   UNL     1       1.627   6.029   1.855  1.00  0.00    -0.324 N 
ATOM     66  H   UNL     1       1.309   5.673   2.716  1.00  0.00     0.170 HD
BRANCH  65  67
ATOM     67  C   UNL     1       1.984   7.379   1.891  1.00  0.00     0.041 A 
ATOM     68  C   UNL     1       2.452   7.935   3.090  1.00  0.00     0.026 A 
ATOM     69  C   UNL     1       1.913   8.202   0.763  1.00  0.00     0.026 A 
ATOM     70  C   UNL     1       2.780   9.291   3.173  1.00  0.00     0.002 A 
ATOM     71  C   UNL     1       2.215   9.563   0.847  1.00  0.00     0.002 A 
ATOM     72  C   UNL     1       2.635  10.111   2.057  1.00  0.00     0.000 A 
ENDBRANCH  65  67
ENDBRANCH  64  65
ENDBRANCH  57  59
ENDBRANCH  56  57
ENDBRANCH  55  56
ENDBRANCH   1  55
TORSDOF 13
