REMARK SMILES Cc1cc(Cl)c(C)c2c1O[C@H](C(F)(F)F)C(C(=O)OCCOC(=O)c1ccc(-c3c4nc(c(-c5ccccc5)c5ccc([nH]5)c(-c5ccccc5)c5nc(c(-c6ccccc6)c6ccc3[nH]6)C=C5)C=C4)cc1)=C2
REMARK SMILES IDX 21 1 20 2 19 3 17 4 18 5 16 6 1 7 2 8 3 9 9 10 4 11 8 12
REMARK SMILES IDX 10 13 5 14 6 15 73 16 11 17 7 18 12 19 13 20 14 21 15 22
REMARK SMILES IDX 22 23 23 24 24 25 25 26 26 27 72 28 27 29 71 30 28 31 29 32
REMARK SMILES IDX 30 33 65 34 31 35 70 36 64 37 66 38 32 39 69 40 63 41 62 42
REMARK SMILES IDX 33 44 55 45 40 46 54 47 41 48 44 49 53 50 67 51 42 52 43 53
REMARK SMILES IDX 52 55 68 56 45 57 34 58 35 59 39 60 36 61 38 62 37 63 56 64
REMARK SMILES IDX 57 65 61 66 58 67 60 68 59 69 46 70 47 71 51 72 48 73 50 74
REMARK SMILES IDX 49 75
REMARK H PARENT 66 43 44 54
REMARK Flexibility Score: inf
ROOT
ATOM      1  C   UNL     1      -7.129   2.436  -3.169  1.00  0.00     0.275 C 
ENDROOT
BRANCH   1   2
ATOM      2  C   UNL     1      -6.108   1.520  -3.843  1.00  0.00     0.275 C 
BRANCH   2   3
ATOM      3  O   UNL     1      -4.939   1.346  -3.013  1.00  0.00    -0.459 OA
BRANCH   3   4
ATOM      4  C   UNL     1      -3.840   2.034  -3.396  1.00  0.00     0.338 C 
ATOM      5  O   UNL     1      -3.737   2.769  -4.365  1.00  0.00    -0.246 OA
BRANCH   4   6
ATOM      6  C   UNL     1      -2.727   1.788  -2.460  1.00  0.00     0.087 C 
ATOM      7  C   UNL     1       1.143  -0.392   0.069  1.00  0.00     0.048 C 
ATOM      8  C   UNL     1       0.714   1.017  -0.227  1.00  0.00    -0.007 A 
ATOM      9  C   UNL     1       1.499   2.081   0.230  1.00  0.00     0.028 A 
ATOM     10  C   UNL     1      -0.474   1.296  -0.915  1.00  0.00     0.131 A 
ATOM     11  C   UNL     1       1.122   3.406  -0.004  1.00  0.00     0.045 A 
ATOM     12  C   UNL     1      -0.850   2.624  -1.182  1.00  0.00     0.022 A 
ATOM     13  O   UNL     1      -1.232   0.211  -1.270  1.00  0.00    -0.475 OA
ATOM     14  Cl  UNL     1       2.179   4.629   0.613  1.00  0.00    -0.084 Cl
ATOM     15  C   UNL     1      -0.055   3.705  -0.711  1.00  0.00    -0.021 A 
ATOM     16  C   UNL     1      -2.055   2.841  -1.980  1.00  0.00     0.027 C 
ATOM     17  C   UNL     1      -2.318   0.371  -2.213  1.00  0.00     0.316 C 
ATOM     18  C   UNL     1      -0.474   5.133  -0.964  1.00  0.00     0.047 C 
BRANCH  17  19
ATOM     19  C   UNL     1      -1.956  -0.349  -3.522  1.00  0.00     0.430 C 
ATOM     20  F   UNL     1      -1.548  -1.619  -3.291  1.00  0.00    -0.167 F 
ATOM     21  F   UNL     1      -3.022  -0.432  -4.354  1.00  0.00    -0.167 F 
ATOM     22  F   UNL     1      -0.966   0.281  -4.195  1.00  0.00    -0.167 F 
ENDBRANCH  17  19
ENDBRANCH   4   6
ENDBRANCH   3   4
ENDBRANCH   2   3
ENDBRANCH   1   2
BRANCH   1  23
ATOM     23  O   UNL     1      -6.594   3.768  -3.062  1.00  0.00    -0.458 OA
BRANCH  23  24
ATOM     24  C   UNL     1      -6.277   4.170  -1.811  1.00  0.00     0.338 C 
ATOM     25  O   UNL     1      -6.452   3.564  -0.768  1.00  0.00    -0.246 OA
BRANCH  24  26
ATOM     26  C   UNL     1      -5.582   5.466  -1.861  1.00  0.00     0.060 A 
ATOM     27  C   UNL     1      -4.381   5.556  -2.553  1.00  0.00     0.016 A 
ATOM     28  C   UNL     1      -6.007   6.529  -1.068  1.00  0.00     0.016 A 
ATOM     29  C   UNL     1      -3.526   6.629  -2.325  1.00  0.00     0.010 A 
ATOM     30  C   UNL     1      -5.205   7.674  -0.958  1.00  0.00     0.010 A 
ATOM     31  C   UNL     1      -3.921   7.715  -1.531  1.00  0.00    -0.014 A 
BRANCH  31  32
ATOM     32  C   UNL     1      -2.972   8.840  -1.258  1.00  0.00     0.031 A 
ATOM     33  C   UNL     1      -2.689   9.277   0.162  1.00  0.00     0.074 A 
ATOM     34  C   UNL     1      -2.309   9.450  -2.265  1.00  0.00     0.049 A 
ATOM     35  N   UNL     1      -2.054  10.342   0.589  1.00  0.00    -0.248 NA
ATOM     36  C   UNL     1      -3.195   8.416   1.244  1.00  0.00     0.031 C 
ATOM     37  C   UNL     1      -2.406   9.104  -3.685  1.00  0.00     0.029 A 
ATOM     38  N   UNL     1      -1.394  10.477  -2.244  1.00  0.00    -0.354 N 
ATOM     39  C   UNL     1      -2.149  10.313   1.977  1.00  0.00     0.074 A 
ATOM     40  C   UNL     1      -2.904   9.130   2.323  1.00  0.00     0.031 C 
ATOM     41  C   UNL     1      -1.524   9.835  -4.381  1.00  0.00     0.029 A 
ATOM     42  C   UNL     1      -0.899  10.799  -3.486  1.00  0.00     0.049 A 
ATOM     43  H   UNL     1      -1.120  10.938  -1.419  1.00  0.00     0.167 HD
ATOM     44  C   UNL     1      -1.652  11.192   2.881  1.00  0.00     0.031 A 
ATOM     45  C   UNL     1      -0.077  11.789  -3.884  1.00  0.00     0.031 A 
ATOM     46  C   UNL     1      -0.844  12.334   2.544  1.00  0.00     0.049 A 
ATOM     47  C   UNL     1       0.404  12.791  -2.876  1.00  0.00     0.074 A 
ATOM     48  C   UNL     1      -0.296  13.282   3.392  1.00  0.00     0.029 A 
ATOM     49  N   UNL     1      -0.442  12.667   1.260  1.00  0.00    -0.354 N 
ATOM     50  N   UNL     1       0.218  12.809  -1.580  1.00  0.00    -0.248 NA
ATOM     51  C   UNL     1       1.178  13.929  -3.392  1.00  0.00     0.031 C 
ATOM     52  C   UNL     1       0.397  14.216   2.616  1.00  0.00     0.029 A 
ATOM     53  C   UNL     1       0.329  13.817   1.292  1.00  0.00     0.049 A 
ATOM     54  H   UNL     1      -0.671  12.161   0.447  1.00  0.00     0.167 HD
ATOM     55  C   UNL     1       0.851  13.957  -1.124  1.00  0.00     0.074 A 
ATOM     56  C   UNL     1       1.452  14.593  -2.278  1.00  0.00     0.031 C 
ATOM     57  C   UNL     1       0.916  14.445   0.138  1.00  0.00     0.031 A 
BRANCH  44  58
ATOM     58  C   UNL     1      -1.992  10.981   4.332  1.00  0.00    -0.014 A 
ATOM     59  C   UNL     1      -1.407   9.952   5.085  1.00  0.00     0.009 A 
ATOM     60  C   UNL     1      -2.863  11.879   4.972  1.00  0.00     0.009 A 
ATOM     61  C   UNL     1      -1.706   9.814   6.444  1.00  0.00     0.001 A 
ATOM     62  C   UNL     1      -3.136  11.756   6.336  1.00  0.00     0.001 A 
ATOM     63  C   UNL     1      -2.563  10.719   7.069  1.00  0.00     0.000 A 
ENDBRANCH  44  58
BRANCH  45  64
ATOM     64  C   UNL     1       0.285  11.919  -5.322  1.00  0.00    -0.014 A 
ATOM     65  C   UNL     1       1.603  11.698  -5.748  1.00  0.00     0.009 A 
ATOM     66  C   UNL     1      -0.691  12.241  -6.280  1.00  0.00     0.009 A 
ATOM     67  C   UNL     1       1.935  11.799  -7.102  1.00  0.00     0.001 A 
ATOM     68  C   UNL     1      -0.364  12.306  -7.636  1.00  0.00     0.001 A 
ATOM     69  C   UNL     1       0.950  12.091  -8.045  1.00  0.00     0.000 A 
ENDBRANCH  45  64
BRANCH  57  70
ATOM     70  C   UNL     1       1.673  15.724   0.345  1.00  0.00    -0.014 A 
ATOM     71  C   UNL     1       1.134  16.955  -0.059  1.00  0.00     0.009 A 
ATOM     72  C   UNL     1       2.910  15.705   1.007  1.00  0.00     0.009 A 
ATOM     73  C   UNL     1       1.831  18.141   0.179  1.00  0.00     0.001 A 
ATOM     74  C   UNL     1       3.592  16.894   1.267  1.00  0.00     0.001 A 
ATOM     75  C   UNL     1       3.055  18.110   0.848  1.00  0.00     0.000 A 
ENDBRANCH  57  70
ENDBRANCH  31  32
ENDBRANCH  24  26
ENDBRANCH  23  24
ENDBRANCH   1  23
TORSDOF 12
