REMARK SMILES Cc1c(C(=O)OCCOC(=O)c2ccc(-c3c4nc(c(-c5ccccc5)c5ccc([nH]5)c(-c5ccccc5)c5nc(c(-c6ccccc6)c6ccc3[nH]6)C=C5)C=C4)cc2)oc2c1/C(=N/NC(=O)C(c1ccccc1)c1ccccc1)CCC2
REMARK SMILES IDX 7 1 6 2 4 3 5 4 3 5 1 6 2 7 62 8 60 9 61 10 63 11 83 12
REMARK SMILES IDX 64 13 81 14 82 15 65 16 66 17 67 19 68 20 69 21 70 22 74 23
REMARK SMILES IDX 71 24 73 25 72 26 75 27 76 28 80 29 77 30 79 31 78 32 8 33
REMARK SMILES IDX 9 34 10 35 11 36 12 37 13 38 59 39 14 40 58 41 15 42 16 43
REMARK SMILES IDX 17 44 52 45 18 46 57 47 51 48 53 49 19 50 56 51 50 52 49 53
REMARK SMILES IDX 20 55 42 56 27 57 41 58 28 59 31 60 40 61 54 62 29 63 30 64
REMARK SMILES IDX 39 66 55 67 32 68 21 69 22 70 26 71 23 72 25 73 24 74 43 75
REMARK SMILES IDX 44 76 48 77 45 78 47 79 46 80 33 81 34 82 38 83 35 84 37 85
REMARK SMILES IDX 36 86
REMARK H PARENT 65 18 53 54 31 65
REMARK Flexibility Score: inf
ROOT
ATOM      1  C   UNL     1      -2.263  -1.173  -5.167  1.00  0.00     0.275 C 
ENDROOT
BRANCH   1   2
ATOM      2  O   UNL     1      -1.909  -0.127  -4.262  1.00  0.00    -0.456 OA
BRANCH   2   3
ATOM      3  C   UNL     1      -1.459  -0.428  -3.007  1.00  0.00     0.374 C 
ATOM      4  O   UNL     1      -1.567  -1.523  -2.456  1.00  0.00    -0.242 OA
BRANCH   3   5
ATOM      5  C   UNL     1      -0.761   0.726  -2.507  1.00  0.00     0.215 A 
ATOM      6  C   UNL     1       0.400   0.159  -0.242  1.00  0.00     0.049 C 
ATOM      7  C   UNL     1       0.011   1.028  -1.382  1.00  0.00     0.012 A 
ATOM      8  C   UNL     1       0.309   2.420  -1.507  1.00  0.00     0.043 A 
ATOM      9  O   UNL     1      -0.829   1.812  -3.332  1.00  0.00    -0.453 OA
ATOM     10  C   UNL     1      -0.185   2.805  -2.734  1.00  0.00     0.114 A 
ATOM     11  C   UNL     1       0.876   3.430  -0.614  1.00  0.00     0.072 C 
ATOM     12  C   UNL     1      -0.246   4.120  -3.394  1.00  0.00     0.076 C 
ATOM     13  N   UNL     1       1.561   2.948   0.387  1.00  0.00    -0.177 NA
ATOM     14  C   UNL     1       0.381   4.803  -1.082  1.00  0.00     0.059 C 
ATOM     15  C   UNL     1       0.583   5.083  -2.574  1.00  0.00     0.014 C 
BRANCH  13  16
ATOM     16  N   UNL     1       2.229   3.422   1.496  1.00  0.00    -0.246 N 
ATOM     17  C   UNL     1       2.526   4.651   2.072  1.00  0.00     0.252 C 
ATOM     18  H   UNL     1       2.600   2.682   2.028  1.00  0.00     0.193 HD
ATOM     19  O   UNL     1       3.204   4.677   3.107  1.00  0.00    -0.272 OA
BRANCH  17  20
ATOM     20  C   UNL     1       2.010   5.941   1.445  1.00  0.00     0.140 C 
BRANCH  20  21
ATOM     21  C   UNL     1       2.837   6.120   0.086  1.00  0.00    -0.031 A 
ATOM     22  C   UNL     1       3.686   5.080  -0.409  1.00  0.00     0.005 A 
ATOM     23  C   UNL     1       2.788   7.266  -0.721  1.00  0.00     0.005 A 
ATOM     24  C   UNL     1       4.283   5.083  -1.672  1.00  0.00     0.000 A 
ATOM     25  C   UNL     1       3.445   7.298  -1.979  1.00  0.00     0.000 A 
ATOM     26  C   UNL     1       4.155   6.199  -2.470  1.00  0.00     0.000 A 
ENDBRANCH  20  21
BRANCH  20  27
ATOM     27  C   UNL     1       0.418   5.899   1.611  1.00  0.00    -0.031 A 
ATOM     28  C   UNL     1      -0.467   6.870   1.115  1.00  0.00     0.005 A 
ATOM     29  C   UNL     1      -0.214   4.776   2.231  1.00  0.00     0.005 A 
ATOM     30  C   UNL     1      -1.860   6.609   1.050  1.00  0.00     0.000 A 
ATOM     31  C   UNL     1      -1.575   4.486   2.107  1.00  0.00     0.000 A 
ATOM     32  C   UNL     1      -2.402   5.397   1.485  1.00  0.00     0.000 A 
ENDBRANCH  20  27
ENDBRANCH  17  20
ENDBRANCH  13  16
ENDBRANCH   3   5
ENDBRANCH   2   3
ENDBRANCH   1   2
BRANCH   1  33
ATOM     33  C   UNL     1      -1.035  -1.714  -5.886  1.00  0.00     0.275 C 
BRANCH  33  34
ATOM     34  O   UNL     1      -0.204  -2.381  -4.947  1.00  0.00    -0.458 OA
BRANCH  34  35
ATOM     35  C   UNL     1       0.786  -1.641  -4.404  1.00  0.00     0.338 C 
ATOM     36  O   UNL     1       1.058  -0.477  -4.634  1.00  0.00    -0.246 OA
BRANCH  35  37
ATOM     37  C   UNL     1       1.592  -2.513  -3.550  1.00  0.00     0.060 A 
ATOM     38  C   UNL     1       2.660  -1.924  -2.864  1.00  0.00     0.016 A 
ATOM     39  C   UNL     1       1.491  -3.894  -3.754  1.00  0.00     0.016 A 
ATOM     40  C   UNL     1       3.774  -2.694  -2.636  1.00  0.00     0.010 A 
ATOM     41  C   UNL     1       2.609  -4.649  -3.562  1.00  0.00     0.010 A 
ATOM     42  C   UNL     1       3.758  -4.006  -3.110  1.00  0.00    -0.014 A 
BRANCH  42  43
ATOM     43  C   UNL     1       4.983  -4.760  -3.134  1.00  0.00     0.031 A 
ATOM     44  C   UNL     1       5.319  -5.333  -1.813  1.00  0.00     0.074 A 
ATOM     45  C   UNL     1       5.580  -5.005  -4.318  1.00  0.00     0.049 A 
ATOM     46  N   UNL     1       6.379  -5.113  -1.114  1.00  0.00    -0.248 NA
ATOM     47  C   UNL     1       4.274  -6.089  -1.094  1.00  0.00     0.031 C 
ATOM     48  C   UNL     1       5.111  -4.662  -5.668  1.00  0.00     0.029 A 
ATOM     49  N   UNL     1       6.675  -5.757  -4.576  1.00  0.00    -0.354 N 
ATOM     50  C   UNL     1       6.221  -5.855   0.051  1.00  0.00     0.074 A 
ATOM     51  C   UNL     1       4.844  -6.264   0.096  1.00  0.00     0.031 C 
ATOM     52  C   UNL     1       5.749  -5.444  -6.570  1.00  0.00     0.029 A 
ATOM     53  C   UNL     1       6.737  -6.249  -5.872  1.00  0.00     0.049 A 
ATOM     54  H   UNL     1       7.368  -5.939  -3.902  1.00  0.00     0.167 HD
ATOM     55  C   UNL     1       7.299  -6.298   0.751  1.00  0.00     0.031 A 
ATOM     56  C   UNL     1       7.468  -7.317  -6.289  1.00  0.00     0.031 A 
ATOM     57  C   UNL     1       8.497  -5.608   0.353  1.00  0.00     0.049 A 
ATOM     58  C   UNL     1       8.481  -7.587  -5.231  1.00  0.00     0.074 A 
ATOM     59  C   UNL     1       8.905  -4.291   0.406  1.00  0.00     0.029 A 
ATOM     60  N   UNL     1       9.285  -6.225  -0.592  1.00  0.00    -0.354 N 
ATOM     61  N   UNL     1       9.454  -6.762  -4.959  1.00  0.00    -0.248 NA
ATOM     62  C   UNL     1       8.101  -8.477  -4.138  1.00  0.00     0.031 C 
ATOM     63  C   UNL     1       9.578  -4.071  -0.829  1.00  0.00     0.029 A 
ATOM     64  C   UNL     1       9.631  -5.282  -1.525  1.00  0.00     0.049 A 
ATOM     65  H   UNL     1       9.552  -7.173  -0.598  1.00  0.00     0.167 HD
ATOM     66  C   UNL     1       9.501  -6.710  -3.571  1.00  0.00     0.074 A 
ATOM     67  C   UNL     1       8.701  -7.851  -3.119  1.00  0.00     0.031 C 
ATOM     68  C   UNL     1       9.898  -5.577  -2.916  1.00  0.00     0.031 A 
BRANCH  55  69
ATOM     69  C   UNL     1       7.339  -7.629   1.451  1.00  0.00    -0.014 A 
ATOM     70  C   UNL     1       8.517  -7.983   2.130  1.00  0.00     0.009 A 
ATOM     71  C   UNL     1       6.401  -8.655   1.227  1.00  0.00     0.009 A 
ATOM     72  C   UNL     1       8.784  -9.312   2.474  1.00  0.00     0.001 A 
ATOM     73  C   UNL     1       6.647  -9.976   1.604  1.00  0.00     0.001 A 
ATOM     74  C   UNL     1       7.854 -10.309   2.198  1.00  0.00     0.000 A 
ENDBRANCH  55  69
BRANCH  56  75
ATOM     75  C   UNL     1       7.107  -8.302  -7.340  1.00  0.00    -0.014 A 
ATOM     76  C   UNL     1       8.053  -9.194  -7.871  1.00  0.00     0.009 A 
ATOM     77  C   UNL     1       5.755  -8.530  -7.667  1.00  0.00     0.009 A 
ATOM     78  C   UNL     1       7.657 -10.276  -8.677  1.00  0.00     0.001 A 
ATOM     79  C   UNL     1       5.359  -9.604  -8.472  1.00  0.00     0.001 A 
ATOM     80  C   UNL     1       6.311 -10.486  -8.968  1.00  0.00     0.000 A 
ENDBRANCH  56  75
BRANCH  68  81
ATOM     81  C   UNL     1      10.434  -4.427  -3.736  1.00  0.00    -0.014 A 
ATOM     82  C   UNL     1       9.658  -3.723  -4.677  1.00  0.00     0.009 A 
ATOM     83  C   UNL     1      11.687  -3.905  -3.390  1.00  0.00     0.009 A 
ATOM     84  C   UNL     1      10.134  -2.543  -5.262  1.00  0.00     0.001 A 
ATOM     85  C   UNL     1      12.152  -2.717  -3.957  1.00  0.00     0.001 A 
ATOM     86  C   UNL     1      11.378  -2.038  -4.895  1.00  0.00     0.000 A 
ENDBRANCH  68  81
ENDBRANCH  42  43
ENDBRANCH  35  37
ENDBRANCH  34  35
ENDBRANCH  33  34
ENDBRANCH   1  33
TORSDOF 15
