REMARK SMILES CCCCCNC(=O)Oc1cccc(-c2ccc([C@@H](C)C(=O)OCCOC(=O)c3ccc(-c4c5nc(c(-c6ccccc6)c6ccc([nH]6)c(-c6ccccc6)c6nc(c(-c7ccccc7)c7ccc4[nH]7)C=C6)C=C5)cc3)cc2F)c1
REMARK SMILES IDX 19 1 20 2 18 3 15 4 16 5 78 6 17 7 77 8 79 9 14 10 10 11
REMARK SMILES IDX 11 12 80 13 12 14 13 15 9 16 7 17 6 18 8 20 5 21 4 22 3 23
REMARK SMILES IDX 2 24 1 25 21 26 22 27 23 28 24 29 25 30 26 31 27 32 28 33
REMARK SMILES IDX 29 34 30 35 76 36 31 37 75 38 32 39 33 40 34 41 69 42 35 43
REMARK SMILES IDX 74 44 68 45 70 46 36 47 73 48 67 49 66 50 37 52 59 53 44 54
REMARK SMILES IDX 58 55 45 56 48 57 57 58 71 59 46 60 47 61 56 63 72 64 49 65
REMARK SMILES IDX 38 66 39 67 43 68 40 69 42 70 41 71 60 72 61 73 65 74 62 75
REMARK SMILES IDX 64 76 63 77 50 78 51 79 55 80 52 81 54 82 53 83
REMARK H PARENT 6 19 70 51 48 62
REMARK Flexibility Score: inf
ROOT
ATOM      1  C   UNL     1      -2.998  -1.000 -13.932  1.00  0.00     0.126 C 
ATOM      2  C   UNL     1      -3.951  -1.681 -14.911  1.00  0.00     0.025 C 
ENDROOT
BRANCH   1   3
ATOM      3  C   UNL     1      -3.290  -1.353 -12.481  1.00  0.00    -0.031 A 
ATOM      4  C   UNL     1      -3.774  -2.003  -9.749  1.00  0.00     0.018 A 
ATOM      5  C   UNL     1      -4.787  -1.467 -10.561  1.00  0.00     0.012 A 
ATOM      6  C   UNL     1      -2.519  -2.203 -10.336  1.00  0.00     0.131 A 
ATOM      7  C   UNL     1      -4.551  -1.150 -11.905  1.00  0.00     0.005 A 
ATOM      8  C   UNL     1      -2.277  -1.893 -11.675  1.00  0.00     0.044 A 
ATOM      9  F   UNL     1      -1.510  -2.726  -9.620  1.00  0.00    -0.206 F 
BRANCH   4  10
ATOM     10  C   UNL     1      -4.038  -2.343  -8.343  1.00  0.00    -0.012 A 
ATOM     11  C   UNL     1      -3.529  -2.147  -5.978  1.00  0.00     0.133 A 
ATOM     12  C   UNL     1      -4.571  -3.012  -5.652  1.00  0.00     0.047 A 
ATOM     13  C   UNL     1      -3.245  -1.825  -7.307  1.00  0.00     0.056 A 
ATOM     14  C   UNL     1      -5.363  -3.537  -6.669  1.00  0.00     0.004 A 
ATOM     15  C   UNL     1      -5.100  -3.202  -8.001  1.00  0.00     0.009 A 
BRANCH  11  16
ATOM     16  O   UNL     1      -2.715  -1.705  -4.925  1.00  0.00    -0.410 OA
BRANCH  16  17
ATOM     17  C   UNL     1      -2.575  -0.335  -4.761  1.00  0.00     0.412 C 
ATOM     18  N   UNL     1      -1.771   0.001  -3.705  1.00  0.00    -0.321 N 
ATOM     19  H   UNL     1      -1.610   0.962  -3.564  1.00  0.00     0.167 HD
ATOM     20  O   UNL     1      -3.102   0.534  -5.444  1.00  0.00    -0.224 OA
BRANCH  18  21
ATOM     21  C   UNL     1      -1.132  -0.905  -2.774  1.00  0.00     0.119 C 
BRANCH  21  22
ATOM     22  C   UNL     1       0.392  -0.791  -2.807  1.00  0.00     0.021 C 
BRANCH  22  23
ATOM     23  C   UNL     1       0.951   0.578  -2.398  1.00  0.00     0.002 C 
BRANCH  23  24
ATOM     24  C   UNL     1       0.539   1.078  -1.011  1.00  0.00    -0.003 C 
ATOM     25  C   UNL     1       0.961   0.154   0.121  1.00  0.00     0.004 C 
ENDBRANCH  23  24
ENDBRANCH  22  23
ENDBRANCH  21  22
ENDBRANCH  18  21
ENDBRANCH  16  17
ENDBRANCH  11  16
ENDBRANCH   4  10
ENDBRANCH   1   3
BRANCH   1  26
ATOM     26  C   UNL     1      -2.908   0.490 -14.244  1.00  0.00     0.313 C 
ATOM     27  O   UNL     1      -2.178   0.927 -15.129  1.00  0.00    -0.252 OA
BRANCH  26  28
ATOM     28  O   UNL     1      -3.736   1.257 -13.487  1.00  0.00    -0.462 OA
BRANCH  28  29
ATOM     29  C   UNL     1      -3.671   2.682 -13.686  1.00  0.00     0.274 C 
BRANCH  29  30
ATOM     30  C   UNL     1      -2.831   3.362 -12.602  1.00  0.00     0.275 C 
BRANCH  30  31
ATOM     31  O   UNL     1      -1.434   3.047 -12.750  1.00  0.00    -0.458 OA
BRANCH  31  32
ATOM     32  C   UNL     1      -0.998   2.017 -11.989  1.00  0.00     0.338 C 
ATOM     33  O   UNL     1      -1.633   1.371 -11.176  1.00  0.00    -0.246 OA
BRANCH  32  34
ATOM     34  C   UNL     1       0.377   1.673 -12.375  1.00  0.00     0.060 A 
ATOM     35  C   UNL     1       0.597   0.435 -12.983  1.00  0.00     0.016 A 
ATOM     36  C   UNL     1       1.446   2.513 -12.065  1.00  0.00     0.016 A 
ATOM     37  C   UNL     1       1.891   0.019 -13.272  1.00  0.00     0.010 A 
ATOM     38  C   UNL     1       2.748   2.099 -12.364  1.00  0.00     0.010 A 
ATOM     39  C   UNL     1       2.977   0.844 -12.956  1.00  0.00    -0.014 A 
BRANCH  39  40
ATOM     40  C   UNL     1       4.356   0.367 -13.208  1.00  0.00     0.031 A 
ATOM     41  C   UNL     1       5.212  -0.088 -12.063  1.00  0.00     0.074 A 
ATOM     42  C   UNL     1       4.827   0.320 -14.467  1.00  0.00     0.049 A 
ATOM     43  N   UNL     1       6.460  -0.483 -12.071  1.00  0.00    -0.248 NA
ATOM     44  C   UNL     1       4.582  -0.101 -10.734  1.00  0.00     0.031 C 
ATOM     45  C   UNL     1       4.073   0.685 -15.666  1.00  0.00     0.029 A 
ATOM     46  N   UNL     1       6.055  -0.060 -14.943  1.00  0.00    -0.354 N 
ATOM     47  C   UNL     1       6.771  -0.771 -10.749  1.00  0.00     0.074 A 
ATOM     48  C   UNL     1       5.587  -0.493  -9.964  1.00  0.00     0.031 C 
ATOM     49  C   UNL     1       4.855   0.503 -16.744  1.00  0.00     0.029 A 
ATOM     50  C   UNL     1       6.173   0.053 -16.306  1.00  0.00     0.049 A 
ATOM     51  H   UNL     1       6.783  -0.384 -14.364  1.00  0.00     0.167 HD
ATOM     52  C   UNL     1       7.940  -1.226 -10.236  1.00  0.00     0.031 A 
ATOM     53  C   UNL     1       7.231  -0.158 -17.109  1.00  0.00     0.031 A 
ATOM     54  C   UNL     1       9.116  -1.503 -11.017  1.00  0.00     0.049 A 
ATOM     55  C   UNL     1       8.536  -0.597 -16.507  1.00  0.00     0.074 A 
ATOM     56  C   UNL     1      10.345  -1.976 -10.589  1.00  0.00     0.029 A 
ATOM     57  N   UNL     1       9.210  -1.329 -12.389  1.00  0.00    -0.354 N 
ATOM     58  N   UNL     1       8.821  -0.859 -15.255  1.00  0.00    -0.248 NA
ATOM     59  C   UNL     1       9.666  -0.765 -17.432  1.00  0.00     0.031 C 
ATOM     60  C   UNL     1      11.196  -2.048 -11.698  1.00  0.00     0.029 A 
ATOM     61  C   UNL     1      10.482  -1.662 -12.821  1.00  0.00     0.049 A 
ATOM     62  H   UNL     1       8.480  -1.015 -12.969  1.00  0.00     0.167 HD
ATOM     63  C   UNL     1      10.157  -1.237 -15.242  1.00  0.00     0.074 A 
ATOM     64  C   UNL     1      10.621  -1.185 -16.613  1.00  0.00     0.031 C 
ATOM     65  C   UNL     1      10.929  -1.596 -14.188  1.00  0.00     0.031 A 
BRANCH  52  66
ATOM     66  C   UNL     1       8.009  -1.410  -8.748  1.00  0.00    -0.014 A 
ATOM     67  C   UNL     1       7.365  -2.483  -8.113  1.00  0.00     0.009 A 
ATOM     68  C   UNL     1       8.745  -0.501  -7.971  1.00  0.00     0.009 A 
ATOM     69  C   UNL     1       7.431  -2.623  -6.725  1.00  0.00     0.001 A 
ATOM     70  C   UNL     1       8.828  -0.657  -6.587  1.00  0.00     0.001 A 
ATOM     71  C   UNL     1       8.163  -1.712  -5.964  1.00  0.00     0.000 A 
ENDBRANCH  52  66
BRANCH  53  72
ATOM     72  C   UNL     1       7.106   0.068 -18.570  1.00  0.00    -0.014 A 
ATOM     73  C   UNL     1       7.087  -1.015 -19.461  1.00  0.00     0.009 A 
ATOM     74  C   UNL     1       6.998   1.372 -19.080  1.00  0.00     0.009 A 
ATOM     75  C   UNL     1       6.975  -0.795 -20.836  1.00  0.00     0.001 A 
ATOM     76  C   UNL     1       6.862   1.586 -20.453  1.00  0.00     0.001 A 
ATOM     77  C   UNL     1       6.858   0.503 -21.330  1.00  0.00     0.000 A 
ENDBRANCH  53  72
BRANCH  65  78
ATOM     78  C   UNL     1      12.349  -1.982 -14.484  1.00  0.00    -0.014 A 
ATOM     79  C   UNL     1      13.317  -1.010 -14.782  1.00  0.00     0.009 A 
ATOM     80  C   UNL     1      12.729  -3.332 -14.432  1.00  0.00     0.009 A 
ATOM     81  C   UNL     1      14.634  -1.388 -15.051  1.00  0.00     0.001 A 
ATOM     82  C   UNL     1      14.052  -3.703 -14.678  1.00  0.00     0.001 A 
ATOM     83  C   UNL     1      15.001  -2.732 -14.995  1.00  0.00     0.000 A 
ENDBRANCH  65  78
ENDBRANCH  39  40
ENDBRANCH  32  34
ENDBRANCH  31  32
ENDBRANCH  30  31
ENDBRANCH  29  30
ENDBRANCH  28  29
ENDBRANCH  26  28
ENDBRANCH   1  26
TORSDOF 19
