REMARK SMILES CC(C)[C@H](NC(=O)[C@H](C)NC(=O)C[NH3+])C(=O)OCCOC(=O)c1ccc(-c2c3nc(c(-c4ccccc4)c4ccc([nH]4)c(-c4ccccc4)c4nc(c(-c5ccccc5)c5ccc2[nH]5)C=C4)C=C3)cc1
REMARK SMILES IDX 17 1 15 2 16 3 4 4 2 5 1 6 3 7 5 8 6 9 7 11 8 12 9 13 10 14
REMARK SMILES IDX 11 15 12 17 13 18 14 19 18 23 19 24 20 25 21 26 22 27 23 28
REMARK SMILES IDX 24 29 70 30 25 31 69 32 26 33 27 34 28 35 63 36 29 37 68 38
REMARK SMILES IDX 62 39 64 40 30 41 67 42 61 43 60 44 31 46 53 47 38 48 52 49
REMARK SMILES IDX 39 50 42 51 51 52 65 53 40 54 41 55 50 57 66 58 43 59 32 60
REMARK SMILES IDX 33 61 37 62 34 63 36 64 35 65 54 66 55 67 59 68 56 69 58 70
REMARK SMILES IDX 57 71 44 72 45 73 49 74 46 75 48 76 47 77
REMARK H PARENT 5 10 10 16 14 20 14 21 14 22 64 45 42 56
REMARK Flexibility Score: inf
ROOT
ATOM      1  O   UNL     1       0.890  -1.279   5.913  1.00  0.00    -0.461 OA
ENDROOT
BRANCH   1   2
ATOM      2  C   UNL     1      -0.217  -2.063   5.807  1.00  0.00     0.329 C 
ATOM      3  O   UNL     1      -0.317  -3.172   6.317  1.00  0.00    -0.250 OA
BRANCH   2   4
ATOM      4  C   UNL     1      -1.357  -1.367   5.016  1.00  0.00     0.194 C 
BRANCH   4   5
ATOM      5  C   UNL     1      -2.137  -2.314   4.066  1.00  0.00     0.017 C 
ATOM      6  C   UNL     1      -3.032  -3.300   4.839  1.00  0.00     0.010 C 
ATOM      7  C   UNL     1      -3.030  -1.562   3.072  1.00  0.00     0.010 C 
ENDBRANCH   4   5
BRANCH   4   8
ATOM      8  N   UNL     1      -1.002  -0.054   4.466  1.00  0.00    -0.341 N 
ATOM      9  C   UNL     1      -0.107   0.373   3.539  1.00  0.00     0.243 C 
ATOM     10  H   UNL     1      -1.530   0.680   4.855  1.00  0.00     0.164 HD
ATOM     11  O   UNL     1      -0.092   1.591   3.330  1.00  0.00    -0.273 OA
BRANCH   9  12
ATOM     12  C   UNL     1       0.927  -0.574   2.885  1.00  0.00     0.168 C 
ATOM     13  C   UNL     1       1.801   0.227   1.917  1.00  0.00     0.041 C 
BRANCH  12  14
ATOM     14  N   UNL     1       0.313  -1.672   2.147  1.00  0.00    -0.340 N 
ATOM     15  C   UNL     1       0.690  -2.983   2.081  1.00  0.00     0.275 C 
ATOM     16  H   UNL     1      -0.486  -1.435   1.623  1.00  0.00     0.164 HD
ATOM     17  O   UNL     1       0.180  -3.692   1.211  1.00  0.00    -0.268 OA
BRANCH  15  18
ATOM     18  C   UNL     1       1.629  -3.581   3.131  1.00  0.00     0.360 C 
BRANCH  18  19
ATOM     19  N   UNL     1       2.984  -3.025   3.053  1.00  0.00    -0.350 N 
ATOM     20  H   UNL     1       3.388  -3.239   2.140  1.00  0.00     0.344 HD
ATOM     21  H   UNL     1       3.563  -3.436   3.785  1.00  0.00     0.344 HD
ATOM     22  H   UNL     1       2.945  -2.014   3.178  1.00  0.00     0.344 HD
ENDBRANCH  18  19
ENDBRANCH  15  18
ENDBRANCH  12  14
ENDBRANCH   9  12
ENDBRANCH   4   8
ENDBRANCH   2   4
ENDBRANCH   1   2
BRANCH   1  23
ATOM     23  C   UNL     1       2.002  -1.777   6.683  1.00  0.00     0.274 C 
BRANCH  23  24
ATOM     24  C   UNL     1       2.169  -0.960   7.965  1.00  0.00     0.275 C 
BRANCH  24  25
ATOM     25  O   UNL     1       1.098  -1.229   8.887  1.00  0.00    -0.458 OA
BRANCH  25  26
ATOM     26  C   UNL     1      -0.014  -0.485   8.709  1.00  0.00     0.338 C 
ATOM     27  O   UNL     1      -0.192   0.432   7.917  1.00  0.00    -0.246 OA
BRANCH  26  28
ATOM     28  C   UNL     1      -1.103  -1.072   9.492  1.00  0.00     0.060 A 
ATOM     29  C   UNL     1      -2.176  -1.630   8.794  1.00  0.00     0.016 A 
ATOM     30  C   UNL     1      -1.094  -1.040  10.884  1.00  0.00     0.016 A 
ATOM     31  C   UNL     1      -3.261  -2.152   9.476  1.00  0.00     0.010 A 
ATOM     32  C   UNL     1      -2.179  -1.581  11.575  1.00  0.00     0.010 A 
ATOM     33  C   UNL     1      -3.265  -2.132  10.871  1.00  0.00    -0.014 A 
BRANCH  33  34
ATOM     34  C   UNL     1      -4.430  -2.671  11.595  1.00  0.00     0.031 A 
ATOM     35  C   UNL     1      -5.375  -1.726  12.267  1.00  0.00     0.074 A 
ATOM     36  C   UNL     1      -4.627  -4.000  11.629  1.00  0.00     0.049 A 
ATOM     37  N   UNL     1      -6.364  -1.991  13.077  1.00  0.00    -0.248 NA
ATOM     38  C   UNL     1      -5.180  -0.293  11.992  1.00  0.00     0.031 C 
ATOM     39  C   UNL     1      -3.806  -4.996  10.936  1.00  0.00     0.029 A 
ATOM     40  N   UNL     1      -5.576  -4.741  12.280  1.00  0.00    -0.354 N 
ATOM     41  C   UNL     1      -6.889  -0.758  13.439  1.00  0.00     0.074 A 
ATOM     42  C   UNL     1      -6.109   0.255  12.762  1.00  0.00     0.031 C 
ATOM     43  C   UNL     1      -4.284  -6.221  11.209  1.00  0.00     0.029 A 
ATOM     44  C   UNL     1      -5.396  -6.095  12.143  1.00  0.00     0.049 A 
ATOM     45  H   UNL     1      -6.314  -4.342  12.796  1.00  0.00     0.167 HD
ATOM     46  C   UNL     1      -7.924  -0.504  14.271  1.00  0.00     0.031 A 
ATOM     47  C   UNL     1      -6.027  -7.116  12.749  1.00  0.00     0.031 A 
ATOM     48  C   UNL     1      -8.684  -1.528  14.935  1.00  0.00     0.049 A 
ATOM     49  C   UNL     1      -7.111  -6.804  13.741  1.00  0.00     0.074 A 
ATOM     50  C   UNL     1      -9.756  -1.388  15.797  1.00  0.00     0.029 A 
ATOM     51  N   UNL     1      -8.443  -2.889  14.809  1.00  0.00    -0.354 N 
ATOM     52  N   UNL     1      -7.590  -5.636  14.098  1.00  0.00    -0.248 NA
ATOM     53  C   UNL     1      -7.729  -7.946  14.425  1.00  0.00     0.031 C 
ATOM     54  C   UNL     1     -10.131  -2.663  16.233  1.00  0.00     0.029 A 
ATOM     55  C   UNL     1      -9.326  -3.599  15.602  1.00  0.00     0.049 A 
ATOM     56  H   UNL     1      -7.747  -3.289  14.240  1.00  0.00     0.167 HD
ATOM     57  C   UNL     1      -8.574  -5.902  15.039  1.00  0.00     0.074 A 
ATOM     58  C   UNL     1      -8.636  -7.343  15.183  1.00  0.00     0.031 C 
ATOM     59  C   UNL     1      -9.355  -5.034  15.727  1.00  0.00     0.031 A 
BRANCH  46  60
ATOM     60  C   UNL     1      -8.250   0.935  14.551  1.00  0.00    -0.014 A 
ATOM     61  C   UNL     1      -8.869   1.748  13.589  1.00  0.00     0.009 A 
ATOM     62  C   UNL     1      -7.944   1.479  15.808  1.00  0.00     0.009 A 
ATOM     63  C   UNL     1      -9.148   3.088  13.873  1.00  0.00     0.001 A 
ATOM     64  C   UNL     1      -8.246   2.811  16.097  1.00  0.00     0.001 A 
ATOM     65  C   UNL     1      -8.841   3.616  15.127  1.00  0.00     0.000 A 
ENDBRANCH  46  60
BRANCH  47  66
ATOM     66  C   UNL     1      -5.603  -8.514  12.483  1.00  0.00    -0.014 A 
ATOM     67  C   UNL     1      -6.437  -9.395  11.780  1.00  0.00     0.009 A 
ATOM     68  C   UNL     1      -4.352  -8.974  12.928  1.00  0.00     0.009 A 
ATOM     69  C   UNL     1      -6.033 -10.711  11.542  1.00  0.00     0.001 A 
ATOM     70  C   UNL     1      -3.939 -10.281  12.663  1.00  0.00     0.001 A 
ATOM     71  C   UNL     1      -4.784 -11.151  11.978  1.00  0.00     0.000 A 
ENDBRANCH  47  66
BRANCH  59  72
ATOM     72  C   UNL     1     -10.351  -5.627  16.680  1.00  0.00    -0.014 A 
ATOM     73  C   UNL     1      -9.945  -6.152  17.915  1.00  0.00     0.009 A 
ATOM     74  C   UNL     1     -11.716  -5.613  16.355  1.00  0.00     0.009 A 
ATOM     75  C   UNL     1     -10.888  -6.675  18.800  1.00  0.00     0.001 A 
ATOM     76  C   UNL     1     -12.659  -6.113  17.253  1.00  0.00     0.001 A 
ATOM     77  C   UNL     1     -12.243  -6.649  18.472  1.00  0.00     0.000 A 
ENDBRANCH  59  72
ENDBRANCH  33  34
ENDBRANCH  26  28
ENDBRANCH  25  26
ENDBRANCH  24  25
ENDBRANCH  23  24
ENDBRANCH   1  23
TORSDOF 17
