REMARK SMILES COc1c(N)cc(-c2ccccc2)cc1C(=O)OCCOC(=O)c1ccc(-c2c3nc(c(-c4ccccc4)c4ccc([nH]4)c(-c4ccccc4)c4nc(c(-c5ccccc5)c5ccc2[nH]5)C=C4)C=C3)cc1
REMARK SMILES IDX 20 1 19 2 18 3 16 4 17 5 15 6 3 7 4 8 6 9 14 10 7 11 2 12
REMARK SMILES IDX 1 13 5 14 8 17 9 18 13 19 10 20 12 21 11 22 21 23 22 24
REMARK SMILES IDX 23 25 24 26 25 27 71 28 26 29 70 30 27 31 28 32 29 33 64 34
REMARK SMILES IDX 30 35 69 36 63 37 65 38 31 39 68 40 62 41 61 42 32 44 54 45
REMARK SMILES IDX 39 46 53 47 40 48 43 49 52 50 66 51 41 52 42 53 51 55 67 56
REMARK SMILES IDX 44 57 33 58 34 59 38 60 35 61 37 62 36 63 55 64 56 65 60 66
REMARK SMILES IDX 57 67 59 68 58 69 45 70 46 71 50 72 47 73 49 74 48 75
REMARK H PARENT 5 15 5 16 65 43 43 54
REMARK Flexibility Score: inf
ROOT
ATOM      1  C   UNL     1      -3.732  -0.032   1.951  1.00  0.00     0.275 C 
ENDROOT
BRANCH   1   2
ATOM      2  C   UNL     1      -2.607   0.998   1.881  1.00  0.00     0.275 C 
BRANCH   2   3
ATOM      3  O   UNL     1      -1.321   0.355   1.991  1.00  0.00    -0.458 OA
BRANCH   3   4
ATOM      4  C   UNL     1      -0.664   0.533   3.166  1.00  0.00     0.342 C 
ATOM      5  O   UNL     1      -1.084   1.112   4.151  1.00  0.00    -0.246 OA
BRANCH   4   6
ATOM      6  C   UNL     1       0.613  -0.216   3.173  1.00  0.00     0.104 A 
ATOM      7  C   UNL     1       1.542  -0.163   2.132  1.00  0.00     0.156 A 
ATOM      8  C   UNL     1       2.778  -0.829   2.260  1.00  0.00     0.076 A 
ATOM      9  C   UNL     1       2.992  -1.667   3.364  1.00  0.00     0.038 A 
ATOM     10  C   UNL     1       0.901  -0.974   4.317  1.00  0.00     0.028 A 
ATOM     11  C   UNL     1       2.064  -1.746   4.411  1.00  0.00    -0.015 A 
BRANCH   7  12
ATOM     12  O   UNL     1       1.313   0.647   1.045  1.00  0.00    -0.494 OA
ATOM     13  C   UNL     1       0.945  -0.131  -0.097  1.00  0.00     0.278 C 
ENDBRANCH   7  12
BRANCH   8  14
ATOM     14  N   UNL     1       3.743  -0.762   1.254  1.00  0.00    -0.396 N 
ATOM     15  H   UNL     1       3.602  -0.177   0.475  1.00  0.00     0.156 HD
ATOM     16  H   UNL     1       4.564  -1.301   1.323  1.00  0.00     0.156 HD
ENDBRANCH   8  14
BRANCH  11  17
ATOM     17  C   UNL     1       2.295  -2.586   5.594  1.00  0.00    -0.018 A 
ATOM     18  C   UNL     1       3.335  -2.298   6.489  1.00  0.00     0.009 A 
ATOM     19  C   UNL     1       1.454  -3.676   5.879  1.00  0.00     0.009 A 
ATOM     20  C   UNL     1       3.527  -3.072   7.637  1.00  0.00     0.001 A 
ATOM     21  C   UNL     1       1.646  -4.451   7.027  1.00  0.00     0.001 A 
ATOM     22  C   UNL     1       2.683  -4.147   7.905  1.00  0.00     0.000 A 
ENDBRANCH  11  17
ENDBRANCH   4   6
ENDBRANCH   3   4
ENDBRANCH   2   3
ENDBRANCH   1   2
BRANCH   1  23
ATOM     23  O   UNL     1      -3.755  -0.625   3.261  1.00  0.00    -0.458 OA
BRANCH  23  24
ATOM     24  C   UNL     1      -3.638  -1.968   3.304  1.00  0.00     0.338 C 
ATOM     25  O   UNL     1      -3.591  -2.748   2.363  1.00  0.00    -0.246 OA
BRANCH  24  26
ATOM     26  C   UNL     1      -3.542  -2.410   4.703  1.00  0.00     0.060 A 
ATOM     27  C   UNL     1      -2.481  -1.963   5.486  1.00  0.00     0.016 A 
ATOM     28  C   UNL     1      -4.416  -3.374   5.198  1.00  0.00     0.016 A 
ATOM     29  C   UNL     1      -2.217  -2.559   6.718  1.00  0.00     0.010 A 
ATOM     30  C   UNL     1      -4.216  -3.891   6.483  1.00  0.00     0.010 A 
ATOM     31  C   UNL     1      -3.084  -3.530   7.240  1.00  0.00    -0.014 A 
BRANCH  31  32
ATOM     32  C   UNL     1      -2.788  -4.207   8.538  1.00  0.00     0.031 A 
ATOM     33  C   UNL     1      -2.672  -5.711   8.599  1.00  0.00     0.074 A 
ATOM     34  C   UNL     1      -2.615  -3.494   9.670  1.00  0.00     0.049 A 
ATOM     35  N   UNL     1      -2.604  -6.496   9.646  1.00  0.00    -0.248 NA
ATOM     36  C   UNL     1      -2.646  -6.430   7.314  1.00  0.00     0.031 C 
ATOM     37  C   UNL     1      -2.646  -2.034   9.774  1.00  0.00     0.029 A 
ATOM     38  N   UNL     1      -2.365  -3.909  10.956  1.00  0.00    -0.354 N 
ATOM     39  C   UNL     1      -2.610  -7.795   9.150  1.00  0.00     0.074 A 
ATOM     40  C   UNL     1      -2.675  -7.695   7.708  1.00  0.00     0.031 C 
ATOM     41  C   UNL     1      -2.371  -1.675  11.037  1.00  0.00     0.029 A 
ATOM     42  C   UNL     1      -2.235  -2.876  11.853  1.00  0.00     0.049 A 
ATOM     43  H   UNL     1      -2.286  -4.857  11.211  1.00  0.00     0.167 HD
ATOM     44  C   UNL     1      -2.572  -8.966   9.831  1.00  0.00     0.031 A 
ATOM     45  C   UNL     1      -2.062  -2.885  13.189  1.00  0.00     0.031 A 
ATOM     46  C   UNL     1      -2.436  -9.075  11.260  1.00  0.00     0.049 A 
ATOM     47  C   UNL     1      -2.024  -4.195  13.922  1.00  0.00     0.074 A 
ATOM     48  C   UNL     1      -2.360 -10.221  12.033  1.00  0.00     0.029 A 
ATOM     49  N   UNL     1      -2.332  -8.000  12.127  1.00  0.00    -0.354 N 
ATOM     50  N   UNL     1      -2.089  -5.412  13.442  1.00  0.00    -0.248 NA
ATOM     51  C   UNL     1      -1.907  -4.128  15.386  1.00  0.00     0.031 C 
ATOM     52  C   UNL     1      -2.239  -9.839  13.374  1.00  0.00     0.029 A 
ATOM     53  C   UNL     1      -2.199  -8.456  13.428  1.00  0.00     0.049 A 
ATOM     54  H   UNL     1      -2.351  -7.053  11.858  1.00  0.00     0.167 HD
ATOM     55  C   UNL     1      -2.008  -6.255  14.543  1.00  0.00     0.074 A 
ATOM     56  C   UNL     1      -1.867  -5.413  15.711  1.00  0.00     0.031 C 
ATOM     57  C   UNL     1      -2.053  -7.609  14.580  1.00  0.00     0.031 A 
BRANCH  44  58
ATOM     58  C   UNL     1      -2.722 -10.236   9.042  1.00  0.00    -0.014 A 
ATOM     59  C   UNL     1      -1.679 -10.745   8.255  1.00  0.00     0.009 A 
ATOM     60  C   UNL     1      -3.922 -10.962   9.134  1.00  0.00     0.009 A 
ATOM     61  C   UNL     1      -1.845 -11.942   7.553  1.00  0.00     0.001 A 
ATOM     62  C   UNL     1      -4.076 -12.170   8.452  1.00  0.00     0.001 A 
ATOM     63  C   UNL     1      -3.040 -12.655   7.656  1.00  0.00     0.000 A 
ENDBRANCH  44  58
BRANCH  45  64
ATOM     64  C   UNL     1      -1.952  -1.604  13.934  1.00  0.00    -0.014 A 
ATOM     65  C   UNL     1      -0.733  -1.221  14.514  1.00  0.00     0.009 A 
ATOM     66  C   UNL     1      -3.067  -0.763  14.079  1.00  0.00     0.009 A 
ATOM     67  C   UNL     1      -0.637  -0.030  15.237  1.00  0.00     0.001 A 
ATOM     68  C   UNL     1      -2.960   0.441  14.777  1.00  0.00     0.001 A 
ATOM     69  C   UNL     1      -1.748   0.802  15.363  1.00  0.00     0.000 A 
ENDBRANCH  45  64
BRANCH  57  70
ATOM     70  C   UNL     1      -1.905  -8.259  15.925  1.00  0.00    -0.014 A 
ATOM     71  C   UNL     1      -2.958  -8.259  16.852  1.00  0.00     0.009 A 
ATOM     72  C   UNL     1      -0.701  -8.898  16.258  1.00  0.00     0.009 A 
ATOM     73  C   UNL     1      -2.795  -8.859  18.102  1.00  0.00     0.001 A 
ATOM     74  C   UNL     1      -0.549  -9.517  17.499  1.00  0.00     0.001 A 
ATOM     75  C   UNL     1      -1.593  -9.489  18.423  1.00  0.00     0.000 A 
ENDBRANCH  57  70
ENDBRANCH  31  32
ENDBRANCH  24  26
ENDBRANCH  23  24
ENDBRANCH   1  23
TORSDOF 14
