REMARK SMILES Cc1cc(Br)cnc1Sc1nc(CC(=O)OCCOC(=O)c2ccc(-c3c4nc(c(-c5ccccc5)c5ccc([nH]5)c(-c5ccccc5)c5nc(c(-c6ccccc6)c6ccc3[nH]6)C=C5)C=C4)cc2)cs1
REMARK SMILES IDX 17 1 16 2 14 3 15 4 13 5 12 6 10 7 11 8 71 9 70 10 9 11 8 12
REMARK SMILES IDX 1 13 2 14 3 15 4 16 7 17 5 18 6 19 18 20 19 21 20 22 21 23
REMARK SMILES IDX 22 24 23 25 69 26 24 27 68 28 25 29 26 30 27 31 62 32 28 33
REMARK SMILES IDX 67 34 61 35 63 36 29 37 66 38 60 39 59 40 30 42 52 43 37 44
REMARK SMILES IDX 51 45 38 46 41 47 50 48 64 49 39 50 40 51 49 53 65 54 42 55
REMARK SMILES IDX 31 56 32 57 36 58 33 59 35 60 34 61 53 62 54 63 58 64 55 65
REMARK SMILES IDX 57 66 56 67 43 68 44 69 48 70 45 71 47 72 46 73
REMARK H PARENT 63 41 41 52
REMARK Flexibility Score: inf
ROOT
ATOM      1  C   UNL     1       9.324  -2.922  -3.786  1.00  0.00     0.274 C 
ENDROOT
BRANCH   1   2
ATOM      2  O   UNL     1       8.106  -2.481  -3.153  1.00  0.00    -0.462 OA
BRANCH   2   3
ATOM      3  C   UNL     1       7.112  -3.403  -3.059  1.00  0.00     0.312 C 
ATOM      4  O   UNL     1       7.201  -4.565  -3.443  1.00  0.00    -0.252 OA
BRANCH   3   5
ATOM      5  C   UNL     1       5.831  -2.840  -2.501  1.00  0.00     0.179 C 
BRANCH   5   6
ATOM      6  C   UNL     1       5.974  -1.887  -1.359  1.00  0.00     0.064 A 
ATOM      7  C   UNL     1       5.254  -0.157  -0.164  1.00  0.00     0.156 A 
ATOM      8  N   UNL     1       5.062  -0.836  -1.273  1.00  0.00    -0.234 NA
ATOM      9  S   UNL     1       6.577  -0.677   0.800  1.00  0.00    -0.116 S 
ATOM     10  C   UNL     1       6.846  -1.965  -0.290  1.00  0.00     0.092 A 
BRANCH   7  11
ATOM     11  S   UNL     1       4.272   1.184   0.339  1.00  0.00    -0.039 SA
BRANCH  11  12
ATOM     12  C   UNL     1       2.592   0.660   0.076  1.00  0.00     0.106 A 
ATOM     13  C   UNL     1       2.794  -1.861   0.605  1.00  0.00     0.047 C 
ATOM     14  C   UNL     1       2.032  -0.614   0.265  1.00  0.00    -0.017 A 
ATOM     15  C   UNL     1       0.636  -0.754   0.110  1.00  0.00     0.023 A 
ATOM     16  C   UNL     1      -0.158   0.348  -0.164  1.00  0.00     0.036 A 
ATOM     17  N   UNL     1       1.801   1.737  -0.202  1.00  0.00    -0.248 NA
ATOM     18  Br  UNL     1      -2.028   0.183  -0.302  1.00  0.00    -0.049 Br
ATOM     19  C   UNL     1       0.464   1.567  -0.309  1.00  0.00     0.128 A 
ENDBRANCH  11  12
ENDBRANCH   7  11
ENDBRANCH   5   6
ENDBRANCH   3   5
ENDBRANCH   2   3
ENDBRANCH   1   2
BRANCH   1  20
ATOM     20  C   UNL     1      10.353  -3.386  -2.758  1.00  0.00     0.275 C 
BRANCH  20  21
ATOM     21  O   UNL     1       9.888  -4.573  -2.088  1.00  0.00    -0.458 OA
BRANCH  21  22
ATOM     22  C   UNL     1       9.761  -4.474  -0.749  1.00  0.00     0.338 C 
ATOM     23  O   UNL     1      10.025  -3.521  -0.038  1.00  0.00    -0.246 OA
BRANCH  22  24
ATOM     24  C   UNL     1       9.178  -5.710  -0.211  1.00  0.00     0.060 A 
ATOM     25  C   UNL     1       7.789  -5.851  -0.170  1.00  0.00     0.016 A 
ATOM     26  C   UNL     1      10.011  -6.644   0.406  1.00  0.00     0.016 A 
ATOM     27  C   UNL     1       7.224  -6.909   0.541  1.00  0.00     0.010 A 
ATOM     28  C   UNL     1       9.444  -7.721   1.089  1.00  0.00     0.010 A 
ATOM     29  C   UNL     1       8.047  -7.838   1.195  1.00  0.00    -0.014 A 
BRANCH  29  30
ATOM     30  C   UNL     1       7.448  -8.882   2.060  1.00  0.00     0.031 A 
ATOM     31  C   UNL     1       7.543  -8.762   3.556  1.00  0.00     0.074 A 
ATOM     32  C   UNL     1       6.814  -9.933   1.511  1.00  0.00     0.049 A 
ATOM     33  N   UNL     1       7.112  -9.583   4.480  1.00  0.00    -0.248 NA
ATOM     34  C   UNL     1       8.217  -7.564   4.080  1.00  0.00     0.031 C 
ATOM     35  C   UNL     1       6.643 -10.165   0.077  1.00  0.00     0.029 A 
ATOM     36  N   UNL     1       6.198 -11.006   2.104  1.00  0.00    -0.354 N 
ATOM     37  C   UNL     1       7.484  -9.017   5.692  1.00  0.00     0.074 A 
ATOM     38  C   UNL     1       8.188  -7.789   5.386  1.00  0.00     0.031 C 
ATOM     39  C   UNL     1       5.961 -11.309  -0.100  1.00  0.00     0.029 A 
ATOM     40  C   UNL     1       5.672 -11.899   1.205  1.00  0.00     0.049 A 
ATOM     41  H   UNL     1       6.140 -11.124   3.079  1.00  0.00     0.167 HD
ATOM     42  C   UNL     1       7.261  -9.473   6.948  1.00  0.00     0.031 A 
ATOM     43  C   UNL     1       5.037 -13.068   1.408  1.00  0.00     0.031 A 
ATOM     44  C   UNL     1       6.557 -10.686   7.263  1.00  0.00     0.049 A 
ATOM     45  C   UNL     1       4.798 -13.553   2.808  1.00  0.00     0.074 A 
ATOM     46  C   UNL     1       6.264 -11.216   8.508  1.00  0.00     0.029 A 
ATOM     47  N   UNL     1       6.032 -11.557   6.323  1.00  0.00    -0.354 N 
ATOM     48  N   UNL     1       5.141 -12.997   3.944  1.00  0.00    -0.248 NA
ATOM     49  C   UNL     1       4.076 -14.825   2.952  1.00  0.00     0.031 C 
ATOM     50  C   UNL     1       5.585 -12.426   8.320  1.00  0.00     0.029 A 
ATOM     51  C   UNL     1       5.426 -12.628   6.958  1.00  0.00     0.049 A 
ATOM     52  H   UNL     1       6.082 -11.434   5.348  1.00  0.00     0.167 HD
ATOM     53  C   UNL     1       4.664 -13.841   4.937  1.00  0.00     0.074 A 
ATOM     54  C   UNL     1       3.995 -14.940   4.271  1.00  0.00     0.031 C 
ATOM     55  C   UNL     1       4.769 -13.716   6.282  1.00  0.00     0.031 A 
BRANCH  42  56
ATOM     56  C   UNL     1       7.822  -8.658   8.076  1.00  0.00    -0.014 A 
ATOM     57  C   UNL     1       7.217  -7.456   8.476  1.00  0.00     0.009 A 
ATOM     58  C   UNL     1       8.970  -9.102   8.751  1.00  0.00     0.009 A 
ATOM     59  C   UNL     1       7.773  -6.697   9.508  1.00  0.00     0.001 A 
ATOM     60  C   UNL     1       9.511  -8.351   9.795  1.00  0.00     0.001 A 
ATOM     61  C   UNL     1       8.917  -7.145  10.167  1.00  0.00     0.000 A 
ENDBRANCH  42  56
BRANCH  43  62
ATOM     62  C   UNL     1       4.579 -13.861   0.242  1.00  0.00    -0.014 A 
ATOM     63  C   UNL     1       3.224 -13.878  -0.119  1.00  0.00     0.009 A 
ATOM     64  C   UNL     1       5.501 -14.588  -0.527  1.00  0.00     0.009 A 
ATOM     65  C   UNL     1       2.799 -14.620  -1.223  1.00  0.00     0.001 A 
ATOM     66  C   UNL     1       5.075 -15.312  -1.641  1.00  0.00     0.001 A 
ATOM     67  C   UNL     1       3.724 -15.332  -1.985  1.00  0.00     0.000 A 
ENDBRANCH  43  62
BRANCH  55  68
ATOM     68  C   UNL     1       4.128 -14.784   7.118  1.00  0.00    -0.014 A 
ATOM     69  C   UNL     1       4.729 -16.042   7.271  1.00  0.00     0.009 A 
ATOM     70  C   UNL     1       2.919 -14.518   7.780  1.00  0.00     0.009 A 
ATOM     71  C   UNL     1       4.115 -17.026   8.048  1.00  0.00     0.001 A 
ATOM     72  C   UNL     1       2.317 -15.498   8.571  1.00  0.00     0.001 A 
ATOM     73  C   UNL     1       2.912 -16.753   8.698  1.00  0.00     0.000 A 
ENDBRANCH  55  68
ENDBRANCH  29  30
ENDBRANCH  22  24
ENDBRANCH  21  22
ENDBRANCH  20  21
ENDBRANCH   1  20
TORSDOF 14
