REMARK SMILES O=C(OCCOC(=O)[C@H]1Cc2[nH]cnc2CN1C(=O)NCc1nc[nH]n1)c1ccc(-c2c3nc(c(-c4ccccc4)c4ccc([nH]4)c(-c4ccccc4)c4nc(c(-c5ccccc5)c5ccc2[nH]5)C=C4)C=C3)cc1
REMARK SMILES IDX 5 1 4 2 3 3 2 4 1 5 27 6 28 7 74 8 29 9 73 10 30 11 31 12
REMARK SMILES IDX 32 13 67 14 33 15 72 16 66 17 68 18 34 19 71 20 65 21 64 22
REMARK SMILES IDX 35 24 57 25 42 26 56 27 43 28 46 29 55 30 69 31 44 32 45 33
REMARK SMILES IDX 54 35 70 36 47 37 36 38 37 39 41 40 38 41 40 42 39 43 58 44
REMARK SMILES IDX 59 45 63 46 60 47 62 48 61 49 48 50 49 51 53 52 50 53 52 54
REMARK SMILES IDX 51 55 6 56 7 57 8 58 9 59 10 60 17 61 11 62 16 63 12 64
REMARK SMILES IDX 15 65 13 66 14 68 18 69 19 70 20 71 21 73 22 74 23 75 26 76
REMARK SMILES IDX 24 77 25 78
REMARK H PARENT 68 23 46 34 12 67 20 72 25 79
REMARK Flexibility Score: inf
ROOT
ATOM      1  C   UNL     1       5.125   0.478  -0.890  1.00  0.00     0.274 C 
ENDROOT
BRANCH   1   2
ATOM      2  C   UNL     1       5.441  -0.829  -0.186  1.00  0.00     0.275 C 
BRANCH   2   3
ATOM      3  O   UNL     1       4.336  -1.755  -0.206  1.00  0.00    -0.458 OA
BRANCH   3   4
ATOM      4  C   UNL     1       3.180  -1.718   0.483  1.00  0.00     0.338 C 
ATOM      5  O   UNL     1       2.291  -2.534   0.238  1.00  0.00    -0.246 OA
BRANCH   4   6
ATOM      6  C   UNL     1       2.964  -0.873   1.667  1.00  0.00     0.060 A 
ATOM      7  C   UNL     1       3.890  -0.938   2.702  1.00  0.00     0.016 A 
ATOM      8  C   UNL     1       1.631  -0.492   1.915  1.00  0.00     0.016 A 
ATOM      9  C   UNL     1       3.422  -0.852   3.995  1.00  0.00     0.010 A 
ATOM     10  C   UNL     1       1.169  -0.366   3.210  1.00  0.00     0.010 A 
ATOM     11  C   UNL     1       2.049  -0.672   4.231  1.00  0.00    -0.014 A 
BRANCH  11  12
ATOM     12  C   UNL     1       1.604  -0.802   5.603  1.00  0.00     0.031 A 
ATOM     13  C   UNL     1       2.192   0.233   6.472  1.00  0.00     0.074 A 
ATOM     14  C   UNL     1       0.776  -1.763   6.052  1.00  0.00     0.049 A 
ATOM     15  N   UNL     1       3.208   0.098   7.255  1.00  0.00    -0.248 NA
ATOM     16  C   UNL     1       1.760   1.619   6.255  1.00  0.00     0.031 C 
ATOM     17  C   UNL     1      -0.078  -2.682   5.299  1.00  0.00     0.029 A 
ATOM     18  N   UNL     1       0.475  -2.059   7.344  1.00  0.00    -0.354 N 
ATOM     19  C   UNL     1       3.423   1.356   7.798  1.00  0.00     0.074 A 
ATOM     20  C   UNL     1       2.656   2.274   6.993  1.00  0.00     0.031 C 
ATOM     21  C   UNL     1      -0.971  -3.251   6.146  1.00  0.00     0.029 A 
ATOM     22  C   UNL     1      -0.649  -2.854   7.508  1.00  0.00     0.049 A 
ATOM     23  H   UNL     1       1.012  -1.736   8.103  1.00  0.00     0.167 HD
ATOM     24  C   UNL     1       3.976   1.493   9.034  1.00  0.00     0.031 A 
ATOM     25  C   UNL     1      -1.289  -3.091   8.681  1.00  0.00     0.031 A 
ATOM     26  C   UNL     1       4.632   0.277   9.455  1.00  0.00     0.049 A 
ATOM     27  C   UNL     1      -0.338  -2.784   9.780  1.00  0.00     0.074 A 
ATOM     28  C   UNL     1       5.675  -0.489   8.970  1.00  0.00     0.029 A 
ATOM     29  N   UNL     1       3.937  -0.539  10.318  1.00  0.00    -0.354 N 
ATOM     30  N   UNL     1       0.724  -3.498  10.023  1.00  0.00    -0.248 NA
ATOM     31  C   UNL     1      -0.303  -1.424  10.299  1.00  0.00     0.031 C 
ATOM     32  C   UNL     1       5.279  -1.841   9.197  1.00  0.00     0.029 A 
ATOM     33  C   UNL     1       4.056  -1.828   9.870  1.00  0.00     0.049 A 
ATOM     34  H   UNL     1       3.440  -0.248  11.117  1.00  0.00     0.167 HD
ATOM     35  C   UNL     1       1.717  -2.571  10.310  1.00  0.00     0.074 A 
ATOM     36  C   UNL     1       1.004  -1.319  10.562  1.00  0.00     0.031 C 
ATOM     37  C   UNL     1       3.029  -2.833  10.031  1.00  0.00     0.031 A 
BRANCH  24  38
ATOM     38  C   UNL     1       3.477   2.519  10.027  1.00  0.00    -0.014 A 
ATOM     39  C   UNL     1       4.004   2.488  11.330  1.00  0.00     0.009 A 
ATOM     40  C   UNL     1       2.314   3.289   9.837  1.00  0.00     0.009 A 
ATOM     41  C   UNL     1       3.325   3.079  12.401  1.00  0.00     0.001 A 
ATOM     42  C   UNL     1       1.654   3.912  10.897  1.00  0.00     0.001 A 
ATOM     43  C   UNL     1       2.139   3.773  12.187  1.00  0.00     0.000 A 
ENDBRANCH  24  38
BRANCH  25  44
ATOM     44  C   UNL     1      -2.743  -3.236   8.916  1.00  0.00    -0.014 A 
ATOM     45  C   UNL     1      -3.235  -3.749  10.128  1.00  0.00     0.009 A 
ATOM     46  C   UNL     1      -3.661  -2.607   8.055  1.00  0.00     0.009 A 
ATOM     47  C   UNL     1      -4.586  -3.604  10.477  1.00  0.00     0.001 A 
ATOM     48  C   UNL     1      -5.009  -2.463   8.402  1.00  0.00     0.001 A 
ATOM     49  C   UNL     1      -5.468  -2.949   9.621  1.00  0.00     0.000 A 
ENDBRANCH  25  44
BRANCH  37  50
ATOM     50  C   UNL     1       3.394  -4.237   9.614  1.00  0.00    -0.014 A 
ATOM     51  C   UNL     1       2.888  -4.851   8.454  1.00  0.00     0.009 A 
ATOM     52  C   UNL     1       4.400  -4.899  10.333  1.00  0.00     0.009 A 
ATOM     53  C   UNL     1       3.357  -6.106   8.046  1.00  0.00     0.001 A 
ATOM     54  C   UNL     1       4.882  -6.141   9.914  1.00  0.00     0.001 A 
ATOM     55  C   UNL     1       4.357  -6.746   8.775  1.00  0.00     0.000 A 
ENDBRANCH  37  50
ENDBRANCH  11  12
ENDBRANCH   4   6
ENDBRANCH   3   4
ENDBRANCH   2   3
ENDBRANCH   1   2
BRANCH   1  56
ATOM     56  O   UNL     1       4.168   1.197  -0.103  1.00  0.00    -0.461 OA
BRANCH  56  57
ATOM     57  C   UNL     1       3.530   2.213  -0.754  1.00  0.00     0.329 C 
ATOM     58  O   UNL     1       3.739   2.535  -1.909  1.00  0.00    -0.250 OA
BRANCH  57  59
ATOM     59  C   UNL     1       2.641   2.973   0.235  1.00  0.00     0.203 C 
ATOM     60  C   UNL     1       2.982   4.481  -0.050  1.00  0.00     0.093 C 
ATOM     61  N   UNL     1       1.162   2.826   0.504  1.00  0.00    -0.305 N 
ATOM     62  C   UNL     1       2.391   5.298   1.028  1.00  0.00     0.042 A 
ATOM     63  C   UNL     1       0.732   3.538   1.754  1.00  0.00     0.180 C 
ATOM     64  N   UNL     1       2.694   6.565   1.420  1.00  0.00    -0.348 N 
ATOM     65  C   UNL     1       1.378   4.875   1.851  1.00  0.00     0.081 A 
ATOM     66  C   UNL     1       1.884   6.843   2.491  1.00  0.00     0.197 A 
ATOM     67  H   UNL     1       3.361   7.164   1.014  1.00  0.00     0.167 HD
ATOM     68  N   UNL     1       1.089   5.834   2.783  1.00  0.00    -0.240 NA
BRANCH  61  69
ATOM     69  C   UNL     1       0.242   1.913   0.100  1.00  0.00     0.318 C 
ATOM     70  O   UNL     1      -0.781   1.712   0.773  1.00  0.00    -0.249 OA
ATOM     71  N   UNL     1       0.299   1.138  -0.971  1.00  0.00    -0.331 N 
ATOM     72  H   UNL     1      -0.322   0.383  -0.857  1.00  0.00     0.165 HD
BRANCH  71  73
ATOM     73  C   UNL     1       0.963   1.021  -2.255  1.00  0.00     0.197 C 
BRANCH  73  74
ATOM     74  C   UNL     1       1.358  -0.411  -2.446  1.00  0.00     0.169 A 
ATOM     75  N   UNL     1       2.617  -0.807  -2.824  1.00  0.00    -0.218 NA
ATOM     76  N   UNL     1       0.511  -1.421  -2.182  1.00  0.00    -0.157 NA
ATOM     77  C   UNL     1       2.560  -2.116  -2.721  1.00  0.00     0.216 A 
ATOM     78  N   UNL     1       1.322  -2.488  -2.298  1.00  0.00    -0.266 N 
ATOM     79  H   UNL     1       1.054  -3.415  -2.102  1.00  0.00     0.191 HD
ENDBRANCH  73  74
ENDBRANCH  71  73
ENDBRANCH  61  69
ENDBRANCH  57  59
ENDBRANCH  56  57
ENDBRANCH   1  56
TORSDOF 14
