REMARK SMILES N#Cc1ccccc1S(=O)(=O)N1CCC(C(=O)OCCOC(=O)c2ccc(-c3c4nc(c(-c5ccccc5)c5ccc([nH]5)c(-c5ccccc5)c5nc(c(-c6ccccc6)c6ccc3[nH]6)C=C5)C=C4)cc2)CC1
REMARK SMILES IDX 19 1 18 2 16 3 17 4 15 5 12 6 13 7 73 8 14 9 72 10 9 11
REMARK SMILES IDX 10 12 11 13 8 14 3 15 4 16 5 17 7 18 6 19 2 20 1 21 20 22
REMARK SMILES IDX 21 23 22 24 23 25 24 26 25 27 71 28 26 29 70 30 27 31 28 32
REMARK SMILES IDX 29 33 64 34 30 35 69 36 63 37 65 38 31 39 68 40 62 41 61 42
REMARK SMILES IDX 32 44 54 45 39 46 53 47 40 48 43 49 52 50 66 51 41 52 42 53
REMARK SMILES IDX 51 55 67 56 44 57 33 58 34 59 38 60 35 61 37 62 36 63 55 64
REMARK SMILES IDX 56 65 60 66 57 67 59 68 58 69 45 70 46 71 50 72 47 73 49 74
REMARK SMILES IDX 48 75
REMARK H PARENT 65 43 43 54
REMARK Flexibility Score: inf
ROOT
ATOM      1  C   UNL     1      -8.504  -1.716  -0.522  1.00  0.00     0.274 C 
ENDROOT
BRANCH   1   2
ATOM      2  O   UNL     1      -7.094  -1.954  -0.359  1.00  0.00    -0.462 OA
BRANCH   2   3
ATOM      3  C   UNL     1      -6.271  -1.171  -1.099  1.00  0.00     0.309 C 
ATOM      4  O   UNL     1      -6.643  -0.368  -1.948  1.00  0.00    -0.252 OA
BRANCH   3   5
ATOM      5  C   UNL     1      -4.809  -1.363  -0.767  1.00  0.00     0.102 C 
ATOM      6  N   UNL     1      -2.142  -2.298  -0.319  1.00  0.00    -0.198 NA
ATOM      7  C   UNL     1      -3.020  -2.084   0.856  1.00  0.00     0.103 C 
ATOM      8  C   UNL     1      -2.572  -1.927  -1.683  1.00  0.00     0.103 C 
ATOM      9  C   UNL     1      -4.509  -2.088   0.534  1.00  0.00     0.032 C 
ATOM     10  C   UNL     1      -4.072  -2.068  -1.890  1.00  0.00     0.032 C 
BRANCH   6  11
ATOM     11  S   UNL     1      -0.495  -2.545  -0.036  1.00  0.00     0.244 S 
ATOM     12  O   UNL     1       0.011  -3.267  -1.187  1.00  0.00    -0.207 OA
ATOM     13  O   UNL     1      -0.351  -3.089   1.298  1.00  0.00    -0.207 OA
BRANCH  11  14
ATOM     14  C   UNL     1       0.428  -1.016  -0.015  1.00  0.00     0.100 A 
ATOM     15  C   UNL     1      -0.063   0.287   0.036  1.00  0.00     0.072 A 
ATOM     16  C   UNL     1       0.848   1.367   0.049  1.00  0.00     0.021 A 
ATOM     17  C   UNL     1       2.224   1.160   0.023  1.00  0.00     0.001 A 
ATOM     18  C   UNL     1       1.828  -1.211  -0.039  1.00  0.00     0.023 A 
ATOM     19  C   UNL     1       2.717  -0.135  -0.018  1.00  0.00     0.001 A 
BRANCH  15  20
ATOM     20  C   UNL     1      -1.434   0.673   0.089  1.00  0.00     0.101 C 
ATOM     21  N   UNL     1      -2.512   1.094   0.123  1.00  0.00    -0.192 NA
ENDBRANCH  15  20
ENDBRANCH  11  14
ENDBRANCH   6  11
ENDBRANCH   3   5
ENDBRANCH   2   3
ENDBRANCH   1   2
BRANCH   1  22
ATOM     22  C   UNL     1      -9.052  -0.873   0.631  1.00  0.00     0.275 C 
BRANCH  22  23
ATOM     23  O   UNL     1      -8.511   0.463   0.619  1.00  0.00    -0.458 OA
BRANCH  23  24
ATOM     24  C   UNL     1      -7.475   0.672   1.463  1.00  0.00     0.338 C 
ATOM     25  O   UNL     1      -6.965  -0.129   2.228  1.00  0.00    -0.246 OA
BRANCH  24  26
ATOM     26  C   UNL     1      -6.955   2.036   1.291  1.00  0.00     0.060 A 
ATOM     27  C   UNL     1      -5.754   2.205   0.606  1.00  0.00     0.016 A 
ATOM     28  C   UNL     1      -7.570   3.122   1.913  1.00  0.00     0.016 A 
ATOM     29  C   UNL     1      -5.138   3.452   0.561  1.00  0.00     0.010 A 
ATOM     30  C   UNL     1      -6.968   4.384   1.841  1.00  0.00     0.010 A 
ATOM     31  C   UNL     1      -5.737   4.555   1.181  1.00  0.00    -0.014 A 
BRANCH  31  32
ATOM     32  C   UNL     1      -5.056   5.875   1.166  1.00  0.00     0.031 A 
ATOM     33  C   UNL     1      -4.512   6.461   2.439  1.00  0.00     0.074 A 
ATOM     34  C   UNL     1      -4.917   6.546   0.007  1.00  0.00     0.049 A 
ATOM     35  N   UNL     1      -3.982   7.640   2.647  1.00  0.00    -0.248 NA
ATOM     36  C   UNL     1      -4.576   5.609   3.637  1.00  0.00     0.031 C 
ATOM     37  C   UNL     1      -5.349   6.067  -1.307  1.00  0.00     0.029 A 
ATOM     38  N   UNL     1      -4.373   7.780  -0.250  1.00  0.00    -0.354 N 
ATOM     39  C   UNL     1      -3.680   7.685   4.003  1.00  0.00     0.074 A 
ATOM     40  C   UNL     1      -4.099   6.421   4.570  1.00  0.00     0.031 C 
ATOM     41  C   UNL     1      -5.048   6.992  -2.231  1.00  0.00     0.029 A 
ATOM     42  C   UNL     1      -4.460   8.152  -1.569  1.00  0.00     0.049 A 
ATOM     43  H   UNL     1      -3.962   8.344   0.444  1.00  0.00     0.167 HD
ATOM     44  C   UNL     1      -3.105   8.688   4.710  1.00  0.00     0.031 A 
ATOM     45  C   UNL     1      -4.135   9.310  -2.175  1.00  0.00     0.031 A 
ATOM     46  C   UNL     1      -2.684   9.944   4.143  1.00  0.00     0.049 A 
ATOM     47  C   UNL     1      -3.571  10.436  -1.355  1.00  0.00     0.074 A 
ATOM     48  C   UNL     1      -2.077  11.015   4.775  1.00  0.00     0.029 A 
ATOM     49  N   UNL     1      -2.830  10.297   2.810  1.00  0.00    -0.354 N 
ATOM     50  N   UNL     1      -3.292  10.467  -0.075  1.00  0.00    -0.248 NA
ATOM     51  C   UNL     1      -3.280  11.689  -2.066  1.00  0.00     0.031 C 
ATOM     52  C   UNL     1      -1.906  12.038   3.836  1.00  0.00     0.029 A 
ATOM     53  C   UNL     1      -2.351  11.581   2.606  1.00  0.00     0.049 A 
ATOM     54  H   UNL     1      -3.218   9.721   2.112  1.00  0.00     0.167 HD
ATOM     55  C   UNL     1      -2.773  11.732   0.169  1.00  0.00     0.074 A 
ATOM     56  C   UNL     1      -2.759  12.431  -1.100  1.00  0.00     0.031 C 
ATOM     57  C   UNL     1      -2.346  12.267   1.339  1.00  0.00     0.031 A 
BRANCH  44  58
ATOM     58  C   UNL     1      -2.938   8.486   6.191  1.00  0.00    -0.014 A 
ATOM     59  C   UNL     1      -1.992   7.587   6.708  1.00  0.00     0.009 A 
ATOM     60  C   UNL     1      -3.722   9.234   7.084  1.00  0.00     0.009 A 
ATOM     61  C   UNL     1      -1.861   7.415   8.089  1.00  0.00     0.001 A 
ATOM     62  C   UNL     1      -3.569   9.081   8.464  1.00  0.00     0.001 A 
ATOM     63  C   UNL     1      -2.646   8.165   8.964  1.00  0.00     0.000 A 
ENDBRANCH  44  58
BRANCH  45  64
ATOM     64  C   UNL     1      -4.370   9.476  -3.633  1.00  0.00    -0.014 A 
ATOM     65  C   UNL     1      -3.292   9.572  -4.525  1.00  0.00     0.009 A 
ATOM     66  C   UNL     1      -5.678   9.543  -4.140  1.00  0.00     0.009 A 
ATOM     67  C   UNL     1      -3.519   9.752  -5.892  1.00  0.00     0.001 A 
ATOM     68  C   UNL     1      -5.902   9.692  -5.509  1.00  0.00     0.001 A 
ATOM     69  C   UNL     1      -4.823   9.805  -6.383  1.00  0.00     0.000 A 
ENDBRANCH  45  64
BRANCH  57  70
ATOM     70  C   UNL     1      -1.794  13.664   1.294  1.00  0.00    -0.014 A 
ATOM     71  C   UNL     1      -2.631  14.775   1.107  1.00  0.00     0.009 A 
ATOM     72  C   UNL     1      -0.417  13.873   1.474  1.00  0.00     0.009 A 
ATOM     73  C   UNL     1      -2.095  16.064   1.067  1.00  0.00     0.001 A 
ATOM     74  C   UNL     1       0.111  15.164   1.463  1.00  0.00     0.001 A 
ATOM     75  C   UNL     1      -0.727  16.257   1.250  1.00  0.00     0.000 A 
ENDBRANCH  57  70
ENDBRANCH  31  32
ENDBRANCH  24  26
ENDBRANCH  23  24
ENDBRANCH  22  23
ENDBRANCH   1  22
TORSDOF 14
