REMARK SMILES Cc1cccc(/C=C(/F)C(=O)OCCOC(=O)c2ccc(-c3c4nc(c(-c5ccccc5)c5ccc([nH]5)c(-c5ccccc5)c5nc(c(-c6ccccc6)c6ccc3[nH]6)C=C5)C=C4)cc2)c1C
REMARK SMILES IDX 14 1 13 2 12 3 10 4 11 5 8 6 7 7 9 8 6 9 1 10 2 11 3 12
REMARK SMILES IDX 66 13 4 14 67 15 5 16 15 17 16 18 17 19 18 20 19 21 65 22
REMARK SMILES IDX 20 23 64 24 21 25 22 26 23 27 58 28 24 29 63 30 57 31 59 32
REMARK SMILES IDX 25 33 62 34 56 35 55 36 26 38 48 39 33 40 47 41 34 42 37 43
REMARK SMILES IDX 46 44 60 45 35 46 36 47 45 49 61 50 38 51 27 52 28 53 32 54
REMARK SMILES IDX 29 55 31 56 30 57 49 58 50 59 54 60 51 61 53 62 52 63 39 64
REMARK SMILES IDX 40 65 44 66 41 67 43 68 42 69
REMARK H PARENT 59 37 37 48
REMARK Flexibility Score: inf
ROOT
ATOM      1  C   UNL     1       3.846  -2.293  -1.923  1.00  0.00     0.275 C 
ENDROOT
BRANCH   1   2
ATOM      2  C   UNL     1       4.102  -3.108  -0.648  1.00  0.00     0.275 C 
BRANCH   2   3
ATOM      3  O   UNL     1       3.029  -3.813   0.023  1.00  0.00    -0.457 OA
BRANCH   3   4
ATOM      4  C   UNL     1       1.729  -3.754  -0.330  1.00  0.00     0.367 C 
ATOM      5  O   UNL     1       1.246  -3.318  -1.365  1.00  0.00    -0.243 OA
BRANCH   4   6
ATOM      6  C   UNL     1       0.922  -4.295   0.784  1.00  0.00     0.208 C 
ATOM      7  C   UNL     1       0.196  -3.566   1.644  1.00  0.00     0.055 C 
ATOM      8  F   UNL     1       0.938  -5.640   0.894  1.00  0.00    -0.199 F 
BRANCH   7   9
ATOM      9  C   UNL     1       0.043  -2.109   1.597  1.00  0.00    -0.019 A 
ATOM     10  C   UNL     1       1.961   1.151   0.997  1.00  0.00     0.044 C 
ATOM     11  C   UNL     1       0.871   0.148   1.281  1.00  0.00    -0.048 A 
ATOM     12  C   UNL     1      -0.452   0.536   1.139  1.00  0.00     0.004 A 
ATOM     13  C   UNL     1       1.118  -1.185   1.615  1.00  0.00    -0.041 A 
ATOM     14  C   UNL     1      -1.535  -0.316   1.276  1.00  0.00     0.001 A 
ATOM     15  C   UNL     1       2.522  -1.541   1.995  1.00  0.00     0.045 C 
ATOM     16  C   UNL     1      -1.282  -1.655   1.472  1.00  0.00     0.008 A 
ENDBRANCH   7   9
ENDBRANCH   4   6
ENDBRANCH   3   4
ENDBRANCH   2   3
ENDBRANCH   1   2
BRANCH   1  17
ATOM     17  O   UNL     1       2.887  -1.231  -1.741  1.00  0.00    -0.458 OA
BRANCH  17  18
ATOM     18  C   UNL     1       2.068  -1.028  -2.814  1.00  0.00     0.338 C 
ATOM     19  O   UNL     1       2.155  -1.552  -3.914  1.00  0.00    -0.246 OA
BRANCH  18  20
ATOM     20  C   UNL     1       0.990  -0.070  -2.477  1.00  0.00     0.060 A 
ATOM     21  C   UNL     1      -0.295  -0.547  -2.220  1.00  0.00     0.016 A 
ATOM     22  C   UNL     1       1.216   1.311  -2.510  1.00  0.00     0.016 A 
ATOM     23  C   UNL     1      -1.335   0.357  -1.940  1.00  0.00     0.010 A 
ATOM     24  C   UNL     1       0.169   2.216  -2.230  1.00  0.00     0.010 A 
ATOM     25  C   UNL     1      -1.118   1.754  -1.920  1.00  0.00    -0.014 A 
BRANCH  25  26
ATOM     26  C   UNL     1      -2.298   2.674  -1.755  1.00  0.00     0.031 A 
ATOM     27  C   UNL     1      -3.232   2.798  -2.924  1.00  0.00     0.074 A 
ATOM     28  C   UNL     1      -2.616   3.346  -0.624  1.00  0.00     0.049 A 
ATOM     29  N   UNL     1      -4.332   3.497  -3.027  1.00  0.00    -0.248 NA
ATOM     30  C   UNL     1      -2.837   2.097  -4.156  1.00  0.00     0.031 C 
ATOM     31  C   UNL     1      -1.784   3.477   0.558  1.00  0.00     0.029 A 
ATOM     32  N   UNL     1      -3.770   4.007  -0.247  1.00  0.00    -0.354 N 
ATOM     33  C   UNL     1      -4.734   3.360  -4.346  1.00  0.00     0.074 A 
ATOM     34  C   UNL     1      -3.782   2.487  -4.996  1.00  0.00     0.031 C 
ATOM     35  C   UNL     1      -2.521   3.891   1.599  1.00  0.00     0.029 A 
ATOM     36  C   UNL     1      -3.802   4.359   1.090  1.00  0.00     0.049 A 
ATOM     37  H   UNL     1      -4.503   4.208  -0.873  1.00  0.00     0.167 HD
ATOM     38  C   UNL     1      -5.771   3.955  -4.977  1.00  0.00     0.031 A 
ATOM     39  C   UNL     1      -4.690   5.073   1.817  1.00  0.00     0.031 A 
ATOM     40  C   UNL     1      -6.676   4.884  -4.360  1.00  0.00     0.049 A 
ATOM     41  C   UNL     1      -5.813   5.751   1.082  1.00  0.00     0.074 A 
ATOM     42  C   UNL     1      -7.730   5.566  -4.941  1.00  0.00     0.029 A 
ATOM     43  N   UNL     1      -6.625   5.279  -3.033  1.00  0.00    -0.354 N 
ATOM     44  N   UNL     1      -6.158   5.637  -0.176  1.00  0.00    -0.248 NA
ATOM     45  C   UNL     1      -6.618   6.718   1.843  1.00  0.00     0.031 C 
ATOM     46  C   UNL     1      -8.283   6.417  -3.980  1.00  0.00     0.029 A 
ATOM     47  C   UNL     1      -7.623   6.207  -2.780  1.00  0.00     0.049 A 
ATOM     48  H   UNL     1      -5.978   4.950  -2.369  1.00  0.00     0.167 HD
ATOM     49  C   UNL     1      -7.211   6.521  -0.360  1.00  0.00     0.074 A 
ATOM     50  C   UNL     1      -7.477   7.134   0.924  1.00  0.00     0.031 C 
ATOM     51  C   UNL     1      -7.883   6.810  -1.500  1.00  0.00     0.031 A 
BRANCH  38  52
ATOM     52  C   UNL     1      -5.904   3.682  -6.445  1.00  0.00    -0.014 A 
ATOM     53  C   UNL     1      -6.319   2.430  -6.923  1.00  0.00     0.009 A 
ATOM     54  C   UNL     1      -5.587   4.695  -7.363  1.00  0.00     0.009 A 
ATOM     55  C   UNL     1      -6.383   2.189  -8.296  1.00  0.00     0.001 A 
ATOM     56  C   UNL     1      -5.684   4.461  -8.734  1.00  0.00     0.001 A 
ATOM     57  C   UNL     1      -6.072   3.206  -9.199  1.00  0.00     0.000 A 
ENDBRANCH  38  52
BRANCH  39  58
ATOM     58  C   UNL     1      -4.483   5.345   3.276  1.00  0.00    -0.014 A 
ATOM     59  C   UNL     1      -5.440   4.958   4.230  1.00  0.00     0.009 A 
ATOM     60  C   UNL     1      -3.350   6.046   3.724  1.00  0.00     0.009 A 
ATOM     61  C   UNL     1      -5.268   5.270   5.585  1.00  0.00     0.001 A 
ATOM     62  C   UNL     1      -3.152   6.307   5.082  1.00  0.00     0.001 A 
ATOM     63  C   UNL     1      -4.117   5.929   6.011  1.00  0.00     0.000 A 
ENDBRANCH  39  58
BRANCH  51  64
ATOM     64  C   UNL     1      -9.019   7.785  -1.393  1.00  0.00    -0.014 A 
ATOM     65  C   UNL     1      -8.802   9.156  -1.187  1.00  0.00     0.009 A 
ATOM     66  C   UNL     1     -10.335   7.315  -1.525  1.00  0.00     0.009 A 
ATOM     67  C   UNL     1      -9.884  10.030  -1.077  1.00  0.00     0.001 A 
ATOM     68  C   UNL     1     -11.413   8.196  -1.447  1.00  0.00     0.001 A 
ATOM     69  C   UNL     1     -11.187   9.551  -1.212  1.00  0.00     0.000 A 
ENDBRANCH  51  64
ENDBRANCH  25  26
ENDBRANCH  18  20
ENDBRANCH  17  18
ENDBRANCH   1  17
TORSDOF 12
