REMARK SMILES CC1=C([C@H](NC(=O)[C@@H]2[C@H](C)c3cc(F)ccc3N2C)C(=O)OCCOC(=O)c2ccc(-c3c4nc(c(-c5ccccc5)c5ccc([nH]5)c(-c5ccccc5)c5nc(c(-c6ccccc6)c6ccc3[nH]6)C=C5)C=C4)cc2)[C@@H](C)N=N1
REMARK SMILES IDX 23 1 22 2 20 3 21 4 4 5 3 6 1 7 2 8 79 9 76 10 78 11 77 12
REMARK SMILES IDX 5 13 6 14 7 16 8 17 9 18 18 19 11 20 10 21 17 22 19 23 12 24
REMARK SMILES IDX 16 25 13 26 15 27 14 28 24 29 25 30 26 31 27 32 28 33 29 34
REMARK SMILES IDX 75 35 30 36 74 37 31 38 32 39 33 40 68 41 34 42 73 43 67 44
REMARK SMILES IDX 69 45 35 46 72 47 66 48 65 49 36 51 58 52 43 53 57 54 44 55
REMARK SMILES IDX 47 56 56 57 70 58 45 59 46 60 55 62 71 63 48 64 37 65 38 66
REMARK SMILES IDX 42 67 39 68 41 69 40 70 59 71 60 72 64 73 61 74 63 75 62 76
REMARK SMILES IDX 49 77 50 78 54 79 51 80 53 81 52 82
REMARK H PARENT 5 15 69 50 47 61
REMARK Flexibility Score: inf
ROOT
ATOM      1  C   UNL     1       1.938   3.119   5.533  1.00  0.00     0.274 C 
ENDROOT
BRANCH   1   2
ATOM      2  O   UNL     1       1.199   2.155   4.747  1.00  0.00    -0.460 OA
BRANCH   2   3
ATOM      3  C   UNL     1       0.191   2.598   3.971  1.00  0.00     0.333 C 
ATOM      4  O   UNL     1      -0.090   3.784   3.869  1.00  0.00    -0.249 OA
BRANCH   3   5
ATOM      5  C   UNL     1      -0.597   1.463   3.238  1.00  0.00     0.223 C 
BRANCH   5   6
ATOM      6  C   UNL     1      -2.080   1.597   3.358  1.00  0.00     0.012 C 
ATOM      7  C   UNL     1      -2.851   0.941   0.995  1.00  0.00     0.069 C 
ATOM      8  C   UNL     1      -3.012   1.365   2.420  1.00  0.00     0.064 C 
ATOM      9  N   UNL     1      -4.279   1.621   2.875  1.00  0.00    -0.160 NA
ATOM     10  C   UNL     1      -2.837   2.084   4.556  1.00  0.00     0.156 C 
ATOM     11  N   UNL     1      -4.244   2.041   4.062  1.00  0.00    -0.181 NA
ATOM     12  C   UNL     1      -2.574   3.501   5.072  1.00  0.00     0.040 C 
ENDBRANCH   5   6
BRANCH   5  13
ATOM     13  N   UNL     1      -0.258   0.041   3.103  1.00  0.00    -0.337 N 
ATOM     14  C   UNL     1      -0.003  -0.949   4.003  1.00  0.00     0.244 C 
ATOM     15  H   UNL     1      -0.203  -0.260   2.167  1.00  0.00     0.164 HD
ATOM     16  O   UNL     1      -0.200  -2.108   3.636  1.00  0.00    -0.273 OA
BRANCH  14  17
ATOM     17  C   UNL     1       0.605  -0.574   5.337  1.00  0.00     0.178 C 
ATOM     18  C   UNL     1       2.159  -0.582   5.328  1.00  0.00     0.050 C 
ATOM     19  N   UNL     1       0.150  -1.367   6.495  1.00  0.00    -0.362 N 
ATOM     20  C   UNL     1       2.398  -0.822   6.788  1.00  0.00    -0.016 A 
ATOM     21  C   UNL     1       2.906  -1.568   4.434  1.00  0.00     0.015 C 
ATOM     22  C   UNL     1       1.212  -1.266   7.400  1.00  0.00     0.041 A 
ATOM     23  C   UNL     1      -1.225  -1.250   6.936  1.00  0.00     0.144 C 
ATOM     24  C   UNL     1       3.566  -0.611   7.501  1.00  0.00     0.045 A 
ATOM     25  C   UNL     1       1.193  -1.507   8.762  1.00  0.00     0.029 A 
ATOM     26  C   UNL     1       3.527  -0.844   8.868  1.00  0.00     0.123 A 
ATOM     27  C   UNL     1       2.360  -1.285   9.501  1.00  0.00     0.041 A 
ATOM     28  F   UNL     1       4.628  -0.628   9.599  1.00  0.00    -0.207 F 
ENDBRANCH  14  17
ENDBRANCH   5  13
ENDBRANCH   3   5
ENDBRANCH   2   3
ENDBRANCH   1   2
BRANCH   1  29
ATOM     29  C   UNL     1       3.375   3.219   5.012  1.00  0.00     0.275 C 
BRANCH  29  30
ATOM     30  O   UNL     1       3.372   3.825   3.709  1.00  0.00    -0.458 OA
BRANCH  30  31
ATOM     31  C   UNL     1       3.181   2.995   2.658  1.00  0.00     0.338 C 
ATOM     32  O   UNL     1       3.442   1.790   2.625  1.00  0.00    -0.246 OA
BRANCH  31  33
ATOM     33  C   UNL     1       2.245   3.651   1.711  1.00  0.00     0.060 A 
ATOM     34  C   UNL     1       1.916   5.001   1.866  1.00  0.00     0.016 A 
ATOM     35  C   UNL     1       1.450   2.828   0.900  1.00  0.00     0.016 A 
ATOM     36  C   UNL     1       0.689   5.459   1.400  1.00  0.00     0.010 A 
ATOM     37  C   UNL     1       0.224   3.300   0.424  1.00  0.00     0.010 A 
ATOM     38  C   UNL     1      -0.202   4.588   0.752  1.00  0.00    -0.014 A 
BRANCH  38  39
ATOM     39  C   UNL     1      -1.379   5.188   0.119  1.00  0.00     0.031 A 
ATOM     40  C   UNL     1      -0.967   5.893  -1.099  1.00  0.00     0.074 A 
ATOM     41  C   UNL     1      -2.680   5.241   0.466  1.00  0.00     0.049 A 
ATOM     42  N   UNL     1      -0.763   7.162  -1.172  1.00  0.00    -0.248 NA
ATOM     43  C   UNL     1      -0.521   5.113  -2.256  1.00  0.00     0.031 C 
ATOM     44  C   UNL     1      -3.378   4.525   1.513  1.00  0.00     0.029 A 
ATOM     45  N   UNL     1      -3.689   5.964  -0.116  1.00  0.00    -0.354 N 
ATOM     46  C   UNL     1      -0.313   7.381  -2.455  1.00  0.00     0.074 A 
ATOM     47  C   UNL     1      -0.010   6.084  -3.011  1.00  0.00     0.031 C 
ATOM     48  C   UNL     1      -4.718   4.666   1.374  1.00  0.00     0.029 A 
ATOM     49  C   UNL     1      -4.967   5.634   0.325  1.00  0.00     0.049 A 
ATOM     50  H   UNL     1      -3.523   6.660  -0.792  1.00  0.00     0.167 HD
ATOM     51  C   UNL     1      -0.463   8.597  -3.034  1.00  0.00     0.031 A 
ATOM     52  C   UNL     1      -6.146   6.150  -0.104  1.00  0.00     0.031 A 
ATOM     53  C   UNL     1      -0.740   9.629  -2.063  1.00  0.00     0.049 A 
ATOM     54  C   UNL     1      -5.869   7.505  -0.618  1.00  0.00     0.074 A 
ATOM     55  C   UNL     1      -0.068  10.136  -0.968  1.00  0.00     0.029 A 
ATOM     56  N   UNL     1      -2.050  10.019  -1.920  1.00  0.00    -0.354 N 
ATOM     57  N   UNL     1      -5.551   8.510   0.144  1.00  0.00    -0.248 NA
ATOM     58  C   UNL     1      -5.585   7.674  -2.031  1.00  0.00     0.031 C 
ATOM     59  C   UNL     1      -1.078  10.454  -0.013  1.00  0.00     0.029 A 
ATOM     60  C   UNL     1      -2.320  10.171  -0.583  1.00  0.00     0.049 A 
ATOM     61  H   UNL     1      -2.688  10.165  -2.655  1.00  0.00     0.167 HD
ATOM     62  C   UNL     1      -4.616   9.215  -0.594  1.00  0.00     0.074 A 
ATOM     63  C   UNL     1      -4.784   8.739  -1.964  1.00  0.00     0.031 C 
ATOM     64  C   UNL     1      -3.611   9.903   0.023  1.00  0.00     0.031 A 
BRANCH  51  65
ATOM     65  C   UNL     1      -0.760   8.735  -4.498  1.00  0.00    -0.014 A 
ATOM     66  C   UNL     1      -1.209   7.665  -5.300  1.00  0.00     0.009 A 
ATOM     67  C   UNL     1      -0.833  10.018  -5.054  1.00  0.00     0.009 A 
ATOM     68  C   UNL     1      -1.692   7.854  -6.593  1.00  0.00     0.001 A 
ATOM     69  C   UNL     1      -1.362  10.219  -6.334  1.00  0.00     0.001 A 
ATOM     70  C   UNL     1      -1.788   9.138  -7.102  1.00  0.00     0.000 A 
ENDBRANCH  51  65
BRANCH  52  71
ATOM     71  C   UNL     1      -7.418   5.452  -0.408  1.00  0.00    -0.014 A 
ATOM     72  C   UNL     1      -7.421   4.078  -0.700  1.00  0.00     0.009 A 
ATOM     73  C   UNL     1      -8.569   6.192  -0.738  1.00  0.00     0.009 A 
ATOM     74  C   UNL     1      -8.498   3.482  -1.368  1.00  0.00     0.001 A 
ATOM     75  C   UNL     1      -9.645   5.596  -1.412  1.00  0.00     0.001 A 
ATOM     76  C   UNL     1      -9.598   4.246  -1.747  1.00  0.00     0.000 A 
ENDBRANCH  52  71
BRANCH  64  77
ATOM     77  C   UNL     1      -3.740  10.179   1.508  1.00  0.00    -0.014 A 
ATOM     78  C   UNL     1      -3.556  11.499   1.952  1.00  0.00     0.009 A 
ATOM     79  C   UNL     1      -3.907   9.176   2.480  1.00  0.00     0.009 A 
ATOM     80  C   UNL     1      -3.531  11.808   3.315  1.00  0.00     0.001 A 
ATOM     81  C   UNL     1      -3.912   9.489   3.845  1.00  0.00     0.001 A 
ATOM     82  C   UNL     1      -3.715  10.804   4.262  1.00  0.00     0.000 A 
ENDBRANCH  64  77
ENDBRANCH  38  39
ENDBRANCH  31  33
ENDBRANCH  30  31
ENDBRANCH  29  30
ENDBRANCH   1  29
TORSDOF 14
