REMARK SMILES O=C(OCCOC(=O)c1oc2cccc3c2c1CCC3)c1ccc(-c2c3nc(c(-c4ccccc4)c4ccc([nH]4)c(-c4ccccc4)c4nc(c(-c5ccccc5)c5ccc2[nH]5)C=C4)C=C3)cc1
REMARK SMILES IDX 4 1 3 2 2 3 1 4 21 5 22 6 68 7 23 8 67 9 24 10 25 11 26 12
REMARK SMILES IDX 61 13 27 14 66 15 60 16 62 17 28 18 65 19 59 20 58 21 29 23
REMARK SMILES IDX 51 24 36 25 50 26 37 27 40 28 49 29 63 30 38 31 39 32 48 34
REMARK SMILES IDX 64 35 41 36 30 37 31 38 35 39 32 40 34 41 33 42 52 43 53 44
REMARK SMILES IDX 57 45 54 46 56 47 55 48 42 49 43 50 47 51 44 52 46 53 45 54
REMARK SMILES IDX 5 55 6 56 7 57 8 58 9 59 10 60 17 61 11 62 16 63 18 64 12 65
REMARK SMILES IDX 15 66 19 67 13 68 14 69 20 70
REMARK H PARENT 62 22 40 33
REMARK Flexibility Score: inf
ROOT
ATOM      1  C   UNL     1       4.593  -1.050   0.769  1.00  0.00     0.275 C 
ENDROOT
BRANCH   1   2
ATOM      2  O   UNL     1       3.334  -0.706   1.386  1.00  0.00    -0.458 OA
BRANCH   2   3
ATOM      3  C   UNL     1       2.324  -0.056   0.766  1.00  0.00     0.338 C 
ATOM      4  O   UNL     1       1.202  -0.544   0.701  1.00  0.00    -0.246 OA
BRANCH   3   5
ATOM      5  C   UNL     1       2.520   1.389   0.451  1.00  0.00     0.060 A 
ATOM      6  C   UNL     1       3.744   2.055   0.529  1.00  0.00     0.016 A 
ATOM      7  C   UNL     1       1.358   2.127   0.155  1.00  0.00     0.016 A 
ATOM      8  C   UNL     1       3.791   3.437   0.441  1.00  0.00     0.010 A 
ATOM      9  C   UNL     1       1.397   3.511   0.071  1.00  0.00     0.010 A 
ATOM     10  C   UNL     1       2.608   4.159   0.282  1.00  0.00    -0.014 A 
BRANCH  10  11
ATOM     11  C   UNL     1       2.702   5.607   0.319  1.00  0.00     0.031 A 
ATOM     12  C   UNL     1       3.400   6.221  -0.837  1.00  0.00     0.074 A 
ATOM     13  C   UNL     1       2.166   6.340   1.313  1.00  0.00     0.049 A 
ATOM     14  N   UNL     1       4.528   6.852  -0.842  1.00  0.00    -0.248 NA
ATOM     15  C   UNL     1       2.818   6.014  -2.171  1.00  0.00     0.031 C 
ATOM     16  C   UNL     1       1.242   5.920   2.369  1.00  0.00     0.029 A 
ATOM     17  N   UNL     1       2.287   7.677   1.528  1.00  0.00    -0.354 N 
ATOM     18  C   UNL     1       4.729   7.266  -2.155  1.00  0.00     0.074 A 
ATOM     19  C   UNL     1       3.715   6.619  -2.949  1.00  0.00     0.031 C 
ATOM     20  C   UNL     1       0.715   7.017   2.963  1.00  0.00     0.029 A 
ATOM     21  C   UNL     1       1.375   8.199   2.435  1.00  0.00     0.049 A 
ATOM     22  H   UNL     1       2.965   8.229   1.077  1.00  0.00     0.167 HD
ATOM     23  C   UNL     1       5.584   8.277  -2.473  1.00  0.00     0.031 A 
ATOM     24  C   UNL     1       1.153   9.516   2.672  1.00  0.00     0.031 A 
ATOM     25  C   UNL     1       6.530   8.542  -1.424  1.00  0.00     0.049 A 
ATOM     26  C   UNL     1       2.359  10.248   2.217  1.00  0.00     0.074 A 
ATOM     27  C   UNL     1       7.528   7.809  -0.812  1.00  0.00     0.029 A 
ATOM     28  N   UNL     1       6.268   9.594  -0.581  1.00  0.00    -0.354 N 
ATOM     29  N   UNL     1       3.526  10.133   2.784  1.00  0.00    -0.248 NA
ATOM     30  C   UNL     1       2.370  10.768   0.859  1.00  0.00     0.031 C 
ATOM     31  C   UNL     1       7.445   8.163   0.566  1.00  0.00     0.029 A 
ATOM     32  C   UNL     1       6.449   9.133   0.698  1.00  0.00     0.049 A 
ATOM     33  H   UNL     1       6.002  10.505  -0.844  1.00  0.00     0.167 HD
ATOM     34  C   UNL     1       4.433  10.159   1.736  1.00  0.00     0.074 A 
ATOM     35  C   UNL     1       3.671  10.639   0.584  1.00  0.00     0.031 C 
ATOM     36  C   UNL     1       5.639   9.529   1.827  1.00  0.00     0.031 A 
BRANCH  23  37
ATOM     37  C   UNL     1       5.307   9.261  -3.577  1.00  0.00    -0.014 A 
ATOM     38  C   UNL     1       6.288  10.205  -3.924  1.00  0.00     0.009 A 
ATOM     39  C   UNL     1       4.014   9.466  -4.096  1.00  0.00     0.009 A 
ATOM     40  C   UNL     1       5.974  11.320  -4.713  1.00  0.00     0.001 A 
ATOM     41  C   UNL     1       3.707  10.555  -4.915  1.00  0.00     0.001 A 
ATOM     42  C   UNL     1       4.684  11.496  -5.204  1.00  0.00     0.000 A 
ENDBRANCH  23  37
BRANCH  24  43
ATOM     43  C   UNL     1      -0.143  10.202   2.890  1.00  0.00    -0.014 A 
ATOM     44  C   UNL     1      -0.175  11.559   3.255  1.00  0.00     0.009 A 
ATOM     45  C   UNL     1      -1.345   9.620   2.447  1.00  0.00     0.009 A 
ATOM     46  C   UNL     1      -1.346  12.318   3.118  1.00  0.00     0.001 A 
ATOM     47  C   UNL     1      -2.516  10.376   2.318  1.00  0.00     0.001 A 
ATOM     48  C   UNL     1      -2.510  11.730   2.632  1.00  0.00     0.000 A 
ENDBRANCH  24  43
BRANCH  36  49
ATOM     49  C   UNL     1       6.038   8.945   3.159  1.00  0.00    -0.014 A 
ATOM     50  C   UNL     1       5.378   7.840   3.729  1.00  0.00     0.009 A 
ATOM     51  C   UNL     1       7.233   9.384   3.745  1.00  0.00     0.009 A 
ATOM     52  C   UNL     1       5.906   7.194   4.853  1.00  0.00     0.001 A 
ATOM     53  C   UNL     1       7.766   8.729   4.857  1.00  0.00     0.001 A 
ATOM     54  C   UNL     1       7.106   7.633   5.409  1.00  0.00     0.000 A 
ENDBRANCH  36  49
ENDBRANCH  10  11
ENDBRANCH   3   5
ENDBRANCH   2   3
ENDBRANCH   1   2
BRANCH   1  55
ATOM     55  C   UNL     1       4.541  -1.613  -0.647  1.00  0.00     0.275 C 
BRANCH  55  56
ATOM     56  O   UNL     1       4.091  -0.635  -1.593  1.00  0.00    -0.456 OA
BRANCH  56  57
ATOM     57  C   UNL     1       2.877  -0.871  -2.168  1.00  0.00     0.374 C 
ATOM     58  O   UNL     1       2.149  -1.829  -1.919  1.00  0.00    -0.242 OA
BRANCH  57  59
ATOM     59  C   UNL     1       2.621   0.144  -3.142  1.00  0.00     0.216 A 
ATOM     60  O   UNL     1       1.684   1.128  -2.882  1.00  0.00    -0.449 OA
ATOM     61  C   UNL     1       3.171   0.343  -4.390  1.00  0.00     0.014 A 
ATOM     62  C   UNL     1       1.656   1.956  -3.972  1.00  0.00     0.135 A 
ATOM     63  C   UNL     1       2.542   1.483  -4.908  1.00  0.00     0.028 A 
ATOM     64  C   UNL     1       4.178  -0.374  -5.212  1.00  0.00     0.041 C 
ATOM     65  C   UNL     1       0.891   3.094  -4.187  1.00  0.00     0.048 A 
ATOM     66  C   UNL     1       2.717   2.070  -6.159  1.00  0.00    -0.037 A 
ATOM     67  C   UNL     1       3.910  -0.098  -6.721  1.00  0.00     0.010 C 
ATOM     68  C   UNL     1       1.089   3.733  -5.429  1.00  0.00     0.004 A 
ATOM     69  C   UNL     1       1.984   3.235  -6.399  1.00  0.00     0.004 A 
ATOM     70  C   UNL     1       3.705   1.411  -7.084  1.00  0.00     0.036 C 
ENDBRANCH  57  59
ENDBRANCH  56  57
ENDBRANCH  55  56
ENDBRANCH   1  55
TORSDOF 11
