REMARK SMILES CC(=O)c1ccc(N2CCN(c3ccc(C(=O)OCCOC(=O)c4ccc(-c5c6nc(c(-c7ccccc7)c7ccc([nH]7)c(-c7ccccc7)c7nc(c(-c8ccccc8)c8ccc5[nH]8)C=C7)C=C6)cc4)cc3NS(=O)(=O)c3ccc(C)cc3)CC2)cc1
REMARK SMILES IDX 19 1 18 2 16 3 17 4 15 5 12 6 13 7 73 8 14 9 72 10 11 11
REMARK SMILES IDX 8 12 9 13 86 14 10 15 85 16 7 17 4 18 5 19 88 20 6 21 87 22
REMARK SMILES IDX 2 23 1 24 3 25 74 26 75 28 76 29 77 30 78 31 79 32 84 33
REMARK SMILES IDX 80 34 83 35 81 36 82 37 20 38 21 39 22 40 23 41 24 42 25 43
REMARK SMILES IDX 71 44 26 45 70 46 27 47 28 48 29 49 64 50 30 51 69 52 63 53
REMARK SMILES IDX 65 54 31 55 68 56 62 57 61 58 32 60 54 61 39 62 53 63 40 64
REMARK SMILES IDX 43 65 52 66 66 67 41 68 42 69 51 71 67 72 44 73 33 74 34 75
REMARK SMILES IDX 38 76 35 77 37 78 36 79 55 80 56 81 60 82 57 83 59 84 58 85
REMARK SMILES IDX 45 86 46 87 50 88 47 89 49 90 48 91
REMARK H PARENT 74 27 65 59 43 70
REMARK Flexibility Score: inf
ROOT
ATOM      1  C   UNL     1       5.642  -1.442  16.001  1.00  0.00     0.275 C 
ENDROOT
BRANCH   1   2
ATOM      2  O   UNL     1       5.063  -1.176  14.706  1.00  0.00    -0.458 OA
BRANCH   2   3
ATOM      3  C   UNL     1       5.703  -1.660  13.614  1.00  0.00     0.338 C 
ATOM      4  O   UNL     1       6.737  -2.293  13.609  1.00  0.00    -0.246 OA
BRANCH   3   5
ATOM      5  C   UNL     1       4.927  -1.353  12.373  1.00  0.00     0.062 A 
ATOM      6  C   UNL     1       3.769  -0.503   9.971  1.00  0.00     0.061 A 
ATOM      7  C   UNL     1       4.639  -1.604   9.989  1.00  0.00     0.029 A 
ATOM      8  C   UNL     1       3.465   0.143  11.187  1.00  0.00     0.073 A 
ATOM      9  C   UNL     1       5.274  -1.981  11.175  1.00  0.00     0.018 A 
ATOM     10  C   UNL     1       3.894  -0.421  12.373  1.00  0.00     0.044 A 
BRANCH   6  11
ATOM     11  N   UNL     1       3.153  -0.084   8.801  1.00  0.00    -0.366 N 
ATOM     12  N   UNL     1       1.997   0.585   6.331  1.00  0.00    -0.368 N 
ATOM     13  C   UNL     1       1.235  -0.246   7.273  1.00  0.00     0.138 C 
ATOM     14  C   UNL     1       3.034   1.468   6.898  1.00  0.00     0.138 C 
ATOM     15  C   UNL     1       2.220  -1.036   8.161  1.00  0.00     0.138 C 
ATOM     16  C   UNL     1       3.972   0.673   7.835  1.00  0.00     0.138 C 
BRANCH  12  17
ATOM     17  C   UNL     1       1.591   0.727   5.028  1.00  0.00     0.037 A 
ATOM     18  C   UNL     1       0.806   0.901   2.331  1.00  0.00     0.017 A 
ATOM     19  C   UNL     1      -0.126   1.115   3.351  1.00  0.00     0.014 A 
ATOM     20  C   UNL     1       2.132   0.616   2.654  1.00  0.00     0.014 A 
ATOM     21  C   UNL     1       0.265   1.009   4.688  1.00  0.00     0.026 A 
ATOM     22  C   UNL     1       2.517   0.546   3.993  1.00  0.00     0.026 A 
BRANCH  18  23
ATOM     23  C   UNL     1       0.347   0.986   0.921  1.00  0.00     0.159 C 
ATOM     24  C   UNL     1       0.999   0.087  -0.096  1.00  0.00     0.093 C 
ATOM     25  O   UNL     1      -0.580   1.736   0.627  1.00  0.00    -0.295 OA
ENDBRANCH  18  23
ENDBRANCH  12  17
ENDBRANCH   6  11
BRANCH   8  26
ATOM     26  N   UNL     1       2.726   1.388  11.205  1.00  0.00    -0.277 N 
ATOM     27  H   UNL     1       1.771   1.407  10.967  1.00  0.00     0.180 HD
BRANCH  26  28
ATOM     28  S   UNL     1       3.551   2.838  11.652  1.00  0.00     0.261 S 
ATOM     29  O   UNL     1       4.936   2.750  11.239  1.00  0.00    -0.201 OA
ATOM     30  O   UNL     1       2.707   3.917  11.175  1.00  0.00    -0.201 OA
BRANCH  28  31
ATOM     31  C   UNL     1       3.516   2.912  13.441  1.00  0.00     0.087 A 
ATOM     32  C   UNL     1       4.255   1.981  14.151  1.00  0.00     0.022 A 
ATOM     33  C   UNL     1       2.776   3.858  14.155  1.00  0.00     0.022 A 
ATOM     34  C   UNL     1       3.971   1.749  15.491  1.00  0.00     0.005 A 
ATOM     35  C   UNL     1       2.623   3.718  15.550  1.00  0.00     0.005 A 
ATOM     36  C   UNL     1       3.150   2.604  16.211  1.00  0.00    -0.051 A 
ATOM     37  C   UNL     1       2.826   2.248  17.632  1.00  0.00     0.044 C 
ENDBRANCH  28  31
ENDBRANCH  26  28
ENDBRANCH   8  26
ENDBRANCH   3   5
ENDBRANCH   2   3
ENDBRANCH   1   2
BRANCH   1  38
ATOM     38  C   UNL     1       4.573  -2.041  16.919  1.00  0.00     0.275 C 
BRANCH  38  39
ATOM     39  O   UNL     1       4.287  -3.385  16.493  1.00  0.00    -0.458 OA
BRANCH  39  40
ATOM     40  C   UNL     1       3.275  -3.500  15.602  1.00  0.00     0.338 C 
ATOM     41  O   UNL     1       2.456  -2.656  15.281  1.00  0.00    -0.246 OA
BRANCH  40  42
ATOM     42  C   UNL     1       3.491  -4.740  14.849  1.00  0.00     0.060 A 
ATOM     43  C   UNL     1       4.115  -4.613  13.611  1.00  0.00     0.016 A 
ATOM     44  C   UNL     1       3.084  -5.986  15.306  1.00  0.00     0.016 A 
ATOM     45  C   UNL     1       4.353  -5.711  12.810  1.00  0.00     0.010 A 
ATOM     46  C   UNL     1       3.349  -7.109  14.514  1.00  0.00     0.010 A 
ATOM     47  C   UNL     1       3.992  -6.976  13.266  1.00  0.00    -0.014 A 
BRANCH  47  48
ATOM     48  C   UNL     1       4.258  -8.141  12.397  1.00  0.00     0.031 A 
ATOM     49  C   UNL     1       3.105  -8.909  11.832  1.00  0.00     0.074 A 
ATOM     50  C   UNL     1       5.526  -8.464  12.080  1.00  0.00     0.049 A 
ATOM     51  N   UNL     1       3.106 -10.052  11.201  1.00  0.00    -0.248 NA
ATOM     52  C   UNL     1       1.769  -8.313  12.006  1.00  0.00     0.031 C 
ATOM     53  C   UNL     1       6.722  -7.717  12.482  1.00  0.00     0.029 A 
ATOM     54  N   UNL     1       6.022  -9.504  11.337  1.00  0.00    -0.354 N 
ATOM     55  C   UNL     1       1.772 -10.342  10.954  1.00  0.00     0.074 A 
ATOM     56  C   UNL     1       0.988  -9.256  11.500  1.00  0.00     0.031 C 
ATOM     57  C   UNL     1       7.808  -8.313  11.967  1.00  0.00     0.029 A 
ATOM     58  C   UNL     1       7.395  -9.534  11.289  1.00  0.00     0.049 A 
ATOM     59  H   UNL     1       5.451 -10.165  10.883  1.00  0.00     0.167 HD
ATOM     60  C   UNL     1       1.256 -11.430  10.336  1.00  0.00     0.031 A 
ATOM     61  C   UNL     1       8.228 -10.475  10.809  1.00  0.00     0.031 A 
ATOM     62  C   UNL     1       2.062 -12.491   9.793  1.00  0.00     0.049 A 
ATOM     63  C   UNL     1       7.629 -11.722  10.225  1.00  0.00     0.074 A 
ATOM     64  C   UNL     1       1.652 -13.647   9.154  1.00  0.00     0.029 A 
ATOM     65  N   UNL     1       3.449 -12.520   9.826  1.00  0.00    -0.354 N 
ATOM     66  N   UNL     1       6.365 -12.022  10.039  1.00  0.00    -0.248 NA
ATOM     67  C   UNL     1       8.568 -12.770   9.805  1.00  0.00     0.031 C 
ATOM     68  C   UNL     1       2.789 -14.404   8.857  1.00  0.00     0.029 A 
ATOM     69  C   UNL     1       3.911 -13.690   9.250  1.00  0.00     0.049 A 
ATOM     70  H   UNL     1       4.020 -11.813  10.204  1.00  0.00     0.167 HD
ATOM     71  C   UNL     1       6.356 -13.288   9.472  1.00  0.00     0.074 A 
ATOM     72  C   UNL     1       7.742 -13.685   9.317  1.00  0.00     0.031 C 
ATOM     73  C   UNL     1       5.298 -14.059   9.118  1.00  0.00     0.031 A 
BRANCH  60  74
ATOM     74  C   UNL     1      -0.241 -11.555  10.289  1.00  0.00    -0.014 A 
ATOM     75  C   UNL     1      -1.031 -10.719   9.484  1.00  0.00     0.009 A 
ATOM     76  C   UNL     1      -0.871 -12.541  11.064  1.00  0.00     0.009 A 
ATOM     77  C   UNL     1      -2.422 -10.845   9.487  1.00  0.00     0.001 A 
ATOM     78  C   UNL     1      -2.259 -12.685  11.041  1.00  0.00     0.001 A 
ATOM     79  C   UNL     1      -3.035 -11.830  10.261  1.00  0.00     0.000 A 
ENDBRANCH  60  74
BRANCH  61  80
ATOM     80  C   UNL     1       9.701 -10.313  10.942  1.00  0.00    -0.014 A 
ATOM     81  C   UNL     1      10.515 -10.176   9.808  1.00  0.00     0.009 A 
ATOM     82  C   UNL     1      10.304 -10.297  12.212  1.00  0.00     0.009 A 
ATOM     83  C   UNL     1      11.900 -10.045   9.943  1.00  0.00     0.001 A 
ATOM     84  C   UNL     1      11.684 -10.129  12.345  1.00  0.00     0.001 A 
ATOM     85  C   UNL     1      12.482 -10.014  11.210  1.00  0.00     0.000 A 
ENDBRANCH  61  80
BRANCH  73  86
ATOM     86  C   UNL     1       5.609 -15.395   8.507  1.00  0.00    -0.014 A 
ATOM     87  C   UNL     1       6.115 -16.448   9.284  1.00  0.00     0.009 A 
ATOM     88  C   UNL     1       5.355 -15.611   7.144  1.00  0.00     0.009 A 
ATOM     89  C   UNL     1       6.392 -17.684   8.698  1.00  0.00     0.001 A 
ATOM     90  C   UNL     1       5.601 -16.857   6.569  1.00  0.00     0.001 A 
ATOM     91  C   UNL     1       6.128 -17.889   7.343  1.00  0.00     0.000 A 
ENDBRANCH  73  86
ENDBRANCH  47  48
ENDBRANCH  40  42
ENDBRANCH  39  40
ENDBRANCH  38  39
ENDBRANCH   1  38
TORSDOF 17
