REMARK SMILES O=C(OCCOC(=O)c1ccccc1Nc1nc(Cl)nc(Nc2ccc(N3CCOCC3=O)cc2)n1)c1ccc(-c2c3nc(c(-c4ccccc4)c4ccc([nH]4)c(-c4ccccc4)c4nc(c(-c5ccccc5)c5ccc2[nH]5)C=C4)C=C3)cc1
REMARK SMILES IDX 6 1 5 2 4 3 3 4 2 5 1 6 37 7 38 8 84 9 39 10 83 11 40 12
REMARK SMILES IDX 41 13 42 14 77 15 43 16 82 17 76 18 78 19 44 20 81 21 75 22
REMARK SMILES IDX 74 23 45 25 67 26 52 27 66 28 53 29 56 30 65 31 79 32 54 33
REMARK SMILES IDX 55 34 64 36 80 37 57 38 46 39 47 40 51 41 48 42 50 43 49 44
REMARK SMILES IDX 68 45 69 46 73 47 70 48 72 49 71 50 58 51 59 52 63 53 60 54
REMARK SMILES IDX 62 55 61 56 7 57 8 58 9 59 10 60 14 61 11 62 13 63 12 64
REMARK SMILES IDX 15 65 16 67 17 68 36 69 18 70 21 71 19 72 20 73 22 74 23 76
REMARK SMILES IDX 24 77 35 78 25 79 34 80 26 81 27 82 28 83 32 84 29 85 31 86
REMARK SMILES IDX 33 87 30 88
REMARK H PARENT 78 24 56 35 15 66 22 75
REMARK Flexibility Score: inf
ROOT
ATOM      1  O   UNL     1       3.611   1.183  -1.724  1.00  0.00    -0.458 OA
ENDROOT
BRANCH   1   2
ATOM      2  C   UNL     1       4.074  -0.111  -2.143  1.00  0.00     0.275 C 
BRANCH   2   3
ATOM      3  C   UNL     1       4.197  -1.105  -0.985  1.00  0.00     0.275 C 
BRANCH   3   4
ATOM      4  O   UNL     1       3.034  -1.158  -0.141  1.00  0.00    -0.458 OA
BRANCH   4   5
ATOM      5  C   UNL     1       2.690  -0.445   0.955  1.00  0.00     0.338 C 
ATOM      6  O   UNL     1       1.693  -0.803   1.583  1.00  0.00    -0.246 OA
BRANCH   5   7
ATOM      7  C   UNL     1       3.381   0.801   1.433  1.00  0.00     0.060 A 
ATOM      8  C   UNL     1       4.654   1.247   1.068  1.00  0.00     0.016 A 
ATOM      9  C   UNL     1       2.658   1.593   2.352  1.00  0.00     0.016 A 
ATOM     10  C   UNL     1       5.190   2.426   1.597  1.00  0.00     0.010 A 
ATOM     11  C   UNL     1       3.184   2.776   2.882  1.00  0.00     0.010 A 
ATOM     12  C   UNL     1       4.472   3.177   2.529  1.00  0.00    -0.014 A 
BRANCH  12  13
ATOM     13  C   UNL     1       5.169   4.261   3.255  1.00  0.00     0.031 A 
ATOM     14  C   UNL     1       5.812   3.929   4.563  1.00  0.00     0.074 A 
ATOM     15  C   UNL     1       5.279   5.490   2.725  1.00  0.00     0.049 A 
ATOM     16  N   UNL     1       6.618   4.650   5.294  1.00  0.00    -0.248 NA
ATOM     17  C   UNL     1       5.491   2.609   5.132  1.00  0.00     0.031 C 
ATOM     18  C   UNL     1       4.666   5.900   1.471  1.00  0.00     0.029 A 
ATOM     19  N   UNL     1       5.971   6.599   3.136  1.00  0.00    -0.354 N 
ATOM     20  C   UNL     1       6.862   3.894   6.431  1.00  0.00     0.074 A 
ATOM     21  C   UNL     1       6.125   2.658   6.291  1.00  0.00     0.031 C 
ATOM     22  C   UNL     1       5.063   7.145   1.165  1.00  0.00     0.029 A 
ATOM     23  C   UNL     1       5.970   7.613   2.205  1.00  0.00     0.049 A 
ATOM     24  H   UNL     1       6.422   6.663   4.008  1.00  0.00     0.167 HD
ATOM     25  C   UNL     1       7.613   4.219   7.507  1.00  0.00     0.031 A 
ATOM     26  C   UNL     1       6.680   8.757   2.175  1.00  0.00     0.031 A 
ATOM     27  C   UNL     1       8.316   5.466   7.636  1.00  0.00     0.049 A 
ATOM     28  C   UNL     1       7.606   9.044   3.326  1.00  0.00     0.074 A 
ATOM     29  C   UNL     1       9.089   5.923   8.686  1.00  0.00     0.029 A 
ATOM     30  N   UNL     1       8.321   6.463   6.669  1.00  0.00    -0.354 N 
ATOM     31  N   UNL     1       7.869   8.304   4.378  1.00  0.00    -0.248 NA
ATOM     32  C   UNL     1       8.336  10.317   3.284  1.00  0.00     0.031 C 
ATOM     33  C   UNL     1       9.524   7.217   8.374  1.00  0.00     0.029 A 
ATOM     34  C   UNL     1       9.071   7.540   7.103  1.00  0.00     0.049 A 
ATOM     35  H   UNL     1       7.859   6.410   5.801  1.00  0.00     0.167 HD
ATOM     36  C   UNL     1       8.790   9.024   5.125  1.00  0.00     0.074 A 
ATOM     37  C   UNL     1       9.085  10.228   4.373  1.00  0.00     0.031 C 
ATOM     38  C   UNL     1       9.324   8.734   6.338  1.00  0.00     0.031 A 
BRANCH  25  39
ATOM     39  C   UNL     1       7.608   3.243   8.649  1.00  0.00    -0.014 A 
ATOM     40  C   UNL     1       8.227   1.986   8.554  1.00  0.00     0.009 A 
ATOM     41  C   UNL     1       6.905   3.567   9.819  1.00  0.00     0.009 A 
ATOM     42  C   UNL     1       8.094   1.054   9.587  1.00  0.00     0.001 A 
ATOM     43  C   UNL     1       6.801   2.646  10.863  1.00  0.00     0.001 A 
ATOM     44  C   UNL     1       7.382   1.385  10.739  1.00  0.00     0.000 A 
ENDBRANCH  25  39
BRANCH  26  45
ATOM     45  C   UNL     1       6.628   9.656   0.988  1.00  0.00    -0.014 A 
ATOM     46  C   UNL     1       7.769   9.823   0.185  1.00  0.00     0.009 A 
ATOM     47  C   UNL     1       5.458  10.349   0.640  1.00  0.00     0.009 A 
ATOM     48  C   UNL     1       7.750  10.681  -0.917  1.00  0.00     0.001 A 
ATOM     49  C   UNL     1       5.430  11.178  -0.485  1.00  0.00     0.001 A 
ATOM     50  C   UNL     1       6.578  11.350  -1.256  1.00  0.00     0.000 A 
ENDBRANCH  26  45
BRANCH  38  51
ATOM     51  C   UNL     1      10.259   9.757   6.919  1.00  0.00    -0.014 A 
ATOM     52  C   UNL     1       9.783  11.002   7.360  1.00  0.00     0.009 A 
ATOM     53  C   UNL     1      11.626   9.466   7.040  1.00  0.00     0.009 A 
ATOM     54  C   UNL     1      10.666  11.957   7.863  1.00  0.00     0.001 A 
ATOM     55  C   UNL     1      12.502  10.411   7.574  1.00  0.00     0.001 A 
ATOM     56  C   UNL     1      12.024  11.660   7.971  1.00  0.00     0.000 A 
ENDBRANCH  38  51
ENDBRANCH  12  13
ENDBRANCH   5   7
ENDBRANCH   4   5
ENDBRANCH   3   4
ENDBRANCH   2   3
ENDBRANCH   1   2
BRANCH   1  57
ATOM     57  C   UNL     1       2.264   1.371  -1.811  1.00  0.00     0.340 C 
ATOM     58  O   UNL     1       1.450   0.572  -2.242  1.00  0.00    -0.246 OA
BRANCH  57  59
ATOM     59  C   UNL     1       1.893   2.657  -1.179  1.00  0.00     0.083 A 
ATOM     60  C   UNL     1       0.783   2.630  -0.318  1.00  0.00     0.018 A 
ATOM     61  C   UNL     1       2.613   3.849  -1.400  1.00  0.00     0.055 A 
ATOM     62  C   UNL     1       0.379   3.789   0.338  1.00  0.00     0.001 A 
ATOM     63  C   UNL     1       2.111   5.024  -0.820  1.00  0.00     0.027 A 
ATOM     64  C   UNL     1       1.032   4.988   0.073  1.00  0.00     0.002 A 
BRANCH  61  65
ATOM     65  N   UNL     1       3.767   3.852  -2.221  1.00  0.00    -0.323 N 
ATOM     66  H   UNL     1       3.912   3.042  -2.762  1.00  0.00     0.170 HD
BRANCH  65  67
ATOM     67  C   UNL     1       4.722   4.858  -2.362  1.00  0.00     0.233 A 
ATOM     68  N   UNL     1       5.759   4.813  -1.544  1.00  0.00    -0.182 NA
ATOM     69  N   UNL     1       4.592   5.725  -3.361  1.00  0.00    -0.176 NA
ATOM     70  C   UNL     1       6.632   5.785  -1.750  1.00  0.00     0.228 A 
ATOM     71  C   UNL     1       5.570   6.613  -3.514  1.00  0.00     0.233 A 
ATOM     72  Cl  UNL     1       7.965   5.849  -0.685  1.00  0.00    -0.041 Cl
ATOM     73  N   UNL     1       6.608   6.699  -2.700  1.00  0.00    -0.182 NA
BRANCH  71  74
ATOM     74  N   UNL     1       5.417   7.503  -4.575  1.00  0.00    -0.324 N 
ATOM     75  H   UNL     1       4.674   7.288  -5.185  1.00  0.00     0.170 HD
BRANCH  74  76
ATOM     76  C   UNL     1       6.141   8.648  -4.919  1.00  0.00     0.041 A 
ATOM     77  C   UNL     1       5.464   9.717  -5.518  1.00  0.00     0.028 A 
ATOM     78  C   UNL     1       7.480   8.840  -4.576  1.00  0.00     0.028 A 
ATOM     79  C   UNL     1       6.090  10.957  -5.708  1.00  0.00     0.028 A 
ATOM     80  C   UNL     1       8.119  10.064  -4.797  1.00  0.00     0.028 A 
ATOM     81  C   UNL     1       7.425  11.148  -5.341  1.00  0.00     0.044 A 
BRANCH  81  82
ATOM     82  N   UNL     1       8.050  12.425  -5.479  1.00  0.00    -0.308 N 
ATOM     83  C   UNL     1       7.312  13.595  -4.983  1.00  0.00     0.154 C 
ATOM     84  C   UNL     1       9.412  12.537  -5.794  1.00  0.00     0.253 C 
ATOM     85  C   UNL     1       7.881  14.920  -5.471  1.00  0.00     0.183 C 
ATOM     86  C   UNL     1       9.969  13.969  -5.840  1.00  0.00     0.260 C 
ATOM     87  O   UNL     1      10.138  11.598  -6.129  1.00  0.00    -0.272 OA
ATOM     88  O   UNL     1       9.265  14.983  -5.142  1.00  0.00    -0.370 OA
ENDBRANCH  81  82
ENDBRANCH  74  76
ENDBRANCH  71  74
ENDBRANCH  65  67
ENDBRANCH  61  65
ENDBRANCH  57  59
ENDBRANCH   1  57
TORSDOF 16
