REMARK SMILES Cc1ccc(C(=O)N2CCCC[C@@H]2C(=O)OCCOC(=O)c2ccc(-c3c4nc(c(-c5ccccc5)c5ccc([nH]5)c(-c5ccccc5)c5nc(c(-c6ccccc6)c6ccc3[nH]6)C=C5)C=C4)cc2)cc1S(=O)(=O)N1CCCCC1
REMARK SMILES IDX 17 1 16 2 14 3 15 4 13 5 8 6 9 7 10 8 12 9 11 10 6 11 7 12
REMARK SMILES IDX 5 13 1 14 2 15 3 16 71 17 4 18 70 19 72 20 73 21 74 22 75 23
REMARK SMILES IDX 76 24 80 25 77 26 79 27 78 28 18 29 19 30 20 31 21 32 22 33
REMARK SMILES IDX 23 34 69 35 24 36 68 37 25 38 26 39 27 40 62 41 28 42 67 43
REMARK SMILES IDX 61 44 63 45 29 46 66 47 60 48 59 49 30 51 52 52 37 53 51 54
REMARK SMILES IDX 38 55 41 56 50 57 64 58 39 59 40 60 49 62 65 63 42 64 31 65
REMARK SMILES IDX 32 66 36 67 33 68 35 69 34 70 53 71 54 72 58 73 55 74 57 75
REMARK SMILES IDX 56 76 43 77 44 78 48 79 45 80 47 81 46 82
REMARK H PARENT 63 50 41 61
REMARK Flexibility Score: inf
ROOT
ATOM      1  C   UNL     1      -3.857  -0.836  -4.860  1.00  0.00     0.274 C 
ENDROOT
BRANCH   1   2
ATOM      2  O   UNL     1      -3.655   0.008  -3.308  1.00  0.00    -0.461 OA
BRANCH   2   3
ATOM      3  C   UNL     1      -2.987   1.570  -2.497  1.00  0.00     0.328 C 
ATOM      4  O   UNL     1      -1.922   2.170  -2.807  1.00  0.00    -0.250 OA
BRANCH   3   5
ATOM      5  C   UNL     1      -3.914   2.535  -1.376  1.00  0.00     0.195 C 
ATOM      6  N   UNL     1      -3.824   1.882  -0.124  1.00  0.00    -0.325 N 
ATOM      7  C   UNL     1      -4.617   2.349   1.053  1.00  0.00     0.121 C 
ATOM      8  C   UNL     1      -6.032   2.774   0.747  1.00  0.00     0.022 C 
ATOM      9  C   UNL     1      -5.309   3.214  -1.584  1.00  0.00     0.037 C 
ATOM     10  C   UNL     1      -5.969   3.824  -0.343  1.00  0.00     0.005 C 
BRANCH   6  11
ATOM     11  C   UNL     1      -2.569   1.362   0.158  1.00  0.00     0.254 C 
ATOM     12  O   UNL     1      -2.396   1.445   1.399  1.00  0.00    -0.269 OA
BRANCH  11  13
ATOM     13  C   UNL     1      -1.394   0.396  -1.085  1.00  0.00     0.041 A 
ATOM     14  C   UNL     1       1.042  -0.569   2.733  1.00  0.00     0.046 C 
ATOM     15  C   UNL     1      -0.157  -0.528   1.877  1.00  0.00    -0.031 A 
ATOM     16  C   UNL     1      -0.796  -2.031   0.936  1.00  0.00     0.005 A 
ATOM     17  C   UNL     1       0.025   1.121   1.240  1.00  0.00     0.086 A 
ATOM     18  C   UNL     1      -1.366  -1.667  -0.899  1.00  0.00     0.014 A 
ATOM     19  C   UNL     1      -0.576   1.541  -0.138  1.00  0.00     0.035 A 
BRANCH  17  20
ATOM     20  S   UNL     1       1.311   2.621   1.818  1.00  0.00     0.243 S 
ATOM     21  O   UNL     1       0.822   3.809   1.135  1.00  0.00    -0.207 OA
ATOM     22  O   UNL     1       1.367   2.559   3.263  1.00  0.00    -0.207 OA
BRANCH  20  23
ATOM     23  N   UNL     1       3.123   2.414   1.166  1.00  0.00    -0.198 NA
ATOM     24  C   UNL     1       4.065   2.529   2.324  1.00  0.00     0.102 C 
ATOM     25  C   UNL     1       3.721   3.432   0.097  1.00  0.00     0.102 C 
ATOM     26  C   UNL     1       5.553   2.520   1.882  1.00  0.00     0.017 C 
ATOM     27  C   UNL     1       5.073   2.884  -0.507  1.00  0.00     0.017 C 
ATOM     28  C   UNL     1       5.824   2.008   0.471  1.00  0.00     0.003 C 
ENDBRANCH  20  23
ENDBRANCH  17  20
ENDBRANCH  11  13
ENDBRANCH   6  11
ENDBRANCH   3   5
ENDBRANCH   2   3
ENDBRANCH   1   2
BRANCH   1  29
ATOM     29  C   UNL     1      -3.398  -0.210  -6.327  1.00  0.00     0.275 C 
BRANCH  29  30
ATOM     30  O   UNL     1      -2.998   1.183  -6.590  1.00  0.00    -0.458 OA
BRANCH  30  31
ATOM     31  C   UNL     1      -3.263   2.170  -5.709  1.00  0.00     0.338 C 
ATOM     32  O   UNL     1      -3.005   3.354  -5.789  1.00  0.00    -0.246 OA
BRANCH  31  33
ATOM     33  C   UNL     1      -3.502   1.464  -4.501  1.00  0.00     0.060 A 
ATOM     34  C   UNL     1      -4.943   1.278  -3.370  1.00  0.00     0.016 A 
ATOM     35  C   UNL     1      -2.006   0.453  -4.217  1.00  0.00     0.016 A 
ATOM     36  C   UNL     1      -4.725   0.244  -1.803  1.00  0.00     0.010 A 
ATOM     37  C   UNL     1      -1.992  -0.654  -2.849  1.00  0.00     0.010 A 
ATOM     38  C   UNL     1      -3.159  -0.623  -1.369  1.00  0.00    -0.014 A 
BRANCH  38  39
ATOM     39  C   UNL     1      -1.994  -0.595   0.343  1.00  0.00     0.031 A 
ATOM     40  C   UNL     1      -2.952  -1.593   1.467  1.00  0.00     0.074 A 
ATOM     41  C   UNL     1      -0.080  -0.670  -0.139  1.00  0.00     0.049 A 
ATOM     42  N   UNL     1      -2.490  -2.334   2.467  1.00  0.00    -0.248 NA
ATOM     43  C   UNL     1      -4.317  -2.000   1.122  1.00  0.00     0.031 C 
ATOM     44  C   UNL     1       0.766  -2.293  -0.501  1.00  0.00     0.029 A 
ATOM     45  N   UNL     1       0.835  -0.243  -1.230  1.00  0.00    -0.354 N 
ATOM     46  C   UNL     1      -3.162  -3.548   2.389  1.00  0.00     0.074 A 
ATOM     47  C   UNL     1      -4.433  -3.163   1.790  1.00  0.00     0.031 C 
ATOM     48  C   UNL     1       1.856  -2.272  -1.238  1.00  0.00     0.029 A 
ATOM     49  C   UNL     1       2.083  -0.919  -1.353  1.00  0.00     0.049 A 
ATOM     50  H   UNL     1       0.587   0.483  -1.847  1.00  0.00     0.167 HD
ATOM     51  C   UNL     1      -2.550  -4.791   2.491  1.00  0.00     0.031 A 
ATOM     52  C   UNL     1       3.214  -0.378  -0.870  1.00  0.00     0.031 A 
ATOM     53  C   UNL     1      -1.040  -4.823   2.452  1.00  0.00     0.049 A 
ATOM     54  C   UNL     1       3.486  -1.158   0.685  1.00  0.00     0.074 A 
ATOM     55  C   UNL     1      -0.171  -5.481   1.573  1.00  0.00     0.029 A 
ATOM     56  N   UNL     1      -0.198  -3.995   3.212  1.00  0.00    -0.354 N 
ATOM     57  N   UNL     1       2.967  -2.344   1.105  1.00  0.00    -0.248 NA
ATOM     58  C   UNL     1       4.331  -0.706   1.816  1.00  0.00     0.031 C 
ATOM     59  C   UNL     1       1.166  -5.040   1.782  1.00  0.00     0.029 A 
ATOM     60  C   UNL     1       1.161  -4.090   2.779  1.00  0.00     0.049 A 
ATOM     61  H   UNL     1      -0.505  -3.421   3.950  1.00  0.00     0.167 HD
ATOM     62  C   UNL     1       3.110  -2.547   2.514  1.00  0.00     0.074 A 
ATOM     63  C   UNL     1       4.089  -1.538   2.852  1.00  0.00     0.031 C 
ATOM     64  C   UNL     1       2.250  -3.269   3.381  1.00  0.00     0.031 A 
BRANCH  51  65
ATOM     65  C   UNL     1      -3.278  -6.158   2.365  1.00  0.00    -0.014 A 
ATOM     66  C   UNL     1      -2.533  -7.351   2.538  1.00  0.00     0.009 A 
ATOM     67  C   UNL     1      -4.649  -6.368   2.137  1.00  0.00     0.009 A 
ATOM     68  C   UNL     1      -3.096  -8.636   2.469  1.00  0.00     0.001 A 
ATOM     69  C   UNL     1      -5.230  -7.652   2.083  1.00  0.00     0.001 A 
ATOM     70  C   UNL     1      -4.453  -8.788   2.252  1.00  0.00     0.000 A 
ENDBRANCH  51  65
BRANCH  52  71
ATOM     71  C   UNL     1       3.022   0.989  -1.711  1.00  0.00    -0.014 A 
ATOM     72  C   UNL     1       3.249   1.067  -3.112  1.00  0.00     0.009 A 
ATOM     73  C   UNL     1       2.022   1.925  -1.391  1.00  0.00     0.009 A 
ATOM     74  C   UNL     1       2.516   1.948  -4.002  1.00  0.00     0.001 A 
ATOM     75  C   UNL     1       1.291   2.822  -2.219  1.00  0.00     0.001 A 
ATOM     76  C   UNL     1       1.516   2.806  -3.559  1.00  0.00     0.000 A 
ENDBRANCH  52  71
BRANCH  64  77
ATOM     77  C   UNL     1       2.171  -3.155   4.942  1.00  0.00    -0.014 A 
ATOM     78  C   UNL     1       2.597  -2.077   5.735  1.00  0.00     0.009 A 
ATOM     79  C   UNL     1       1.497  -4.181   5.663  1.00  0.00     0.009 A 
ATOM     80  C   UNL     1       2.544  -2.127   7.149  1.00  0.00     0.001 A 
ATOM     81  C   UNL     1       1.375  -4.205   7.061  1.00  0.00     0.001 A 
ATOM     82  C   UNL     1       1.965  -3.206   7.811  1.00  0.00     0.000 A 
ENDBRANCH  64  77
ENDBRANCH  38  39
ENDBRANCH  31  33
ENDBRANCH  30  31
ENDBRANCH  29  30
ENDBRANCH   1  29
TORSDOF 15
