REMARK SMILES CC[C@](C)(NC(=O)N1Cc2ccccc2C1)C(=O)OCCOC(=O)c1ccc(-c2c3nc(c(-c4ccccc4)c4ccc([nH]4)c(-c4ccccc4)c4nc(c(-c5ccccc5)c5ccc2[nH]5)C=C4)C=C3)cc1
REMARK SMILES IDX 21 1 20 2 19 3 17 4 18 5 3 6 4 7 2 8 1 9 5 10 6 11 7 13 8 14
REMARK SMILES IDX 9 15 16 16 10 17 15 18 11 19 14 20 12 21 13 22 22 23 23 24
REMARK SMILES IDX 24 25 25 26 26 27 72 28 27 29 71 30 28 31 29 32 30 33 65 34
REMARK SMILES IDX 31 35 70 36 64 37 66 38 32 39 69 40 63 41 62 42 33 44 55 45
REMARK SMILES IDX 40 46 54 47 41 48 44 49 53 50 67 51 42 52 43 53 52 55 68 56
REMARK SMILES IDX 45 57 34 58 35 59 39 60 36 61 38 62 37 63 56 64 57 65 61 66
REMARK SMILES IDX 58 67 60 68 59 69 46 70 47 71 51 72 48 73 50 74 49 75
REMARK H PARENT 5 12 66 43 44 54
REMARK Flexibility Score: inf
ROOT
ATOM      1  C   UNL     1       5.258  -0.500  -1.462  1.00  0.00     0.275 C 
ENDROOT
BRANCH   1   2
ATOM      2  C   UNL     1       4.443  -1.780  -1.302  1.00  0.00     0.274 C 
BRANCH   2   3
ATOM      3  O   UNL     1       3.262  -1.753  -2.130  1.00  0.00    -0.460 OA
BRANCH   3   4
ATOM      4  C   UNL     1       2.095  -1.370  -1.537  1.00  0.00     0.331 C 
ATOM      5  O   UNL     1       2.000  -1.099  -0.344  1.00  0.00    -0.249 OA
BRANCH   4   6
ATOM      6  C   UNL     1       0.875  -1.422  -2.515  1.00  0.00     0.136 C 
ATOM      7  C   UNL     1       0.013  -0.160  -2.346  1.00  0.00     0.047 C 
BRANCH   6   8
ATOM      8  C   UNL     1       0.049  -2.682  -2.133  1.00  0.00     0.037 C 
ATOM      9  C   UNL     1      -0.638  -2.653  -0.766  1.00  0.00     0.007 C 
ENDBRANCH   6   8
BRANCH   6  10
ATOM     10  N   UNL     1       1.355  -1.608  -3.912  1.00  0.00    -0.322 N 
ATOM     11  C   UNL     1       1.883  -0.602  -4.677  1.00  0.00     0.318 C 
ATOM     12  H   UNL     1       1.289  -2.506  -4.309  1.00  0.00     0.166 HD
ATOM     13  O   UNL     1       1.417   0.532  -4.685  1.00  0.00    -0.249 OA
ATOM     14  N   UNL     1       3.029  -0.924  -5.363  1.00  0.00    -0.316 N 
ATOM     15  C   UNL     1       3.840   0.169  -5.913  1.00  0.00     0.157 C 
ATOM     16  C   UNL     1       3.834  -2.144  -5.245  1.00  0.00     0.157 C 
ATOM     17  C   UNL     1       5.233  -0.262  -5.565  1.00  0.00    -0.023 A 
ATOM     18  C   UNL     1       5.231  -1.607  -5.170  1.00  0.00    -0.023 A 
ATOM     19  C   UNL     1       6.388   0.499  -5.516  1.00  0.00     0.006 A 
ATOM     20  C   UNL     1       6.388  -2.221  -4.722  1.00  0.00     0.006 A 
ATOM     21  C   UNL     1       7.554  -0.105  -5.043  1.00  0.00     0.000 A 
ATOM     22  C   UNL     1       7.555  -1.455  -4.651  1.00  0.00     0.000 A 
ENDBRANCH   6  10
ENDBRANCH   4   6
ENDBRANCH   3   4
ENDBRANCH   2   3
ENDBRANCH   1   2
BRANCH   1  23
ATOM     23  O   UNL     1       4.473   0.615  -1.022  1.00  0.00    -0.458 OA
BRANCH  23  24
ATOM     24  C   UNL     1       4.300   1.613  -1.914  1.00  0.00     0.338 C 
ATOM     25  O   UNL     1       4.812   1.746  -3.014  1.00  0.00    -0.246 OA
BRANCH  24  26
ATOM     26  C   UNL     1       3.424   2.620  -1.312  1.00  0.00     0.060 A 
ATOM     27  C   UNL     1       2.172   2.253  -0.824  1.00  0.00     0.016 A 
ATOM     28  C   UNL     1       3.857   3.942  -1.241  1.00  0.00     0.016 A 
ATOM     29  C   UNL     1       1.331   3.209  -0.281  1.00  0.00     0.010 A 
ATOM     30  C   UNL     1       3.055   4.887  -0.604  1.00  0.00     0.010 A 
ATOM     31  C   UNL     1       1.792   4.520  -0.112  1.00  0.00    -0.014 A 
BRANCH  31  32
ATOM     32  C   UNL     1       0.974   5.465   0.675  1.00  0.00     0.031 A 
ATOM     33  C   UNL     1       0.376   6.676   0.034  1.00  0.00     0.074 A 
ATOM     34  C   UNL     1       0.770   5.188   1.978  1.00  0.00     0.049 A 
ATOM     35  N   UNL     1      -0.316   7.637   0.588  1.00  0.00    -0.248 NA
ATOM     36  C   UNL     1       0.593   6.841  -1.412  1.00  0.00     0.031 C 
ATOM     37  C   UNL     1       1.310   4.021   2.687  1.00  0.00     0.029 A 
ATOM     38  N   UNL     1       0.037   5.841   2.930  1.00  0.00    -0.354 N 
ATOM     39  C   UNL     1      -0.590   8.538  -0.433  1.00  0.00     0.074 A 
ATOM     40  C   UNL     1       0.018   8.014  -1.637  1.00  0.00     0.031 C 
ATOM     41  C   UNL     1       0.835   4.008   3.940  1.00  0.00     0.029 A 
ATOM     42  C   UNL     1       0.026   5.200   4.146  1.00  0.00     0.049 A 
ATOM     43  H   UNL     1      -0.437   6.687   2.762  1.00  0.00     0.167 HD
ATOM     44  C   UNL     1      -1.283   9.699  -0.359  1.00  0.00     0.031 A 
ATOM     45  C   UNL     1      -0.558   5.547   5.306  1.00  0.00     0.031 A 
ATOM     46  C   UNL     1      -1.878  10.199   0.853  1.00  0.00     0.049 A 
ATOM     47  C   UNL     1      -1.329   6.831   5.351  1.00  0.00     0.074 A 
ATOM     48  C   UNL     1      -2.570  11.379   1.057  1.00  0.00     0.029 A 
ATOM     49  N   UNL     1      -1.859   9.530   2.070  1.00  0.00    -0.354 N 
ATOM     50  N   UNL     1      -1.542   7.697   4.388  1.00  0.00    -0.248 NA
ATOM     51  C   UNL     1      -1.930   7.193   6.639  1.00  0.00     0.031 C 
ATOM     52  C   UNL     1      -2.945  11.438   2.405  1.00  0.00     0.029 A 
ATOM     53  C   UNL     1      -2.525  10.273   3.030  1.00  0.00     0.049 A 
ATOM     54  H   UNL     1      -1.434   8.656   2.227  1.00  0.00     0.167 HD
ATOM     55  C   UNL     1      -2.292   8.713   4.955  1.00  0.00     0.074 A 
ATOM     56  C   UNL     1      -2.536   8.332   6.334  1.00  0.00     0.031 C 
ATOM     57  C   UNL     1      -2.727   9.869   4.397  1.00  0.00     0.031 A 
BRANCH  44  58
ATOM     58  C   UNL     1      -1.390  10.516  -1.615  1.00  0.00    -0.014 A 
ATOM     59  C   UNL     1      -2.219  10.120  -2.676  1.00  0.00     0.009 A 
ATOM     60  C   UNL     1      -0.655  11.706  -1.736  1.00  0.00     0.009 A 
ATOM     61  C   UNL     1      -2.285  10.883  -3.845  1.00  0.00     0.001 A 
ATOM     62  C   UNL     1      -0.741  12.479  -2.897  1.00  0.00     0.001 A 
ATOM     63  C   UNL     1      -1.549  12.062  -3.953  1.00  0.00     0.000 A 
ENDBRANCH  44  58
BRANCH  45  64
ATOM     64  C   UNL     1      -0.405   4.682   6.504  1.00  0.00    -0.014 A 
ATOM     65  C   UNL     1      -1.499   3.972   7.020  1.00  0.00     0.009 A 
ATOM     66  C   UNL     1       0.848   4.538   7.121  1.00  0.00     0.009 A 
ATOM     67  C   UNL     1      -1.343   3.149   8.139  1.00  0.00     0.001 A 
ATOM     68  C   UNL     1       1.008   3.690   8.218  1.00  0.00     0.001 A 
ATOM     69  C   UNL     1      -0.089   3.003   8.731  1.00  0.00     0.000 A 
ENDBRANCH  45  64
BRANCH  57  70
ATOM     70  C   UNL     1      -3.503  10.784   5.296  1.00  0.00    -0.014 A 
ATOM     71  C   UNL     1      -2.856  11.529   6.295  1.00  0.00     0.009 A 
ATOM     72  C   UNL     1      -4.893  10.896   5.148  1.00  0.00     0.009 A 
ATOM     73  C   UNL     1      -3.595  12.336   7.159  1.00  0.00     0.001 A 
ATOM     74  C   UNL     1      -5.626  11.723   5.998  1.00  0.00     0.001 A 
ATOM     75  C   UNL     1      -4.979  12.433   7.009  1.00  0.00     0.000 A 
ENDBRANCH  57  70
ENDBRANCH  31  32
ENDBRANCH  24  26
ENDBRANCH  23  24
ENDBRANCH   1  23
TORSDOF 13
