REMARK SMILES CCCCOc1ccc(NC(=O)[C@]2(C)CC[C@](C)(C(=O)OCCOC(=O)c3ccc(-c4c5nc(c(-c6ccccc6)c6ccc([nH]6)c(-c6ccccc6)c6nc(c(-c7ccccc7)c7ccc4[nH]7)C=C6)C=C5)cc3)C2(C)C)cc1
REMARK SMILES IDX 19 1 20 2 17 3 13 4 15 5 75 6 14 7 16 8 76 9 77 10 18 11
REMARK SMILES IDX 11 12 10 13 12 15 9 16 6 17 7 18 79 19 8 20 78 21 5 22 4 23
REMARK SMILES IDX 3 24 2 25 1 26 21 27 22 28 23 29 24 30 25 31 26 32 27 33
REMARK SMILES IDX 28 34 74 35 29 36 73 37 30 38 31 39 32 40 67 41 33 42 72 43
REMARK SMILES IDX 66 44 68 45 34 46 71 47 65 48 64 49 35 51 57 52 42 53 56 54
REMARK SMILES IDX 43 55 46 56 55 57 69 58 44 59 45 60 54 62 70 63 47 64 36 65
REMARK SMILES IDX 37 66 41 67 38 68 40 69 39 70 58 71 59 72 63 73 60 74 62 75
REMARK SMILES IDX 61 76 48 77 49 78 53 79 50 80 52 81 51 82
REMARK H PARENT 10 14 68 50 46 61
REMARK Flexibility Score: inf
ROOT
ATOM      1  C   UNL     1      -8.507  -3.164   2.676  1.00  0.00     0.312 C 
ATOM      2  O   UNL     1      -8.327  -4.368   2.527  1.00  0.00    -0.252 OA
ENDROOT
BRANCH   1   3
ATOM      3  C   UNL     1      -7.386  -2.207   3.108  1.00  0.00     0.071 C 
ATOM      4  C   UNL     1      -6.076  -0.263   2.044  1.00  0.00     0.053 C 
ATOM      5  C   UNL     1      -5.156  -1.391   2.537  1.00  0.00     0.018 C 
ATOM      6  C   UNL     1      -7.508  -0.649   2.727  1.00  0.00    -0.005 C 
ATOM      7  C   UNL     1      -5.591   1.124   2.502  1.00  0.00     0.022 C 
ATOM      8  C   UNL     1      -6.040  -2.632   2.476  1.00  0.00     0.020 C 
ATOM      9  C   UNL     1      -7.818   0.158   4.022  1.00  0.00     0.013 C 
ATOM     10  C   UNL     1      -8.667  -0.232   1.781  1.00  0.00     0.013 C 
ATOM     11  C   UNL     1      -7.242  -2.511   4.624  1.00  0.00     0.024 C 
BRANCH   4  12
ATOM     12  C   UNL     1      -6.072  -0.413   0.475  1.00  0.00     0.230 C 
ATOM     13  N   UNL     1      -5.266   0.246  -0.400  1.00  0.00    -0.326 N 
ATOM     14  H   UNL     1      -5.435  -0.004  -1.337  1.00  0.00     0.169 HD
ATOM     15  O   UNL     1      -6.837  -1.216  -0.079  1.00  0.00    -0.274 OA
BRANCH  13  16
ATOM     16  C   UNL     1      -4.255   1.196  -0.267  1.00  0.00     0.041 A 
ATOM     17  C   UNL     1      -2.512   3.356   0.052  1.00  0.00     0.119 A 
ATOM     18  C   UNL     1      -2.317   2.191   0.790  1.00  0.00     0.048 A 
ATOM     19  C   UNL     1      -3.491   3.384  -0.935  1.00  0.00     0.048 A 
ATOM     20  C   UNL     1      -3.185   1.103   0.620  1.00  0.00     0.030 A 
ATOM     21  C   UNL     1      -4.349   2.304  -1.107  1.00  0.00     0.030 A 
BRANCH  17  22
ATOM     22  O   UNL     1      -1.669   4.410   0.264  1.00  0.00    -0.494 OA
BRANCH  22  23
ATOM     23  C   UNL     1      -2.343   5.635   0.600  1.00  0.00     0.229 C 
BRANCH  23  24
ATOM     24  C   UNL     1      -1.891   6.764  -0.332  1.00  0.00     0.041 C 
BRANCH  24  25
ATOM     25  C   UNL     1      -2.478   6.715  -1.746  1.00  0.00     0.000 C 
ATOM     26  C   UNL     1      -3.977   6.987  -1.792  1.00  0.00     0.004 C 
ENDBRANCH  24  25
ENDBRANCH  23  24
ENDBRANCH  22  23
ENDBRANCH  17  22
ENDBRANCH  13  16
ENDBRANCH   4  12
ENDBRANCH   1   3
BRANCH   1  27
ATOM     27  O   UNL     1      -9.728  -2.572   2.640  1.00  0.00    -0.462 OA
BRANCH  27  28
ATOM     28  C   UNL     1     -10.834  -3.396   2.217  1.00  0.00     0.274 C 
BRANCH  28  29
ATOM     29  C   UNL     1     -11.009  -3.340   0.698  1.00  0.00     0.275 C 
BRANCH  29  30
ATOM     30  O   UNL     1      -9.849  -3.904   0.069  1.00  0.00    -0.458 OA
BRANCH  30  31
ATOM     31  C   UNL     1      -9.500  -3.381  -1.131  1.00  0.00     0.338 C 
ATOM     32  O   UNL     1     -10.139  -2.573  -1.783  1.00  0.00    -0.246 OA
BRANCH  31  33
ATOM     33  C   UNL     1      -8.217  -3.978  -1.579  1.00  0.00     0.060 A 
ATOM     34  C   UNL     1      -7.250  -4.390  -0.662  1.00  0.00     0.016 A 
ATOM     35  C   UNL     1      -7.948  -4.089  -2.943  1.00  0.00     0.016 A 
ATOM     36  C   UNL     1      -6.004  -4.845  -1.087  1.00  0.00     0.010 A 
ATOM     37  C   UNL     1      -6.737  -4.648  -3.372  1.00  0.00     0.010 A 
ATOM     38  C   UNL     1      -5.744  -5.023  -2.449  1.00  0.00    -0.014 A 
BRANCH  38  39
ATOM     39  C   UNL     1      -4.458  -5.618  -2.913  1.00  0.00     0.031 A 
ATOM     40  C   UNL     1      -3.598  -4.887  -3.908  1.00  0.00     0.074 A 
ATOM     41  C   UNL     1      -4.075  -6.837  -2.478  1.00  0.00     0.049 A 
ATOM     42  N   UNL     1      -2.597  -5.337  -4.623  1.00  0.00    -0.248 NA
ATOM     43  C   UNL     1      -3.914  -3.469  -4.145  1.00  0.00     0.031 C 
ATOM     44  C   UNL     1      -4.774  -7.649  -1.479  1.00  0.00     0.029 A 
ATOM     45  N   UNL     1      -2.997  -7.614  -2.834  1.00  0.00    -0.354 N 
ATOM     46  C   UNL     1      -2.214  -4.284  -5.445  1.00  0.00     0.074 A 
ATOM     47  C   UNL     1      -3.078  -3.166  -5.130  1.00  0.00     0.031 C 
ATOM     48  C   UNL     1      -4.095  -8.789  -1.280  1.00  0.00     0.029 A 
ATOM     49  C   UNL     1      -2.974  -8.838  -2.209  1.00  0.00     0.049 A 
ATOM     50  H   UNL     1      -2.309  -7.321  -3.474  1.00  0.00     0.167 HD
ATOM     51  C   UNL     1      -1.241  -4.260  -6.386  1.00  0.00     0.031 A 
ATOM     52  C   UNL     1      -2.184  -9.912  -2.399  1.00  0.00     0.031 A 
ATOM     53  C   UNL     1      -0.345  -5.354  -6.658  1.00  0.00     0.049 A 
ATOM     54  C   UNL     1      -1.141  -9.873  -3.476  1.00  0.00     0.074 A 
ATOM     55  C   UNL     1       0.702  -5.405  -7.562  1.00  0.00     0.029 A 
ATOM     56  N   UNL     1      -0.383  -6.583  -6.020  1.00  0.00    -0.354 N 
ATOM     57  N   UNL     1      -0.820  -8.888  -4.278  1.00  0.00    -0.248 NA
ATOM     58  C   UNL     1      -0.371 -11.106  -3.693  1.00  0.00     0.031 C 
ATOM     59  C   UNL     1       1.271  -6.681  -7.503  1.00  0.00     0.029 A 
ATOM     60  C   UNL     1       0.606  -7.408  -6.529  1.00  0.00     0.049 A 
ATOM     61  H   UNL     1      -1.018  -6.833  -5.311  1.00  0.00     0.167 HD
ATOM     62  C   UNL     1       0.193  -9.379  -5.090  1.00  0.00     0.074 A 
ATOM     63  C   UNL     1       0.450 -10.740  -4.668  1.00  0.00     0.031 C 
ATOM     64  C   UNL     1       0.846  -8.759  -6.102  1.00  0.00     0.031 A 
BRANCH  51  65
ATOM     65  C   UNL     1      -1.112  -3.028  -7.235  1.00  0.00    -0.014 A 
ATOM     66  C   UNL     1      -0.527  -1.851  -6.746  1.00  0.00     0.009 A 
ATOM     67  C   UNL     1      -1.514  -3.080  -8.581  1.00  0.00     0.009 A 
ATOM     68  C   UNL     1      -0.364  -0.745  -7.585  1.00  0.00     0.001 A 
ATOM     69  C   UNL     1      -1.329  -1.982  -9.421  1.00  0.00     0.001 A 
ATOM     70  C   UNL     1      -0.757  -0.814  -8.922  1.00  0.00     0.000 A 
ENDBRANCH  51  65
BRANCH  52  71
ATOM     71  C   UNL     1      -2.404 -11.148  -1.602  1.00  0.00    -0.014 A 
ATOM     72  C   UNL     1      -1.460 -11.560  -0.651  1.00  0.00     0.009 A 
ATOM     73  C   UNL     1      -3.559 -11.923  -1.793  1.00  0.00     0.009 A 
ATOM     74  C   UNL     1      -1.662 -12.732   0.083  1.00  0.00     0.001 A 
ATOM     75  C   UNL     1      -3.774 -13.076  -1.036  1.00  0.00     0.001 A 
ATOM     76  C   UNL     1      -2.821 -13.484  -0.105  1.00  0.00     0.000 A 
ENDBRANCH  52  71
BRANCH  64  77
ATOM     77  C   UNL     1       1.917  -9.545  -6.798  1.00  0.00    -0.014 A 
ATOM     78  C   UNL     1       1.591 -10.562  -7.708  1.00  0.00     0.009 A 
ATOM     79  C   UNL     1       3.267  -9.252  -6.553  1.00  0.00     0.009 A 
ATOM     80  C   UNL     1       2.600 -11.294  -8.336  1.00  0.00     0.001 A 
ATOM     81  C   UNL     1       4.273  -9.970  -7.201  1.00  0.00     0.001 A 
ATOM     82  C   UNL     1       3.939 -10.995  -8.084  1.00  0.00     0.000 A 
ENDBRANCH  64  77
ENDBRANCH  38  39
ENDBRANCH  31  33
ENDBRANCH  30  31
ENDBRANCH  29  30
ENDBRANCH  28  29
ENDBRANCH  27  28
ENDBRANCH   1  27
TORSDOF 17
