REMARK SMILES Cc1ccn(CC(=O)N2CCC3(CC2)NC(=O)C[C@@H]3C(=O)OCCOC(=O)c2ccc(-c3c4nc(c(-c5ccccc5)c5ccc([nH]5)c(-c5ccccc5)c5nc(c(-c6ccccc6)c6ccc3[nH]6)C=C5)C=C4)cc2)n1
REMARK SMILES IDX 23 1 22 2 20 3 21 4 19 5 7 6 8 7 9 8 10 9 14 10 11 11 13 12
REMARK SMILES IDX 12 13 15 14 16 15 18 17 17 18 6 19 5 20 1 21 2 22 3 23 76 24
REMARK SMILES IDX 4 25 24 26 25 27 26 28 27 29 28 30 29 31 75 32 30 33 74 34
REMARK SMILES IDX 31 35 32 36 33 37 68 38 34 39 73 40 67 41 69 42 35 43 72 44
REMARK SMILES IDX 66 45 65 46 36 48 58 49 43 50 57 51 44 52 47 53 56 54 70 55
REMARK SMILES IDX 45 56 46 57 55 59 71 60 48 61 37 62 38 63 42 64 39 65 41 66
REMARK SMILES IDX 40 67 59 68 60 69 64 70 61 71 63 72 62 73 49 74 50 75 54 76
REMARK SMILES IDX 51 77 53 78 52 79
REMARK H PARENT 15 16 69 47 47 58
REMARK Flexibility Score: inf
ROOT
ATOM      1  C   UNL     1      -5.928   6.743  -3.949  1.00  0.00     0.274 C 
ENDROOT
BRANCH   1   2
ATOM      2  O   UNL     1      -5.131   5.760  -4.648  1.00  0.00    -0.462 OA
BRANCH   2   3
ATOM      3  C   UNL     1      -3.783   6.013  -4.705  1.00  0.00     0.311 C 
ATOM      4  O   UNL     1      -3.277   7.123  -4.649  1.00  0.00    -0.252 OA
BRANCH   3   5
ATOM      5  C   UNL     1      -3.018   4.702  -4.712  1.00  0.00     0.134 C 
ATOM      6  C   UNL     1       0.400   5.523   0.627  1.00  0.00     0.244 C 
ATOM      7  O   UNL     1       0.763   6.699   0.871  1.00  0.00    -0.273 OA
ATOM      8  N   UNL     1      -1.069   5.421  -0.059  1.00  0.00    -0.341 N 
ATOM      9  C   UNL     1      -0.656   6.583  -1.433  1.00  0.00     0.122 C 
ATOM     10  C   UNL     1      -2.465   3.863  -0.453  1.00  0.00     0.122 C 
ATOM     11  C   UNL     1      -0.841   5.946  -3.154  1.00  0.00     0.051 C 
ATOM     12  C   UNL     1      -2.367   3.227  -2.366  1.00  0.00     0.051 C 
ATOM     13  C   UNL     1      -1.799   4.474  -3.689  1.00  0.00     0.057 C 
ATOM     14  N   UNL     1      -0.869   3.816  -4.662  1.00  0.00    -0.350 N 
ATOM     15  C   UNL     1      -1.219   3.870  -5.996  1.00  0.00     0.221 C 
ATOM     16  H   UNL     1      -0.046   3.365  -4.363  1.00  0.00     0.164 HD
ATOM     17  C   UNL     1      -2.571   4.463  -6.144  1.00  0.00     0.117 C 
ATOM     18  O   UNL     1      -0.525   3.489  -6.924  1.00  0.00    -0.275 OA
BRANCH   6  19
ATOM     19  C   UNL     1       1.669   4.386   0.645  1.00  0.00     0.244 C 
BRANCH  19  20
ATOM     20  N   UNL     1       1.684   2.892   0.927  1.00  0.00    -0.263 N 
ATOM     21  C   UNL     1       1.795  -0.409  -0.497  1.00  0.00     0.069 C 
ATOM     22  C   UNL     1       1.666   0.812   0.329  1.00  0.00     0.059 A 
ATOM     23  C   UNL     1       0.923   0.871   1.510  1.00  0.00     0.045 A 
ATOM     24  N   UNL     1       2.162   2.018  -0.028  1.00  0.00    -0.178 NA
ATOM     25  C   UNL     1       1.083   2.164   1.925  1.00  0.00     0.109 A 
ENDBRANCH  19  20
ENDBRANCH   6  19
ENDBRANCH   3   5
ENDBRANCH   2   3
ENDBRANCH   1   2
BRANCH   1  26
ATOM     26  C   UNL     1      -5.817   6.530  -2.444  1.00  0.00     0.275 C 
BRANCH  26  27
ATOM     27  O   UNL     1      -4.422   6.588  -2.111  1.00  0.00    -0.458 OA
BRANCH  27  28
ATOM     28  C   UNL     1      -3.857   5.356  -2.103  1.00  0.00     0.338 C 
ATOM     29  O   UNL     1      -4.494   4.340  -2.327  1.00  0.00    -0.246 OA
BRANCH  28  30
ATOM     30  C   UNL     1      -2.420   5.444  -1.482  1.00  0.00     0.060 A 
ATOM     31  C   UNL     1      -0.901   4.219  -1.386  1.00  0.00     0.016 A 
ATOM     32  C   UNL     1      -3.119   5.999   0.038  1.00  0.00     0.016 A 
ATOM     33  C   UNL     1      -0.691   3.486   0.298  1.00  0.00     0.010 A 
ATOM     34  C   UNL     1      -2.743   5.335   1.474  1.00  0.00     0.010 A 
ATOM     35  C   UNL     1      -1.653   4.117   1.705  1.00  0.00    -0.014 A 
BRANCH  35  36
ATOM     36  C   UNL     1      -1.495   4.013   3.318  1.00  0.00     0.031 A 
ATOM     37  C   UNL     1      -0.168   4.534   3.823  1.00  0.00     0.074 A 
ATOM     38  C   UNL     1      -2.373   3.835   4.392  1.00  0.00     0.049 A 
ATOM     39  N   UNL     1       0.692   3.785   4.431  1.00  0.00    -0.248 NA
ATOM     40  C   UNL     1       0.354   5.877   3.548  1.00  0.00     0.031 C 
ATOM     41  C   UNL     1      -3.836   3.658   4.441  1.00  0.00     0.029 A 
ATOM     42  N   UNL     1      -2.100   3.781   5.780  1.00  0.00    -0.354 N 
ATOM     43  C   UNL     1       1.905   4.447   4.444  1.00  0.00     0.074 A 
ATOM     44  C   UNL     1       1.649   5.743   3.869  1.00  0.00     0.031 C 
ATOM     45  C   UNL     1      -4.312   3.728   5.722  1.00  0.00     0.029 A 
ATOM     46  C   UNL     1      -3.212   3.816   6.671  1.00  0.00     0.049 A 
ATOM     47  H   UNL     1      -1.177   3.721   6.117  1.00  0.00     0.167 HD
ATOM     48  C   UNL     1       2.995   3.862   5.012  1.00  0.00     0.031 A 
ATOM     49  C   UNL     1      -3.276   3.750   8.057  1.00  0.00     0.031 A 
ATOM     50  C   UNL     1       2.776   2.445   5.223  1.00  0.00     0.049 A 
ATOM     51  C   UNL     1      -2.040   3.104   8.520  1.00  0.00     0.074 A 
ATOM     52  C   UNL     1       2.783   1.274   4.494  1.00  0.00     0.029 A 
ATOM     53  N   UNL     1       2.069   2.169   6.360  1.00  0.00    -0.354 N 
ATOM     54  N   UNL     1      -1.766   1.861   8.277  1.00  0.00    -0.248 NA
ATOM     55  C   UNL     1      -0.929   3.979   8.812  1.00  0.00     0.031 C 
ATOM     56  C   UNL     1       1.712   0.483   5.036  1.00  0.00     0.029 A 
ATOM     57  C   UNL     1       1.192   1.149   6.142  1.00  0.00     0.049 A 
ATOM     58  H   UNL     1       2.178   2.641   7.216  1.00  0.00     0.167 HD
ATOM     59  C   UNL     1      -0.458   1.913   7.836  1.00  0.00     0.074 A 
ATOM     60  C   UNL     1       0.026   3.237   8.251  1.00  0.00     0.031 C 
ATOM     61  C   UNL     1      -0.008   0.999   6.927  1.00  0.00     0.031 A 
BRANCH  48  62
ATOM     62  C   UNL     1       3.918   4.663   5.901  1.00  0.00    -0.014 A 
ATOM     63  C   UNL     1       4.841   3.975   6.713  1.00  0.00     0.009 A 
ATOM     64  C   UNL     1       3.690   6.015   6.213  1.00  0.00     0.009 A 
ATOM     65  C   UNL     1       5.425   4.588   7.829  1.00  0.00     0.001 A 
ATOM     66  C   UNL     1       4.287   6.635   7.311  1.00  0.00     0.001 A 
ATOM     67  C   UNL     1       5.136   5.914   8.136  1.00  0.00     0.000 A 
ENDBRANCH  48  62
BRANCH  49  68
ATOM     68  C   UNL     1      -4.117   4.415   9.137  1.00  0.00    -0.014 A 
ATOM     69  C   UNL     1      -4.160   3.979  10.495  1.00  0.00     0.009 A 
ATOM     70  C   UNL     1      -4.573   5.721   8.911  1.00  0.00     0.009 A 
ATOM     71  C   UNL     1      -4.631   4.809  11.545  1.00  0.00     0.001 A 
ATOM     72  C   UNL     1      -5.026   6.553   9.957  1.00  0.00     0.001 A 
ATOM     73  C   UNL     1      -5.054   6.104  11.273  1.00  0.00     0.000 A 
ENDBRANCH  49  68
BRANCH  61  74
ATOM     74  C   UNL     1      -0.877  -0.205   6.659  1.00  0.00    -0.014 A 
ATOM     75  C   UNL     1      -2.157  -0.168   6.072  1.00  0.00     0.009 A 
ATOM     76  C   UNL     1      -0.324  -1.455   6.964  1.00  0.00     0.009 A 
ATOM     77  C   UNL     1      -2.865  -1.355   5.830  1.00  0.00     0.001 A 
ATOM     78  C   UNL     1      -1.019  -2.635   6.707  1.00  0.00     0.001 A 
ATOM     79  C   UNL     1      -2.293  -2.587   6.148  1.00  0.00     0.000 A 
ENDBRANCH  61  74
ENDBRANCH  35  36
ENDBRANCH  28  30
ENDBRANCH  27  28
ENDBRANCH  26  27
ENDBRANCH   1  26
TORSDOF 13
