REMARK SMILES Cc1c(C[NH2+]C[C@@H]2CCCO2)c(C(=O)OCCOC(=O)c2ccc(-c3c4nc(c(-c5ccccc5)c5ccc([nH]5)c(-c5ccccc5)c5nc(c(-c6ccccc6)c6ccc3[nH]6)C=C5)C=C4)cc2)c(C)n1Cc1ccc(F)cc1
REMARK SMILES IDX 16 1 15 2 13 3 14 4 12 5 1 6 2 7 3 8 71 9 69 10 70 11 4 12
REMARK SMILES IDX 5 13 6 16 7 17 8 18 11 19 9 20 10 21 72 22 73 23 74 24 79 25
REMARK SMILES IDX 75 26 78 27 76 28 77 29 17 30 18 31 19 32 20 33 21 34 22 35
REMARK SMILES IDX 68 36 23 37 67 38 24 39 25 40 26 41 61 42 27 43 66 44 60 45
REMARK SMILES IDX 62 46 28 47 65 48 59 49 58 50 29 52 51 53 36 54 50 55 37 56
REMARK SMILES IDX 40 57 49 58 63 59 38 60 39 61 48 63 64 64 41 65 30 66 31 67
REMARK SMILES IDX 35 68 32 69 34 70 33 71 52 72 53 73 57 74 54 75 56 76 55 77
REMARK SMILES IDX 42 78 43 79 47 80 44 81 46 82 45 83
REMARK H PARENT 5 14 5 15 62 51 40 62
REMARK Flexibility Score: inf
ROOT
ATOM      1  C   UNL     1      -0.835   3.987  -6.324  1.00  0.00     0.275 C 
ENDROOT
BRANCH   1   2
ATOM      2  O   UNL     1      -0.246   3.635  -5.032  1.00  0.00    -0.458 OA
BRANCH   2   3
ATOM      3  C   UNL     1      -1.088   3.052  -4.105  1.00  0.00     0.340 C 
ATOM      4  O   UNL     1      -2.262   2.852  -4.308  1.00  0.00    -0.246 OA
BRANCH   3   5
ATOM      5  C   UNL     1      -0.377   2.659  -2.862  1.00  0.00     0.089 A 
ATOM      6  C   UNL     1       0.988   0.254  -0.321  1.00  0.00     0.065 C 
ATOM      7  C   UNL     1       0.537   1.371  -1.209  1.00  0.00     0.025 A 
ATOM      8  C   UNL     1      -0.208   1.314  -2.386  1.00  0.00     0.042 A 
ATOM      9  N   UNL     1       0.836   2.706  -0.958  1.00  0.00    -0.343 N 
ATOM     10  C   UNL     1       0.115   3.491  -1.855  1.00  0.00     0.030 A 
ATOM     11  C   UNL     1      -0.103   4.959  -1.701  1.00  0.00     0.065 C 
BRANCH   8  12
ATOM     12  C   UNL     1      -0.730   0.086  -3.074  1.00  0.00     0.300 C 
BRANCH  12  13
ATOM     13  N   UNL     1      -2.178   0.171  -3.134  1.00  0.00    -0.340 N 
ATOM     14  H   UNL     1      -2.427   1.087  -3.507  1.00  0.00     0.346 HD
ATOM     15  H   UNL     1      -2.514   0.018  -2.183  1.00  0.00     0.346 HD
BRANCH  13  16
ATOM     16  C   UNL     1      -2.819  -0.846  -3.964  1.00  0.00     0.293 C 
BRANCH  16  17
ATOM     17  C   UNL     1      -2.661  -2.290  -3.464  1.00  0.00     0.173 C 
ATOM     18  C   UNL     1      -1.440  -3.019  -4.005  1.00  0.00     0.040 C 
ATOM     19  O   UNL     1      -3.787  -3.093  -3.869  1.00  0.00    -0.372 OA
ATOM     20  C   UNL     1      -1.843  -4.457  -3.800  1.00  0.00     0.031 C 
ATOM     21  C   UNL     1      -3.324  -4.428  -4.116  1.00  0.00     0.161 C 
ENDBRANCH  16  17
ENDBRANCH  13  16
ENDBRANCH  12  13
ENDBRANCH   8  12
BRANCH   9  22
ATOM     22  C   UNL     1       1.621   3.178   0.201  1.00  0.00     0.157 C 
BRANCH  22  23
ATOM     23  C   UNL     1       3.009   3.720  -0.108  1.00  0.00    -0.028 A 
ATOM     24  C   UNL     1       4.145   3.177   0.526  1.00  0.00     0.008 A 
ATOM     25  C   UNL     1       3.201   4.851  -0.917  1.00  0.00     0.008 A 
ATOM     26  C   UNL     1       5.413   3.750   0.351  1.00  0.00     0.039 A 
ATOM     27  C   UNL     1       4.463   5.422  -1.096  1.00  0.00     0.039 A 
ATOM     28  C   UNL     1       5.559   4.870  -0.456  1.00  0.00     0.123 A 
ATOM     29  F   UNL     1       6.765   5.432  -0.608  1.00  0.00    -0.207 F 
ENDBRANCH  22  23
ENDBRANCH   9  22
ENDBRANCH   3   5
ENDBRANCH   2   3
ENDBRANCH   1   2
BRANCH   1  30
ATOM     30  C   UNL     1      -0.003   3.417  -7.546  1.00  0.00     0.275 C 
BRANCH  30  31
ATOM     31  O   UNL     1      -0.522   2.290  -8.449  1.00  0.00    -0.458 OA
BRANCH  31  32
ATOM     32  C   UNL     1       0.232   1.114  -8.608  1.00  0.00     0.338 C 
ATOM     33  O   UNL     1       1.114   0.861  -7.788  1.00  0.00    -0.246 OA
BRANCH  32  34
ATOM     34  C   UNL     1      -0.057   0.004  -9.798  1.00  0.00     0.060 A 
ATOM     35  C   UNL     1      -0.551  -1.257  -9.492  1.00  0.00     0.016 A 
ATOM     36  C   UNL     1       0.395  -0.061 -11.146  1.00  0.00     0.016 A 
ATOM     37  C   UNL     1      -0.581  -2.485 -10.470  1.00  0.00     0.010 A 
ATOM     38  C   UNL     1       0.502  -1.377 -12.086  1.00  0.00     0.010 A 
ATOM     39  C   UNL     1       0.151  -2.741 -11.758  1.00  0.00    -0.014 A 
BRANCH  39  40
ATOM     40  C   UNL     1       0.873  -4.349 -12.478  1.00  0.00     0.031 A 
ATOM     41  C   UNL     1       1.911  -5.662 -11.416  1.00  0.00     0.074 A 
ATOM     42  C   UNL     1       0.635  -4.736 -13.902  1.00  0.00     0.049 A 
ATOM     43  N   UNL     1       2.453  -5.496 -10.206  1.00  0.00    -0.248 NA
ATOM     44  C   UNL     1       1.550  -7.245 -10.646  1.00  0.00     0.031 C 
ATOM     45  C   UNL     1       0.520  -3.975 -15.177  1.00  0.00     0.029 A 
ATOM     46  N   UNL     1       0.402  -6.033 -14.533  1.00  0.00    -0.354 N 
ATOM     47  C   UNL     1       1.288  -5.703  -9.380  1.00  0.00     0.074 A 
ATOM     48  C   UNL     1       1.039  -7.062  -9.427  1.00  0.00     0.031 C 
ATOM     49  C   UNL     1       0.308  -4.788 -16.288  1.00  0.00     0.029 A 
ATOM     50  C   UNL     1       0.136  -6.211 -15.945  1.00  0.00     0.049 A 
ATOM     51  H   UNL     1       0.428  -6.835 -13.962  1.00  0.00     0.167 HD
ATOM     52  C   UNL     1       0.296  -4.866  -9.747  1.00  0.00     0.031 A 
ATOM     53  C   UNL     1      -0.110  -7.443 -16.643  1.00  0.00     0.031 A 
ATOM     54  C   UNL     1      -0.727  -5.802 -10.839  1.00  0.00     0.049 A 
ATOM     55  C   UNL     1      -0.054  -8.595 -15.679  1.00  0.00     0.074 A 
ATOM     56  C   UNL     1      -1.929  -6.562 -10.908  1.00  0.00     0.029 A 
ATOM     57  N   UNL     1      -0.290  -6.480 -12.044  1.00  0.00    -0.354 N 
ATOM     58  N   UNL     1       1.026  -9.083 -15.149  1.00  0.00    -0.248 NA
ATOM     59  C   UNL     1      -1.263  -9.326 -15.263  1.00  0.00     0.031 C 
ATOM     60  C   UNL     1      -1.684  -7.869 -11.735  1.00  0.00     0.029 A 
ATOM     61  C   UNL     1      -0.368  -7.864 -12.185  1.00  0.00     0.049 A 
ATOM     62  H   UNL     1       0.073  -5.945 -12.786  1.00  0.00     0.167 HD
ATOM     63  C   UNL     1       0.541  -9.475 -13.924  1.00  0.00     0.074 A 
ATOM     64  C   UNL     1      -0.799  -9.930 -14.167  1.00  0.00     0.031 C 
ATOM     65  C   UNL     1       0.872  -8.597 -12.947  1.00  0.00     0.031 A 
BRANCH  52  66
ATOM     66  C   UNL     1       1.587  -3.545  -9.602  1.00  0.00    -0.014 A 
ATOM     67  C   UNL     1       2.202  -3.473  -8.325  1.00  0.00     0.009 A 
ATOM     68  C   UNL     1       2.545  -3.038 -10.639  1.00  0.00     0.009 A 
ATOM     69  C   UNL     1       3.612  -3.252  -8.181  1.00  0.00     0.001 A 
ATOM     70  C   UNL     1       3.909  -2.733 -10.478  1.00  0.00     0.001 A 
ATOM     71  C   UNL     1       4.460  -2.916  -9.243  1.00  0.00     0.000 A 
ENDBRANCH  52  66
BRANCH  53  72
ATOM     72  C   UNL     1      -0.453  -8.191 -18.012  1.00  0.00    -0.014 A 
ATOM     73  C   UNL     1       0.104  -9.511 -18.254  1.00  0.00     0.009 A 
ATOM     74  C   UNL     1      -1.616  -7.944 -18.755  1.00  0.00     0.009 A 
ATOM     75  C   UNL     1      -0.497 -10.506 -19.074  1.00  0.00     0.001 A 
ATOM     76  C   UNL     1      -2.203  -8.936 -19.609  1.00  0.00     0.001 A 
ATOM     77  C   UNL     1      -1.669 -10.219 -19.747  1.00  0.00     0.000 A 
ENDBRANCH  53  72
BRANCH  65  78
ATOM     78  C   UNL     1       2.492  -8.048 -13.249  1.00  0.00    -0.014 A 
ATOM     79  C   UNL     1       2.900  -7.288 -14.391  1.00  0.00     0.009 A 
ATOM     80  C   UNL     1       3.626  -8.486 -12.529  1.00  0.00     0.009 A 
ATOM     81  C   UNL     1       4.207  -6.900 -14.754  1.00  0.00     0.001 A 
ATOM     82  C   UNL     1       4.972  -8.127 -12.892  1.00  0.00     0.001 A 
ATOM     83  C   UNL     1       5.263  -7.329 -13.997  1.00  0.00     0.000 A 
ENDBRANCH  65  78
ENDBRANCH  39  40
ENDBRANCH  32  34
ENDBRANCH  31  32
ENDBRANCH  30  31
ENDBRANCH   1  30
TORSDOF 17
