REMARK SMILES Cc1cccc(OC2(C(=O)OCCOC(=O)c3ccc(-c4c5nc(c(-c6ccccc6)c6ccc([nH]6)c(-c6ccccc6)c6nc(c(-c7ccccc7)c7ccc4[nH]7)C=C6)C=C5)cc3)CCN(C(=O)c3cnc[nH]c3=O)CC2)c1
REMARK SMILES IDX 12 1 11 2 9 3 10 4 8 5 65 6 78 7 66 8 77 9 67 10 68 11 69 12
REMARK SMILES IDX 7 13 6 14 1 15 2 16 3 17 79 18 4 19 5 20 70 21 71 22 75 23
REMARK SMILES IDX 72 24 74 25 76 26 73 27 13 29 14 30 15 31 16 32 17 33 18 34
REMARK SMILES IDX 64 35 19 36 63 37 20 38 21 39 22 40 57 41 23 42 62 43 56 44
REMARK SMILES IDX 58 45 24 46 61 47 55 48 54 49 25 51 47 52 32 53 46 54 33 55
REMARK SMILES IDX 36 56 45 57 59 58 34 59 35 60 44 62 60 63 37 64 26 65 27 66
REMARK SMILES IDX 31 67 28 68 30 69 29 70 48 71 49 72 53 73 50 74 52 75 51 76
REMARK SMILES IDX 38 77 39 78 43 79 40 80 42 81 41 82
REMARK H PARENT 74 28 58 50 36 61
REMARK Flexibility Score: inf
ROOT
ATOM      1  C   UNL     1       0.502   5.153  -4.429  1.00  0.00     0.274 C 
ENDROOT
BRANCH   1   2
ATOM      2  O   UNL     1      -0.550   5.299  -3.470  1.00  0.00    -0.459 OA
BRANCH   2   3
ATOM      3  C   UNL     1      -0.233   5.635  -2.219  1.00  0.00     0.350 C 
ATOM      4  O   UNL     1       0.305   6.727  -2.041  1.00  0.00    -0.247 OA
BRANCH   3   5
ATOM      5  C   UNL     1      -0.482   4.500  -0.968  1.00  0.00     0.209 C 
ATOM      6  C   UNL     1       1.274   4.796  -0.406  1.00  0.00     0.082 C 
ATOM      7  C   UNL     1      -0.960   5.538   0.466  1.00  0.00     0.082 C 
ATOM      8  C   UNL     1       1.782   4.595   1.031  1.00  0.00     0.124 C 
ATOM      9  C   UNL     1      -0.450   5.188   1.911  1.00  0.00     0.124 C 
ATOM     10  N   UNL     1       0.986   5.332   1.992  1.00  0.00    -0.338 N 
ATOM     11  C   UNL     1       1.599   6.274   2.799  1.00  0.00     0.261 C 
ATOM     12  O   UNL     1       2.572   6.934   2.449  1.00  0.00    -0.269 OA
BRANCH   5  13
ATOM     13  O   UNL     1      -1.298   2.606  -1.184  1.00  0.00    -0.475 OA
BRANCH  13  14
ATOM     14  C   UNL     1      -1.014   1.021  -0.782  1.00  0.00     0.121 A 
ATOM     15  C   UNL     1       1.995  -1.170   0.234  1.00  0.00     0.044 C 
ATOM     16  C   UNL     1       0.557  -0.831  -0.053  1.00  0.00    -0.047 A 
ATOM     17  C   UNL     1      -0.506  -1.702   0.018  1.00  0.00     0.003 A 
ATOM     18  C   UNL     1       0.276   0.474  -0.447  1.00  0.00     0.050 A 
ATOM     19  C   UNL     1      -1.806  -1.208  -0.211  1.00  0.00     0.004 A 
ATOM     20  C   UNL     1      -2.069   0.150  -0.572  1.00  0.00     0.046 A 
ENDBRANCH  13  14
ENDBRANCH   5  13
BRANCH  11  21
ATOM     21  C   UNL     1       1.071   6.390   4.171  1.00  0.00     0.123 A 
ATOM     22  C   UNL     1       0.365   7.462   4.554  1.00  0.00     0.132 A 
ATOM     23  C   UNL     1       1.355   5.365   5.193  1.00  0.00     0.263 A 
ATOM     24  N   UNL     1      -0.149   7.660   5.815  1.00  0.00    -0.246 NA
ATOM     25  N   UNL     1       0.853   5.634   6.436  1.00  0.00    -0.312 N 
ATOM     26  O   UNL     1       1.983   4.338   4.963  1.00  0.00    -0.269 OA
ATOM     27  C   UNL     1       0.122   6.755   6.695  1.00  0.00     0.199 A 
ATOM     28  H   UNL     1       1.025   4.997   7.168  1.00  0.00     0.171 HD
ENDBRANCH  11  21
ENDBRANCH   3   5
ENDBRANCH   2   3
ENDBRANCH   1   2
BRANCH   1  29
ATOM     29  C   UNL     1       1.830   4.419  -4.011  1.00  0.00     0.275 C 
BRANCH  29  30
ATOM     30  O   UNL     1       1.919   3.016  -3.500  1.00  0.00    -0.458 OA
BRANCH  30  31
ATOM     31  C   UNL     1       1.887   2.534  -2.195  1.00  0.00     0.338 C 
ATOM     32  O   UNL     1       2.788   1.879  -1.703  1.00  0.00    -0.246 OA
BRANCH  31  33
ATOM     33  C   UNL     1       0.556   2.751  -1.536  1.00  0.00     0.060 A 
ATOM     34  C   UNL     1      -0.179   2.908   0.220  1.00  0.00     0.016 A 
ATOM     35  C   UNL     1      -0.496   2.948  -2.906  1.00  0.00     0.016 A 
ATOM     36  C   UNL     1      -1.967   3.474   0.306  1.00  0.00     0.010 A 
ATOM     37  C   UNL     1      -2.034   3.575  -2.736  1.00  0.00     0.010 A 
ATOM     38  C   UNL     1      -2.783   3.977  -1.228  1.00  0.00    -0.014 A 
BRANCH  38  39
ATOM     39  C   UNL     1      -3.803   5.125  -1.616  1.00  0.00     0.031 A 
ATOM     40  C   UNL     1      -3.903   6.550  -1.103  1.00  0.00     0.074 A 
ATOM     41  C   UNL     1      -4.402   5.054  -2.849  1.00  0.00     0.049 A 
ATOM     42  N   UNL     1      -5.015   7.197  -0.868  1.00  0.00    -0.248 NA
ATOM     43  C   UNL     1      -2.751   7.443  -0.993  1.00  0.00     0.031 C 
ATOM     44  C   UNL     1      -4.967   6.110  -3.702  1.00  0.00     0.029 A 
ATOM     45  N   UNL     1      -4.593   3.939  -3.648  1.00  0.00    -0.354 N 
ATOM     46  C   UNL     1      -4.691   8.556  -0.768  1.00  0.00     0.074 A 
ATOM     47  C   UNL     1      -3.264   8.616  -0.620  1.00  0.00     0.031 C 
ATOM     48  C   UNL     1      -5.632   5.553  -4.737  1.00  0.00     0.029 A 
ATOM     49  C   UNL     1      -5.639   4.115  -4.539  1.00  0.00     0.049 A 
ATOM     50  H   UNL     1      -4.051   3.119  -3.590  1.00  0.00     0.167 HD
ATOM     51  C   UNL     1      -5.492   9.582  -1.191  1.00  0.00     0.031 A 
ATOM     52  C   UNL     1      -6.704   3.256  -4.554  1.00  0.00     0.031 A 
ATOM     53  C   UNL     1      -6.538   9.100  -2.072  1.00  0.00     0.049 A 
ATOM     54  C   UNL     1      -7.925   3.964  -4.030  1.00  0.00     0.074 A 
ATOM     55  C   UNL     1      -6.689   9.198  -3.447  1.00  0.00     0.029 A 
ATOM     56  N   UNL     1      -7.473   8.192  -1.623  1.00  0.00    -0.354 N 
ATOM     57  N   UNL     1      -7.869   5.154  -3.510  1.00  0.00    -0.248 NA
ATOM     58  C   UNL     1      -9.268   3.401  -3.975  1.00  0.00     0.031 C 
ATOM     59  C   UNL     1      -7.713   8.306  -3.831  1.00  0.00     0.029 A 
ATOM     60  C   UNL     1      -8.195   7.694  -2.687  1.00  0.00     0.049 A 
ATOM     61  H   UNL     1      -7.606   7.936  -0.682  1.00  0.00     0.167 HD
ATOM     62  C   UNL     1      -9.094   5.527  -3.062  1.00  0.00     0.074 A 
ATOM     63  C   UNL     1      -9.946   4.397  -3.373  1.00  0.00     0.031 C 
ATOM     64  C   UNL     1      -9.264   6.737  -2.464  1.00  0.00     0.031 A 
BRANCH  51  65
ATOM     65  C   UNL     1      -5.164  11.075  -1.114  1.00  0.00    -0.014 A 
ATOM     66  C   UNL     1      -5.855  11.995  -1.934  1.00  0.00     0.009 A 
ATOM     67  C   UNL     1      -4.270  11.646  -0.189  1.00  0.00     0.009 A 
ATOM     68  C   UNL     1      -5.630  13.380  -1.886  1.00  0.00     0.001 A 
ATOM     69  C   UNL     1      -4.025  13.034  -0.147  1.00  0.00     0.001 A 
ATOM     70  C   UNL     1      -4.703  13.900  -0.997  1.00  0.00     0.000 A 
ENDBRANCH  51  65
BRANCH  52  71
ATOM     71  C   UNL     1      -6.312   1.861  -4.157  1.00  0.00    -0.014 A 
ATOM     72  C   UNL     1      -5.520   1.143  -5.080  1.00  0.00     0.009 A 
ATOM     73  C   UNL     1      -6.143   1.621  -2.784  1.00  0.00     0.009 A 
ATOM     74  C   UNL     1      -4.407   0.419  -4.642  1.00  0.00     0.001 A 
ATOM     75  C   UNL     1      -5.006   0.933  -2.362  1.00  0.00     0.001 A 
ATOM     76  C   UNL     1      -4.112   0.378  -3.285  1.00  0.00     0.000 A 
ENDBRANCH  52  71
BRANCH  64  77
ATOM     77  C   UNL     1     -10.471   7.175  -1.697  1.00  0.00    -0.014 A 
ATOM     78  C   UNL     1     -11.403   6.288  -1.153  1.00  0.00     0.009 A 
ATOM     79  C   UNL     1     -10.629   8.545  -1.392  1.00  0.00     0.009 A 
ATOM     80  C   UNL     1     -12.486   6.753  -0.403  1.00  0.00     0.001 A 
ATOM     81  C   UNL     1     -11.673   9.007  -0.595  1.00  0.00     0.001 A 
ATOM     82  C   UNL     1     -12.617   8.110  -0.119  1.00  0.00     0.000 A 
ENDBRANCH  64  77
ENDBRANCH  38  39
ENDBRANCH  31  33
ENDBRANCH  30  31
ENDBRANCH  29  30
ENDBRANCH   1  29
TORSDOF 14
