REMARK SMILES Cc1ccc(-c2cc(Cl)cc3c2O[C@H](C(F)(F)F)C(C(=O)OCCOC(=O)c2ccc(-c4c5nc(c(-c6ccccc6)c6ccc([nH]6)c(-c6ccccc6)c6nc(c(-c7ccccc7)c7ccc4[nH]7)C=C6)C=C5)cc2)=C3)cc1F
REMARK SMILES IDX 24 1 23 2 22 3 20 4 21 5 19 6 6 7 7 8 12 9 8 10 11 11 13 12
REMARK SMILES IDX 9 13 10 14 76 15 14 16 5 17 1 18 2 19 3 20 78 21 4 22 77 23
REMARK SMILES IDX 79 24 15 25 16 26 17 27 18 28 25 29 26 30 27 31 28 32 29 33
REMARK SMILES IDX 75 34 30 35 74 36 31 37 32 38 33 39 68 40 34 41 73 42 67 43
REMARK SMILES IDX 69 44 35 45 72 46 66 47 65 48 36 50 58 51 43 52 57 53 44 54
REMARK SMILES IDX 47 55 56 56 70 57 45 58 46 59 55 61 71 62 48 63 37 64 38 65
REMARK SMILES IDX 42 66 39 67 41 68 40 69 59 70 60 71 64 72 61 73 63 74 62 75
REMARK SMILES IDX 49 76 50 77 54 78 51 79 53 80 52 81
REMARK H PARENT 69 49 47 60
REMARK Flexibility Score: inf
ROOT
ATOM      1  C   UNL     1      -4.215  -6.038   7.125  1.00  0.00     0.275 C 
ENDROOT
BRANCH   1   2
ATOM      2  C   UNL     1      -2.916  -6.144   6.325  1.00  0.00     0.275 C 
BRANCH   2   3
ATOM      3  O   UNL     1      -2.865  -5.162   5.266  1.00  0.00    -0.459 OA
BRANCH   3   4
ATOM      4  C   UNL     1      -3.075  -5.631   4.014  1.00  0.00     0.338 C 
ATOM      5  O   UNL     1      -3.299  -6.789   3.697  1.00  0.00    -0.246 OA
BRANCH   4   6
ATOM      6  C   UNL     1      -3.047  -4.523   3.039  1.00  0.00     0.087 C 
ATOM      7  C   UNL     1      -2.776  -1.601   0.038  1.00  0.00     0.026 A 
ATOM      8  C   UNL     1      -3.766  -1.573  -0.962  1.00  0.00     0.033 A 
ATOM      9  C   UNL     1      -2.893  -2.543   1.081  1.00  0.00     0.135 A 
ATOM     10  C   UNL     1      -4.840  -2.459  -0.923  1.00  0.00     0.042 A 
ATOM     11  C   UNL     1      -3.948  -3.454   1.084  1.00  0.00     0.019 A 
ATOM     12  O   UNL     1      -1.964  -2.495   2.090  1.00  0.00    -0.475 OA
ATOM     13  Cl  UNL     1      -6.045  -2.402  -2.148  1.00  0.00    -0.084 Cl
ATOM     14  C   UNL     1      -4.933  -3.403   0.092  1.00  0.00     0.032 A 
ATOM     15  C   UNL     1      -4.002  -4.481   2.102  1.00  0.00     0.027 C 
ATOM     16  C   UNL     1      -1.886  -3.574   3.057  1.00  0.00     0.316 C 
BRANCH   7  17
ATOM     17  C   UNL     1      -1.631  -0.683  -0.035  1.00  0.00    -0.012 A 
ATOM     18  C   UNL     1       1.775   1.972  -0.046  1.00  0.00     0.047 C 
ATOM     19  C   UNL     1       0.583   1.068  -0.072  1.00  0.00    -0.015 A 
ATOM     20  C   UNL     1      -0.720   1.576  -0.040  1.00  0.00     0.007 A 
ATOM     21  C   UNL     1       0.762  -0.315  -0.106  1.00  0.00     0.126 A 
ATOM     22  C   UNL     1      -1.815   0.708  -0.024  1.00  0.00     0.009 A 
ATOM     23  C   UNL     1      -0.322  -1.183  -0.095  1.00  0.00     0.048 A 
ATOM     24  F   UNL     1       2.001  -0.827  -0.138  1.00  0.00    -0.207 F 
ENDBRANCH   7  17
BRANCH  16  25
ATOM     25  C   UNL     1      -0.559  -4.322   2.848  1.00  0.00     0.430 C 
ATOM     26  F   UNL     1       0.494  -3.473   2.837  1.00  0.00    -0.167 F 
ATOM     27  F   UNL     1      -0.329  -5.217   3.839  1.00  0.00    -0.167 F 
ATOM     28  F   UNL     1      -0.544  -5.003   1.678  1.00  0.00    -0.167 F 
ENDBRANCH  16  25
ENDBRANCH   4   6
ENDBRANCH   3   4
ENDBRANCH   2   3
ENDBRANCH   1   2
BRANCH   1  29
ATOM     29  O   UNL     1      -5.337  -6.444   6.320  1.00  0.00    -0.458 OA
BRANCH  29  30
ATOM     30  C   UNL     1      -6.123  -5.440   5.872  1.00  0.00     0.338 C 
ATOM     31  O   UNL     1      -6.014  -4.247   6.098  1.00  0.00    -0.246 OA
BRANCH  30  32
ATOM     32  C   UNL     1      -7.107  -5.979   4.924  1.00  0.00     0.060 A 
ATOM     33  C   UNL     1      -8.459  -6.067   5.229  1.00  0.00     0.016 A 
ATOM     34  C   UNL     1      -6.669  -6.257   3.636  1.00  0.00     0.016 A 
ATOM     35  C   UNL     1      -9.356  -6.455   4.224  1.00  0.00     0.010 A 
ATOM     36  C   UNL     1      -7.573  -6.481   2.607  1.00  0.00     0.010 A 
ATOM     37  C   UNL     1      -8.932  -6.631   2.889  1.00  0.00    -0.014 A 
BRANCH  37  38
ATOM     38  C   UNL     1      -9.883  -6.981   1.794  1.00  0.00     0.031 A 
ATOM     39  C   UNL     1      -9.647  -8.192   0.916  1.00  0.00     0.074 A 
ATOM     40  C   UNL     1     -10.949  -6.189   1.555  1.00  0.00     0.049 A 
ATOM     41  N   UNL     1     -10.378  -8.646  -0.074  1.00  0.00    -0.248 NA
ATOM     42  C   UNL     1      -8.418  -8.972   1.142  1.00  0.00     0.031 C 
ATOM     43  C   UNL     1     -11.251  -4.941   2.260  1.00  0.00     0.029 A 
ATOM     44  N   UNL     1     -11.992  -6.326   0.670  1.00  0.00    -0.354 N 
ATOM     45  C   UNL     1      -9.684  -9.735  -0.592  1.00  0.00     0.074 A 
ATOM     46  C   UNL     1      -8.440  -9.828   0.132  1.00  0.00     0.031 C 
ATOM     47  C   UNL     1     -12.442  -4.481   1.850  1.00  0.00     0.029 A 
ATOM     48  C   UNL     1     -12.966  -5.366   0.815  1.00  0.00     0.049 A 
ATOM     49  H   UNL     1     -12.037  -7.043  -0.003  1.00  0.00     0.167 HD
ATOM     50  C   UNL     1     -10.066 -10.613  -1.549  1.00  0.00     0.031 A 
ATOM     51  C   UNL     1     -14.159  -5.222   0.205  1.00  0.00     0.031 A 
ATOM     52  C   UNL     1     -11.331 -10.561  -2.227  1.00  0.00     0.049 A 
ATOM     53  C   UNL     1     -14.586  -6.233  -0.823  1.00  0.00     0.074 A 
ATOM     54  C   UNL     1     -11.845 -11.451  -3.153  1.00  0.00     0.029 A 
ATOM     55  N   UNL     1     -12.287  -9.577  -2.038  1.00  0.00    -0.354 N 
ATOM     56  N   UNL     1     -13.949  -7.300  -1.240  1.00  0.00    -0.248 NA
ATOM     57  C   UNL     1     -15.897  -6.029  -1.457  1.00  0.00     0.031 C 
ATOM     58  C   UNL     1     -13.092 -10.980  -3.562  1.00  0.00     0.029 A 
ATOM     59  C   UNL     1     -13.383  -9.832  -2.842  1.00  0.00     0.049 A 
ATOM     60  H   UNL     1     -12.200  -8.812  -1.425  1.00  0.00     0.167 HD
ATOM     61  C   UNL     1     -14.788  -7.905  -2.166  1.00  0.00     0.074 A 
ATOM     62  C   UNL     1     -15.988  -7.098  -2.238  1.00  0.00     0.031 C 
ATOM     63  C   UNL     1     -14.577  -9.028  -2.893  1.00  0.00     0.031 A 
BRANCH  50  64
ATOM     64  C   UNL     1      -9.132 -11.745  -1.892  1.00  0.00    -0.014 A 
ATOM     65  C   UNL     1      -8.573 -11.833  -3.177  1.00  0.00     0.009 A 
ATOM     66  C   UNL     1      -8.881 -12.778  -0.975  1.00  0.00     0.009 A 
ATOM     67  C   UNL     1      -7.794 -12.934  -3.539  1.00  0.00     0.001 A 
ATOM     68  C   UNL     1      -8.073 -13.861  -1.327  1.00  0.00     0.001 A 
ATOM     69  C   UNL     1      -7.539 -13.944  -2.612  1.00  0.00     0.000 A 
ENDBRANCH  50  64
BRANCH  51  70
ATOM     70  C   UNL     1     -15.063  -4.113   0.617  1.00  0.00    -0.014 A 
ATOM     71  C   UNL     1     -14.740  -2.775   0.339  1.00  0.00     0.009 A 
ATOM     72  C   UNL     1     -16.229  -4.388   1.349  1.00  0.00     0.009 A 
ATOM     73  C   UNL     1     -15.549  -1.737   0.808  1.00  0.00     0.001 A 
ATOM     74  C   UNL     1     -17.053  -3.349   1.790  1.00  0.00     0.001 A 
ATOM     75  C   UNL     1     -16.706  -2.025   1.529  1.00  0.00     0.000 A 
ENDBRANCH  51  70
BRANCH  63  76
ATOM     76  C   UNL     1     -15.662  -9.487  -3.825  1.00  0.00    -0.014 A 
ATOM     77  C   UNL     1     -16.351 -10.681  -3.554  1.00  0.00     0.009 A 
ATOM     78  C   UNL     1     -15.900  -8.822  -5.037  1.00  0.00     0.009 A 
ATOM     79  C   UNL     1     -17.237 -11.215  -4.489  1.00  0.00     0.001 A 
ATOM     80  C   UNL     1     -16.810  -9.344  -5.958  1.00  0.00     0.001 A 
ATOM     81  C   UNL     1     -17.467 -10.546  -5.690  1.00  0.00     0.000 A 
ENDBRANCH  63  76
ENDBRANCH  37  38
ENDBRANCH  30  32
ENDBRANCH  29  30
ENDBRANCH   1  29
TORSDOF 13
