REMARK SMILES [NH3+][C@H](Cc1cnc2[nH]cccc1-2)C(=O)OCCOC(=O)c1ccc(-c2c3nc(c(-c4ccccc4)c4ccc([nH]4)c(-c4ccccc4)c4nc(c(-c5ccccc5)c5ccc2[nH]5)C=C4)C=C3)cc1
REMARK SMILES IDX 16 1 15 2 13 3 14 4 2 5 1 6 3 10 4 11 5 12 12 13 6 14 7 15
REMARK SMILES IDX 11 16 8 17 10 18 9 19 17 21 18 22 19 23 20 24 21 25 22 26
REMARK SMILES IDX 68 27 23 28 67 29 24 30 25 31 26 32 61 33 27 34 66 35 60 36
REMARK SMILES IDX 62 37 28 38 65 39 59 40 58 41 29 43 51 44 36 45 50 46 37 47
REMARK SMILES IDX 40 48 49 49 63 50 38 51 39 52 48 54 64 55 41 56 30 57 31 58
REMARK SMILES IDX 35 59 32 60 34 61 33 62 52 63 53 64 57 65 54 66 56 67 55 68
REMARK SMILES IDX 42 69 43 70 47 71 44 72 46 73 45 74
REMARK H PARENT 1 7 1 8 1 9 8 20 62 42 40 53
REMARK Flexibility Score: inf
ROOT
ATOM      1  C   UNL     1      -3.180   0.565   1.040  1.00  0.00     0.274 C 
ENDROOT
BRANCH   1   2
ATOM      2  O   UNL     1      -1.753   0.705   0.874  1.00  0.00    -0.458 OA
BRANCH   2   3
ATOM      3  C   UNL     1      -0.995   0.962   1.975  1.00  0.00     0.365 C 
ATOM      4  O   UNL     1      -1.435   1.010   3.118  1.00  0.00    -0.245 OA
BRANCH   3   5
ATOM      5  C   UNL     1       0.503   1.154   1.615  1.00  0.00     0.296 C 
BRANCH   5   6
ATOM      6  N   UNL     1       1.074   2.386   2.205  1.00  0.00    -0.346 N 
ATOM      7  H   UNL     1       0.801   2.451   3.186  1.00  0.00     0.345 HD
ATOM      8  H   UNL     1       0.723   3.199   1.700  1.00  0.00     0.345 HD
ATOM      9  H   UNL     1       2.091   2.356   2.136  1.00  0.00     0.345 HD
ENDBRANCH   5   6
BRANCH   5  10
ATOM     10  C   UNL     1       0.866   0.974   0.133  1.00  0.00     0.115 C 
BRANCH  10  11
ATOM     11  C   UNL     1       0.290   1.974  -0.808  1.00  0.00    -0.012 A 
ATOM     12  C   UNL     1      -0.480   3.062  -0.593  1.00  0.00     0.118 A 
ATOM     13  C   UNL     1       0.360   1.866  -2.230  1.00  0.00     0.022 A 
ATOM     14  N   UNL     1      -0.945   3.706  -1.728  1.00  0.00    -0.238 NA
ATOM     15  C   UNL     1      -0.473   3.001  -2.721  1.00  0.00     0.137 A 
ATOM     16  C   UNL     1       0.922   1.050  -3.132  1.00  0.00     0.014 A 
ATOM     17  N   UNL     1      -0.657   3.178  -4.061  1.00  0.00    -0.346 N 
ATOM     18  C   UNL     1       0.709   1.294  -4.560  1.00  0.00     0.018 A 
ATOM     19  C   UNL     1      -0.064   2.323  -4.960  1.00  0.00     0.084 A 
ATOM     20  H   UNL     1      -1.216   3.920  -4.385  1.00  0.00     0.167 HD
ENDBRANCH  10  11
ENDBRANCH   5  10
ENDBRANCH   3   5
ENDBRANCH   2   3
ENDBRANCH   1   2
BRANCH   1  21
ATOM     21  C   UNL     1      -3.637  -0.731   0.363  1.00  0.00     0.275 C 
BRANCH  21  22
ATOM     22  O   UNL     1      -3.143  -1.841   1.132  1.00  0.00    -0.458 OA
BRANCH  22  23
ATOM     23  C   UNL     1      -2.017  -2.422   0.656  1.00  0.00     0.338 C 
ATOM     24  O   UNL     1      -1.696  -2.546  -0.519  1.00  0.00    -0.246 OA
BRANCH  23  25
ATOM     25  C   UNL     1      -1.066  -2.535   1.785  1.00  0.00     0.060 A 
ATOM     26  C   UNL     1      -1.500  -2.547   3.116  1.00  0.00     0.016 A 
ATOM     27  C   UNL     1       0.288  -2.354   1.489  1.00  0.00     0.016 A 
ATOM     28  C   UNL     1      -0.612  -2.194   4.129  1.00  0.00     0.010 A 
ATOM     29  C   UNL     1       1.168  -1.999   2.504  1.00  0.00     0.010 A 
ATOM     30  C   UNL     1       0.702  -1.827   3.814  1.00  0.00    -0.014 A 
BRANCH  30  31
ATOM     31  C   UNL     1       1.654  -1.564   4.899  1.00  0.00     0.031 A 
ATOM     32  C   UNL     1       2.207  -2.834   5.403  1.00  0.00     0.074 A 
ATOM     33  C   UNL     1       2.101  -0.398   5.417  1.00  0.00     0.049 A 
ATOM     34  N   UNL     1       1.825  -3.442   6.474  1.00  0.00    -0.248 NA
ATOM     35  C   UNL     1       3.103  -3.614   4.538  1.00  0.00     0.031 C 
ATOM     36  C   UNL     1       1.839   0.966   4.978  1.00  0.00     0.029 A 
ATOM     37  N   UNL     1       2.980  -0.199   6.453  1.00  0.00    -0.354 N 
ATOM     38  C   UNL     1       2.586  -4.594   6.526  1.00  0.00     0.074 A 
ATOM     39  C   UNL     1       3.165  -4.759   5.217  1.00  0.00     0.031 C 
ATOM     40  C   UNL     1       2.726   1.822   5.545  1.00  0.00     0.029 A 
ATOM     41  C   UNL     1       3.488   1.097   6.546  1.00  0.00     0.049 A 
ATOM     42  H   UNL     1       3.231  -0.914   7.081  1.00  0.00     0.167 HD
ATOM     43  C   UNL     1       2.928  -5.144   7.719  1.00  0.00     0.031 A 
ATOM     44  C   UNL     1       4.431   1.553   7.413  1.00  0.00     0.031 A 
ATOM     45  C   UNL     1       2.131  -4.614   8.799  1.00  0.00     0.049 A 
ATOM     46  C   UNL     1       4.413   0.658   8.584  1.00  0.00     0.074 A 
ATOM     47  C   UNL     1       0.785  -4.580   9.102  1.00  0.00     0.029 A 
ATOM     48  N   UNL     1       2.726  -3.641   9.563  1.00  0.00    -0.354 N 
ATOM     49  N   UNL     1       3.438   0.613   9.443  1.00  0.00    -0.248 NA
ATOM     50  C   UNL     1       5.336  -0.461   8.619  1.00  0.00     0.031 C 
ATOM     51  C   UNL     1       0.573  -3.326   9.748  1.00  0.00     0.029 A 
ATOM     52  C   UNL     1       1.802  -2.677   9.866  1.00  0.00     0.049 A 
ATOM     53  H   UNL     1       3.668  -3.638   9.849  1.00  0.00     0.167 HD
ATOM     54  C   UNL     1       3.343  -0.726   9.775  1.00  0.00     0.074 A 
ATOM     55  C   UNL     1       4.619  -1.306   9.363  1.00  0.00     0.031 C 
ATOM     56  C   UNL     1       2.133  -1.281  10.077  1.00  0.00     0.031 A 
BRANCH  43  57
ATOM     57  C   UNL     1       4.270  -5.790   7.949  1.00  0.00    -0.014 A 
ATOM     58  C   UNL     1       5.376  -5.619   7.090  1.00  0.00     0.009 A 
ATOM     59  C   UNL     1       4.529  -6.376   9.197  1.00  0.00     0.009 A 
ATOM     60  C   UNL     1       6.665  -6.016   7.445  1.00  0.00     0.001 A 
ATOM     61  C   UNL     1       5.828  -6.731   9.577  1.00  0.00     0.001 A 
ATOM     62  C   UNL     1       6.895  -6.553   8.700  1.00  0.00     0.000 A 
ENDBRANCH  43  57
BRANCH  44  63
ATOM     63  C   UNL     1       5.555   2.503   7.223  1.00  0.00    -0.014 A 
ATOM     64  C   UNL     1       6.146   2.645   5.958  1.00  0.00     0.009 A 
ATOM     65  C   UNL     1       6.277   2.981   8.337  1.00  0.00     0.009 A 
ATOM     66  C   UNL     1       7.438   3.172   5.817  1.00  0.00     0.001 A 
ATOM     67  C   UNL     1       7.571   3.505   8.195  1.00  0.00     0.001 A 
ATOM     68  C   UNL     1       8.159   3.579   6.937  1.00  0.00     0.000 A 
ENDBRANCH  44  63
BRANCH  56  69
ATOM     69  C   UNL     1       0.987  -0.355  10.425  1.00  0.00    -0.014 A 
ATOM     70  C   UNL     1       0.284  -0.610  11.614  1.00  0.00     0.009 A 
ATOM     71  C   UNL     1       0.501   0.654   9.574  1.00  0.00     0.009 A 
ATOM     72  C   UNL     1      -0.872   0.103  11.938  1.00  0.00     0.001 A 
ATOM     73  C   UNL     1      -0.640   1.391   9.914  1.00  0.00     0.001 A 
ATOM     74  C   UNL     1      -1.332   1.106  11.090  1.00  0.00     0.000 A 
ENDBRANCH  56  69
ENDBRANCH  30  31
ENDBRANCH  23  25
ENDBRANCH  22  23
ENDBRANCH  21  22
ENDBRANCH   1  21
TORSDOF 14
