REMARK SMILES C[C@]12C(=O)N(c3ccc(C(=O)OCCOC(=O)c4ccc(-c5c6nc(c(-c7ccccc7)c7ccc([nH]7)c(-c7ccccc7)c7nc(c(-c8ccccc8)c8ccc5[nH]8)C=C7)C=C6)cc4)cc3)C(=O)[C@H]1[C@H]1c3ccccc3[C@@H]2c2ccccc21
REMARK SMILES IDX 14 1 13 2 12 3 10 4 11 5 9 6 6 7 7 8 67 9 8 10 66 11 5 12
REMARK SMILES IDX 1 13 2 14 3 15 70 16 78 17 4 18 68 19 71 20 77 21 79 22
REMARK SMILES IDX 69 23 72 24 84 25 76 26 80 27 73 28 83 29 75 30 81 31 74 32
REMARK SMILES IDX 82 33 15 34 16 35 17 36 18 37 19 38 65 39 20 40 64 41 21 42
REMARK SMILES IDX 22 43 23 44 58 45 24 46 63 47 57 48 59 49 25 50 62 51 56 52
REMARK SMILES IDX 55 53 26 55 48 56 33 57 47 58 34 59 37 60 46 61 60 62 35 63
REMARK SMILES IDX 36 64 45 66 61 67 38 68 27 69 28 70 32 71 29 72 31 73 30 74
REMARK SMILES IDX 49 75 50 76 54 77 51 78 53 79 52 80 39 81 40 82 44 83 41 84
REMARK SMILES IDX 43 85 42 86
REMARK H PARENT 59 54 37 65
REMARK Flexibility Score: inf
ROOT
ATOM      1  C   UNL     1       0.962   8.875  -7.572  1.00  0.00     0.275 C 
ENDROOT
BRANCH   1   2
ATOM      2  C   UNL     1      -0.290   8.015  -7.767  1.00  0.00     0.275 C 
BRANCH   2   3
ATOM      3  O   UNL     1      -0.536   7.179  -6.615  1.00  0.00    -0.458 OA
BRANCH   3   4
ATOM      4  C   UNL     1      -0.186   5.881  -6.755  1.00  0.00     0.338 C 
ATOM      5  O   UNL     1       0.259   5.349  -7.762  1.00  0.00    -0.246 OA
BRANCH   4   6
ATOM      6  C   UNL     1      -0.243   5.175  -5.457  1.00  0.00     0.060 A 
ATOM      7  C   UNL     1      -0.203   3.561  -3.121  1.00  0.00     0.052 A 
ATOM      8  C   UNL     1       0.924   3.705  -3.944  1.00  0.00     0.028 A 
ATOM      9  C   UNL     1      -1.351   4.286  -3.476  1.00  0.00     0.028 A 
ATOM     10  C   UNL     1       0.891   4.461  -5.104  1.00  0.00     0.018 A 
ATOM     11  C   UNL     1      -1.365   5.112  -4.628  1.00  0.00     0.018 A 
BRANCH   7  12
ATOM     12  N   UNL     1      -0.178   2.532  -2.128  1.00  0.00    -0.250 N 
ATOM     13  C   UNL     1       0.905   0.048  -0.210  1.00  0.00     0.024 C 
ATOM     14  C   UNL     1       0.563   0.375  -1.678  1.00  0.00     0.071 C 
ATOM     15  C   UNL     1       0.962   1.800  -1.894  1.00  0.00     0.241 C 
ATOM     16  C   UNL     1      -0.981   0.360  -1.927  1.00  0.00     0.107 C 
ATOM     17  C   UNL     1       1.290  -0.532  -2.727  1.00  0.00     0.066 C 
ATOM     18  O   UNL     1       2.121   2.187  -1.811  1.00  0.00    -0.273 OA
ATOM     19  C   UNL     1      -1.295   1.838  -1.654  1.00  0.00     0.238 C 
ATOM     20  C   UNL     1      -1.325  -0.957  -2.744  1.00  0.00     0.063 C 
ATOM     21  C   UNL     1       0.650  -0.304  -4.110  1.00  0.00    -0.036 A 
ATOM     22  C   UNL     1       0.911  -1.951  -2.331  1.00  0.00    -0.036 A 
ATOM     23  O   UNL     1      -2.347   2.278  -1.220  1.00  0.00    -0.274 OA
ATOM     24  C   UNL     1      -0.741  -0.627  -4.162  1.00  0.00    -0.036 A 
ATOM     25  C   UNL     1      -0.494  -2.166  -2.281  1.00  0.00    -0.036 A 
ATOM     26  C   UNL     1       1.271   0.274  -5.206  1.00  0.00     0.005 A 
ATOM     27  C   UNL     1       1.820  -2.977  -2.107  1.00  0.00     0.005 A 
ATOM     28  C   UNL     1      -1.504  -0.348  -5.288  1.00  0.00     0.004 A 
ATOM     29  C   UNL     1      -0.976  -3.439  -2.014  1.00  0.00     0.004 A 
ATOM     30  C   UNL     1       0.499   0.556  -6.338  1.00  0.00     0.000 A 
ATOM     31  C   UNL     1       1.325  -4.247  -1.833  1.00  0.00     0.000 A 
ATOM     32  C   UNL     1      -0.872   0.251  -6.378  1.00  0.00     0.000 A 
ATOM     33  C   UNL     1      -0.059  -4.476  -1.788  1.00  0.00     0.000 A 
ENDBRANCH   7  12
ENDBRANCH   4   6
ENDBRANCH   3   4
ENDBRANCH   2   3
ENDBRANCH   1   2
BRANCH   1  34
ATOM     34  O   UNL     1       2.158   8.096  -7.773  1.00  0.00    -0.458 OA
BRANCH  34  35
ATOM     35  C   UNL     1       2.813   7.733  -6.649  1.00  0.00     0.338 C 
ATOM     36  O   UNL     1       2.516   7.989  -5.496  1.00  0.00    -0.246 OA
BRANCH  35  37
ATOM     37  C   UNL     1       3.965   6.891  -7.003  1.00  0.00     0.060 A 
ATOM     38  C   UNL     1       5.257   7.408  -7.021  1.00  0.00     0.016 A 
ATOM     39  C   UNL     1       3.755   5.527  -7.177  1.00  0.00     0.016 A 
ATOM     40  C   UNL     1       6.338   6.539  -7.218  1.00  0.00     0.010 A 
ATOM     41  C   UNL     1       4.835   4.651  -7.231  1.00  0.00     0.010 A 
ATOM     42  C   UNL     1       6.144   5.144  -7.288  1.00  0.00    -0.014 A 
BRANCH  42  43
ATOM     43  C   UNL     1       7.290   4.202  -7.434  1.00  0.00     0.031 A 
ATOM     44  C   UNL     1       7.359   3.245  -8.602  1.00  0.00     0.074 A 
ATOM     45  C   UNL     1       8.260   4.170  -6.496  1.00  0.00     0.049 A 
ATOM     46  N   UNL     1       8.284   2.362  -8.890  1.00  0.00    -0.248 NA
ATOM     47  C   UNL     1       6.236   3.255  -9.556  1.00  0.00     0.031 C 
ATOM     48  C   UNL     1       8.282   4.976  -5.273  1.00  0.00     0.029 A 
ATOM     49  N   UNL     1       9.421   3.436  -6.426  1.00  0.00    -0.354 N 
ATOM     50  C   UNL     1       7.843   1.708 -10.035  1.00  0.00     0.074 A 
ATOM     51  C   UNL     1       6.543   2.246 -10.359  1.00  0.00     0.031 C 
ATOM     52  C   UNL     1       9.424   4.739  -4.609  1.00  0.00     0.029 A 
ATOM     53  C   UNL     1      10.198   3.734  -5.331  1.00  0.00     0.049 A 
ATOM     54  H   UNL     1       9.672   2.761  -7.097  1.00  0.00     0.167 HD
ATOM     55  C   UNL     1       8.478   0.769 -10.775  1.00  0.00     0.031 A 
ATOM     56  C   UNL     1      11.402   3.263  -4.949  1.00  0.00     0.031 A 
ATOM     57  C   UNL     1       9.793   0.266 -10.488  1.00  0.00     0.049 A 
ATOM     58  C   UNL     1      12.107   2.253  -5.812  1.00  0.00     0.074 A 
ATOM     59  C   UNL     1      10.547  -0.626 -11.229  1.00  0.00     0.029 A 
ATOM     60  N   UNL     1      10.551   0.617  -9.384  1.00  0.00    -0.354 N 
ATOM     61  N   UNL     1      11.709   1.713  -6.938  1.00  0.00    -0.248 NA
ATOM     62  C   UNL     1      13.432   1.798  -5.363  1.00  0.00     0.031 C 
ATOM     63  C   UNL     1      11.743  -0.855 -10.548  1.00  0.00     0.029 A 
ATOM     64  C   UNL     1      11.759  -0.057  -9.415  1.00  0.00     0.049 A 
ATOM     65  H   UNL     1      10.272   1.250  -8.683  1.00  0.00     0.167 HD
ATOM     66  C   UNL     1      12.739   0.873  -7.341  1.00  0.00     0.074 A 
ATOM     67  C   UNL     1      13.790   0.989  -6.352  1.00  0.00     0.031 C 
ATOM     68  C   UNL     1      12.802   0.074  -8.433  1.00  0.00     0.031 A 
BRANCH  55  69
ATOM     69  C   UNL     1       7.788   0.240 -12.003  1.00  0.00    -0.014 A 
ATOM     70  C   UNL     1       7.387  -1.104 -12.058  1.00  0.00     0.009 A 
ATOM     71  C   UNL     1       7.649   1.038 -13.150  1.00  0.00     0.009 A 
ATOM     72  C   UNL     1       6.879  -1.644 -13.241  1.00  0.00     0.001 A 
ATOM     73  C   UNL     1       7.114   0.503 -14.323  1.00  0.00     0.001 A 
ATOM     74  C   UNL     1       6.741  -0.840 -14.371  1.00  0.00     0.000 A 
ENDBRANCH  55  69
BRANCH  56  75
ATOM     75  C   UNL     1      12.037   3.787  -3.709  1.00  0.00    -0.014 A 
ATOM     76  C   UNL     1      11.502   3.482  -2.447  1.00  0.00     0.009 A 
ATOM     77  C   UNL     1      13.159   4.626  -3.782  1.00  0.00     0.009 A 
ATOM     78  C   UNL     1      12.066   4.021  -1.288  1.00  0.00     0.001 A 
ATOM     79  C   UNL     1      13.740   5.138  -2.619  1.00  0.00     0.001 A 
ATOM     80  C   UNL     1      13.188   4.843  -1.374  1.00  0.00     0.000 A 
ENDBRANCH  56  75
BRANCH  68  81
ATOM     81  C   UNL     1      14.048  -0.738  -8.648  1.00  0.00    -0.014 A 
ATOM     82  C   UNL     1      14.895  -0.439  -9.727  1.00  0.00     0.009 A 
ATOM     83  C   UNL     1      14.314  -1.872  -7.867  1.00  0.00     0.009 A 
ATOM     84  C   UNL     1      15.973  -1.270 -10.033  1.00  0.00     0.001 A 
ATOM     85  C   UNL     1      15.410  -2.686  -8.157  1.00  0.00     0.001 A 
ATOM     86  C   UNL     1      16.231  -2.391  -9.246  1.00  0.00     0.000 A 
ENDBRANCH  68  81
ENDBRANCH  42  43
ENDBRANCH  35  37
ENDBRANCH  34  35
ENDBRANCH   1  34
TORSDOF 12
