REMARK SMILES O=C(OCCOC(=O)c1cncc(Oc2cc(F)ccc2F)n1)c1ccc(-c2c3nc(c(-c4ccccc4)c4ccc([nH]4)c(-c4ccccc4)c4nc(c(-c5ccccc5)c5ccc2[nH]5)C=C4)C=C3)cc1
REMARK SMILES IDX 4 1 3 2 2 3 1 4 24 5 25 6 71 7 26 8 70 9 27 10 28 11 29 12
REMARK SMILES IDX 64 13 30 14 69 15 63 16 65 17 31 18 68 19 62 20 61 21 32 23
REMARK SMILES IDX 54 24 39 25 53 26 40 27 43 28 52 29 66 30 41 31 42 32 51 34
REMARK SMILES IDX 67 35 44 36 33 37 34 38 38 39 35 40 37 41 36 42 55 43 56 44
REMARK SMILES IDX 60 45 57 46 59 47 58 48 45 49 46 50 50 51 47 52 49 53 48 54
REMARK SMILES IDX 5 55 6 56 7 57 8 58 9 59 10 60 23 61 11 62 13 63 12 64 14 65
REMARK SMILES IDX 15 66 16 67 21 68 17 69 20 70 22 71 18 72 19 73
REMARK H PARENT 65 22 43 33
REMARK Flexibility Score: inf
ROOT
ATOM      1  C   UNL     1       4.323  -1.228   0.996  1.00  0.00     0.275 C 
ENDROOT
BRANCH   1   2
ATOM      2  O   UNL     1       3.319  -0.226   1.208  1.00  0.00    -0.458 OA
BRANCH   2   3
ATOM      3  C   UNL     1       3.186   0.988   0.629  1.00  0.00     0.338 C 
ATOM      4  O   UNL     1       2.443   1.813   1.158  1.00  0.00    -0.246 OA
BRANCH   3   5
ATOM      5  C   UNL     1       3.793   1.352  -0.695  1.00  0.00     0.060 A 
ATOM      6  C   UNL     1       4.979   0.866  -1.251  1.00  0.00     0.016 A 
ATOM      7  C   UNL     1       3.080   2.308  -1.436  1.00  0.00     0.016 A 
ATOM      8  C   UNL     1       5.418   1.285  -2.514  1.00  0.00     0.010 A 
ATOM      9  C   UNL     1       3.497   2.721  -2.702  1.00  0.00     0.010 A 
ATOM     10  C   UNL     1       4.686   2.222  -3.241  1.00  0.00    -0.014 A 
BRANCH  10  11
ATOM     11  C   UNL     1       5.239   2.823  -4.473  1.00  0.00     0.031 A 
ATOM     12  C   UNL     1       5.786   4.216  -4.394  1.00  0.00     0.074 A 
ATOM     13  C   UNL     1       5.230   2.157  -5.641  1.00  0.00     0.049 A 
ATOM     14  N   UNL     1       6.268   4.971  -5.344  1.00  0.00    -0.248 NA
ATOM     15  C   UNL     1       5.797   4.838  -3.059  1.00  0.00     0.031 C 
ATOM     16  C   UNL     1       4.774   0.783  -5.821  1.00  0.00     0.029 A 
ATOM     17  N   UNL     1       5.582   2.559  -6.903  1.00  0.00    -0.354 N 
ATOM     18  C   UNL     1       6.651   6.149  -4.720  1.00  0.00     0.074 A 
ATOM     19  C   UNL     1       6.283   6.038  -3.327  1.00  0.00     0.031 C 
ATOM     20  C   UNL     1       4.797   0.477  -7.128  1.00  0.00     0.029 A 
ATOM     21  C   UNL     1       5.278   1.635  -7.874  1.00  0.00     0.049 A 
ATOM     22  H   UNL     1       6.011   3.424  -7.096  1.00  0.00     0.167 HD
ATOM     23  C   UNL     1       7.279   7.220  -5.257  1.00  0.00     0.031 A 
ATOM     24  C   UNL     1       5.357   1.724  -9.215  1.00  0.00     0.031 A 
ATOM     25  C   UNL     1       7.603   7.331  -6.651  1.00  0.00     0.049 A 
ATOM     26  C   UNL     1       5.947   2.968  -9.817  1.00  0.00     0.074 A 
ATOM     27  C   UNL     1       8.255   8.356  -7.310  1.00  0.00     0.029 A 
ATOM     28  N   UNL     1       7.271   6.380  -7.607  1.00  0.00    -0.354 N 
ATOM     29  N   UNL     1       6.374   4.050  -9.210  1.00  0.00    -0.248 NA
ATOM     30  C   UNL     1       6.103   2.994 -11.277  1.00  0.00     0.031 C 
ATOM     31  C   UNL     1       8.264   8.052  -8.675  1.00  0.00     0.029 A 
ATOM     32  C   UNL     1       7.673   6.810  -8.858  1.00  0.00     0.049 A 
ATOM     33  H   UNL     1       6.817   5.527  -7.422  1.00  0.00     0.167 HD
ATOM     34  C   UNL     1       6.896   4.865 -10.204  1.00  0.00     0.074 A 
ATOM     35  C   UNL     1       6.718   4.156 -11.457  1.00  0.00     0.031 C 
ATOM     36  C   UNL     1       7.487   6.079 -10.088  1.00  0.00     0.031 A 
BRANCH  23  37
ATOM     37  C   UNL     1       7.603   8.347  -4.319  1.00  0.00    -0.014 A 
ATOM     38  C   UNL     1       8.562   8.194  -3.301  1.00  0.00     0.009 A 
ATOM     39  C   UNL     1       6.895   9.553  -4.408  1.00  0.00     0.009 A 
ATOM     40  C   UNL     1       8.756   9.202  -2.354  1.00  0.00     0.001 A 
ATOM     41  C   UNL     1       7.114  10.572  -3.478  1.00  0.00     0.001 A 
ATOM     42  C   UNL     1       8.030  10.389  -2.443  1.00  0.00     0.000 A 
ENDBRANCH  23  37
BRANCH  24  43
ATOM     43  C   UNL     1       4.868   0.601 -10.058  1.00  0.00    -0.014 A 
ATOM     44  C   UNL     1       5.763  -0.248 -10.725  1.00  0.00     0.009 A 
ATOM     45  C   UNL     1       3.490   0.350 -10.166  1.00  0.00     0.009 A 
ATOM     46  C   UNL     1       5.287  -1.316 -11.493  1.00  0.00     0.001 A 
ATOM     47  C   UNL     1       3.018  -0.730 -10.917  1.00  0.00     0.001 A 
ATOM     48  C   UNL     1       3.917  -1.559 -11.584  1.00  0.00     0.000 A 
ENDBRANCH  24  43
BRANCH  36  49
ATOM     49  C   UNL     1       8.034   6.704 -11.338  1.00  0.00    -0.014 A 
ATOM     50  C   UNL     1       7.191   7.288 -12.293  1.00  0.00     0.009 A 
ATOM     51  C   UNL     1       9.426   6.788 -11.509  1.00  0.00     0.009 A 
ATOM     52  C   UNL     1       7.732   7.938 -13.403  1.00  0.00     0.001 A 
ATOM     53  C   UNL     1       9.964   7.461 -12.605  1.00  0.00     0.001 A 
ATOM     54  C   UNL     1       9.116   8.032 -13.553  1.00  0.00     0.000 A 
ENDBRANCH  36  49
ENDBRANCH  10  11
ENDBRANCH   3   5
ENDBRANCH   2   3
ENDBRANCH   1   2
BRANCH   1  55
ATOM     55  C   UNL     1       3.954  -2.262  -0.070  1.00  0.00     0.275 C 
BRANCH  55  56
ATOM     56  O   UNL     1       3.439  -1.686  -1.283  1.00  0.00    -0.457 OA
BRANCH  56  57
ATOM     57  C   UNL     1       2.076  -1.577  -1.352  1.00  0.00     0.358 C 
ATOM     58  O   UNL     1       1.285  -1.957  -0.520  1.00  0.00    -0.244 OA
BRANCH  57  59
ATOM     59  C   UNL     1       1.716  -0.874  -2.610  1.00  0.00     0.170 A 
ATOM     60  C   UNL     1       2.263  -1.303  -3.811  1.00  0.00     0.147 A 
ATOM     61  N   UNL     1       0.859   0.185  -2.528  1.00  0.00    -0.203 NA
ATOM     62  N   UNL     1       1.991  -0.693  -4.990  1.00  0.00    -0.257 NA
ATOM     63  C   UNL     1       0.605   0.807  -3.706  1.00  0.00     0.238 A 
ATOM     64  C   UNL     1       1.165   0.381  -4.905  1.00  0.00     0.179 A 
BRANCH  63  65
ATOM     65  O   UNL     1      -0.163   1.969  -3.767  1.00  0.00    -0.434 OA
BRANCH  65  66
ATOM     66  C   UNL     1      -0.811   2.340  -2.617  1.00  0.00     0.168 A 
ATOM     67  C   UNL     1      -0.305   3.398  -1.865  1.00  0.00     0.089 A 
ATOM     68  C   UNL     1      -2.022   1.751  -2.258  1.00  0.00     0.166 A 
ATOM     69  C   UNL     1      -0.963   3.782  -0.702  1.00  0.00     0.127 A 
ATOM     70  C   UNL     1      -2.697   2.163  -1.110  1.00  0.00     0.046 A 
ATOM     71  F   UNL     1      -2.569   0.806  -3.036  1.00  0.00    -0.203 F 
ATOM     72  F   UNL     1      -0.450   4.766   0.048  1.00  0.00    -0.207 F 
ATOM     73  C   UNL     1      -2.152   3.171  -0.314  1.00  0.00     0.042 A 
ENDBRANCH  65  66
ENDBRANCH  63  65
ENDBRANCH  57  59
ENDBRANCH  56  57
ENDBRANCH  55  56
ENDBRANCH   1  55
TORSDOF 13
