REMARK SMILES [NH3+]CC1([C@H](O)C(=O)OCCOC(=O)c2ccc(-c3c4nc(c(-c5ccccc5)c5ccc([nH]5)c(-c5ccccc5)c5nc(c(-c6ccccc6)c6ccc3[nH]6)C=C5)C=C4)cc2)Cc2ccccc2C1
REMARK SMILES IDX 9 1 8 2 6 3 7 4 4 5 3 6 62 7 69 8 63 9 68 10 64 11 67 12
REMARK SMILES IDX 65 13 66 14 2 15 1 16 5 20 10 22 11 23 12 24 13 25 14 26
REMARK SMILES IDX 15 27 61 28 16 29 60 30 17 31 18 32 19 33 54 34 20 35 59 36
REMARK SMILES IDX 53 37 55 38 21 39 58 40 52 41 51 42 22 44 44 45 29 46 43 47
REMARK SMILES IDX 30 48 33 49 42 50 56 51 31 52 32 53 41 55 57 56 34 57 23 58
REMARK SMILES IDX 24 59 28 60 25 61 27 62 26 63 45 64 46 65 50 66 47 67 49 68
REMARK SMILES IDX 48 69 35 70 36 71 40 72 37 73 39 74 38 75
REMARK H PARENT 1 17 1 18 1 19 5 21 55 43 33 54
REMARK Flexibility Score: inf
ROOT
ATOM      1  C   UNL     1       2.276   1.384   1.879  1.00  0.00     0.274 C 
ENDROOT
BRANCH   1   2
ATOM      2  O   UNL     1       2.059   0.325   0.930  1.00  0.00    -0.460 OA
BRANCH   2   3
ATOM      3  C   UNL     1       2.917  -0.730   1.008  1.00  0.00     0.335 C 
ATOM      4  O   UNL     1       3.830  -0.839   1.820  1.00  0.00    -0.249 OA
BRANCH   3   5
ATOM      5  C   UNL     1       2.534  -1.848   0.014  1.00  0.00     0.236 C 
BRANCH   5   6
ATOM      6  C   UNL     1       3.368  -1.888  -1.302  1.00  0.00     0.064 C 
ATOM      7  C   UNL     1       4.899  -1.802  -1.015  1.00  0.00     0.052 C 
ATOM      8  C   UNL     1       3.070  -0.634  -2.180  1.00  0.00     0.052 C 
ATOM      9  C   UNL     1       5.121  -0.320  -1.004  1.00  0.00    -0.044 A 
ATOM     10  C   UNL     1       4.078   0.343  -1.658  1.00  0.00    -0.044 A 
ATOM     11  C   UNL     1       6.138   0.383  -0.384  1.00  0.00     0.004 A 
ATOM     12  C   UNL     1       4.030   1.725  -1.711  1.00  0.00     0.004 A 
ATOM     13  C   UNL     1       6.085   1.778  -0.410  1.00  0.00     0.000 A 
ATOM     14  C   UNL     1       5.039   2.444  -1.069  1.00  0.00     0.000 A 
BRANCH   6  15
ATOM     15  C   UNL     1       3.035  -3.165  -2.116  1.00  0.00     0.269 C 
BRANCH  15  16
ATOM     16  N   UNL     1       3.289  -4.434  -1.433  1.00  0.00    -0.357 N 
ATOM     17  H   UNL     1       3.039  -5.208  -2.050  1.00  0.00     0.344 HD
ATOM     18  H   UNL     1       2.727  -4.481  -0.583  1.00  0.00     0.344 HD
ATOM     19  H   UNL     1       4.278  -4.498  -1.191  1.00  0.00     0.344 HD
ENDBRANCH  15  16
ENDBRANCH   6  15
ENDBRANCH   5   6
BRANCH   5  20
ATOM     20  O   UNL     1       1.133  -1.877  -0.276  1.00  0.00    -0.381 OA
ATOM     21  H   UNL     1       0.886  -1.073  -0.758  1.00  0.00     0.211 HD
ENDBRANCH   5  20
ENDBRANCH   3   5
ENDBRANCH   2   3
ENDBRANCH   1   2
BRANCH   1  22
ATOM     22  C   UNL     1       1.379   1.235   3.116  1.00  0.00     0.275 C 
BRANCH  22  23
ATOM     23  O   UNL     1       1.752   0.114   3.943  1.00  0.00    -0.458 OA
BRANCH  23  24
ATOM     24  C   UNL     1       1.218  -1.074   3.570  1.00  0.00     0.338 C 
ATOM     25  O   UNL     1       0.434  -1.267   2.652  1.00  0.00    -0.246 OA
BRANCH  24  26
ATOM     26  C   UNL     1       1.867  -2.188   4.291  1.00  0.00     0.060 A 
ATOM     27  C   UNL     1       2.217  -3.303   3.524  1.00  0.00     0.016 A 
ATOM     28  C   UNL     1       2.095  -2.188   5.669  1.00  0.00     0.016 A 
ATOM     29  C   UNL     1       2.797  -4.415   4.114  1.00  0.00     0.010 A 
ATOM     30  C   UNL     1       2.661  -3.322   6.272  1.00  0.00     0.010 A 
ATOM     31  C   UNL     1       3.004  -4.443   5.497  1.00  0.00    -0.014 A 
BRANCH  31  32
ATOM     32  C   UNL     1       3.492  -5.709   6.091  1.00  0.00     0.031 A 
ATOM     33  C   UNL     1       2.514  -6.646   6.737  1.00  0.00     0.074 A 
ATOM     34  C   UNL     1       4.776  -6.074   5.925  1.00  0.00     0.049 A 
ATOM     35  N   UNL     1       2.717  -7.840   7.233  1.00  0.00    -0.248 NA
ATOM     36  C   UNL     1       1.120  -6.184   6.827  1.00  0.00     0.031 C 
ATOM     37  C   UNL     1       5.800  -5.278   5.247  1.00  0.00     0.029 A 
ATOM     38  N   UNL     1       5.428  -7.227   6.283  1.00  0.00    -0.354 N 
ATOM     39  C   UNL     1       1.482  -8.268   7.703  1.00  0.00     0.074 A 
ATOM     40  C   UNL     1       0.539  -7.199   7.452  1.00  0.00     0.031 C 
ATOM     41  C   UNL     1       6.946  -5.978   5.215  1.00  0.00     0.029 A 
ATOM     42  C   UNL     1       6.746  -7.253   5.899  1.00  0.00     0.049 A 
ATOM     43  H   UNL     1       4.992  -7.964   6.768  1.00  0.00     0.167 HD
ATOM     44  C   UNL     1       1.162  -9.446   8.290  1.00  0.00     0.031 A 
ATOM     45  C   UNL     1       7.688  -8.197   6.085  1.00  0.00     0.031 A 
ATOM     46  C   UNL     1       2.101 -10.506   8.543  1.00  0.00     0.049 A 
ATOM     47  C   UNL     1       7.319  -9.469   6.796  1.00  0.00     0.074 A 
ATOM     48  C   UNL     1       1.877 -11.733   9.144  1.00  0.00     0.029 A 
ATOM     49  N   UNL     1       3.446 -10.464   8.209  1.00  0.00    -0.354 N 
ATOM     50  N   UNL     1       6.151  -9.854   7.248  1.00  0.00    -0.248 NA
ATOM     51  C   UNL     1       8.402 -10.437   7.018  1.00  0.00     0.031 C 
ATOM     52  C   UNL     1       3.097 -12.414   9.216  1.00  0.00     0.029 A 
ATOM     53  C   UNL     1       4.070 -11.633   8.611  1.00  0.00     0.049 A 
ATOM     54  H   UNL     1       3.891  -9.714   7.753  1.00  0.00     0.167 HD
ATOM     55  C   UNL     1       6.354 -11.114   7.796  1.00  0.00     0.074 A 
ATOM     56  C   UNL     1       7.752 -11.438   7.595  1.00  0.00     0.031 C 
ATOM     57  C   UNL     1       5.465 -11.930   8.414  1.00  0.00     0.031 A 
BRANCH  44  58
ATOM     58  C   UNL     1      -0.260  -9.622   8.742  1.00  0.00    -0.014 A 
ATOM     59  C   UNL     1      -1.300  -9.834   7.824  1.00  0.00     0.009 A 
ATOM     60  C   UNL     1      -0.558  -9.590  10.113  1.00  0.00     0.009 A 
ATOM     61  C   UNL     1      -2.617  -9.976   8.270  1.00  0.00     0.001 A 
ATOM     62  C   UNL     1      -1.871  -9.758  10.557  1.00  0.00     0.001 A 
ATOM     63  C   UNL     1      -2.900  -9.941   9.635  1.00  0.00     0.000 A 
ENDBRANCH  44  58
BRANCH  45  64
ATOM     64  C   UNL     1       9.078  -7.965   5.612  1.00  0.00    -0.014 A 
ATOM     65  C   UNL     1       9.612  -8.711   4.551  1.00  0.00     0.009 A 
ATOM     66  C   UNL     1       9.883  -6.998   6.235  1.00  0.00     0.009 A 
ATOM     67  C   UNL     1      10.932  -8.508   4.139  1.00  0.00     0.001 A 
ATOM     68  C   UNL     1      11.192  -6.778   5.802  1.00  0.00     0.001 A 
ATOM     69  C   UNL     1      11.718  -7.539   4.760  1.00  0.00     0.000 A 
ENDBRANCH  45  64
BRANCH  57  70
ATOM     70  C   UNL     1       5.982 -13.255   8.898  1.00  0.00    -0.014 A 
ATOM     71  C   UNL     1       6.829 -13.341  10.014  1.00  0.00     0.009 A 
ATOM     72  C   UNL     1       5.606 -14.434   8.236  1.00  0.00     0.009 A 
ATOM     73  C   UNL     1       7.322 -14.579  10.432  1.00  0.00     0.001 A 
ATOM     74  C   UNL     1       6.078 -15.672   8.673  1.00  0.00     0.001 A 
ATOM     75  C   UNL     1       6.944 -15.743   9.763  1.00  0.00     0.000 A 
ENDBRANCH  57  70
ENDBRANCH  31  32
ENDBRANCH  24  26
ENDBRANCH  23  24
ENDBRANCH  22  23
ENDBRANCH   1  22
TORSDOF 15
