REMARK SMILES O=C(OCCOC(=O)c1ccc([C@@H]2CC(O)=Nc3c2ncn3-c2cccc(Cl)c2)cc1)c1ccc(-c2c3nc(c(-c4ccccc4)c4ccc([nH]4)c(-c4ccccc4)c4nc(c(-c5ccccc5)c5ccc2[nH]5)C=C4)C=C3)cc1
REMARK SMILES IDX 4 1 3 2 2 3 1 4 32 5 33 6 79 7 34 8 78 9 35 10 36 11 37 12
REMARK SMILES IDX 72 13 38 14 77 15 71 16 73 17 39 18 76 19 70 20 69 21 40 23
REMARK SMILES IDX 62 24 47 25 61 26 48 27 51 28 60 29 74 30 49 31 50 32 59 34
REMARK SMILES IDX 75 35 52 36 41 37 42 38 46 39 43 40 45 41 44 42 63 43 64 44
REMARK SMILES IDX 68 45 65 46 67 47 66 48 53 49 54 50 58 51 55 52 57 53 56 54
REMARK SMILES IDX 5 55 6 56 7 57 8 58 9 59 10 60 31 61 11 62 30 63 12 64 13 65
REMARK SMILES IDX 14 66 19 67 15 68 18 69 20 70 17 71 22 72 21 73 16 74 23 76
REMARK SMILES IDX 24 77 29 78 25 79 27 80 26 81 28 82
REMARK H PARENT 73 22 51 33 16 75
REMARK Flexibility Score: inf
ROOT
ATOM      1  C   UNL     1       4.562  -0.297   0.878  1.00  0.00     0.275 C 
ENDROOT
BRANCH   1   2
ATOM      2  O   UNL     1       3.345   0.316   1.354  1.00  0.00    -0.458 OA
BRANCH   2   3
ATOM      3  C   UNL     1       2.299   0.484   0.516  1.00  0.00     0.338 C 
ATOM      4  O   UNL     1       1.352  -0.284   0.442  1.00  0.00    -0.246 OA
BRANCH   3   5
ATOM      5  C   UNL     1       2.241   1.852  -0.053  1.00  0.00     0.060 A 
ATOM      6  C   UNL     1       3.381   2.581  -0.401  1.00  0.00     0.016 A 
ATOM      7  C   UNL     1       0.970   2.413  -0.243  1.00  0.00     0.016 A 
ATOM      8  C   UNL     1       3.251   3.892  -0.847  1.00  0.00     0.010 A 
ATOM      9  C   UNL     1       0.839   3.718  -0.700  1.00  0.00     0.010 A 
ATOM     10  C   UNL     1       1.980   4.473  -0.961  1.00  0.00    -0.014 A 
BRANCH  10  11
ATOM     11  C   UNL     1       1.881   5.830  -1.494  1.00  0.00     0.031 A 
ATOM     12  C   UNL     1       2.421   6.004  -2.873  1.00  0.00     0.074 A 
ATOM     13  C   UNL     1       1.228   6.853  -0.904  1.00  0.00     0.049 A 
ATOM     14  N   UNL     1       3.439   6.708  -3.242  1.00  0.00    -0.248 NA
ATOM     15  C   UNL     1       1.795   5.239  -3.959  1.00  0.00     0.031 C 
ATOM     16  C   UNL     1       0.369   6.847   0.281  1.00  0.00     0.029 A 
ATOM     17  N   UNL     1       1.134   8.143  -1.335  1.00  0.00    -0.354 N 
ATOM     18  C   UNL     1       3.513   6.599  -4.630  1.00  0.00     0.074 A 
ATOM     19  C   UNL     1       2.534   5.611  -5.005  1.00  0.00     0.031 C 
ATOM     20  C   UNL     1      -0.335   8.005   0.331  1.00  0.00     0.029 A 
ATOM     21  C   UNL     1       0.137   8.891  -0.721  1.00  0.00     0.049 A 
ATOM     22  H   UNL     1       1.726   8.516  -2.027  1.00  0.00     0.167 HD
ATOM     23  C   UNL     1       4.261   7.454  -5.384  1.00  0.00     0.031 A 
ATOM     24  C   UNL     1      -0.281  10.132  -1.083  1.00  0.00     0.031 A 
ATOM     25  C   UNL     1       5.188   8.205  -4.578  1.00  0.00     0.049 A 
ATOM     26  C   UNL     1       0.793  10.745  -1.898  1.00  0.00     0.074 A 
ATOM     27  C   UNL     1       6.234   7.876  -3.738  1.00  0.00     0.029 A 
ATOM     28  N   UNL     1       4.840   9.494  -4.249  1.00  0.00    -0.354 N 
ATOM     29  N   UNL     1       1.945  11.099  -1.407  1.00  0.00    -0.248 NA
ATOM     30  C   UNL     1       0.757  10.543  -3.338  1.00  0.00     0.031 C 
ATOM     31  C   UNL     1       6.077   8.746  -2.618  1.00  0.00     0.029 A 
ATOM     32  C   UNL     1       5.011   9.603  -2.893  1.00  0.00     0.049 A 
ATOM     33  H   UNL     1       4.530  10.197  -4.864  1.00  0.00     0.167 HD
ATOM     34  C   UNL     1       2.864  10.724  -2.374  1.00  0.00     0.074 A 
ATOM     35  C   UNL     1       2.069  10.465  -3.576  1.00  0.00     0.031 C 
ATOM     36  C   UNL     1       4.143  10.382  -2.043  1.00  0.00     0.031 A 
BRANCH  23  37
ATOM     37  C   UNL     1       3.910   7.889  -6.785  1.00  0.00    -0.014 A 
ATOM     38  C   UNL     1       4.770   8.785  -7.450  1.00  0.00     0.009 A 
ATOM     39  C   UNL     1       2.640   7.693  -7.357  1.00  0.00     0.009 A 
ATOM     40  C   UNL     1       4.346   9.516  -8.566  1.00  0.00     0.001 A 
ATOM     41  C   UNL     1       2.227   8.392  -8.496  1.00  0.00     0.001 A 
ATOM     42  C   UNL     1       3.069   9.328  -9.081  1.00  0.00     0.000 A 
ENDBRANCH  23  37
BRANCH  24  43
ATOM     43  C   UNL     1      -1.623  10.749  -1.003  1.00  0.00    -0.014 A 
ATOM     44  C   UNL     1      -1.784  12.141  -1.120  1.00  0.00     0.009 A 
ATOM     45  C   UNL     1      -2.773   9.948  -1.118  1.00  0.00     0.009 A 
ATOM     46  C   UNL     1      -3.040  12.705  -1.387  1.00  0.00     0.001 A 
ATOM     47  C   UNL     1      -4.027  10.511  -1.384  1.00  0.00     0.001 A 
ATOM     48  C   UNL     1      -4.158  11.889  -1.535  1.00  0.00     0.000 A 
ENDBRANCH  24  43
BRANCH  36  49
ATOM     49  C   UNL     1       4.604  10.596  -0.624  1.00  0.00    -0.014 A 
ATOM     50  C   UNL     1       3.974  10.018   0.493  1.00  0.00     0.009 A 
ATOM     51  C   UNL     1       5.814  11.277  -0.424  1.00  0.00     0.009 A 
ATOM     52  C   UNL     1       4.525  10.148   1.773  1.00  0.00     0.001 A 
ATOM     53  C   UNL     1       6.375  11.388   0.849  1.00  0.00     0.001 A 
ATOM     54  C   UNL     1       5.727  10.830   1.949  1.00  0.00     0.000 A 
ENDBRANCH  36  49
ENDBRANCH  10  11
ENDBRANCH   3   5
ENDBRANCH   2   3
ENDBRANCH   1   2
BRANCH   1  55
ATOM     55  C   UNL     1       4.430  -1.425  -0.144  1.00  0.00     0.275 C 
BRANCH  55  56
ATOM     56  O   UNL     1       3.935  -0.909  -1.389  1.00  0.00    -0.458 OA
BRANCH  56  57
ATOM     57  C   UNL     1       2.853  -1.555  -1.899  1.00  0.00     0.338 C 
ATOM     58  O   UNL     1       2.290  -2.536  -1.474  1.00  0.00    -0.246 OA
BRANCH  57  59
ATOM     59  C   UNL     1       2.432  -0.813  -3.097  1.00  0.00     0.060 A 
ATOM     60  C   UNL     1       1.275  -0.036  -3.055  1.00  0.00     0.016 A 
ATOM     61  C   UNL     1       3.184  -0.919  -4.265  1.00  0.00     0.016 A 
ATOM     62  C   UNL     1       0.887   0.676  -4.190  1.00  0.00     0.005 A 
ATOM     63  C   UNL     1       2.771  -0.237  -5.409  1.00  0.00     0.005 A 
ATOM     64  C   UNL     1       1.628   0.585  -5.384  1.00  0.00    -0.038 A 
BRANCH  64  65
ATOM     65  C   UNL     1       1.097   1.293  -6.621  1.00  0.00     0.081 C 
ATOM     66  C   UNL     1       0.354   0.308  -7.546  1.00  0.00     0.111 C 
ATOM     67  C   UNL     1       2.235   1.943  -7.315  1.00  0.00     0.093 A 
ATOM     68  C   UNL     1       1.017   0.059  -8.892  1.00  0.00     0.188 C 
ATOM     69  C   UNL     1       2.552   1.645  -8.622  1.00  0.00     0.164 A 
ATOM     70  N   UNL     1       3.110   2.841  -6.772  1.00  0.00    -0.238 NA
ATOM     71  N   UNL     1       2.000   0.708  -9.429  1.00  0.00    -0.198 NA
ATOM     72  N   UNL     1       3.677   2.399  -8.901  1.00  0.00    -0.283 N 
ATOM     73  C   UNL     1       3.987   3.062  -7.730  1.00  0.00     0.206 A 
BRANCH  68  74
ATOM     74  O   UNL     1       0.453  -0.943  -9.596  1.00  0.00    -0.496 OA
ATOM     75  H   UNL     1      -0.260  -1.429  -9.230  1.00  0.00     0.294 HD
ENDBRANCH  68  74
BRANCH  72  76
ATOM     76  C   UNL     1       4.377   2.502 -10.125  1.00  0.00     0.050 A 
ATOM     77  C   UNL     1       5.775   2.593 -10.125  1.00  0.00     0.027 A 
ATOM     78  C   UNL     1       3.665   2.549 -11.330  1.00  0.00     0.047 A 
ATOM     79  C   UNL     1       6.460   2.703 -11.336  1.00  0.00     0.004 A 
ATOM     80  C   UNL     1       4.359   2.715 -12.527  1.00  0.00     0.043 A 
ATOM     81  C   UNL     1       5.752   2.779 -12.536  1.00  0.00     0.020 A 
ATOM     82  Cl  UNL     1       3.490   2.878 -14.003  1.00  0.00    -0.084 Cl
ENDBRANCH  72  76
ENDBRANCH  64  65
ENDBRANCH  57  59
ENDBRANCH  56  57
ENDBRANCH  55  56
ENDBRANCH   1  55
TORSDOF 14
