REMARK SMILES C[C@@H](C(=O)OCCOC(=O)c1ccc(-c2c3nc(c(-c4ccccc4)c4ccc([nH]4)c(-c4ccccc4)c4nc(c(-c5ccccc5)c5ccc2[nH]5)C=C4)C=C3)cc1)c1ccc(-c2ccn(C(F)F)c(=O)c2)cc1
REMARK SMILES IDX 6 1 5 2 3 3 4 4 2 5 1 6 59 7 60 8 74 9 61 10 73 11 62 12
REMARK SMILES IDX 63 13 64 14 72 15 65 16 70 17 66 18 71 19 67 20 68 21 69 22
REMARK SMILES IDX 7 23 8 24 9 25 10 26 11 27 12 28 58 29 13 30 57 31 14 32
REMARK SMILES IDX 15 33 16 34 51 35 17 36 56 37 50 38 52 39 18 40 55 41 49 42
REMARK SMILES IDX 48 43 19 45 41 46 26 47 40 48 27 49 30 50 39 51 53 52 28 53
REMARK SMILES IDX 29 54 38 56 54 57 31 58 20 59 21 60 25 61 22 62 24 63 23 64
REMARK SMILES IDX 42 65 43 66 47 67 44 68 46 69 45 70 32 71 33 72 37 73 34 74
REMARK SMILES IDX 36 75 35 76
REMARK H PARENT 52 44 30 55
REMARK Flexibility Score: inf
ROOT
ATOM      1  C   UNL     1       2.550  -3.490   1.420  1.00  0.00     0.274 C 
ENDROOT
BRANCH   1   2
ATOM      2  O   UNL     1       2.059  -2.387   0.627  1.00  0.00    -0.462 OA
BRANCH   2   3
ATOM      3  C   UNL     1       0.965  -2.612  -0.154  1.00  0.00     0.313 C 
ATOM      4  O   UNL     1       0.391  -3.694  -0.213  1.00  0.00    -0.252 OA
BRANCH   3   5
ATOM      5  C   UNL     1       0.580  -1.380  -1.005  1.00  0.00     0.126 C 
ATOM      6  C   UNL     1       1.301  -0.112  -0.522  1.00  0.00     0.025 C 
BRANCH   5   7
ATOM      7  C   UNL     1      -0.942  -1.205  -1.161  1.00  0.00    -0.034 A 
ATOM      8  C   UNL     1      -1.632  -0.057  -0.732  1.00  0.00     0.005 A 
ATOM      9  C   UNL     1      -1.705  -2.227  -1.755  1.00  0.00     0.005 A 
ATOM     10  C   UNL     1      -3.027   0.045  -0.850  1.00  0.00     0.009 A 
ATOM     11  C   UNL     1      -3.101  -2.133  -1.859  1.00  0.00     0.009 A 
ATOM     12  C   UNL     1      -3.776  -0.998  -1.399  1.00  0.00    -0.018 A 
BRANCH  12  13
ATOM     13  C   UNL     1      -5.254  -0.955  -1.381  1.00  0.00    -0.011 A 
ATOM     14  C   UNL     1      -6.002  -1.036  -0.142  1.00  0.00     0.027 A 
ATOM     15  C   UNL     1      -5.935  -0.890  -2.538  1.00  0.00     0.080 A 
ATOM     16  C   UNL     1      -7.334  -1.144  -0.144  1.00  0.00     0.095 A 
ATOM     17  C   UNL     1      -7.429  -0.961  -2.557  1.00  0.00     0.255 A 
ATOM     18  N   UNL     1      -8.044  -1.130  -1.327  1.00  0.00    -0.258 N 
ATOM     19  O   UNL     1      -8.003  -0.890  -3.639  1.00  0.00    -0.269 OA
BRANCH  18  20
ATOM     20  C   UNL     1      -9.476  -1.299  -1.306  1.00  0.00     0.451 C 
ATOM     21  F   UNL     1     -10.101  -0.224  -1.848  1.00  0.00    -0.185 F 
ATOM     22  F   UNL     1      -9.841  -2.394  -2.021  1.00  0.00    -0.185 F 
ENDBRANCH  18  20
ENDBRANCH  12  13
ENDBRANCH   5   7
ENDBRANCH   3   5
ENDBRANCH   2   3
ENDBRANCH   1   2
BRANCH   1  23
ATOM     23  C   UNL     1       2.245  -3.267   2.900  1.00  0.00     0.275 C 
BRANCH  23  24
ATOM     24  O   UNL     1       0.833  -3.409   3.127  1.00  0.00    -0.458 OA
BRANCH  24  25
ATOM     25  C   UNL     1       0.168  -2.280   3.455  1.00  0.00     0.338 C 
ATOM     26  O   UNL     1       0.621  -1.171   3.668  1.00  0.00    -0.246 OA
BRANCH  25  27
ATOM     27  C   UNL     1      -1.271  -2.570   3.415  1.00  0.00     0.060 A 
ATOM     28  C   UNL     1      -1.897  -2.556   2.174  1.00  0.00     0.016 A 
ATOM     29  C   UNL     1      -2.014  -2.762   4.580  1.00  0.00     0.016 A 
ATOM     30  C   UNL     1      -3.275  -2.690   2.089  1.00  0.00     0.010 A 
ATOM     31  C   UNL     1      -3.403  -2.932   4.489  1.00  0.00     0.010 A 
ATOM     32  C   UNL     1      -4.051  -2.864   3.243  1.00  0.00    -0.014 A 
BRANCH  32  33
ATOM     33  C   UNL     1      -5.534  -2.861   3.118  1.00  0.00     0.031 A 
ATOM     34  C   UNL     1      -6.322  -1.677   3.618  1.00  0.00     0.074 A 
ATOM     35  C   UNL     1      -6.163  -3.809   2.396  1.00  0.00     0.049 A 
ATOM     36  N   UNL     1      -7.613  -1.456   3.549  1.00  0.00    -0.248 NA
ATOM     37  C   UNL     1      -5.558  -0.578   4.229  1.00  0.00     0.031 C 
ATOM     38  C   UNL     1      -5.506  -4.916   1.700  1.00  0.00     0.029 A 
ATOM     39  N   UNL     1      -7.488  -3.943   2.057  1.00  0.00    -0.354 N 
ATOM     40  C   UNL     1      -7.816  -0.219   4.151  1.00  0.00     0.074 A 
ATOM     41  C   UNL     1      -6.519   0.272   4.559  1.00  0.00     0.031 C 
ATOM     42  C   UNL     1      -6.411  -5.553   0.940  1.00  0.00     0.029 A 
ATOM     43  C   UNL     1      -7.725  -4.955   1.157  1.00  0.00     0.049 A 
ATOM     44  H   UNL     1      -8.199  -3.369   2.424  1.00  0.00     0.167 HD
ATOM     45  C   UNL     1      -8.976   0.450   4.350  1.00  0.00     0.031 A 
ATOM     46  C   UNL     1      -8.869  -5.359   0.574  1.00  0.00     0.031 A 
ATOM     47  C   UNL     1     -10.271  -0.007   3.926  1.00  0.00     0.049 A 
ATOM     48  C   UNL     1     -10.159  -4.674   0.923  1.00  0.00     0.074 A 
ATOM     49  C   UNL     1     -11.503   0.592   4.125  1.00  0.00     0.029 A 
ATOM     50  N   UNL     1     -10.501  -1.169   3.214  1.00  0.00    -0.354 N 
ATOM     51  N   UNL     1     -10.351  -3.557   1.582  1.00  0.00    -0.248 NA
ATOM     52  C   UNL     1     -11.396  -5.328   0.469  1.00  0.00     0.031 C 
ATOM     53  C   UNL     1     -12.484  -0.225   3.552  1.00  0.00     0.029 A 
ATOM     54  C   UNL     1     -11.854  -1.306   2.958  1.00  0.00     0.049 A 
ATOM     55  H   UNL     1      -9.805  -1.806   2.930  1.00  0.00     0.167 HD
ATOM     56  C   UNL     1     -11.729  -3.381   1.626  1.00  0.00     0.074 A 
ATOM     57  C   UNL     1     -12.321  -4.478   0.891  1.00  0.00     0.031 C 
ATOM     58  C   UNL     1     -12.439  -2.399   2.230  1.00  0.00     0.031 A 
BRANCH  45  59
ATOM     59  C   UNL     1      -8.903   1.734   5.122  1.00  0.00    -0.014 A 
ATOM     60  C   UNL     1      -8.485   2.930   4.521  1.00  0.00     0.009 A 
ATOM     61  C   UNL     1      -9.297   1.745   6.470  1.00  0.00     0.009 A 
ATOM     62  C   UNL     1      -8.440   4.111   5.266  1.00  0.00     0.001 A 
ATOM     63  C   UNL     1      -9.269   2.930   7.205  1.00  0.00     0.001 A 
ATOM     64  C   UNL     1      -8.834   4.110   6.605  1.00  0.00     0.000 A 
ENDBRANCH  45  59
BRANCH  46  65
ATOM     65  C   UNL     1      -8.872  -6.493  -0.388  1.00  0.00    -0.014 A 
ATOM     66  C   UNL     1      -9.218  -6.279  -1.731  1.00  0.00     0.009 A 
ATOM     67  C   UNL     1      -8.576  -7.798   0.037  1.00  0.00     0.009 A 
ATOM     68  C   UNL     1      -9.283  -7.352  -2.623  1.00  0.00     0.001 A 
ATOM     69  C   UNL     1      -8.613  -8.863  -0.864  1.00  0.00     0.001 A 
ATOM     70  C   UNL     1      -8.976  -8.641  -2.191  1.00  0.00     0.000 A 
ENDBRANCH  46  65
BRANCH  58  71
ATOM     71  C   UNL     1     -13.935  -2.449   2.106  1.00  0.00    -0.014 A 
ATOM     72  C   UNL     1     -14.691  -3.377   2.838  1.00  0.00     0.009 A 
ATOM     73  C   UNL     1     -14.598  -1.530   1.278  1.00  0.00     0.009 A 
ATOM     74  C   UNL     1     -16.083  -3.399   2.723  1.00  0.00     0.001 A 
ATOM     75  C   UNL     1     -15.991  -1.539   1.185  1.00  0.00     0.001 A 
ATOM     76  C   UNL     1     -16.732  -2.478   1.901  1.00  0.00     0.000 A 
ENDBRANCH  58  71
ENDBRANCH  32  33
ENDBRANCH  25  27
ENDBRANCH  24  25
ENDBRANCH  23  24
ENDBRANCH   1  23
TORSDOF 14
