REMARK SMILES O=C(OCCOC(=O)[C@H]1c2[nH]cnc2CC[N@@H+]1Cc1ccoc1)c1ccc(-c2c3nc(c(-c4ccccc4)c4ccc([nH]4)c(-c4ccccc4)c4nc(c(-c5ccccc5)c5ccc2[nH]5)C=C4)C=C3)cc1
REMARK SMILES IDX 4 1 3 2 2 3 1 4 24 5 25 6 71 7 26 8 70 9 27 10 28 11 29 12
REMARK SMILES IDX 64 13 30 14 69 15 63 16 65 17 31 18 68 19 62 20 61 21 32 23
REMARK SMILES IDX 54 24 39 25 53 26 40 27 43 28 52 29 66 30 41 31 42 32 51 34
REMARK SMILES IDX 67 35 44 36 33 37 34 38 38 39 35 40 37 41 36 42 55 43 56 44
REMARK SMILES IDX 60 45 57 46 59 47 58 48 45 49 46 50 50 51 47 52 49 53 48 54
REMARK SMILES IDX 5 55 6 56 7 57 8 58 9 59 10 60 17 61 11 62 14 63 16 64 12 66
REMARK SMILES IDX 13 68 15 69 18 70 19 71 20 72 23 73 21 74 22 75
REMARK H PARENT 65 22 43 33 17 65 11 67
REMARK Flexibility Score: inf
ROOT
ATOM      1  C   UNL     1       4.278  -1.517   1.015  1.00  0.00     0.275 C 
ENDROOT
BRANCH   1   2
ATOM      2  O   UNL     1       3.385  -0.912   1.968  1.00  0.00    -0.458 OA
BRANCH   2   3
ATOM      3  C   UNL     1       2.453  -0.053   1.531  1.00  0.00     0.338 C 
ATOM      4  O   UNL     1       1.289  -0.081   1.908  1.00  0.00    -0.246 OA
BRANCH   3   5
ATOM      5  C   UNL     1       2.852   0.940   0.539  1.00  0.00     0.060 A 
ATOM      6  C   UNL     1       4.182   2.055   0.661  1.00  0.00     0.016 A 
ATOM      7  C   UNL     1       1.599   1.290  -0.662  1.00  0.00     0.016 A 
ATOM      8  C   UNL     1       4.336   3.504  -0.327  1.00  0.00     0.010 A 
ATOM      9  C   UNL     1       1.870   2.808  -1.896  1.00  0.00     0.010 A 
ATOM     10  C   UNL     1       3.154   3.972  -1.541  1.00  0.00    -0.014 A 
BRANCH  10  11
ATOM     11  C   UNL     1       2.597   5.476  -1.481  1.00  0.00     0.031 A 
ATOM     12  C   UNL     1       2.923   5.991  -2.802  1.00  0.00     0.074 A 
ATOM     13  C   UNL     1       1.852   6.297  -0.625  1.00  0.00     0.049 A 
ATOM     14  N   UNL     1       4.106   6.411  -3.091  1.00  0.00    -0.248 NA
ATOM     15  C   UNL     1       2.068   5.692  -3.958  1.00  0.00     0.031 C 
ATOM     16  C   UNL     1       1.177   6.013   0.669  1.00  0.00     0.029 A 
ATOM     17  N   UNL     1       1.476   7.652  -0.755  1.00  0.00    -0.354 N 
ATOM     18  C   UNL     1       4.009   6.773  -4.409  1.00  0.00     0.074 A 
ATOM     19  C   UNL     1       2.914   6.000  -4.947  1.00  0.00     0.031 C 
ATOM     20  C   UNL     1       0.329   7.012   1.044  1.00  0.00     0.029 A 
ATOM     21  C   UNL     1       0.479   8.143   0.151  1.00  0.00     0.049 A 
ATOM     22  H   UNL     1       1.881   8.234  -1.438  1.00  0.00     0.167 HD
ATOM     23  C   UNL     1       4.504   7.979  -4.786  1.00  0.00     0.031 A 
ATOM     24  C   UNL     1      -0.108   9.391   0.251  1.00  0.00     0.031 A 
ATOM     25  C   UNL     1       5.258   8.599  -3.709  1.00  0.00     0.049 A 
ATOM     26  C   UNL     1       0.846  10.334  -0.343  1.00  0.00     0.074 A 
ATOM     27  C   UNL     1       6.335   8.245  -2.918  1.00  0.00     0.029 A 
ATOM     28  N   UNL     1       4.571   9.566  -3.019  1.00  0.00    -0.354 N 
ATOM     29  N   UNL     1       1.972  10.657   0.211  1.00  0.00    -0.248 NA
ATOM     30  C   UNL     1       0.707  10.630  -1.751  1.00  0.00     0.031 C 
ATOM     31  C   UNL     1       6.088   8.815  -1.633  1.00  0.00     0.029 A 
ATOM     32  C   UNL     1       4.932   9.589  -1.699  1.00  0.00     0.049 A 
ATOM     33  H   UNL     1       3.903  10.168  -3.422  1.00  0.00     0.167 HD
ATOM     34  C   UNL     1       2.849  10.647  -0.854  1.00  0.00     0.074 A 
ATOM     35  C   UNL     1       2.001  10.765  -2.043  1.00  0.00     0.031 C 
ATOM     36  C   UNL     1       4.123  10.199  -0.665  1.00  0.00     0.031 A 
BRANCH  23  37
ATOM     37  C   UNL     1       3.873   8.789  -5.881  1.00  0.00    -0.014 A 
ATOM     38  C   UNL     1       4.573   9.897  -6.373  1.00  0.00     0.009 A 
ATOM     39  C   UNL     1       2.530   8.647  -6.289  1.00  0.00     0.009 A 
ATOM     40  C   UNL     1       3.958  10.811  -7.234  1.00  0.00     0.001 A 
ATOM     41  C   UNL     1       1.926   9.530  -7.181  1.00  0.00     0.001 A 
ATOM     42  C   UNL     1       2.640  10.622  -7.645  1.00  0.00     0.000 A 
ENDBRANCH  23  37
BRANCH  24  43
ATOM     43  C   UNL     1      -1.431   9.996   0.688  1.00  0.00    -0.014 A 
ATOM     44  C   UNL     1      -1.590  11.404   0.853  1.00  0.00     0.009 A 
ATOM     45  C   UNL     1      -2.618   9.266   0.550  1.00  0.00     0.009 A 
ATOM     46  C   UNL     1      -2.851  12.040   0.802  1.00  0.00     0.001 A 
ATOM     47  C   UNL     1      -3.880   9.901   0.500  1.00  0.00     0.001 A 
ATOM     48  C   UNL     1      -3.998  11.286   0.602  1.00  0.00     0.000 A 
ENDBRANCH  24  43
BRANCH  36  49
ATOM     49  C   UNL     1       4.671  10.201   0.748  1.00  0.00    -0.014 A 
ATOM     50  C   UNL     1       4.130   9.484   1.833  1.00  0.00     0.009 A 
ATOM     51  C   UNL     1       5.856  10.922   0.963  1.00  0.00     0.009 A 
ATOM     52  C   UNL     1       4.751   9.511   3.091  1.00  0.00     0.001 A 
ATOM     53  C   UNL     1       6.486  10.930   2.208  1.00  0.00     0.001 A 
ATOM     54  C   UNL     1       5.932  10.229   3.275  1.00  0.00     0.000 A 
ENDBRANCH  36  49
ENDBRANCH  10  11
ENDBRANCH   3   5
ENDBRANCH   2   3
ENDBRANCH   1   2
BRANCH   1  55
ATOM     55  C   UNL     1       3.567  -2.105  -0.229  1.00  0.00     0.274 C 
BRANCH  55  56
ATOM     56  O   UNL     1       3.439  -1.045  -1.206  1.00  0.00    -0.457 OA
BRANCH  56  57
ATOM     57  C   UNL     1       2.376  -0.894  -2.035  1.00  0.00     0.371 C 
ATOM     58  O   UNL     1       1.565  -1.778  -2.286  1.00  0.00    -0.245 OA
BRANCH  57  59
ATOM     59  C   UNL     1       2.282   0.626  -2.547  1.00  0.00     0.345 C 
ATOM     60  C   UNL     1       0.479   1.025  -2.640  1.00  0.00     0.108 A 
ATOM     61  N   UNL     1       3.336   1.693  -1.381  1.00  0.00    -0.314 N 
ATOM     62  N   UNL     1      -0.498   0.144  -3.042  1.00  0.00    -0.343 N 
ATOM     63  C   UNL     1      -0.326   2.010  -1.814  1.00  0.00     0.074 A 
ATOM     64  C   UNL     1       2.223   2.909  -0.052  1.00  0.00     0.270 C 
ATOM     65  H   UNL     1       3.755   1.596  -0.456  1.00  0.00     0.349 HD
ATOM     66  C   UNL     1      -1.715   0.638  -2.619  1.00  0.00     0.197 A 
ATOM     67  H   UNL     1      -0.354  -0.691  -3.544  1.00  0.00     0.167 HD
ATOM     68  N   UNL     1      -1.653   1.772  -1.953  1.00  0.00    -0.241 NA
ATOM     69  C   UNL     1       0.302   3.128  -0.503  1.00  0.00     0.120 C 
BRANCH  61  70
ATOM     70  C   UNL     1       4.659   1.760  -2.221  1.00  0.00     0.303 C 
BRANCH  70  71
ATOM     71  C   UNL     1       5.833   0.919  -1.717  1.00  0.00     0.044 A 
ATOM     72  C   UNL     1       6.075  -0.495  -1.811  1.00  0.00     0.051 A 
ATOM     73  C   UNL     1       7.031   1.400  -1.214  1.00  0.00     0.204 A 
ATOM     74  C   UNL     1       7.218  -0.765  -1.094  1.00  0.00     0.195 A 
ATOM     75  O   UNL     1       7.832   0.397  -0.769  1.00  0.00    -0.472 OA
ENDBRANCH  70  71
ENDBRANCH  61  70
ENDBRANCH  57  59
ENDBRANCH  56  57
ENDBRANCH  55  56
ENDBRANCH   1  55
TORSDOF 13
