REMARK SMILES CC1(C)CCC[C@@](C)(CCC(=O)OCCOC(=O)c2ccc(-c3c4nc(c(-c5ccccc5)c5ccc([nH]5)c(-c5ccccc5)c5nc(c(-c6ccccc6)c6ccc3[nH]6)C=C5)C=C4)cc2)C1=O
REMARK SMILES IDX 14 1 13 2 11 3 12 4 10 5 9 6 7 7 1 8 2 9 3 10 4 11 67 12
REMARK SMILES IDX 5 13 68 14 6 15 8 16 15 17 16 18 17 19 18 20 19 21 20 22
REMARK SMILES IDX 66 23 21 24 65 25 22 26 23 27 24 28 59 29 25 30 64 31 58 32
REMARK SMILES IDX 60 33 26 34 63 35 57 36 56 37 27 39 49 40 34 41 48 42 35 43
REMARK SMILES IDX 38 44 47 45 61 46 36 47 37 48 46 50 62 51 39 52 28 53 29 54
REMARK SMILES IDX 33 55 30 56 32 57 31 58 50 59 51 60 55 61 52 62 54 63 53 64
REMARK SMILES IDX 40 65 41 66 45 67 42 68 44 69 43 70
REMARK H PARENT 60 38 38 49
REMARK Flexibility Score: inf
ROOT
ATOM      1  C   UNL     1       3.758   6.202   3.330  1.00  0.00     0.274 C 
ENDROOT
BRANCH   1   2
ATOM      2  O   UNL     1       3.512   5.243   2.286  1.00  0.00    -0.462 OA
BRANCH   2   3
ATOM      3  C   UNL     1       4.535   4.436   1.913  1.00  0.00     0.305 C 
ATOM      4  O   UNL     1       5.678   4.501   2.343  1.00  0.00    -0.252 OA
BRANCH   3   5
ATOM      5  C   UNL     1       4.089   3.420   0.881  1.00  0.00     0.124 C 
BRANCH   5   6
ATOM      6  C   UNL     1       2.760   2.736   1.239  1.00  0.00     0.026 C 
BRANCH   6   7
ATOM      7  C   UNL     1       1.456   3.258   0.562  1.00  0.00     0.027 C 
ATOM      8  C   UNL     1       1.319  -0.041  -0.407  1.00  0.00     0.019 C 
ATOM      9  C   UNL     1       0.435   1.167  -0.757  1.00  0.00     0.024 C 
ATOM     10  C   UNL     1      -0.110   0.956  -2.184  1.00  0.00     0.019 C 
ATOM     11  C   UNL     1      -0.759   1.269   0.202  1.00  0.00     0.014 C 
ATOM     12  C   UNL     1       1.276   2.460  -0.747  1.00  0.00     0.144 C 
ATOM     13  C   UNL     1      -0.349   1.712   1.598  1.00  0.00     0.002 C 
ATOM     14  O   UNL     1       1.919   2.791  -1.751  1.00  0.00    -0.298 OA
ATOM     15  C   UNL     1       0.249   3.105   1.523  1.00  0.00     0.014 C 
ATOM     16  C   UNL     1       1.487   4.757   0.185  1.00  0.00     0.020 C 
ENDBRANCH   6   7
ENDBRANCH   5   6
ENDBRANCH   3   5
ENDBRANCH   2   3
ENDBRANCH   1   2
BRANCH   1  17
ATOM     17  C   UNL     1       3.158   5.702   4.643  1.00  0.00     0.275 C 
BRANCH  17  18
ATOM     18  O   UNL     1       3.961   4.625   5.159  1.00  0.00    -0.458 OA
BRANCH  18  19
ATOM     19  C   UNL     1       3.435   3.387   5.062  1.00  0.00     0.338 C 
ATOM     20  O   UNL     1       2.315   3.068   4.690  1.00  0.00    -0.246 OA
BRANCH  19  21
ATOM     21  C   UNL     1       4.484   2.417   5.391  1.00  0.00     0.060 A 
ATOM     22  C   UNL     1       5.065   1.668   4.363  1.00  0.00     0.016 A 
ATOM     23  C   UNL     1       4.866   2.230   6.719  1.00  0.00     0.016 A 
ATOM     24  C   UNL     1       6.041   0.721   4.664  1.00  0.00     0.010 A 
ATOM     25  C   UNL     1       5.847   1.285   7.018  1.00  0.00     0.010 A 
ATOM     26  C   UNL     1       6.433   0.520   5.994  1.00  0.00    -0.014 A 
BRANCH  26  27
ATOM     27  C   UNL     1       7.428  -0.522   6.333  1.00  0.00     0.031 A 
ATOM     28  C   UNL     1       6.974  -1.797   6.981  1.00  0.00     0.074 A 
ATOM     29  C   UNL     1       8.732  -0.313   6.081  1.00  0.00     0.049 A 
ATOM     30  N   UNL     1       7.689  -2.788   7.447  1.00  0.00    -0.248 NA
ATOM     31  C   UNL     1       5.521  -1.977   7.127  1.00  0.00     0.031 C 
ATOM     32  C   UNL     1       9.288   0.868   5.420  1.00  0.00     0.029 A 
ATOM     33  N   UNL     1       9.827  -1.090   6.362  1.00  0.00    -0.354 N 
ATOM     34  C   UNL     1       6.777  -3.702   7.957  1.00  0.00     0.074 A 
ATOM     35  C   UNL     1       5.458  -3.138   7.763  1.00  0.00     0.031 C 
ATOM     36  C   UNL     1      10.623   0.738   5.347  1.00  0.00     0.029 A 
ATOM     37  C   UNL     1      11.017  -0.510   5.995  1.00  0.00     0.049 A 
ATOM     38  H   UNL     1       9.767  -1.976   6.785  1.00  0.00     0.167 HD
ATOM     39  C   UNL     1       7.018  -4.903   8.535  1.00  0.00     0.031 A 
ATOM     40  C   UNL     1      12.282  -0.927   6.186  1.00  0.00     0.031 A 
ATOM     41  C   UNL     1       8.331  -5.453   8.739  1.00  0.00     0.049 A 
ATOM     42  C   UNL     1      12.526  -2.228   6.900  1.00  0.00     0.074 A 
ATOM     43  C   UNL     1       8.681  -6.666   9.307  1.00  0.00     0.029 A 
ATOM     44  N   UNL     1       9.513  -4.820   8.386  1.00  0.00    -0.354 N 
ATOM     45  N   UNL     1      11.656  -3.088   7.371  1.00  0.00    -0.248 NA
ATOM     46  C   UNL     1      13.929  -2.613   7.109  1.00  0.00     0.031 C 
ATOM     47  C   UNL     1      10.078  -6.744   9.343  1.00  0.00     0.029 A 
ATOM     48  C   UNL     1      10.596  -5.604   8.747  1.00  0.00     0.049 A 
ATOM     49  H   UNL     1       9.574  -3.943   7.943  1.00  0.00     0.167 HD
ATOM     50  C   UNL     1      12.404  -4.126   7.912  1.00  0.00     0.074 A 
ATOM     51  C   UNL     1      13.798  -3.795   7.696  1.00  0.00     0.031 C 
ATOM     52  C   UNL     1      11.976  -5.254   8.530  1.00  0.00     0.031 A 
BRANCH  39  53
ATOM     53  C   UNL     1       5.828  -5.681   9.024  1.00  0.00    -0.014 A 
ATOM     54  C   UNL     1       4.940  -6.297   8.129  1.00  0.00     0.009 A 
ATOM     55  C   UNL     1       5.602  -5.811  10.403  1.00  0.00     0.009 A 
ATOM     56  C   UNL     1       3.828  -6.996   8.605  1.00  0.00     0.001 A 
ATOM     57  C   UNL     1       4.505  -6.532  10.877  1.00  0.00     0.001 A 
ATOM     58  C   UNL     1       3.614  -7.115   9.978  1.00  0.00     0.000 A 
ENDBRANCH  39  53
BRANCH  40  59
ATOM     59  C   UNL     1      13.418  -0.095   5.713  1.00  0.00    -0.014 A 
ATOM     60  C   UNL     1      14.206  -0.512   4.631  1.00  0.00     0.009 A 
ATOM     61  C   UNL     1      13.722   1.122   6.344  1.00  0.00     0.009 A 
ATOM     62  C   UNL     1      15.286   0.262   4.202  1.00  0.00     0.001 A 
ATOM     63  C   UNL     1      14.785   1.908   5.896  1.00  0.00     0.001 A 
ATOM     64  C   UNL     1      15.572   1.473   4.831  1.00  0.00     0.000 A 
ENDBRANCH  40  59
BRANCH  52  65
ATOM     65  C   UNL     1      13.027  -6.223   8.989  1.00  0.00    -0.014 A 
ATOM     66  C   UNL     1      13.829  -5.953  10.108  1.00  0.00     0.009 A 
ATOM     67  C   UNL     1      13.193  -7.441   8.310  1.00  0.00     0.009 A 
ATOM     68  C   UNL     1      14.797  -6.870  10.520  1.00  0.00     0.001 A 
ATOM     69  C   UNL     1      14.143  -8.368   8.741  1.00  0.00     0.001 A 
ATOM     70  C   UNL     1      14.950  -8.078   9.839  1.00  0.00     0.000 A 
ENDBRANCH  52  65
ENDBRANCH  26  27
ENDBRANCH  19  21
ENDBRANCH  18  19
ENDBRANCH  17  18
ENDBRANCH   1  17
TORSDOF 13
