REMARK SMILES C[C@H]1[C@@H](C(=O)OCCOC(=O)c2ccc(-c3c4nc(c(-c5ccccc5)c5ccc([nH]5)c(-c5ccccc5)c5nc(c(-c6ccccc6)c6ccc3[nH]6)C=C5)C=C4)cc2)CCN1C(=O)N1CCNC(=O)C1(C)C
REMARK SMILES IDX 7 1 6 2 4 3 5 4 3 5 1 6 2 7 62 8 60 9 61 10 63 11 64 12
REMARK SMILES IDX 65 13 66 14 71 15 67 16 69 17 72 18 73 19 68 20 70 21 8 23
REMARK SMILES IDX 9 24 10 25 11 26 12 27 13 28 59 29 14 30 58 31 15 32 16 33
REMARK SMILES IDX 17 34 52 35 18 36 57 37 51 38 53 39 19 40 56 41 50 42 49 43
REMARK SMILES IDX 20 45 42 46 27 47 41 48 28 49 31 50 40 51 54 52 29 53 30 54
REMARK SMILES IDX 39 56 55 57 32 58 21 59 22 60 26 61 23 62 25 63 24 64 43 65
REMARK SMILES IDX 44 66 48 67 45 68 47 69 46 70 33 71 34 72 38 73 35 74 37 75
REMARK SMILES IDX 36 76
REMARK H PARENT 68 22 53 44 31 55
REMARK Flexibility Score: inf
ROOT
ATOM      1  C   UNL     1       1.915   2.869  -2.642  1.00  0.00     0.274 C 
ENDROOT
BRANCH   1   2
ATOM      2  O   UNL     1       1.680   1.859  -1.640  1.00  0.00    -0.462 OA
BRANCH   2   3
ATOM      3  C   UNL     1       0.859   2.149  -0.612  1.00  0.00     0.311 C 
ATOM      4  O   UNL     1       0.307   3.236  -0.466  1.00  0.00    -0.252 OA
BRANCH   3   5
ATOM      5  C   UNL     1       0.641   1.010   0.370  1.00  0.00     0.123 C 
ATOM      6  C   UNL     1       2.235  -0.642  -0.926  1.00  0.00     0.032 C 
ATOM      7  C   UNL     1       1.454  -0.302   0.339  1.00  0.00     0.098 C 
ATOM      8  N   UNL     1       0.445  -1.343   0.591  1.00  0.00    -0.321 N 
ATOM      9  C   UNL     1      -0.837   0.569   0.401  1.00  0.00     0.039 C 
ATOM     10  C   UNL     1      -0.836  -0.914   0.098  1.00  0.00     0.122 C 
BRANCH   8  11
ATOM     11  C   UNL     1       0.652  -2.651   0.953  1.00  0.00     0.321 C 
ATOM     12  O   UNL     1      -0.129  -3.551   0.652  1.00  0.00    -0.248 OA
BRANCH  11  13
ATOM     13  N   UNL     1       1.833  -2.917   1.594  1.00  0.00    -0.309 N 
ATOM     14  C   UNL     1       2.708  -3.927   1.024  1.00  0.00     0.143 C 
ATOM     15  C   UNL     1       2.189  -2.425   2.953  1.00  0.00     0.118 C 
ATOM     16  C   UNL     1       4.145  -3.400   0.964  1.00  0.00     0.137 C 
ATOM     17  C   UNL     1       3.602  -1.801   2.837  1.00  0.00     0.245 C 
ATOM     18  C   UNL     1       1.186  -1.433   3.573  1.00  0.00     0.045 C 
ATOM     19  C   UNL     1       2.300  -3.603   3.950  1.00  0.00     0.045 C 
ATOM     20  N   UNL     1       4.491  -2.413   1.980  1.00  0.00    -0.352 N 
ATOM     21  O   UNL     1       4.009  -0.904   3.575  1.00  0.00    -0.272 OA
ATOM     22  H   UNL     1       5.440  -2.163   2.061  1.00  0.00     0.163 HD
ENDBRANCH  11  13
ENDBRANCH   8  11
ENDBRANCH   3   5
ENDBRANCH   2   3
ENDBRANCH   1   2
BRANCH   1  23
ATOM     23  C   UNL     1       1.233   2.481  -3.953  1.00  0.00     0.275 C 
BRANCH  23  24
ATOM     24  O   UNL     1      -0.183   2.714  -3.860  1.00  0.00    -0.458 OA
BRANCH  24  25
ATOM     25  C   UNL     1      -0.926   1.635  -3.534  1.00  0.00     0.338 C 
ATOM     26  O   UNL     1      -0.554   0.488  -3.363  1.00  0.00    -0.246 OA
BRANCH  25  27
ATOM     27  C   UNL     1      -2.311   2.065  -3.320  1.00  0.00     0.060 A 
ATOM     28  C   UNL     1      -2.653   2.618  -2.087  1.00  0.00     0.016 A 
ATOM     29  C   UNL     1      -3.284   1.816  -4.284  1.00  0.00     0.016 A 
ATOM     30  C   UNL     1      -3.987   2.837  -1.771  1.00  0.00     0.010 A 
ATOM     31  C   UNL     1      -4.614   2.139  -4.003  1.00  0.00     0.010 A 
ATOM     32  C   UNL     1      -4.980   2.630  -2.736  1.00  0.00    -0.014 A 
BRANCH  32  33
ATOM     33  C   UNL     1      -6.401   2.937  -2.436  1.00  0.00     0.031 A 
ATOM     34  C   UNL     1      -7.441   1.860  -2.543  1.00  0.00     0.074 A 
ATOM     35  C   UNL     1      -6.763   4.191  -2.101  1.00  0.00     0.049 A 
ATOM     36  N   UNL     1      -8.742   1.973  -2.599  1.00  0.00    -0.248 NA
ATOM     37  C   UNL     1      -6.951   0.473  -2.611  1.00  0.00     0.031 C 
ATOM     38  C   UNL     1      -5.849   5.317  -1.893  1.00  0.00     0.029 A 
ATOM     39  N   UNL     1      -8.006   4.731  -1.888  1.00  0.00    -0.354 N 
ATOM     40  C   UNL     1      -9.225   0.682  -2.773  1.00  0.00     0.074 A 
ATOM     41  C   UNL     1      -8.078  -0.201  -2.798  1.00  0.00     0.031 C 
ATOM     42  C   UNL     1      -6.559   6.406  -1.566  1.00  0.00     0.029 A 
ATOM     43  C   UNL     1      -7.977   6.082  -1.640  1.00  0.00     0.049 A 
ATOM     44  H   UNL     1      -8.837   4.203  -1.910  1.00  0.00     0.167 HD
ATOM     45  C   UNL     1     -10.509   0.278  -2.916  1.00  0.00     0.031 A 
ATOM     46  C   UNL     1      -8.976   6.978  -1.548  1.00  0.00     0.031 A 
ATOM     47  C   UNL     1     -11.643   1.162  -2.855  1.00  0.00     0.049 A 
ATOM     48  C   UNL     1     -10.387   6.518  -1.759  1.00  0.00     0.074 A 
ATOM     49  C   UNL     1     -12.986   0.857  -2.992  1.00  0.00     0.029 A 
ATOM     50  N   UNL     1     -11.562   2.526  -2.620  1.00  0.00    -0.354 N 
ATOM     51  N   UNL     1     -10.830   5.310  -2.007  1.00  0.00    -0.248 NA
ATOM     52  C   UNL     1     -11.433   7.548  -1.703  1.00  0.00     0.031 C 
ATOM     53  C   UNL     1     -13.717   2.043  -2.869  1.00  0.00     0.029 A 
ATOM     54  C   UNL     1     -12.831   3.079  -2.616  1.00  0.00     0.049 A 
ATOM     55  H   UNL     1     -10.727   3.027  -2.478  1.00  0.00     0.167 HD
ATOM     56  C   UNL     1     -12.206   5.430  -2.126  1.00  0.00     0.074 A 
ATOM     57  C   UNL     1     -12.527   6.827  -1.911  1.00  0.00     0.031 C 
ATOM     58  C   UNL     1     -13.123   4.470  -2.393  1.00  0.00     0.031 A 
BRANCH  45  59
ATOM     59  C   UNL     1     -10.752  -1.174  -3.206  1.00  0.00    -0.014 A 
ATOM     60  C   UNL     1     -10.641  -2.153  -2.208  1.00  0.00     0.009 A 
ATOM     61  C   UNL     1     -11.136  -1.562  -4.501  1.00  0.00     0.009 A 
ATOM     62  C   UNL     1     -10.883  -3.496  -2.509  1.00  0.00     0.001 A 
ATOM     63  C   UNL     1     -11.399  -2.901  -4.792  1.00  0.00     0.001 A 
ATOM     64  C   UNL     1     -11.265  -3.869  -3.798  1.00  0.00     0.000 A 
ENDBRANCH  45  59
BRANCH  46  65
ATOM     65  C   UNL     1      -8.658   8.409  -1.314  1.00  0.00    -0.014 A 
ATOM     66  C   UNL     1      -8.928   9.006  -0.075  1.00  0.00     0.009 A 
ATOM     67  C   UNL     1      -8.045   9.175  -2.320  1.00  0.00     0.009 A 
ATOM     68  C   UNL     1      -8.597  10.344   0.150  1.00  0.00     0.001 A 
ATOM     69  C   UNL     1      -7.691  10.503  -2.083  1.00  0.00     0.001 A 
ATOM     70  C   UNL     1      -7.972  11.089  -0.850  1.00  0.00     0.000 A 
ENDBRANCH  46  65
BRANCH  58  71
ATOM     71  C   UNL     1     -14.560   4.893  -2.425  1.00  0.00    -0.014 A 
ATOM     72  C   UNL     1     -15.098   5.542  -3.545  1.00  0.00     0.009 A 
ATOM     73  C   UNL     1     -15.394   4.592  -1.338  1.00  0.00     0.009 A 
ATOM     74  C   UNL     1     -16.446   5.901  -3.567  1.00  0.00     0.001 A 
ATOM     75  C   UNL     1     -16.745   4.936  -1.371  1.00  0.00     0.001 A 
ATOM     76  C   UNL     1     -17.269   5.595  -2.483  1.00  0.00     0.000 A 
ENDBRANCH  58  71
ENDBRANCH  32  33
ENDBRANCH  25  27
ENDBRANCH  24  25
ENDBRANCH  23  24
ENDBRANCH   1  23
TORSDOF 13
