REMARK SMILES C[C@@H](C(=O)OCCOC(=O)c1ccc(-c2c3nc(c(-c4ccccc4)c4ccc([nH]4)c(-c4ccccc4)c4nc(c(-c5ccccc5)c5ccc2[nH]5)C=C4)C=C3)cc1)N1C(=O)c2nccnc2C1=O
REMARK SMILES IDX 7 1 6 2 5 3 3 4 4 5 2 6 1 7 59 8 60 9 68 10 61 11 62 12
REMARK SMILES IDX 67 13 69 14 63 15 66 16 64 17 65 18 8 19 9 20 10 21 11 22
REMARK SMILES IDX 12 23 58 24 13 25 57 26 14 27 15 28 16 29 51 30 17 31 56 32
REMARK SMILES IDX 50 33 52 34 18 35 55 36 49 37 48 38 19 40 41 41 26 42 40 43
REMARK SMILES IDX 27 44 30 45 39 46 53 47 28 48 29 49 38 51 54 52 31 53 20 54
REMARK SMILES IDX 21 55 25 56 22 57 24 58 23 59 42 60 43 61 47 62 44 63 46 64
REMARK SMILES IDX 45 65 32 66 33 67 37 68 34 69 36 70 35 71
REMARK H PARENT 52 39 30 50
REMARK Flexibility Score: inf
ROOT
ATOM      1  C   UNL     1       2.280  -2.028  -3.794  1.00  0.00     0.275 C 
ENDROOT
BRANCH   1   2
ATOM      2  C   UNL     1       2.684  -0.590  -3.477  1.00  0.00     0.274 C 
BRANCH   2   3
ATOM      3  O   UNL     1       2.173  -0.186  -2.187  1.00  0.00    -0.461 OA
BRANCH   3   4
ATOM      4  C   UNL     1       1.078   0.625  -2.183  1.00  0.00     0.329 C 
ATOM      5  O   UNL     1       0.528   1.035  -3.199  1.00  0.00    -0.250 OA
BRANCH   4   6
ATOM      6  C   UNL     1       0.650   1.044  -0.762  1.00  0.00     0.201 C 
ATOM      7  C   UNL     1       1.239   0.150   0.328  1.00  0.00     0.044 C 
BRANCH   6   8
ATOM      8  N   UNL     1      -0.818   1.160  -0.689  1.00  0.00    -0.257 N 
ATOM      9  C   UNL     1      -1.699   0.200  -0.262  1.00  0.00     0.282 C 
ATOM     10  C   UNL     1      -1.492   2.273  -1.152  1.00  0.00     0.282 C 
ATOM     11  O   UNL     1      -1.458  -0.918   0.158  1.00  0.00    -0.267 OA
ATOM     12  C   UNL     1      -3.046   0.749  -0.434  1.00  0.00     0.160 A 
ATOM     13  C   UNL     1      -2.923   1.982  -1.014  1.00  0.00     0.160 A 
ATOM     14  O   UNL     1      -1.017   3.300  -1.586  1.00  0.00    -0.267 OA
ATOM     15  N   UNL     1      -4.221   0.120  -0.224  1.00  0.00    -0.247 NA
ATOM     16  N   UNL     1      -3.963   2.714  -1.458  1.00  0.00    -0.247 NA
ATOM     17  C   UNL     1      -5.291   0.844  -0.653  1.00  0.00     0.132 A 
ATOM     18  C   UNL     1      -5.165   2.100  -1.261  1.00  0.00     0.132 A 
ENDBRANCH   6   8
ENDBRANCH   4   6
ENDBRANCH   3   4
ENDBRANCH   2   3
ENDBRANCH   1   2
BRANCH   1  19
ATOM     19  O   UNL     1       0.854  -2.089  -3.957  1.00  0.00    -0.458 OA
BRANCH  19  20
ATOM     20  C   UNL     1       0.185  -2.857  -3.066  1.00  0.00     0.338 C 
ATOM     21  O   UNL     1       0.659  -3.582  -2.210  1.00  0.00    -0.246 OA
BRANCH  20  22
ATOM     22  C   UNL     1      -1.263  -2.666  -3.261  1.00  0.00     0.060 A 
ATOM     23  C   UNL     1      -1.789  -1.379  -3.277  1.00  0.00     0.016 A 
ATOM     24  C   UNL     1      -2.119  -3.764  -3.307  1.00  0.00     0.016 A 
ATOM     25  C   UNL     1      -3.165  -1.189  -3.217  1.00  0.00     0.010 A 
ATOM     26  C   UNL     1      -3.506  -3.563  -3.350  1.00  0.00     0.010 A 
ATOM     27  C   UNL     1      -4.053  -2.272  -3.244  1.00  0.00    -0.014 A 
BRANCH  27  28
ATOM     28  C   UNL     1      -5.524  -2.048  -3.076  1.00  0.00     0.031 A 
ATOM     29  C   UNL     1      -6.296  -2.815  -2.027  1.00  0.00     0.074 A 
ATOM     30  C   UNL     1      -6.182  -1.116  -3.798  1.00  0.00     0.049 A 
ATOM     31  N   UNL     1      -7.594  -2.929  -1.875  1.00  0.00    -0.248 NA
ATOM     32  C   UNL     1      -5.513  -3.561  -1.030  1.00  0.00     0.031 C 
ATOM     33  C   UNL     1      -5.585  -0.224  -4.794  1.00  0.00     0.029 A 
ATOM     34  N   UNL     1      -7.508  -0.745  -3.784  1.00  0.00    -0.354 N 
ATOM     35  C   UNL     1      -7.776  -3.837  -0.836  1.00  0.00     0.074 A 
ATOM     36  C   UNL     1      -6.459  -4.225  -0.381  1.00  0.00     0.031 C 
ATOM     37  C   UNL     1      -6.515   0.633  -5.237  1.00  0.00     0.029 A 
ATOM     38  C   UNL     1      -7.805   0.264  -4.670  1.00  0.00     0.049 A 
ATOM     39  H   UNL     1      -8.178  -1.162  -3.196  1.00  0.00     0.167 HD
ATOM     40  C   UNL     1      -8.934  -4.310  -0.314  1.00  0.00     0.031 A 
ATOM     41  C   UNL     1      -8.983   0.795  -5.048  1.00  0.00     0.031 A 
ATOM     42  C   UNL     1     -10.246  -3.867  -0.710  1.00  0.00     0.049 A 
ATOM     43  C   UNL     1     -10.256   0.235  -4.487  1.00  0.00     0.074 A 
ATOM     44  C   UNL     1     -11.479  -4.282  -0.233  1.00  0.00     0.029 A 
ATOM     45  N   UNL     1     -10.496  -2.887  -1.657  1.00  0.00    -0.354 N 
ATOM     46  N   UNL     1     -10.417  -0.702  -3.585  1.00  0.00    -0.248 NA
ATOM     47  C   UNL     1     -11.510   0.785  -5.020  1.00  0.00     0.031 C 
ATOM     48  C   UNL     1     -12.475  -3.578  -0.918  1.00  0.00     0.029 A 
ATOM     49  C   UNL     1     -11.861  -2.687  -1.782  1.00  0.00     0.049 A 
ATOM     50  H   UNL     1      -9.805  -2.404  -2.166  1.00  0.00     0.167 HD
ATOM     51  C   UNL     1     -11.790  -0.855  -3.445  1.00  0.00     0.074 A 
ATOM     52  C   UNL     1     -12.415   0.109  -4.326  1.00  0.00     0.031 C 
ATOM     53  C   UNL     1     -12.471  -1.728  -2.663  1.00  0.00     0.031 A 
BRANCH  40  54
ATOM     54  C   UNL     1      -8.844  -5.406   0.713  1.00  0.00    -0.014 A 
ATOM     55  C   UNL     1      -8.403  -5.165   2.023  1.00  0.00     0.009 A 
ATOM     56  C   UNL     1      -9.257  -6.704   0.367  1.00  0.00     0.009 A 
ATOM     57  C   UNL     1      -8.347  -6.207   2.953  1.00  0.00     0.001 A 
ATOM     58  C   UNL     1      -9.229  -7.736   1.306  1.00  0.00     0.001 A 
ATOM     59  C   UNL     1      -8.765  -7.489   2.596  1.00  0.00     0.000 A 
ENDBRANCH  40  54
BRANCH  41  60
ATOM     60  C   UNL     1      -9.015   1.866  -6.080  1.00  0.00    -0.014 A 
ATOM     61  C   UNL     1      -9.407   3.171  -5.748  1.00  0.00     0.009 A 
ATOM     62  C   UNL     1      -8.639   1.588  -7.405  1.00  0.00     0.009 A 
ATOM     63  C   UNL     1      -9.427   4.172  -6.722  1.00  0.00     0.001 A 
ATOM     64  C   UNL     1      -8.625   2.598  -8.368  1.00  0.00     0.001 A 
ATOM     65  C   UNL     1      -9.027   3.888  -8.027  1.00  0.00     0.000 A 
ENDBRANCH  41  60
BRANCH  53  66
ATOM     66  C   UNL     1     -13.970  -1.651  -2.702  1.00  0.00    -0.014 A 
ATOM     67  C   UNL     1     -14.694  -2.127  -3.807  1.00  0.00     0.009 A 
ATOM     68  C   UNL     1     -14.668  -1.115  -1.609  1.00  0.00     0.009 A 
ATOM     69  C   UNL     1     -16.087  -2.035  -3.829  1.00  0.00     0.001 A 
ATOM     70  C   UNL     1     -16.062  -1.048  -1.624  1.00  0.00     0.001 A 
ATOM     71  C   UNL     1     -16.770  -1.498  -2.737  1.00  0.00     0.000 A 
ENDBRANCH  53  66
ENDBRANCH  27  28
ENDBRANCH  20  22
ENDBRANCH  19  20
ENDBRANCH   1  19
TORSDOF 12
