REMARK SMILES Cc1ccc(-c2[nH]c3ccccc3c2[C@@H]2c3ccccc3C(=O)N2[C@H](C)C(=O)OCCOC(=O)c2ccc(-c3c4nc(c(-c5ccccc5)c5ccc([nH]5)c(-c5ccccc5)c5nc(c(-c6ccccc6)c6ccc3[nH]6)C=C5)C=C4)cc2)cc1
REMARK SMILES IDX 30 1 29 2 27 3 28 4 25 5 26 6 24 7 15 8 16 9 17 10 21 11
REMARK SMILES IDX 22 12 18 13 20 14 23 15 19 16 14 17 6 18 7 19 8 20 13 22
REMARK SMILES IDX 9 23 12 24 10 25 11 26 5 27 1 28 2 29 3 30 84 31 4 32 83 33
REMARK SMILES IDX 31 34 32 35 33 36 34 37 35 38 36 39 82 40 37 41 81 42 38 43
REMARK SMILES IDX 39 44 40 45 75 46 41 47 80 48 74 49 76 50 42 51 79 52 73 53
REMARK SMILES IDX 72 54 43 56 65 57 50 58 64 59 51 60 54 61 63 62 77 63 52 64
REMARK SMILES IDX 53 65 62 67 78 68 55 69 44 70 45 71 49 72 46 73 48 74 47 75
REMARK SMILES IDX 66 76 67 77 71 78 68 79 70 80 69 81 56 82 57 83 61 84 58 85
REMARK SMILES IDX 60 86 59 87
REMARK H PARENT 7 21 76 55 54 66
REMARK Flexibility Score: inf
ROOT
ATOM      1  C   UNL     1      -4.949  -4.517   2.382  1.00  0.00     0.274 C 
ENDROOT
BRANCH   1   2
ATOM      2  O   UNL     1      -4.417  -3.232   2.652  1.00  0.00    -0.461 OA
BRANCH   2   3
ATOM      3  C   UNL     1      -4.947  -2.138   2.042  1.00  0.00     0.328 C 
ATOM      4  O   UNL     1      -5.581  -2.177   0.995  1.00  0.00    -0.250 OA
BRANCH   3   5
ATOM      5  C   UNL     1      -4.776  -0.901   2.968  1.00  0.00     0.193 C 
ATOM      6  C   UNL     1      -4.006  -1.287   4.274  1.00  0.00     0.044 C 
BRANCH   5   7
ATOM      7  N   UNL     1      -4.320   0.426   2.566  1.00  0.00    -0.314 N 
ATOM      8  C   UNL     1      -4.089   1.013   1.233  1.00  0.00     0.151 C 
ATOM      9  C   UNL     1      -3.382   2.306   1.621  1.00  0.00    -0.008 A 
ATOM     10  C   UNL     1      -3.323   3.571   1.065  1.00  0.00     0.007 A 
ATOM     11  C   UNL     1      -3.123   2.288   2.990  1.00  0.00     0.045 A 
ATOM     12  C   UNL     1      -4.010   1.317   3.563  1.00  0.00     0.255 C 
ATOM     13  C   UNL     1      -2.839   4.655   1.850  1.00  0.00     0.000 A 
ATOM     14  C   UNL     1      -2.511   3.257   3.762  1.00  0.00     0.014 A 
ATOM     15  O   UNL     1      -4.391   1.360   4.723  1.00  0.00    -0.269 OA
ATOM     16  C   UNL     1      -2.363   4.482   3.163  1.00  0.00     0.001 A 
BRANCH   8  17
ATOM     17  C   UNL     1      -3.274   0.069   0.370  1.00  0.00     0.013 A 
ATOM     18  C   UNL     1      -3.550  -0.258  -0.966  1.00  0.00     0.052 A 
ATOM     19  N   UNL     1      -3.036  -1.518  -1.190  1.00  0.00    -0.354 N 
ATOM     20  C   UNL     1      -2.401  -1.996  -0.075  1.00  0.00     0.046 A 
ATOM     21  H   UNL     1      -3.115  -2.009  -2.039  1.00  0.00     0.167 HD
ATOM     22  C   UNL     1      -2.332  -0.936   0.826  1.00  0.00     0.006 A 
ATOM     23  C   UNL     1      -1.936  -3.286   0.218  1.00  0.00     0.027 A 
ATOM     24  C   UNL     1      -1.612  -1.145   2.020  1.00  0.00     0.011 A 
ATOM     25  C   UNL     1      -1.350  -3.492   1.469  1.00  0.00     0.002 A 
ATOM     26  C   UNL     1      -1.156  -2.429   2.344  1.00  0.00     0.001 A 
BRANCH  18  27
ATOM     27  C   UNL     1      -4.334   0.427  -1.994  1.00  0.00    -0.002 A 
ATOM     28  C   UNL     1      -6.617   2.595  -4.951  1.00  0.00     0.044 C 
ATOM     29  C   UNL     1      -5.793   1.817  -3.969  1.00  0.00    -0.051 A 
ATOM     30  C   UNL     1      -4.879   2.490  -3.156  1.00  0.00     0.004 A 
ATOM     31  C   UNL     1      -5.958   0.437  -3.803  1.00  0.00     0.004 A 
ATOM     32  C   UNL     1      -4.143   1.796  -2.196  1.00  0.00     0.010 A 
ATOM     33  C   UNL     1      -5.241  -0.252  -2.817  1.00  0.00     0.010 A 
ENDBRANCH  18  27
ENDBRANCH   8  17
ENDBRANCH   5   7
ENDBRANCH   3   5
ENDBRANCH   2   3
ENDBRANCH   1   2
BRANCH   1  34
ATOM     34  C   UNL     1      -4.844  -5.382   3.658  1.00  0.00     0.275 C 
BRANCH  34  35
ATOM     35  O   UNL     1      -4.798  -4.746   4.989  1.00  0.00    -0.458 OA
BRANCH  35  36
ATOM     36  C   UNL     1      -5.597  -3.876   5.664  1.00  0.00     0.338 C 
ATOM     37  O   UNL     1      -5.319  -3.483   6.790  1.00  0.00    -0.246 OA
BRANCH  36  38
ATOM     38  C   UNL     1      -6.746  -3.300   4.954  1.00  0.00     0.060 A 
ATOM     39  C   UNL     1      -7.060  -1.934   5.068  1.00  0.00     0.016 A 
ATOM     40  C   UNL     1      -7.439  -4.102   4.073  1.00  0.00     0.016 A 
ATOM     41  C   UNL     1      -7.939  -1.344   4.157  1.00  0.00     0.010 A 
ATOM     42  C   UNL     1      -8.152  -3.502   3.067  1.00  0.00     0.010 A 
ATOM     43  C   UNL     1      -8.425  -2.125   3.112  1.00  0.00    -0.014 A 
BRANCH  43  44
ATOM     44  C   UNL     1      -9.549  -1.754   2.267  1.00  0.00     0.031 A 
ATOM     45  C   UNL     1      -9.464  -0.982   1.016  1.00  0.00     0.074 A 
ATOM     46  C   UNL     1     -10.672  -2.369   2.703  1.00  0.00     0.049 A 
ATOM     47  N   UNL     1     -10.511  -0.567   0.394  1.00  0.00    -0.248 NA
ATOM     48  C   UNL     1      -8.233  -0.588   0.337  1.00  0.00     0.031 C 
ATOM     49  C   UNL     1     -11.974  -2.556   2.098  1.00  0.00     0.029 A 
ATOM     50  N   UNL     1     -10.842  -2.843   4.013  1.00  0.00    -0.354 N 
ATOM     51  C   UNL     1     -10.135  -0.104  -0.849  1.00  0.00     0.074 A 
ATOM     52  C   UNL     1      -8.695  -0.091  -0.821  1.00  0.00     0.031 C 
ATOM     53  C   UNL     1     -12.864  -2.772   3.090  1.00  0.00     0.029 A 
ATOM     54  C   UNL     1     -12.159  -2.576   4.358  1.00  0.00     0.049 A 
ATOM     55  H   UNL     1     -10.162  -3.279   4.576  1.00  0.00     0.167 HD
ATOM     56  C   UNL     1     -11.117   0.098  -1.773  1.00  0.00     0.031 A 
ATOM     57  C   UNL     1     -12.373  -1.560   5.248  1.00  0.00     0.031 A 
ATOM     58  C   UNL     1     -12.425   0.004  -1.136  1.00  0.00     0.049 A 
ATOM     59  C   UNL     1     -13.134  -0.436   4.591  1.00  0.00     0.074 A 
ATOM     60  C   UNL     1     -13.332  -1.033  -1.010  1.00  0.00     0.029 A 
ATOM     61  N   UNL     1     -12.758   0.952  -0.178  1.00  0.00    -0.354 N 
ATOM     62  N   UNL     1     -13.032  -0.116   3.329  1.00  0.00    -0.248 NA
ATOM     63  C   UNL     1     -14.117   0.369   5.305  1.00  0.00     0.031 C 
ATOM     64  C   UNL     1     -14.133  -0.757   0.133  1.00  0.00     0.029 A 
ATOM     65  C   UNL     1     -13.734   0.459   0.663  1.00  0.00     0.049 A 
ATOM     66  H   UNL     1     -12.354   1.848  -0.109  1.00  0.00     0.167 HD
ATOM     67  C   UNL     1     -13.977   0.827   3.032  1.00  0.00     0.074 A 
ATOM     68  C   UNL     1     -14.605   1.127   4.308  1.00  0.00     0.031 C 
ATOM     69  C   UNL     1     -14.215   1.274   1.766  1.00  0.00     0.031 A 
BRANCH  56  70
ATOM     70  C   UNL     1     -10.946   0.147  -3.270  1.00  0.00    -0.014 A 
ATOM     71  C   UNL     1     -12.044  -0.204  -4.087  1.00  0.00     0.009 A 
ATOM     72  C   UNL     1      -9.755   0.446  -3.942  1.00  0.00     0.009 A 
ATOM     73  C   UNL     1     -11.946  -0.312  -5.480  1.00  0.00     0.001 A 
ATOM     74  C   UNL     1      -9.647   0.324  -5.340  1.00  0.00     0.001 A 
ATOM     75  C   UNL     1     -10.738  -0.061  -6.108  1.00  0.00     0.000 A 
ENDBRANCH  56  70
BRANCH  57  76
ATOM     76  C   UNL     1     -11.309  -1.378   6.303  1.00  0.00    -0.014 A 
ATOM     77  C   UNL     1     -10.869  -2.508   7.037  1.00  0.00     0.009 A 
ATOM     78  C   UNL     1     -10.570  -0.195   6.447  1.00  0.00     0.009 A 
ATOM     79  C   UNL     1      -9.693  -2.485   7.799  1.00  0.00     0.001 A 
ATOM     80  C   UNL     1      -9.405  -0.165   7.238  1.00  0.00     0.001 A 
ATOM     81  C   UNL     1      -8.955  -1.313   7.892  1.00  0.00     0.000 A 
ENDBRANCH  57  76
BRANCH  69  82
ATOM     82  C   UNL     1     -14.995   2.515   1.428  1.00  0.00    -0.014 A 
ATOM     83  C   UNL     1     -15.158   3.587   2.314  1.00  0.00     0.009 A 
ATOM     84  C   UNL     1     -15.438   2.707   0.101  1.00  0.00     0.009 A 
ATOM     85  C   UNL     1     -15.782   4.771   1.909  1.00  0.00     0.001 A 
ATOM     86  C   UNL     1     -16.006   3.907  -0.322  1.00  0.00     0.001 A 
ATOM     87  C   UNL     1     -16.193   4.936   0.590  1.00  0.00     0.000 A 
ENDBRANCH  69  82
ENDBRANCH  43  44
ENDBRANCH  36  38
ENDBRANCH  35  36
ENDBRANCH  34  35
ENDBRANCH   1  34
TORSDOF 14
