REMARK SMILES O=C(OCCOC(=O)c1cc(Br)cc2c1N[C@H](c1cccc([N+](=O)[O-])c1)[C@H]1CC=C[C@@H]21)c1ccc(-c2c3nc(c(-c4ccccc4)c4ccc([nH]4)c(-c4ccccc4)c4nc(c(-c5ccccc5)c5ccc2[nH]5)C=C4)C=C3)cc1
REMARK SMILES IDX 4 1 3 2 2 3 1 4 32 5 33 6 79 7 34 8 78 9 35 10 36 11 37 12
REMARK SMILES IDX 72 13 38 14 77 15 71 16 73 17 39 18 76 19 70 20 69 21 40 23
REMARK SMILES IDX 62 24 47 25 61 26 48 27 51 28 60 29 74 30 49 31 50 32 59 34
REMARK SMILES IDX 75 35 52 36 41 37 42 38 46 39 43 40 45 41 44 42 63 43 64 44
REMARK SMILES IDX 68 45 65 46 67 47 66 48 53 49 54 50 58 51 55 52 57 53 56 54
REMARK SMILES IDX 5 55 6 56 7 57 8 58 9 59 10 60 15 61 11 62 14 63 16 64 12 65
REMARK SMILES IDX 13 66 31 67 17 68 27 70 30 71 28 72 29 73 18 74 19 75 26 76
REMARK SMILES IDX 20 77 22 78 21 79 23 80 24 81 25 82
REMARK H PARENT 73 22 51 33 16 69
REMARK Flexibility Score: inf
ROOT
ATOM      1  C   UNL     1       4.351  -0.087  -1.341  1.00  0.00     0.275 C 
ENDROOT
BRANCH   1   2
ATOM      2  O   UNL     1       3.141  -0.718  -0.928  1.00  0.00    -0.458 OA
BRANCH   2   3
ATOM      3  C   UNL     1       2.754  -0.972   0.342  1.00  0.00     0.338 C 
ATOM      4  O   UNL     1       1.610  -1.394   0.516  1.00  0.00    -0.246 OA
BRANCH   3   5
ATOM      5  C   UNL     1       3.601  -0.699   1.567  1.00  0.00     0.060 A 
ATOM      6  C   UNL     1       2.974  -0.952   2.792  1.00  0.00     0.016 A 
ATOM      7  C   UNL     1       4.867  -0.095   1.628  1.00  0.00     0.016 A 
ATOM      8  C   UNL     1       3.498  -0.435   3.984  1.00  0.00     0.010 A 
ATOM      9  C   UNL     1       5.439   0.345   2.823  1.00  0.00     0.010 A 
ATOM     10  C   UNL     1       4.719   0.271   4.003  1.00  0.00    -0.014 A 
BRANCH  10  11
ATOM     11  C   UNL     1       5.246   0.962   5.225  1.00  0.00     0.031 A 
ATOM     12  C   UNL     1       5.240   2.499   5.380  1.00  0.00     0.074 A 
ATOM     13  C   UNL     1       5.484   0.163   6.261  1.00  0.00     0.049 A 
ATOM     14  N   UNL     1       5.318   3.341   6.497  1.00  0.00    -0.248 NA
ATOM     15  C   UNL     1       4.501   3.137   3.995  1.00  0.00     0.031 C 
ATOM     16  C   UNL     1       5.393  -1.297   6.225  1.00  0.00     0.029 A 
ATOM     17  N   UNL     1       5.820   0.477   7.538  1.00  0.00    -0.354 N 
ATOM     18  C   UNL     1       4.533   4.876   6.292  1.00  0.00     0.074 A 
ATOM     19  C   UNL     1       3.687   4.681   4.341  1.00  0.00     0.031 C 
ATOM     20  C   UNL     1       5.664  -1.761   7.445  1.00  0.00     0.029 A 
ATOM     21  C   UNL     1       6.035  -0.634   8.296  1.00  0.00     0.049 A 
ATOM     22  H   UNL     1       5.898   1.399   7.876  1.00  0.00     0.167 HD
ATOM     23  C   UNL     1       4.972   5.992   7.229  1.00  0.00     0.031 A 
ATOM     24  C   UNL     1       6.532  -0.745   9.532  1.00  0.00     0.031 A 
ATOM     25  C   UNL     1       5.678   5.734   8.505  1.00  0.00     0.049 A 
ATOM     26  C   UNL     1       6.798   0.479  10.338  1.00  0.00     0.074 A 
ATOM     27  C   UNL     1       6.083   6.713   9.413  1.00  0.00     0.029 A 
ATOM     28  N   UNL     1       6.050   4.523   9.086  1.00  0.00    -0.354 N 
ATOM     29  N   UNL     1       6.590   1.735  10.032  1.00  0.00    -0.248 NA
ATOM     30  C   UNL     1       7.320   0.253  11.687  1.00  0.00     0.031 C 
ATOM     31  C   UNL     1       6.655   6.124  10.524  1.00  0.00     0.029 A 
ATOM     32  C   UNL     1       6.551   4.757  10.372  1.00  0.00     0.049 A 
ATOM     33  H   UNL     1       5.972   3.639   8.659  1.00  0.00     0.167 HD
ATOM     34  C   UNL     1       6.905   2.445  11.179  1.00  0.00     0.074 A 
ATOM     35  C   UNL     1       7.290   1.479  12.185  1.00  0.00     0.031 C 
ATOM     36  C   UNL     1       6.883   3.781  11.380  1.00  0.00     0.031 A 
BRANCH  23  37
ATOM     37  C   UNL     1       4.965   7.724   7.043  1.00  0.00    -0.014 A 
ATOM     38  C   UNL     1       6.204   8.411   6.858  1.00  0.00     0.009 A 
ATOM     39  C   UNL     1       3.848   8.585   6.919  1.00  0.00     0.009 A 
ATOM     40  C   UNL     1       6.269   9.770   6.451  1.00  0.00     0.001 A 
ATOM     41  C   UNL     1       3.902   9.856   6.317  1.00  0.00     0.001 A 
ATOM     42  C   UNL     1       5.118  10.464   6.100  1.00  0.00     0.000 A 
ENDBRANCH  23  37
BRANCH  24  43
ATOM     43  C   UNL     1       6.743  -2.108  10.047  1.00  0.00    -0.014 A 
ATOM     44  C   UNL     1       7.632  -2.979   9.392  1.00  0.00     0.009 A 
ATOM     45  C   UNL     1       5.937  -2.584  11.084  1.00  0.00     0.009 A 
ATOM     46  C   UNL     1       7.654  -4.328   9.724  1.00  0.00     0.001 A 
ATOM     47  C   UNL     1       6.018  -3.919  11.462  1.00  0.00     0.001 A 
ATOM     48  C   UNL     1       6.856  -4.792  10.767  1.00  0.00     0.000 A 
ENDBRANCH  24  43
BRANCH  36  49
ATOM     49  C   UNL     1       7.233   4.306  12.759  1.00  0.00    -0.014 A 
ATOM     50  C   UNL     1       6.295   5.080  13.468  1.00  0.00     0.009 A 
ATOM     51  C   UNL     1       8.526   4.173  13.289  1.00  0.00     0.009 A 
ATOM     52  C   UNL     1       6.656   5.744  14.642  1.00  0.00     0.001 A 
ATOM     53  C   UNL     1       8.866   4.786  14.498  1.00  0.00     0.001 A 
ATOM     54  C   UNL     1       7.940   5.590  15.160  1.00  0.00     0.000 A 
ENDBRANCH  36  49
ENDBRANCH  10  11
ENDBRANCH   3   5
ENDBRANCH   2   3
ENDBRANCH   1   2
BRANCH   1  55
ATOM     55  C   UNL     1       4.318   1.452  -1.195  1.00  0.00     0.275 C 
BRANCH  55  56
ATOM     56  O   UNL     1       3.759   1.967   0.051  1.00  0.00    -0.458 OA
BRANCH  56  57
ATOM     57  C   UNL     1       2.418   2.228   0.130  1.00  0.00     0.340 C 
ATOM     58  O   UNL     1       1.635   2.124  -0.798  1.00  0.00    -0.246 OA
BRANCH  57  59
ATOM     59  C   UNL     1       1.997   2.467   1.559  1.00  0.00     0.084 A 
ATOM     60  C   UNL     1       0.959   1.625   2.049  1.00  0.00     0.033 A 
ATOM     61  C   UNL     1       2.678   3.275   2.490  1.00  0.00     0.053 A 
ATOM     62  C   UNL     1       0.615   1.488   3.433  1.00  0.00     0.019 A 
ATOM     63  C   UNL     1       2.282   3.010   4.084  1.00  0.00    -0.016 A 
ATOM     64  N   UNL     1       3.889   4.097   1.973  1.00  0.00    -0.377 N 
ATOM     65  Br  UNL     1      -0.664   0.167   3.925  1.00  0.00    -0.051 Br
ATOM     66  C   UNL     1       1.261   2.162   4.470  1.00  0.00     0.022 A 
ATOM     67  C   UNL     1       3.428   3.580   5.546  1.00  0.00     0.049 C 
ATOM     68  C   UNL     1       5.214   4.897   2.773  1.00  0.00     0.114 C 
ATOM     69  H   UNL     1       3.914   4.185   0.993  1.00  0.00     0.161 HD
ATOM     70  C   UNL     1       5.289   4.689   4.697  1.00  0.00     0.031 C 
ATOM     71  C   UNL     1       2.307   4.955   6.090  1.00  0.00    -0.023 C 
ATOM     72  C   UNL     1       4.428   6.498   4.831  1.00  0.00     0.034 C 
ATOM     73  C   UNL     1       2.777   6.245   5.747  1.00  0.00    -0.030 C 
BRANCH  68  74
ATOM     74  C   UNL     1       6.576   4.855   2.121  1.00  0.00    -0.019 A 
ATOM     75  C   UNL     1       6.779   5.131   0.767  1.00  0.00     0.006 A 
ATOM     76  C   UNL     1       7.713   4.794   2.939  1.00  0.00     0.091 A 
ATOM     77  C   UNL     1       8.084   5.263   0.257  1.00  0.00     0.007 A 
ATOM     78  C   UNL     1       9.006   4.823   2.428  1.00  0.00     0.269 A 
ATOM     79  C   UNL     1       9.203   5.071   1.077  1.00  0.00     0.085 A 
BRANCH  78  80
ATOM     80  N   UNL     1      10.120   4.559   3.348  1.00  0.00     0.062 N 
ATOM     81  O   UNL     1      11.264   4.556   2.879  1.00  0.00    -0.258 OA
ATOM     82  O   UNL     1       9.845   4.318   4.533  1.00  0.00    -0.258 OA
ENDBRANCH  78  80
ENDBRANCH  68  74
ENDBRANCH  57  59
ENDBRANCH  56  57
ENDBRANCH  55  56
ENDBRANCH   1  55
TORSDOF 13
