REMARK SMILES C[C@H](O)C[C@@H](Cc1cccc(Br)c1)C(=O)OCCOC(=O)c1ccc(-c2c3nc(c(-c4ccccc4)c4ccc([nH]4)c(-c4ccccc4)c4nc(c(-c5ccccc5)c5ccc2[nH]5)C=C4)C=C3)cc1
REMARK SMILES IDX 17 1 16 2 14 3 15 4 5 5 4 6 2 7 1 8 3 9 6 11 7 12 8 13 13 14
REMARK SMILES IDX 9 15 11 16 10 17 12 18 18 19 19 20 20 21 21 22 22 23 23 24
REMARK SMILES IDX 69 25 24 26 68 27 25 28 26 29 27 30 62 31 28 32 67 33 61 34
REMARK SMILES IDX 63 35 29 36 66 37 60 38 59 39 30 41 52 42 37 43 51 44 38 45
REMARK SMILES IDX 41 46 50 47 64 48 39 49 40 50 49 52 65 53 42 54 31 55 32 56
REMARK SMILES IDX 36 57 33 58 35 59 34 60 53 61 54 62 58 63 55 64 57 65 56 66
REMARK SMILES IDX 43 67 44 68 48 69 45 70 47 71 46 72
REMARK H PARENT 3 10 63 40 41 51
REMARK Flexibility Score: inf
ROOT
ATOM      1  C   UNL     1      -4.960   1.313  -1.693  1.00  0.00     0.274 C 
ENDROOT
BRANCH   1   2
ATOM      2  O   UNL     1      -3.529   1.176  -1.790  1.00  0.00    -0.462 OA
BRANCH   2   3
ATOM      3  C   UNL     1      -2.791   1.914  -0.922  1.00  0.00     0.309 C 
ATOM      4  O   UNL     1      -3.251   2.660  -0.065  1.00  0.00    -0.252 OA
BRANCH   3   5
ATOM      5  C   UNL     1      -1.295   1.763  -1.143  1.00  0.00     0.106 C 
BRANCH   5   6
ATOM      6  C   UNL     1      -0.855   0.317  -1.446  1.00  0.00     0.047 C 
BRANCH   6   7
ATOM      7  C   UNL     1       0.663   0.124  -1.515  1.00  0.00     0.112 C 
ATOM      8  C   UNL     1       1.019  -1.251  -2.063  1.00  0.00     0.038 C 
BRANCH   7   9
ATOM      9  O   UNL     1       1.214   0.230  -0.204  1.00  0.00    -0.393 OA
ATOM     10  H   UNL     1       0.838  -0.463   0.361  1.00  0.00     0.210 HD
ENDBRANCH   7   9
ENDBRANCH   6   7
ENDBRANCH   5   6
BRANCH   5  11
ATOM     11  C   UNL     1      -0.792   2.878  -2.079  1.00  0.00     0.051 C 
BRANCH  11  12
ATOM     12  C   UNL     1      -1.394   3.030  -3.459  1.00  0.00    -0.046 A 
ATOM     13  C   UNL     1      -1.607   1.956  -4.332  1.00  0.00     0.004 A 
ATOM     14  C   UNL     1      -1.689   4.323  -3.925  1.00  0.00     0.019 A 
ATOM     15  C   UNL     1      -2.155   2.154  -5.602  1.00  0.00     0.001 A 
ATOM     16  C   UNL     1      -2.215   4.520  -5.204  1.00  0.00     0.018 A 
ATOM     17  C   UNL     1      -2.462   3.437  -6.041  1.00  0.00     0.016 A 
ATOM     18  Br  UNL     1      -2.583   6.273  -5.807  1.00  0.00    -0.051 Br
ENDBRANCH  11  12
ENDBRANCH   5  11
ENDBRANCH   3   5
ENDBRANCH   2   3
ENDBRANCH   1   2
BRANCH   1  19
ATOM     19  C   UNL     1      -5.595   0.100  -1.012  1.00  0.00     0.275 C 
BRANCH  19  20
ATOM     20  O   UNL     1      -5.175  -0.005   0.360  1.00  0.00    -0.458 OA
BRANCH  20  21
ATOM     21  C   UNL     1      -4.115  -0.813   0.572  1.00  0.00     0.338 C 
ATOM     22  O   UNL     1      -3.529  -1.507  -0.252  1.00  0.00    -0.246 OA
BRANCH  21  23
ATOM     23  C   UNL     1      -3.649  -0.657   1.953  1.00  0.00     0.060 A 
ATOM     24  C   UNL     1      -2.420  -0.029   2.170  1.00  0.00     0.016 A 
ATOM     25  C   UNL     1      -4.369  -1.198   3.019  1.00  0.00     0.016 A 
ATOM     26  C   UNL     1      -1.889   0.047   3.451  1.00  0.00     0.010 A 
ATOM     27  C   UNL     1      -3.839  -1.115   4.310  1.00  0.00     0.010 A 
ATOM     28  C   UNL     1      -2.590  -0.507   4.528  1.00  0.00    -0.014 A 
BRANCH  28  29
ATOM     29  C   UNL     1      -1.975  -0.500   5.872  1.00  0.00     0.031 A 
ATOM     30  C   UNL     1      -1.375  -1.761   6.419  1.00  0.00     0.074 A 
ATOM     31  C   UNL     1      -1.924   0.642   6.580  1.00  0.00     0.049 A 
ATOM     32  N   UNL     1      -0.859  -1.985   7.600  1.00  0.00    -0.248 NA
ATOM     33  C   UNL     1      -1.352  -2.924   5.518  1.00  0.00     0.031 C 
ATOM     34  C   UNL     1      -2.415   1.943   6.123  1.00  0.00     0.029 A 
ATOM     35  N   UNL     1      -1.431   0.889   7.835  1.00  0.00    -0.354 N 
ATOM     36  C   UNL     1      -0.470  -3.318   7.593  1.00  0.00     0.074 A 
ATOM     37  C   UNL     1      -0.819  -3.856   6.296  1.00  0.00     0.031 C 
ATOM     38  C   UNL     1      -2.195   2.853   7.087  1.00  0.00     0.029 A 
ATOM     39  C   UNL     1      -1.594   2.190   8.239  1.00  0.00     0.049 A 
ATOM     40  H   UNL     1      -1.002   0.199   8.392  1.00  0.00     0.167 HD
ATOM     41  C   UNL     1       0.122  -4.028   8.582  1.00  0.00     0.031 A 
ATOM     42  C   UNL     1      -1.314   2.773   9.419  1.00  0.00     0.031 A 
ATOM     43  C   UNL     1       0.469  -3.490   9.869  1.00  0.00     0.049 A 
ATOM     44  C   UNL     1      -0.722   1.946  10.525  1.00  0.00     0.074 A 
ATOM     45  C   UNL     1       1.068  -4.129  10.941  1.00  0.00     0.029 A 
ATOM     46  N   UNL     1       0.248  -2.178  10.258  1.00  0.00    -0.354 N 
ATOM     47  N   UNL     1      -0.380   0.680  10.516  1.00  0.00    -0.248 NA
ATOM     48  C   UNL     1      -0.482   2.627  11.804  1.00  0.00     0.031 C 
ATOM     49  C   UNL     1       1.173  -3.212  11.992  1.00  0.00     0.029 A 
ATOM     50  C   UNL     1       0.681  -1.992  11.559  1.00  0.00     0.049 A 
ATOM     51  H   UNL     1      -0.156  -1.481   9.691  1.00  0.00     0.167 HD
ATOM     52  C   UNL     1       0.129   0.417  11.780  1.00  0.00     0.074 A 
ATOM     53  C   UNL     1       0.066   1.658  12.525  1.00  0.00     0.031 C 
ATOM     54  C   UNL     1       0.605  -0.749  12.281  1.00  0.00     0.031 A 
BRANCH  41  55
ATOM     55  C   UNL     1       0.390  -5.481   8.316  1.00  0.00    -0.014 A 
ATOM     56  C   UNL     1       1.436  -5.889   7.475  1.00  0.00     0.009 A 
ATOM     57  C   UNL     1      -0.407  -6.456   8.935  1.00  0.00     0.009 A 
ATOM     58  C   UNL     1       1.659  -7.247   7.234  1.00  0.00     0.001 A 
ATOM     59  C   UNL     1      -0.169  -7.813   8.710  1.00  0.00     0.001 A 
ATOM     60  C   UNL     1       0.859  -8.207   7.854  1.00  0.00     0.000 A 
ENDBRANCH  41  55
BRANCH  42  61
ATOM     61  C   UNL     1      -1.626   4.210   9.628  1.00  0.00    -0.014 A 
ATOM     62  C   UNL     1      -0.598   5.159   9.720  1.00  0.00     0.009 A 
ATOM     63  C   UNL     1      -2.959   4.637   9.739  1.00  0.00     0.009 A 
ATOM     64  C   UNL     1      -0.898   6.505   9.937  1.00  0.00     0.001 A 
ATOM     65  C   UNL     1      -3.257   5.987   9.931  1.00  0.00     0.001 A 
ATOM     66  C   UNL     1      -2.227   6.919  10.037  1.00  0.00     0.000 A 
ENDBRANCH  42  61
BRANCH  54  67
ATOM     67  C   UNL     1       1.118  -0.724  13.691  1.00  0.00    -0.014 A 
ATOM     68  C   UNL     1       0.237  -0.692  14.782  1.00  0.00     0.009 A 
ATOM     69  C   UNL     1       2.501  -0.768  13.929  1.00  0.00     0.009 A 
ATOM     70  C   UNL     1       0.733  -0.676  16.087  1.00  0.00     0.001 A 
ATOM     71  C   UNL     1       2.992  -0.775  15.234  1.00  0.00     0.001 A 
ATOM     72  C   UNL     1       2.109  -0.721  16.312  1.00  0.00     0.000 A 
ENDBRANCH  54  67
ENDBRANCH  28  29
ENDBRANCH  21  23
ENDBRANCH  20  21
ENDBRANCH  19  20
ENDBRANCH   1  19
TORSDOF 16
