REMARK SMILES CC(C)Cc1ccc(-c2cc(Cl)cc3c2O[C@H](C(F)(F)F)C(C(=O)OCCOC(=O)c2ccc(-c4c5nc(c(-c6ccccc6)c6ccc([nH]6)c(-c6ccccc6)c6nc(c(-c7ccccc7)c7ccc4[nH]7)C=C6)C=C5)cc2)=C3)cc1
REMARK SMILES IDX 26 1 25 2 23 3 24 4 22 5 9 6 10 7 15 8 11 9 14 10 16 11
REMARK SMILES IDX 12 12 13 13 79 14 17 15 8 16 5 17 6 18 81 19 7 20 80 21 4 22
REMARK SMILES IDX 2 23 1 24 3 25 18 26 19 27 20 28 21 29 27 30 28 31 29 32
REMARK SMILES IDX 30 33 31 34 32 35 78 36 33 37 77 38 34 39 35 40 36 41 71 42
REMARK SMILES IDX 37 43 76 44 70 45 72 46 38 47 75 48 69 49 68 50 39 52 61 53
REMARK SMILES IDX 46 54 60 55 47 56 50 57 59 58 73 59 48 60 49 61 58 63 74 64
REMARK SMILES IDX 51 65 40 66 41 67 45 68 42 69 44 70 43 71 62 72 63 73 67 74
REMARK SMILES IDX 64 75 66 76 65 77 52 78 53 79 57 80 54 81 56 82 55 83
REMARK H PARENT 72 51 50 62
REMARK Flexibility Score: inf
ROOT
ATOM      1  C   UNL     1      -3.764   7.422  -8.797  1.00  0.00     0.275 C 
ENDROOT
BRANCH   1   2
ATOM      2  O   UNL     1      -4.674   6.630  -7.993  1.00  0.00    -0.459 OA
BRANCH   2   3
ATOM      3  C   UNL     1      -5.257   5.629  -8.706  1.00  0.00     0.338 C 
ATOM      4  O   UNL     1      -5.084   5.450  -9.907  1.00  0.00    -0.246 OA
BRANCH   3   5
ATOM      5  C   UNL     1      -6.061   4.686  -7.888  1.00  0.00     0.087 C 
ATOM      6  C   UNL     1      -4.316   2.527  -4.890  1.00  0.00     0.026 A 
ATOM      7  C   UNL     1      -2.989   2.454  -5.396  1.00  0.00     0.033 A 
ATOM      8  C   UNL     1      -5.216   3.031  -5.837  1.00  0.00     0.135 A 
ATOM      9  C   UNL     1      -2.601   2.697  -6.717  1.00  0.00     0.042 A 
ATOM     10  C   UNL     1      -4.864   2.990  -7.223  1.00  0.00     0.019 A 
ATOM     11  O   UNL     1      -6.374   3.744  -5.550  1.00  0.00    -0.475 OA
ATOM     12  Cl  UNL     1      -0.974   2.881  -7.225  1.00  0.00    -0.084 Cl
ATOM     13  C   UNL     1      -3.565   2.844  -7.667  1.00  0.00     0.032 A 
ATOM     14  C   UNL     1      -5.854   3.406  -8.232  1.00  0.00     0.027 C 
ATOM     15  C   UNL     1      -6.553   4.935  -6.474  1.00  0.00     0.316 C 
BRANCH   6  16
ATOM     16  C   UNL     1      -4.451   1.930  -3.493  1.00  0.00    -0.015 A 
ATOM     17  C   UNL     1      -2.886   0.859  -1.244  1.00  0.00    -0.048 A 
ATOM     18  C   UNL     1      -3.532   2.100  -1.173  1.00  0.00     0.004 A 
ATOM     19  C   UNL     1      -3.416   0.045  -2.272  1.00  0.00     0.004 A 
ATOM     20  C   UNL     1      -4.311   2.623  -2.279  1.00  0.00     0.009 A 
ATOM     21  C   UNL     1      -4.150   0.563  -3.372  1.00  0.00     0.009 A 
BRANCH  17  22
ATOM     22  C   UNL     1      -1.749   0.252  -0.167  1.00  0.00     0.038 C 
BRANCH  22  23
ATOM     23  C   UNL     1       0.207  -0.011  -0.035  1.00  0.00    -0.013 C 
ATOM     24  C   UNL     1       1.242   1.173  -0.000  1.00  0.00     0.008 C 
ATOM     25  C   UNL     1       1.086  -1.028   0.873  1.00  0.00     0.008 C 
ENDBRANCH  22  23
ENDBRANCH  17  22
ENDBRANCH   6  16
BRANCH  15  26
ATOM     26  C   UNL     1      -8.037   5.292  -6.629  1.00  0.00     0.430 C 
ATOM     27  F   UNL     1      -8.756   4.250  -7.113  1.00  0.00    -0.167 F 
ATOM     28  F   UNL     1      -8.598   5.674  -5.463  1.00  0.00    -0.167 F 
ATOM     29  F   UNL     1      -8.199   6.321  -7.503  1.00  0.00    -0.167 F 
ENDBRANCH  15  26
ENDBRANCH   3   5
ENDBRANCH   2   3
ENDBRANCH   1   2
BRANCH   1  30
ATOM     30  C   UNL     1      -2.803   8.270  -7.961  1.00  0.00     0.275 C 
BRANCH  30  31
ATOM     31  O   UNL     1      -2.029   7.447  -7.067  1.00  0.00    -0.458 OA
BRANCH  31  32
ATOM     32  C   UNL     1      -2.540   7.379  -5.811  1.00  0.00     0.338 C 
ATOM     33  O   UNL     1      -3.510   7.981  -5.402  1.00  0.00    -0.246 OA
BRANCH  32  34
ATOM     34  C   UNL     1      -1.851   6.335  -5.008  1.00  0.00     0.060 A 
ATOM     35  C   UNL     1      -2.615   5.767  -4.003  1.00  0.00     0.016 A 
ATOM     36  C   UNL     1      -0.530   5.890  -5.184  1.00  0.00     0.016 A 
ATOM     37  C   UNL     1      -2.080   4.732  -3.245  1.00  0.00     0.010 A 
ATOM     38  C   UNL     1      -0.015   4.802  -4.425  1.00  0.00     0.010 A 
ATOM     39  C   UNL     1      -0.813   4.162  -3.477  1.00  0.00    -0.014 A 
BRANCH  39  40
ATOM     40  C   UNL     1      -0.469   2.964  -2.622  1.00  0.00     0.031 A 
ATOM     41  C   UNL     1      -0.631   3.307  -1.013  1.00  0.00     0.074 A 
ATOM     42  C   UNL     1      -0.293   1.685  -3.149  1.00  0.00     0.049 A 
ATOM     43  N   UNL     1      -0.878   2.536   0.030  1.00  0.00    -0.248 NA
ATOM     44  C   UNL     1      -0.506   4.709  -0.576  1.00  0.00     0.031 C 
ATOM     45  C   UNL     1      -0.168   1.044  -4.455  1.00  0.00     0.029 A 
ATOM     46  N   UNL     1      -0.374   0.532  -2.424  1.00  0.00    -0.354 N 
ATOM     47  C   UNL     1      -0.870   3.260   1.221  1.00  0.00     0.074 A 
ATOM     48  C   UNL     1      -0.689   4.633   0.747  1.00  0.00     0.031 C 
ATOM     49  C   UNL     1      -0.377  -0.310  -4.375  1.00  0.00     0.029 A 
ATOM     50  C   UNL     1      -0.536  -0.751  -2.967  1.00  0.00     0.049 A 
ATOM     51  H   UNL     1      -0.314   0.606  -1.444  1.00  0.00     0.167 HD
ATOM     52  C   UNL     1      -0.942   2.861   2.550  1.00  0.00     0.031 A 
ATOM     53  C   UNL     1      -0.789  -2.047  -2.424  1.00  0.00     0.031 A 
ATOM     54  C   UNL     1      -1.019   1.504   3.183  1.00  0.00     0.049 A 
ATOM     55  C   UNL     1      -0.978  -2.672  -0.815  1.00  0.00     0.074 A 
ATOM     56  C   UNL     1      -1.030   1.089   4.512  1.00  0.00     0.029 A 
ATOM     57  N   UNL     1      -0.991   0.289   2.533  1.00  0.00    -0.354 N 
ATOM     58  N   UNL     1      -1.215  -2.037   0.314  1.00  0.00    -0.248 NA
ATOM     59  C   UNL     1      -0.914  -4.113  -0.467  1.00  0.00     0.031 C 
ATOM     60  C   UNL     1      -1.071  -0.348   4.567  1.00  0.00     0.029 A 
ATOM     61  C   UNL     1      -1.134  -0.876   3.276  1.00  0.00     0.049 A 
ATOM     62  H   UNL     1      -0.872   0.247   1.557  1.00  0.00     0.167 HD
ATOM     63  C   UNL     1      -1.199  -2.790   1.450  1.00  0.00     0.074 A 
ATOM     64  C   UNL     1      -1.089  -4.132   0.878  1.00  0.00     0.031 C 
ATOM     65  C   UNL     1      -1.142  -2.315   2.754  1.00  0.00     0.031 A 
BRANCH  52  66
ATOM     66  C   UNL     1      -0.907   4.021   3.516  1.00  0.00    -0.014 A 
ATOM     67  C   UNL     1      -2.038   4.837   3.697  1.00  0.00     0.009 A 
ATOM     68  C   UNL     1       0.267   4.324   4.222  1.00  0.00     0.009 A 
ATOM     69  C   UNL     1      -1.980   5.953   4.535  1.00  0.00     0.001 A 
ATOM     70  C   UNL     1       0.315   5.429   5.076  1.00  0.00     0.001 A 
ATOM     71  C   UNL     1      -0.804   6.249   5.224  1.00  0.00     0.000 A 
ENDBRANCH  52  66
BRANCH  53  72
ATOM     72  C   UNL     1      -1.006  -3.153  -3.426  1.00  0.00    -0.014 A 
ATOM     73  C   UNL     1      -2.197  -3.904  -3.395  1.00  0.00     0.009 A 
ATOM     74  C   UNL     1      -0.037  -3.493  -4.380  1.00  0.00     0.009 A 
ATOM     75  C   UNL     1      -2.405  -4.963  -4.284  1.00  0.00     0.001 A 
ATOM     76  C   UNL     1      -0.268  -4.520  -5.302  1.00  0.00     0.001 A 
ATOM     77  C   UNL     1      -1.446  -5.261  -5.247  1.00  0.00     0.000 A 
ENDBRANCH  53  72
BRANCH  65  78
ATOM     78  C   UNL     1      -0.983  -3.375   3.809  1.00  0.00    -0.014 A 
ATOM     79  C   UNL     1       0.189  -4.144   3.906  1.00  0.00     0.009 A 
ATOM     80  C   UNL     1      -1.969  -3.521   4.795  1.00  0.00     0.009 A 
ATOM     81  C   UNL     1       0.351  -5.060   4.949  1.00  0.00     0.001 A 
ATOM     82  C   UNL     1      -1.791  -4.414   5.854  1.00  0.00     0.001 A 
ATOM     83  C   UNL     1      -0.636  -5.189   5.925  1.00  0.00     0.000 A 
ENDBRANCH  65  78
ENDBRANCH  39  40
ENDBRANCH  32  34
ENDBRANCH  31  32
ENDBRANCH  30  31
ENDBRANCH   1  30
TORSDOF 15
