REMARK SMILES Cc1cnc(S[C@H]2CC[C@@]([NH2+]C(C)C)(C(=O)OCCOC(=O)c3ccc(-c4c5nc(c(-c6ccccc6)c6ccc([nH]6)c(-c6ccccc6)c6nc(c(-c7ccccc7)c7ccc4[nH]7)C=C6)C=C5)cc3)C2)nc1
REMARK SMILES IDX 18 1 17 2 15 3 16 4 10 5 7 6 8 7 71 8 9 9 6 10 5 11 1 12
REMARK SMILES IDX 2 13 3 14 73 15 4 16 72 17 11 18 12 21 13 22 14 23 19 24
REMARK SMILES IDX 20 25 21 26 22 27 23 28 24 29 70 30 25 31 69 32 26 33 27 34
REMARK SMILES IDX 28 35 63 36 29 37 68 38 62 39 64 40 30 41 67 42 61 43 60 44
REMARK SMILES IDX 31 46 53 47 38 48 52 49 39 50 42 51 51 52 65 53 40 54 41 55
REMARK SMILES IDX 50 57 66 58 43 59 32 60 33 61 37 62 34 63 36 64 35 65 54 66
REMARK SMILES IDX 55 67 59 68 56 69 58 70 57 71 44 72 45 73 49 74 46 75 48 76
REMARK SMILES IDX 47 77
REMARK H PARENT 11 19 11 20 64 45 42 56
REMARK Flexibility Score: inf
ROOT
ATOM      1  C   UNL     1       7.274  -5.791   0.363  1.00  0.00     0.274 C 
ENDROOT
BRANCH   1   2
ATOM      2  O   UNL     1       5.960  -5.427  -0.119  1.00  0.00    -0.457 OA
BRANCH   2   3
ATOM      3  C   UNL     1       5.160  -4.808   0.791  1.00  0.00     0.368 C 
ATOM      4  O   UNL     1       5.529  -4.546   1.936  1.00  0.00    -0.245 OA
BRANCH   3   5
ATOM      5  C   UNL     1       3.716  -4.476   0.280  1.00  0.00     0.195 C 
ATOM      6  C   UNL     1       3.743  -2.325  -0.967  1.00  0.00     0.062 C 
ATOM      7  C   UNL     1       3.063  -3.365  -1.847  1.00  0.00     0.022 C 
ATOM      8  C   UNL     1       3.473  -2.943   0.419  1.00  0.00     0.096 C 
ATOM      9  C   UNL     1       3.470  -4.720  -1.242  1.00  0.00     0.082 C 
BRANCH   6  10
ATOM     10  S   UNL     1       5.532  -2.292  -1.347  1.00  0.00    -0.083 SA
BRANCH  10  11
ATOM     11  C   UNL     1       5.828  -0.717  -2.092  1.00  0.00     0.187 A 
ATOM     12  C   UNL     1       7.143   2.478  -4.485  1.00  0.00     0.048 C 
ATOM     13  C   UNL     1       6.653   1.391  -3.590  1.00  0.00    -0.014 A 
ATOM     14  C   UNL     1       5.373   0.873  -3.662  1.00  0.00     0.119 A 
ATOM     15  C   UNL     1       7.466   0.786  -2.663  1.00  0.00     0.119 A 
ATOM     16  N   UNL     1       4.933  -0.178  -2.931  1.00  0.00    -0.231 NA
ATOM     17  N   UNL     1       7.076  -0.253  -1.908  1.00  0.00    -0.231 NA
ENDBRANCH  10  11
ENDBRANCH   6  10
BRANCH   5  18
ATOM     18  N   UNL     1       2.700  -5.294   1.013  1.00  0.00    -0.330 N 
ATOM     19  H   UNL     1       2.654  -6.199   0.546  1.00  0.00     0.347 HD
ATOM     20  H   UNL     1       1.858  -4.719   0.982  1.00  0.00     0.347 HD
BRANCH  18  21
ATOM     21  C   UNL     1       2.893  -5.557   2.446  1.00  0.00     0.176 C 
ATOM     22  C   UNL     1       2.662  -4.334   3.332  1.00  0.00     0.075 C 
ATOM     23  C   UNL     1       1.926  -6.674   2.852  1.00  0.00     0.075 C 
ENDBRANCH  18  21
ENDBRANCH   5  18
ENDBRANCH   3   5
ENDBRANCH   2   3
ENDBRANCH   1   2
BRANCH   1  24
ATOM     24  C   UNL     1       8.308  -4.672   0.173  1.00  0.00     0.275 C 
BRANCH  24  25
ATOM     25  O   UNL     1       7.915  -3.512   0.920  1.00  0.00    -0.458 OA
BRANCH  25  26
ATOM     26  C   UNL     1       8.634  -2.380   0.717  1.00  0.00     0.338 C 
ATOM     27  O   UNL     1       9.698  -2.306   0.127  1.00  0.00    -0.246 OA
BRANCH  26  28
ATOM     28  C   UNL     1       7.888  -1.206   1.268  1.00  0.00     0.060 A 
ATOM     29  C   UNL     1       6.609  -1.352   1.808  1.00  0.00     0.016 A 
ATOM     30  C   UNL     1       8.418   0.082   1.155  1.00  0.00     0.016 A 
ATOM     31  C   UNL     1       5.826  -0.243   2.122  1.00  0.00     0.010 A 
ATOM     32  C   UNL     1       7.668   1.197   1.569  1.00  0.00     0.010 A 
ATOM     33  C   UNL     1       6.352   1.050   2.041  1.00  0.00    -0.014 A 
BRANCH  33  34
ATOM     34  C   UNL     1       5.535   2.221   2.472  1.00  0.00     0.031 A 
ATOM     35  C   UNL     1       5.263   3.367   1.532  1.00  0.00     0.074 A 
ATOM     36  C   UNL     1       5.016   2.266   3.718  1.00  0.00     0.049 A 
ATOM     37  N   UNL     1       4.762   4.549   1.795  1.00  0.00    -0.248 NA
ATOM     38  C   UNL     1       5.600   3.161   0.115  1.00  0.00     0.031 C 
ATOM     39  C   UNL     1       5.130   1.212   4.729  1.00  0.00     0.029 A 
ATOM     40  N   UNL     1       4.282   3.244   4.347  1.00  0.00    -0.354 N 
ATOM     41  C   UNL     1       4.783   5.249   0.595  1.00  0.00     0.074 A 
ATOM     42  C   UNL     1       5.331   4.353  -0.404  1.00  0.00     0.031 C 
ATOM     43  C   UNL     1       4.458   1.579   5.830  1.00  0.00     0.029 A 
ATOM     44  C   UNL     1       3.959   2.936   5.647  1.00  0.00     0.049 A 
ATOM     45  H   UNL     1       4.014   4.083   3.908  1.00  0.00     0.167 HD
ATOM     46  C   UNL     1       4.393   6.523   0.351  1.00  0.00     0.031 A 
ATOM     47  C   UNL     1       3.383   3.674   6.614  1.00  0.00     0.031 A 
ATOM     48  C   UNL     1       3.801   7.402   1.328  1.00  0.00     0.049 A 
ATOM     49  C   UNL     1       3.017   5.101   6.335  1.00  0.00     0.074 A 
ATOM     50  C   UNL     1       3.365   8.707   1.162  1.00  0.00     0.029 A 
ATOM     51  N   UNL     1       3.548   7.064   2.647  1.00  0.00    -0.354 N 
ATOM     52  N   UNL     1       3.117   5.775   5.217  1.00  0.00    -0.248 NA
ATOM     53  C   UNL     1       2.482   5.875   7.464  1.00  0.00     0.031 C 
ATOM     54  C   UNL     1       2.883   9.171   2.391  1.00  0.00     0.029 A 
ATOM     55  C   UNL     1       2.978   8.141   3.310  1.00  0.00     0.049 A 
ATOM     56  H   UNL     1       3.743   6.189   3.054  1.00  0.00     0.167 HD
ATOM     57  C   UNL     1       2.657   7.052   5.506  1.00  0.00     0.074 A 
ATOM     58  C   UNL     1       2.249   7.050   6.896  1.00  0.00     0.031 C 
ATOM     59  C   UNL     1       2.588   8.133   4.694  1.00  0.00     0.031 A 
BRANCH  46  60
ATOM     60  C   UNL     1       4.633   7.080  -1.024  1.00  0.00    -0.014 A 
ATOM     61  C   UNL     1       3.806   6.750  -2.106  1.00  0.00     0.009 A 
ATOM     62  C   UNL     1       5.660   8.020  -1.211  1.00  0.00     0.009 A 
ATOM     63  C   UNL     1       4.012   7.342  -3.356  1.00  0.00     0.001 A 
ATOM     64  C   UNL     1       5.850   8.625  -2.454  1.00  0.00     0.001 A 
ATOM     65  C   UNL     1       5.029   8.283  -3.526  1.00  0.00     0.000 A 
ENDBRANCH  46  60
BRANCH  47  66
ATOM     66  C   UNL     1       3.197   3.101   7.972  1.00  0.00    -0.014 A 
ATOM     67  C   UNL     1       1.912   2.824   8.461  1.00  0.00     0.009 A 
ATOM     68  C   UNL     1       4.308   2.836   8.789  1.00  0.00     0.009 A 
ATOM     69  C   UNL     1       1.744   2.308   9.748  1.00  0.00     0.001 A 
ATOM     70  C   UNL     1       4.138   2.291  10.062  1.00  0.00     0.001 A 
ATOM     71  C   UNL     1       2.856   2.035  10.544  1.00  0.00     0.000 A 
ENDBRANCH  47  66
BRANCH  59  72
ATOM     72  C   UNL     1       2.030   9.392   5.291  1.00  0.00    -0.014 A 
ATOM     73  C   UNL     1       2.782  10.161   6.192  1.00  0.00     0.009 A 
ATOM     74  C   UNL     1       0.733   9.808   4.955  1.00  0.00     0.009 A 
ATOM     75  C   UNL     1       2.231  11.303   6.776  1.00  0.00     0.001 A 
ATOM     76  C   UNL     1       0.193  10.964   5.522  1.00  0.00     0.001 A 
ATOM     77  C   UNL     1       0.938  11.703   6.440  1.00  0.00     0.000 A 
ENDBRANCH  59  72
ENDBRANCH  33  34
ENDBRANCH  26  28
ENDBRANCH  25  26
ENDBRANCH  24  25
ENDBRANCH   1  24
TORSDOF 15
