REMARK SMILES CCc1cc(C(=O)c2[nH]c3cc(Cl)ccc3c2CC(=O)OCCOC(=O)c2ccc(-c3c4nc(c(-c5ccccc5)c5ccc([nH]5)c(-c5ccccc5)c5nc(c(-c6ccccc6)c6ccc3[nH]6)C=C5)C=C4)cc2)ncc1Cl
REMARK SMILES IDX 22 1 21 2 19 3 20 4 18 5 17 6 8 7 9 8 10 9 16 11 11 12 15 13
REMARK SMILES IDX 12 14 14 15 13 16 6 17 7 18 5 19 3 20 4 21 77 22 76 23 78 24
REMARK SMILES IDX 75 25 2 26 1 27 23 28 24 29 25 30 26 31 27 32 28 33 74 34
REMARK SMILES IDX 29 35 73 36 30 37 31 38 32 39 67 40 33 41 72 42 66 43 68 44
REMARK SMILES IDX 34 45 71 46 65 47 64 48 35 50 57 51 42 52 56 53 43 54 46 55
REMARK SMILES IDX 55 56 69 57 44 58 45 59 54 61 70 62 47 63 36 64 37 65 41 66
REMARK SMILES IDX 38 67 40 68 39 69 58 70 59 71 63 72 60 73 62 74 61 75 48 76
REMARK SMILES IDX 49 77 53 78 50 79 52 80 51 81
REMARK H PARENT 9 10 68 49 46 60
REMARK Flexibility Score: inf
ROOT
ATOM      1  C   UNL     1       5.050  -2.668   8.035  1.00  0.00     0.274 C 
ENDROOT
BRANCH   1   2
ATOM      2  O   UNL     1       4.582  -1.837   6.951  1.00  0.00    -0.462 OA
BRANCH   2   3
ATOM      3  C   UNL     1       5.442  -1.649   5.920  1.00  0.00     0.310 C 
ATOM      4  O   UNL     1       6.620  -2.000   5.931  1.00  0.00    -0.252 OA
BRANCH   3   5
ATOM      5  C   UNL     1       4.796  -1.123   4.654  1.00  0.00     0.161 C 
BRANCH   5   6
ATOM      6  C   UNL     1       3.615  -0.216   4.795  1.00  0.00     0.000 A 
ATOM      7  C   UNL     1       2.261  -0.540   4.717  1.00  0.00     0.093 A 
ATOM      8  N   UNL     1       1.557   0.619   4.940  1.00  0.00    -0.351 N 
ATOM      9  C   UNL     1       2.392   1.704   4.944  1.00  0.00     0.048 A 
ATOM     10  H   UNL     1       0.584   0.663   5.078  1.00  0.00     0.167 HD
ATOM     11  C   UNL     1       3.694   1.213   4.933  1.00  0.00     0.004 A 
ATOM     12  C   UNL     1       2.086   3.068   4.973  1.00  0.00     0.047 A 
ATOM     13  C   UNL     1       4.758   2.139   5.010  1.00  0.00     0.012 A 
ATOM     14  C   UNL     1       3.158   3.961   5.011  1.00  0.00     0.043 A 
ATOM     15  C   UNL     1       4.474   3.511   5.046  1.00  0.00     0.021 A 
ATOM     16  Cl  UNL     1       2.836   5.653   5.012  1.00  0.00    -0.084 Cl
BRANCH   7  17
ATOM     17  C   UNL     1       1.531  -1.781   4.506  1.00  0.00     0.227 C 
ATOM     18  O   UNL     1       0.726  -2.184   5.344  1.00  0.00    -0.285 OA
BRANCH  17  19
ATOM     19  C   UNL     1       1.497  -2.391   3.127  1.00  0.00     0.113 A 
ATOM     20  C   UNL     1       1.051  -2.076   0.761  1.00  0.00    -0.026 A 
ATOM     21  C   UNL     1       1.457  -1.557   2.005  1.00  0.00     0.037 A 
ATOM     22  C   UNL     1       0.755  -3.447   0.698  1.00  0.00     0.062 A 
ATOM     23  C   UNL     1       0.877  -4.214   1.850  1.00  0.00     0.132 A 
ATOM     24  Cl  UNL     1       0.194  -4.205  -0.745  1.00  0.00    -0.082 Cl
ATOM     25  N   UNL     1       1.229  -3.720   3.057  1.00  0.00    -0.251 NA
BRANCH  20  26
ATOM     26  C   UNL     1       0.837  -1.194  -0.454  1.00  0.00     0.034 C 
ATOM     27  C   UNL     1       1.148   0.290  -0.301  1.00  0.00     0.009 C 
ENDBRANCH  20  26
ENDBRANCH  17  19
ENDBRANCH   7  17
ENDBRANCH   5   6
ENDBRANCH   3   5
ENDBRANCH   2   3
ENDBRANCH   1   2
BRANCH   1  28
ATOM     28  C   UNL     1       4.424  -4.066   7.966  1.00  0.00     0.275 C 
BRANCH  28  29
ATOM     29  O   UNL     1       4.857  -4.790   6.794  1.00  0.00    -0.458 OA
BRANCH  29  30
ATOM     30  C   UNL     1       4.071  -4.593   5.719  1.00  0.00     0.338 C 
ATOM     31  O   UNL     1       3.084  -3.867   5.652  1.00  0.00    -0.246 OA
BRANCH  30  32
ATOM     32  C   UNL     1       4.561  -5.281   4.532  1.00  0.00     0.060 A 
ATOM     33  C   UNL     1       5.490  -4.636   3.713  1.00  0.00     0.016 A 
ATOM     34  C   UNL     1       3.942  -6.463   4.125  1.00  0.00     0.016 A 
ATOM     35  C   UNL     1       5.780  -5.159   2.459  1.00  0.00     0.010 A 
ATOM     36  C   UNL     1       4.288  -7.025   2.897  1.00  0.00     0.010 A 
ATOM     37  C   UNL     1       5.205  -6.373   2.055  1.00  0.00    -0.014 A 
BRANCH  37  38
ATOM     38  C   UNL     1       5.646  -7.021   0.801  1.00  0.00     0.031 A 
ATOM     39  C   UNL     1       4.719  -7.181  -0.364  1.00  0.00     0.074 A 
ATOM     40  C   UNL     1       6.898  -7.510   0.749  1.00  0.00     0.049 A 
ATOM     41  N   UNL     1       4.888  -7.872  -1.462  1.00  0.00    -0.248 NA
ATOM     42  C   UNL     1       3.433  -6.473  -0.288  1.00  0.00     0.031 C 
ATOM     43  C   UNL     1       7.899  -7.383   1.812  1.00  0.00     0.029 A 
ATOM     44  N   UNL     1       7.537  -8.225  -0.229  1.00  0.00    -0.354 N 
ATOM     45  C   UNL     1       3.723  -7.704  -2.198  1.00  0.00     0.074 A 
ATOM     46  C   UNL     1       2.852  -6.849  -1.420  1.00  0.00     0.031 C 
ATOM     47  C   UNL     1       9.026  -7.997   1.428  1.00  0.00     0.029 A 
ATOM     48  C   UNL     1       8.800  -8.621   0.131  1.00  0.00     0.049 A 
ATOM     49  H   UNL     1       7.131  -8.433  -1.101  1.00  0.00     0.167 HD
ATOM     50  C   UNL     1       3.411  -8.223  -3.409  1.00  0.00     0.031 A 
ATOM     51  C   UNL     1       9.663  -9.446  -0.486  1.00  0.00     0.031 A 
ATOM     52  C   UNL     1       4.285  -9.076  -4.170  1.00  0.00     0.049 A 
ATOM     53  C   UNL     1       9.258 -10.087  -1.776  1.00  0.00     0.074 A 
ATOM     54  C   UNL     1       4.078  -9.636  -5.418  1.00  0.00     0.029 A 
ATOM     55  N   UNL     1       5.535  -9.499  -3.744  1.00  0.00    -0.354 N 
ATOM     56  N   UNL     1       8.148  -9.933  -2.456  1.00  0.00    -0.248 NA
ATOM     57  C   UNL     1      10.211 -11.032  -2.369  1.00  0.00     0.031 C 
ATOM     58  C   UNL     1       5.185 -10.434  -5.728  1.00  0.00     0.029 A 
ATOM     59  C   UNL     1       6.097 -10.340  -4.688  1.00  0.00     0.049 A 
ATOM     60  H   UNL     1       5.960  -9.240  -2.894  1.00  0.00     0.167 HD
ATOM     61  C   UNL     1       8.266 -10.764  -3.559  1.00  0.00     0.074 A 
ATOM     62  C   UNL     1       9.564 -11.404  -3.466  1.00  0.00     0.031 C 
ATOM     63  C   UNL     1       7.378 -10.981  -4.559  1.00  0.00     0.031 A 
BRANCH  50  64
ATOM     64  C   UNL     1       2.052  -7.916  -3.971  1.00  0.00    -0.014 A 
ATOM     65  C   UNL     1       1.764  -6.666  -4.539  1.00  0.00     0.009 A 
ATOM     66  C   UNL     1       1.062  -8.911  -3.977  1.00  0.00     0.009 A 
ATOM     67  C   UNL     1       0.502  -6.412  -5.084  1.00  0.00     0.001 A 
ATOM     68  C   UNL     1      -0.192  -8.660  -4.537  1.00  0.00     0.001 A 
ATOM     69  C   UNL     1      -0.473  -7.410  -5.086  1.00  0.00     0.000 A 
ENDBRANCH  50  64
BRANCH  51  70
ATOM     70  C   UNL     1      10.959  -9.755   0.164  1.00  0.00    -0.014 A 
ATOM     71  C   UNL     1      12.148  -9.195  -0.319  1.00  0.00     0.009 A 
ATOM     72  C   UNL     1      11.000 -10.567   1.309  1.00  0.00     0.009 A 
ATOM     73  C   UNL     1      13.358  -9.445   0.333  1.00  0.00     0.001 A 
ATOM     74  C   UNL     1      12.206 -10.795   1.972  1.00  0.00     0.001 A 
ATOM     75  C   UNL     1      13.384 -10.237   1.481  1.00  0.00     0.000 A 
ENDBRANCH  51  70
BRANCH  63  76
ATOM     76  C   UNL     1       7.790 -11.953  -5.622  1.00  0.00    -0.014 A 
ATOM     77  C   UNL     1       7.717 -13.335  -5.394  1.00  0.00     0.009 A 
ATOM     78  C   UNL     1       8.238 -11.482  -6.865  1.00  0.00     0.009 A 
ATOM     79  C   UNL     1       8.109 -14.231  -6.389  1.00  0.00     0.001 A 
ATOM     80  C   UNL     1       8.611 -12.382  -7.863  1.00  0.00     0.001 A 
ATOM     81  C   UNL     1       8.553 -13.754  -7.623  1.00  0.00     0.000 A 
ENDBRANCH  63  76
ENDBRANCH  37  38
ENDBRANCH  30  32
ENDBRANCH  29  30
ENDBRANCH  28  29
ENDBRANCH   1  28
TORSDOF 15
