REMARK SMILES CC[N@H+](CC(C)(C)C(=O)OCCOC(=O)c1ccc(-c2c3nc(c(-c4ccccc4)c4ccc([nH]4)c(-c4ccccc4)c4nc(c(-c5ccccc5)c5ccc2[nH]5)C=C4)C=C3)cc1)[C@H]1CC[NH2+]C1
REMARK SMILES IDX 11 1 10 2 8 3 9 4 5 5 6 6 7 7 4 8 3 9 2 11 1 12 64 13 65 14
REMARK SMILES IDX 68 15 66 16 67 17 12 20 13 21 14 22 15 23 16 24 17 25 63 26
REMARK SMILES IDX 18 27 62 28 19 29 20 30 21 31 56 32 22 33 61 34 55 35 57 36
REMARK SMILES IDX 23 37 60 38 54 39 53 40 24 42 46 43 31 44 45 45 32 46 35 47
REMARK SMILES IDX 44 48 58 49 33 50 34 51 43 53 59 54 36 55 25 56 26 57 30 58
REMARK SMILES IDX 27 59 29 60 28 61 47 62 48 63 52 64 49 65 51 66 50 67 37 68
REMARK SMILES IDX 38 69 42 70 39 71 41 72 40 73
REMARK H PARENT 3 10 67 18 67 19 57 41 35 52
REMARK Flexibility Score: inf
ROOT
ATOM      1  C   UNL     1       2.524   1.731   6.282  1.00  0.00     0.274 C 
ENDROOT
BRANCH   1   2
ATOM      2  O   UNL     1       3.581   1.680   5.299  1.00  0.00    -0.461 OA
BRANCH   2   3
ATOM      3  C   UNL     1       3.182   1.407   4.022  1.00  0.00     0.317 C 
ATOM      4  O   UNL     1       2.009   1.214   3.739  1.00  0.00    -0.251 OA
BRANCH   3   5
ATOM      5  C   UNL     1       4.363   1.303   3.032  1.00  0.00     0.111 C 
ATOM      6  C   UNL     1       4.825  -0.155   2.971  1.00  0.00     0.029 C 
ATOM      7  C   UNL     1       5.538   2.165   3.576  1.00  0.00     0.029 C 
BRANCH   5   8
ATOM      8  C   UNL     1       4.052   1.875   1.598  1.00  0.00     0.280 C 
BRANCH   8   9
ATOM      9  N   UNL     1       3.216   1.214   0.560  1.00  0.00    -0.327 N 
ATOM     10  H   UNL     1       3.747   0.384   0.297  1.00  0.00     0.348 HD
BRANCH   9  11
ATOM     11  C   UNL     1       1.912   0.739   1.061  1.00  0.00     0.259 C 
ATOM     12  C   UNL     1       0.956   0.081   0.066  1.00  0.00     0.071 C 
ENDBRANCH   9  11
BRANCH   9  13
ATOM     13  C   UNL     1       3.046   2.049  -0.659  1.00  0.00     0.245 C 
ATOM     14  C   UNL     1       3.916   3.289  -0.888  1.00  0.00     0.132 C 
ATOM     15  C   UNL     1       3.303   1.279  -1.970  1.00  0.00     0.326 C 
ATOM     16  C   UNL     1       3.622   3.592  -2.345  1.00  0.00     0.267 C 
ATOM     17  N   UNL     1       3.647   2.281  -3.004  1.00  0.00    -0.341 N 
ATOM     18  H   UNL     1       4.577   2.094  -3.378  1.00  0.00     0.346 HD
ATOM     19  H   UNL     1       2.988   2.248  -3.781  1.00  0.00     0.346 HD
ENDBRANCH   9  13
ENDBRANCH   8   9
ENDBRANCH   5   8
ENDBRANCH   3   5
ENDBRANCH   2   3
ENDBRANCH   1   2
BRANCH   1  20
ATOM     20  C   UNL     1       2.013   3.160   6.473  1.00  0.00     0.275 C 
BRANCH  20  21
ATOM     21  O   UNL     1       1.399   3.636   5.260  1.00  0.00    -0.458 OA
BRANCH  21  22
ATOM     22  C   UNL     1       1.666   4.911   4.910  1.00  0.00     0.338 C 
ATOM     23  O   UNL     1       2.329   5.731   5.540  1.00  0.00    -0.246 OA
BRANCH  22  24
ATOM     24  C   UNL     1       1.077   5.208   3.591  1.00  0.00     0.060 A 
ATOM     25  C   UNL     1       1.411   4.401   2.510  1.00  0.00     0.016 A 
ATOM     26  C   UNL     1       0.308   6.351   3.380  1.00  0.00     0.016 A 
ATOM     27  C   UNL     1       1.051   4.767   1.216  1.00  0.00     0.010 A 
ATOM     28  C   UNL     1      -0.114   6.681   2.079  1.00  0.00     0.010 A 
ATOM     29  C   UNL     1       0.290   5.913   0.972  1.00  0.00    -0.014 A 
BRANCH  29  30
ATOM     30  C   UNL     1       0.047   6.353  -0.435  1.00  0.00     0.031 A 
ATOM     31  C   UNL     1       0.613   7.668  -0.911  1.00  0.00     0.074 A 
ATOM     32  C   UNL     1      -0.562   5.560  -1.342  1.00  0.00     0.049 A 
ATOM     33  N   UNL     1       0.392   8.314  -2.029  1.00  0.00    -0.248 NA
ATOM     34  C   UNL     1       1.570   8.335  -0.013  1.00  0.00     0.031 C 
ATOM     35  C   UNL     1      -1.029   4.193  -1.108  1.00  0.00     0.029 A 
ATOM     36  N   UNL     1      -0.864   5.788  -2.666  1.00  0.00    -0.354 N 
ATOM     37  C   UNL     1       1.131   9.487  -1.941  1.00  0.00     0.074 A 
ATOM     38  C   UNL     1       1.821   9.458  -0.670  1.00  0.00     0.031 C 
ATOM     39  C   UNL     1      -1.509   3.689  -2.257  1.00  0.00     0.029 A 
ATOM     40  C   UNL     1      -1.484   4.728  -3.284  1.00  0.00     0.049 A 
ATOM     41  H   UNL     1      -0.656   6.632  -3.127  1.00  0.00     0.167 HD
ATOM     42  C   UNL     1       1.217  10.507  -2.829  1.00  0.00     0.031 A 
ATOM     43  C   UNL     1      -2.019   4.614  -4.516  1.00  0.00     0.031 A 
ATOM     44  C   UNL     1       0.566  10.535  -4.111  1.00  0.00     0.049 A 
ATOM     45  C   UNL     1      -2.020   5.803  -5.440  1.00  0.00     0.074 A 
ATOM     46  C   UNL     1       0.543  11.557  -5.046  1.00  0.00     0.029 A 
ATOM     47  N   UNL     1      -0.159   9.486  -4.649  1.00  0.00    -0.354 N 
ATOM     48  N   UNL     1      -1.447   6.972  -5.287  1.00  0.00    -0.248 NA
ATOM     49  C   UNL     1      -2.776   5.666  -6.696  1.00  0.00     0.031 C 
ATOM     50  C   UNL     1      -0.232  11.139  -6.133  1.00  0.00     0.029 A 
ATOM     51  C   UNL     1      -0.648   9.841  -5.895  1.00  0.00     0.049 A 
ATOM     52  H   UNL     1      -0.306   8.617  -4.210  1.00  0.00     0.167 HD
ATOM     53  C   UNL     1      -1.768   7.703  -6.425  1.00  0.00     0.074 A 
ATOM     54  C   UNL     1      -2.563   6.841  -7.273  1.00  0.00     0.031 C 
ATOM     55  C   UNL     1      -1.441   8.981  -6.733  1.00  0.00     0.031 A 
BRANCH  42  56
ATOM     56  C   UNL     1       1.987  11.722  -2.401  1.00  0.00    -0.014 A 
ATOM     57  C   UNL     1       3.389  11.745  -2.387  1.00  0.00     0.009 A 
ATOM     58  C   UNL     1       1.280  12.876  -2.022  1.00  0.00     0.009 A 
ATOM     59  C   UNL     1       4.067  12.893  -1.970  1.00  0.00     0.001 A 
ATOM     60  C   UNL     1       1.961  14.028  -1.631  1.00  0.00     0.001 A 
ATOM     61  C   UNL     1       3.354  14.033  -1.597  1.00  0.00     0.000 A 
ENDBRANCH  42  56
BRANCH  43  62
ATOM     62  C   UNL     1      -2.694   3.354  -4.932  1.00  0.00    -0.014 A 
ATOM     63  C   UNL     1      -2.182   2.578  -5.983  1.00  0.00     0.009 A 
ATOM     64  C   UNL     1      -3.887   2.949  -4.311  1.00  0.00     0.009 A 
ATOM     65  C   UNL     1      -2.862   1.435  -6.416  1.00  0.00     0.001 A 
ATOM     66  C   UNL     1      -4.546   1.789  -4.723  1.00  0.00     0.001 A 
ATOM     67  C   UNL     1      -4.039   1.039  -5.782  1.00  0.00     0.000 A 
ENDBRANCH  43  62
BRANCH  55  68
ATOM     68  C   UNL     1      -1.922   9.523  -8.049  1.00  0.00    -0.014 A 
ATOM     69  C   UNL     1      -3.267   9.874  -8.241  1.00  0.00     0.009 A 
ATOM     70  C   UNL     1      -1.009   9.729  -9.096  1.00  0.00     0.009 A 
ATOM     71  C   UNL     1      -3.693  10.396  -9.464  1.00  0.00     0.001 A 
ATOM     72  C   UNL     1      -1.433  10.273 -10.309  1.00  0.00     0.001 A 
ATOM     73  C   UNL     1      -2.776  10.600 -10.495  1.00  0.00     0.000 A 
ENDBRANCH  55  68
ENDBRANCH  29  30
ENDBRANCH  22  24
ENDBRANCH  21  22
ENDBRANCH  20  21
ENDBRANCH   1  20
TORSDOF 15
