REMARK SMILES CCC[N@H+](CC)[C@H]1CC[C@]([NH2+]C)(C(=O)OCCOC(=O)c2ccc(-c3c4nc(c(-c5ccccc5)c5ccc([nH]5)c(-c5ccccc5)c5nc(c(-c6ccccc6)c6ccc3[nH]6)C=C5)C=C4)cc2)C1
REMARK SMILES IDX 16 1 15 2 13 3 14 4 10 5 7 6 8 7 69 8 9 9 4 10 3 12 2 13
REMARK SMILES IDX 1 14 5 15 6 16 11 17 12 18 17 21 18 22 19 23 20 24 21 25
REMARK SMILES IDX 22 26 68 27 23 28 67 29 24 30 25 31 26 32 61 33 27 34 66 35
REMARK SMILES IDX 60 36 62 37 28 38 65 39 59 40 58 41 29 43 51 44 36 45 50 46
REMARK SMILES IDX 37 47 40 48 49 49 63 50 38 51 39 52 48 54 64 55 41 56 30 57
REMARK SMILES IDX 31 58 35 59 32 60 34 61 33 62 52 63 53 64 57 65 54 66 56 67
REMARK SMILES IDX 55 68 42 69 43 70 47 71 44 72 46 73 45 74
REMARK H PARENT 4 11 11 19 11 20 62 42 40 53
REMARK Flexibility Score: inf
ROOT
ATOM      1  C   UNL     1      -3.100   3.756  -0.182  1.00  0.00     0.274 C 
ENDROOT
BRANCH   1   2
ATOM      2  O   UNL     1      -1.978   3.159   0.497  1.00  0.00    -0.457 OA
BRANCH   2   3
ATOM      3  C   UNL     1      -0.783   3.271  -0.163  1.00  0.00     0.368 C 
ATOM      4  O   UNL     1      -0.674   3.845  -1.240  1.00  0.00    -0.245 OA
BRANCH   3   5
ATOM      5  C   UNL     1       0.365   2.538   0.591  1.00  0.00     0.200 C 
ATOM      6  C   UNL     1       0.782   0.497   1.910  1.00  0.00     0.191 C 
ATOM      7  C   UNL     1       0.340   1.620   2.877  1.00  0.00     0.072 C 
ATOM      8  C   UNL     1       0.094   1.021   0.632  1.00  0.00     0.146 C 
ATOM      9  C   UNL     1       0.427   2.928   2.092  1.00  0.00     0.087 C 
BRANCH   6  10
ATOM     10  N   UNL     1       2.251   0.265   1.709  1.00  0.00    -0.333 N 
ATOM     11  H   UNL     1       2.569   0.930   1.004  1.00  0.00     0.348 HD
BRANCH  10  12
ATOM     12  C   UNL     1       2.497  -1.129   1.234  1.00  0.00     0.262 C 
BRANCH  12  13
ATOM     13  C   UNL     1       2.154  -1.440  -0.229  1.00  0.00     0.058 C 
ATOM     14  C   UNL     1       2.988  -0.637  -1.216  1.00  0.00     0.010 C 
ENDBRANCH  12  13
ENDBRANCH  10  12
BRANCH  10  15
ATOM     15  C   UNL     1       3.018   0.501   2.959  1.00  0.00     0.258 C 
ATOM     16  C   UNL     1       4.538   0.346   2.847  1.00  0.00     0.071 C 
ENDBRANCH  10  15
ENDBRANCH   6  10
BRANCH   5  17
ATOM     17  N   UNL     1       1.729   2.839   0.050  1.00  0.00    -0.334 N 
ATOM     18  C   UNL     1       1.868   2.759  -1.400  1.00  0.00     0.331 C 
ATOM     19  H   UNL     1       2.384   2.175   0.463  1.00  0.00     0.347 HD
ATOM     20  H   UNL     1       1.916   3.812   0.293  1.00  0.00     0.347 HD
ENDBRANCH   5  17
ENDBRANCH   3   5
ENDBRANCH   2   3
ENDBRANCH   1   2
BRANCH   1  21
ATOM     21  C   UNL     1      -3.381   5.177   0.307  1.00  0.00     0.275 C 
BRANCH  21  22
ATOM     22  O   UNL     1      -2.219   6.015   0.181  1.00  0.00    -0.458 OA
BRANCH  22  23
ATOM     23  C   UNL     1      -1.605   6.324   1.344  1.00  0.00     0.338 C 
ATOM     24  O   UNL     1      -1.959   6.030   2.476  1.00  0.00    -0.246 OA
BRANCH  23  25
ATOM     25  C   UNL     1      -0.362   7.058   1.080  1.00  0.00     0.060 A 
ATOM     26  C   UNL     1       0.812   6.337   0.868  1.00  0.00     0.016 A 
ATOM     27  C   UNL     1      -0.324   8.444   1.216  1.00  0.00     0.016 A 
ATOM     28  C   UNL     1       2.042   6.984   0.849  1.00  0.00     0.010 A 
ATOM     29  C   UNL     1       0.908   9.102   1.155  1.00  0.00     0.010 A 
ATOM     30  C   UNL     1       2.103   8.372   1.007  1.00  0.00    -0.014 A 
BRANCH  30  31
ATOM     31  C   UNL     1       3.416   9.050   1.110  1.00  0.00     0.031 A 
ATOM     32  C   UNL     1       3.846   9.636   2.426  1.00  0.00     0.074 A 
ATOM     33  C   UNL     1       4.235   9.118   0.045  1.00  0.00     0.049 A 
ATOM     34  N   UNL     1       4.875  10.398   2.695  1.00  0.00    -0.248 NA
ATOM     35  C   UNL     1       3.004   9.323   3.592  1.00  0.00     0.031 C 
ATOM     36  C   UNL     1       3.978   8.518  -1.264  1.00  0.00     0.029 A 
ATOM     37  N   UNL     1       5.456   9.727  -0.098  1.00  0.00    -0.354 N 
ATOM     38  C   UNL     1       4.782  10.690   4.050  1.00  0.00     0.074 A 
ATOM     39  C   UNL     1       3.598  10.024   4.548  1.00  0.00     0.031 C 
ATOM     40  C   UNL     1       5.015   8.783  -2.076  1.00  0.00     0.029 A 
ATOM     41  C   UNL     1       5.974   9.622  -1.364  1.00  0.00     0.049 A 
ATOM     42  H   UNL     1       5.916  10.195   0.637  1.00  0.00     0.167 HD
ATOM     43  C   UNL     1       5.606  11.450   4.809  1.00  0.00     0.031 A 
ATOM     44  C   UNL     1       7.079  10.171  -1.902  1.00  0.00     0.031 A 
ATOM     45  C   UNL     1       6.794  12.095   4.319  1.00  0.00     0.049 A 
ATOM     46  C   UNL     1       7.941  11.066  -1.058  1.00  0.00     0.074 A 
ATOM     47  C   UNL     1       7.687  12.900   5.006  1.00  0.00     0.029 A 
ATOM     48  N   UNL     1       7.260  11.998   3.018  1.00  0.00    -0.354 N 
ATOM     49  N   UNL     1       7.811  11.388   0.206  1.00  0.00    -0.248 NA
ATOM     50  C   UNL     1       9.097  11.686  -1.723  1.00  0.00     0.031 C 
ATOM     51  C   UNL     1       8.678  13.316   4.110  1.00  0.00     0.029 A 
ATOM     52  C   UNL     1       8.422  12.738   2.877  1.00  0.00     0.049 A 
ATOM     53  H   UNL     1       6.830  11.480   2.300  1.00  0.00     0.167 HD
ATOM     54  C   UNL     1       8.872  12.236   0.492  1.00  0.00     0.074 A 
ATOM     55  C   UNL     1       9.646  12.366  -0.726  1.00  0.00     0.031 C 
ATOM     56  C   UNL     1       9.177  12.854   1.658  1.00  0.00     0.031 A 
BRANCH  43  57
ATOM     57  C   UNL     1       5.218  11.662   6.243  1.00  0.00    -0.014 A 
ATOM     58  C   UNL     1       5.393  10.656   7.205  1.00  0.00     0.009 A 
ATOM     59  C   UNL     1       4.682  12.898   6.637  1.00  0.00     0.009 A 
ATOM     60  C   UNL     1       5.012  10.876   8.530  1.00  0.00     0.001 A 
ATOM     61  C   UNL     1       4.322  13.122   7.967  1.00  0.00     0.001 A 
ATOM     62  C   UNL     1       4.480  12.108   8.911  1.00  0.00     0.000 A 
ENDBRANCH  43  57
BRANCH  44  63
ATOM     63  C   UNL     1       7.404   9.933  -3.330  1.00  0.00    -0.014 A 
ATOM     64  C   UNL     1       8.492   9.124  -3.688  1.00  0.00     0.009 A 
ATOM     65  C   UNL     1       6.630  10.521  -4.342  1.00  0.00     0.009 A 
ATOM     66  C   UNL     1       8.807   8.922  -5.034  1.00  0.00     0.001 A 
ATOM     67  C   UNL     1       6.933  10.298  -5.686  1.00  0.00     0.001 A 
ATOM     68  C   UNL     1       8.026   9.505  -6.031  1.00  0.00     0.000 A 
ENDBRANCH  44  63
BRANCH  56  69
ATOM     69  C   UNL     1      10.415  13.701   1.676  1.00  0.00    -0.014 A 
ATOM     70  C   UNL     1      10.427  14.977   1.092  1.00  0.00     0.009 A 
ATOM     71  C   UNL     1      11.572  13.229   2.314  1.00  0.00     0.009 A 
ATOM     72  C   UNL     1      11.586  15.754   1.123  1.00  0.00     0.001 A 
ATOM     73  C   UNL     1      12.723  14.016   2.361  1.00  0.00     0.001 A 
ATOM     74  C   UNL     1      12.731  15.274   1.760  1.00  0.00     0.000 A 
ENDBRANCH  56  69
ENDBRANCH  30  31
ENDBRANCH  23  25
ENDBRANCH  22  23
ENDBRANCH  21  22
ENDBRANCH   1  21
TORSDOF 16
