REMARK SMILES CCc1cc(C(=O)N[C@@H]2C=C[C@H](C(=O)OCCOC(=O)c3ccc(-c4c5nc(c(-c6ccccc6)c6ccc([nH]6)c(-c6ccccc6)c6nc(c(-c7ccccc7)c7ccc4[nH]7)C=C6)C=C5)cc3)C2)n(C)n1
REMARK SMILES IDX 16 1 15 2 13 3 14 4 12 5 9 6 10 7 69 8 11 9 8 10 6 11 7 12
REMARK SMILES IDX 5 14 3 15 4 16 72 17 70 18 71 19 2 20 1 21 17 22 18 23 19 24
REMARK SMILES IDX 20 25 21 26 22 27 68 28 23 29 67 30 24 31 25 32 26 33 61 34
REMARK SMILES IDX 27 35 66 36 60 37 62 38 28 39 65 40 59 41 58 42 29 44 51 45
REMARK SMILES IDX 36 46 50 47 37 48 40 49 49 50 63 51 38 52 39 53 48 55 64 56
REMARK SMILES IDX 41 57 30 58 31 59 35 60 32 61 34 62 33 63 52 64 53 65 57 66
REMARK SMILES IDX 54 67 56 68 55 69 42 70 43 71 47 72 44 73 46 74 45 75
REMARK H PARENT 8 13 62 43 40 54
REMARK Flexibility Score: inf
ROOT
ATOM      1  C   UNL     1       4.668  -3.399   6.696  1.00  0.00     0.274 C 
ENDROOT
BRANCH   1   2
ATOM      2  O   UNL     1       3.557  -2.628   6.197  1.00  0.00    -0.462 OA
BRANCH   2   3
ATOM      3  C   UNL     1       2.676  -2.180   7.136  1.00  0.00     0.312 C 
ATOM      4  O   UNL     1       2.686  -2.501   8.318  1.00  0.00    -0.252 OA
BRANCH   3   5
ATOM      5  C   UNL     1       1.633  -1.268   6.496  1.00  0.00     0.124 C 
ATOM      6  C   UNL     1       1.658   1.172   6.045  1.00  0.00     0.106 C 
ATOM      7  C   UNL     1       0.889   0.828   7.281  1.00  0.00    -0.006 C 
ATOM      8  C   UNL     1       2.248  -0.172   5.602  1.00  0.00     0.048 C 
ATOM      9  C   UNL     1       0.877  -0.484   7.528  1.00  0.00    -0.014 C 
BRANCH   6  10
ATOM     10  N   UNL     1       2.628   2.175   6.411  1.00  0.00    -0.344 N 
ATOM     11  C   UNL     1       3.630   2.848   5.776  1.00  0.00     0.270 C 
ATOM     12  O   UNL     1       4.276   3.601   6.509  1.00  0.00    -0.268 OA
ATOM     13  H   UNL     1       2.546   2.441   7.355  1.00  0.00     0.164 HD
BRANCH  11  14
ATOM     14  C   UNL     1       3.988   2.702   4.388  1.00  0.00     0.126 A 
ATOM     15  C   UNL     1       5.188   2.885   2.498  1.00  0.00     0.063 A 
ATOM     16  C   UNL     1       5.271   2.933   3.901  1.00  0.00     0.059 A 
ATOM     17  N   UNL     1       3.952   2.561   2.111  1.00  0.00    -0.178 NA
ATOM     18  N   UNL     1       3.233   2.534   3.256  1.00  0.00    -0.263 N 
ATOM     19  C   UNL     1       1.800   2.537   3.108  1.00  0.00     0.174 C 
BRANCH  15  20
ATOM     20  C   UNL     1       6.229   3.237   1.486  1.00  0.00     0.055 C 
ATOM     21  C   UNL     1       7.598   2.640   1.766  1.00  0.00     0.011 C 
ENDBRANCH  15  20
ENDBRANCH  11  14
ENDBRANCH   6  10
ENDBRANCH   3   5
ENDBRANCH   2   3
ENDBRANCH   1   2
BRANCH   1  22
ATOM     22  C   UNL     1       5.889  -2.497   6.862  1.00  0.00     0.275 C 
BRANCH  22  23
ATOM     23  O   UNL     1       5.582  -1.459   7.809  1.00  0.00    -0.458 OA
BRANCH  23  24
ATOM     24  C   UNL     1       6.061  -0.230   7.513  1.00  0.00     0.338 C 
ATOM     25  O   UNL     1       6.788   0.065   6.574  1.00  0.00    -0.246 OA
BRANCH  24  26
ATOM     26  C   UNL     1       5.582   0.754   8.505  1.00  0.00     0.060 A 
ATOM     27  C   UNL     1       4.262   0.738   8.954  1.00  0.00     0.016 A 
ATOM     28  C   UNL     1       6.439   1.777   8.915  1.00  0.00     0.016 A 
ATOM     29  C   UNL     1       3.773   1.794   9.725  1.00  0.00     0.010 A 
ATOM     30  C   UNL     1       5.969   2.784   9.767  1.00  0.00     0.010 A 
ATOM     31  C   UNL     1       4.617   2.835  10.144  1.00  0.00    -0.014 A 
BRANCH  31  32
ATOM     32  C   UNL     1       4.083   3.986  10.934  1.00  0.00     0.031 A 
ATOM     33  C   UNL     1       4.247   5.407  10.442  1.00  0.00     0.074 A 
ATOM     34  C   UNL     1       3.427   3.775  12.094  1.00  0.00     0.049 A 
ATOM     35  N   UNL     1       3.962   6.534  11.052  1.00  0.00    -0.248 NA
ATOM     36  C   UNL     1       4.805   5.590   9.094  1.00  0.00     0.031 C 
ATOM     37  C   UNL     1       3.155   2.468  12.694  1.00  0.00     0.029 A 
ATOM     38  N   UNL     1       2.862   4.666  12.976  1.00  0.00    -0.354 N 
ATOM     39  C   UNL     1       4.348   7.548  10.181  1.00  0.00     0.074 A 
ATOM     40  C   UNL     1       4.881   6.910   8.999  1.00  0.00     0.031 C 
ATOM     41  C   UNL     1       2.439   2.638  13.816  1.00  0.00     0.029 A 
ATOM     42  C   UNL     1       2.281   4.066  14.067  1.00  0.00     0.049 A 
ATOM     43  H   UNL     1       2.873   5.641  12.839  1.00  0.00     0.167 HD
ATOM     44  C   UNL     1       4.276   8.890  10.347  1.00  0.00     0.031 A 
ATOM     45  C   UNL     1       1.725   4.592  15.175  1.00  0.00     0.031 A 
ATOM     46  C   UNL     1       3.728   9.545  11.504  1.00  0.00     0.049 A 
ATOM     47  C   UNL     1       1.702   6.080  15.361  1.00  0.00     0.074 A 
ATOM     48  C   UNL     1       3.610  10.902  11.752  1.00  0.00     0.029 A 
ATOM     49  N   UNL     1       3.201   8.890  12.604  1.00  0.00    -0.354 N 
ATOM     50  N   UNL     1       2.116   7.019  14.547  1.00  0.00    -0.248 NA
ATOM     51  C   UNL     1       1.159   6.578  16.633  1.00  0.00     0.031 C 
ATOM     52  C   UNL     1       3.047  11.069  13.022  1.00  0.00     0.029 A 
ATOM     53  C   UNL     1       2.777   9.815  13.543  1.00  0.00     0.049 A 
ATOM     54  H   UNL     1       3.138   7.912  12.703  1.00  0.00     0.167 HD
ATOM     55  C   UNL     1       1.892   8.217  15.210  1.00  0.00     0.074 A 
ATOM     56  C   UNL     1       1.276   7.890  16.479  1.00  0.00     0.031 C 
ATOM     57  C   UNL     1       2.184   9.477  14.808  1.00  0.00     0.031 A 
BRANCH  44  58
ATOM     58  C   UNL     1       4.847   9.759   9.262  1.00  0.00    -0.014 A 
ATOM     59  C   UNL     1       4.149   9.994   8.069  1.00  0.00     0.009 A 
ATOM     60  C   UNL     1       6.078  10.402   9.471  1.00  0.00     0.009 A 
ATOM     61  C   UNL     1       4.682  10.846   7.098  1.00  0.00     0.001 A 
ATOM     62  C   UNL     1       6.598  11.267   8.508  1.00  0.00     0.001 A 
ATOM     63  C   UNL     1       5.902  11.486   7.320  1.00  0.00     0.000 A 
ENDBRANCH  44  58
BRANCH  45  64
ATOM     64  C   UNL     1       1.212   3.689  16.237  1.00  0.00    -0.014 A 
ATOM     65  C   UNL     1      -0.165   3.569  16.474  1.00  0.00     0.009 A 
ATOM     66  C   UNL     1       2.106   2.934  17.013  1.00  0.00     0.009 A 
ATOM     67  C   UNL     1      -0.635   2.713  17.473  1.00  0.00     0.001 A 
ATOM     68  C   UNL     1       1.631   2.058  17.990  1.00  0.00     0.001 A 
ATOM     69  C   UNL     1       0.262   1.953  18.223  1.00  0.00     0.000 A 
ENDBRANCH  45  64
BRANCH  57  70
ATOM     70  C   UNL     1       1.837  10.590  15.751  1.00  0.00    -0.014 A 
ATOM     71  C   UNL     1       2.624  10.842  16.885  1.00  0.00     0.009 A 
ATOM     72  C   UNL     1       0.726  11.407  15.493  1.00  0.00     0.009 A 
ATOM     73  C   UNL     1       2.284  11.873  17.763  1.00  0.00     0.001 A 
ATOM     74  C   UNL     1       0.402  12.450  16.361  1.00  0.00     0.001 A 
ATOM     75  C   UNL     1       1.175  12.677  17.499  1.00  0.00     0.000 A 
ENDBRANCH  57  70
ENDBRANCH  31  32
ENDBRANCH  24  26
ENDBRANCH  23  24
ENDBRANCH  22  23
ENDBRANCH   1  22
TORSDOF 14
