REMARK SMILES NS(=O)(=O)c1ccc(-n2nc(C(F)(F)F)cc2-c2ccc(CC(=O)OCCOC(=O)c3ccc(-c4c5nc(c(-c6ccccc6)c6ccc([nH]6)c(-c6ccccc6)c6nc(c(-c7ccccc7)c7ccc4[nH]7)C=C6)C=C5)cc3)cc2)cc1
REMARK SMILES IDX 25 1 23 2 24 3 22 4 21 5 18 6 19 7 80 8 20 9 79 10 17 11
REMARK SMILES IDX 9 12 10 13 11 14 16 15 8 16 5 17 6 18 82 19 7 20 81 21 2 22
REMARK SMILES IDX 3 23 4 24 1 25 12 28 13 29 14 30 15 31 26 32 27 33 28 34
REMARK SMILES IDX 29 35 30 36 31 37 32 38 78 39 33 40 77 41 34 42 35 43 36 44
REMARK SMILES IDX 71 45 37 46 76 47 70 48 72 49 38 50 75 51 69 52 68 53 39 55
REMARK SMILES IDX 61 56 46 57 60 58 47 59 50 60 59 61 73 62 48 63 49 64 58 66
REMARK SMILES IDX 74 67 51 68 40 69 41 70 45 71 42 72 44 73 43 74 62 75 63 76
REMARK SMILES IDX 67 77 64 78 66 79 65 80 52 81 53 82 57 83 54 84 56 85 55 86
REMARK H PARENT 1 26 1 27 72 54 50 65
REMARK Flexibility Score: inf
ROOT
ATOM      1  O   UNL     1      -4.348  -4.707  -1.500  1.00  0.00    -0.462 OA
ENDROOT
BRANCH   1   2
ATOM      2  C   UNL     1      -4.776  -4.687  -2.792  1.00  0.00     0.310 C 
ATOM      3  O   UNL     1      -5.631  -3.915  -3.221  1.00  0.00    -0.252 OA
BRANCH   2   4
ATOM      4  C   UNL     1      -4.191  -5.781  -3.659  1.00  0.00     0.158 C 
BRANCH   4   5
ATOM      5  C   UNL     1      -2.759  -6.197  -3.416  1.00  0.00    -0.037 A 
ATOM      6  C   UNL     1      -0.075  -6.923  -2.938  1.00  0.00     0.000 A 
ATOM      7  C   UNL     1      -0.377  -5.761  -3.653  1.00  0.00     0.010 A 
ATOM      8  C   UNL     1      -1.119  -7.748  -2.510  1.00  0.00     0.010 A 
ATOM      9  C   UNL     1      -1.705  -5.420  -3.907  1.00  0.00     0.005 A 
ATOM     10  C   UNL     1      -2.451  -7.378  -2.732  1.00  0.00     0.005 A 
BRANCH   6  11
ATOM     11  C   UNL     1       1.315  -7.251  -2.636  1.00  0.00     0.075 A 
ATOM     12  N   UNL     1       2.194  -6.431  -1.937  1.00  0.00    -0.233 N 
ATOM     13  N   UNL     1       3.481  -6.854  -2.050  1.00  0.00    -0.163 NA
ATOM     14  C   UNL     1       3.400  -8.049  -2.668  1.00  0.00     0.167 A 
ATOM     15  C   UNL     1       2.071  -8.315  -3.079  1.00  0.00     0.064 A 
BRANCH  12  16
ATOM     16  C   UNL     1       1.880  -5.265  -1.188  1.00  0.00     0.065 A 
ATOM     17  C   UNL     1       1.163  -2.912   0.119  1.00  0.00     0.082 A 
ATOM     18  C   UNL     1       0.365  -4.050   0.261  1.00  0.00     0.024 A 
ATOM     19  C   UNL     1       2.329  -2.949  -0.654  1.00  0.00     0.024 A 
ATOM     20  C   UNL     1       0.722  -5.226  -0.399  1.00  0.00     0.030 A 
ATOM     21  C   UNL     1       2.706  -4.138  -1.286  1.00  0.00     0.030 A 
BRANCH  17  22
ATOM     22  S   UNL     1       0.651  -1.428   0.930  1.00  0.00     0.238 S 
ATOM     23  O   UNL     1       1.337  -1.346   2.202  1.00  0.00    -0.207 OA
ATOM     24  O   UNL     1      -0.779  -1.289   0.810  1.00  0.00    -0.207 OA
BRANCH  22  25
ATOM     25  N   UNL     1       1.287  -0.190  -0.013  1.00  0.00    -0.225 NA
ATOM     26  H   UNL     1       1.033   0.711   0.393  1.00  0.00     0.137 HD
ATOM     27  H   UNL     1       0.910  -0.255  -0.958  1.00  0.00     0.137 HD
ENDBRANCH  22  25
ENDBRANCH  17  22
ENDBRANCH  12  16
BRANCH  14  28
ATOM     28  C   UNL     1       4.588  -8.947  -2.897  1.00  0.00     0.435 C 
ATOM     29  F   UNL     1       5.689  -8.283  -3.334  1.00  0.00    -0.164 F 
ATOM     30  F   UNL     1       4.945  -9.616  -1.767  1.00  0.00    -0.164 F 
ATOM     31  F   UNL     1       4.319  -9.902  -3.832  1.00  0.00    -0.164 F 
ENDBRANCH  14  28
ENDBRANCH   6  11
ENDBRANCH   4   5
ENDBRANCH   2   4
ENDBRANCH   1   2
BRANCH   1  32
ATOM     32  C   UNL     1      -4.913  -3.698  -0.634  1.00  0.00     0.274 C 
BRANCH  32  33
ATOM     33  C   UNL     1      -4.088  -2.415  -0.581  1.00  0.00     0.275 C 
BRANCH  33  34
ATOM     34  O   UNL     1      -4.062  -1.721  -1.830  1.00  0.00    -0.458 OA
BRANCH  34  35
ATOM     35  C   UNL     1      -3.010  -2.071  -2.599  1.00  0.00     0.338 C 
ATOM     36  O   UNL     1      -2.285  -3.040  -2.455  1.00  0.00    -0.246 OA
BRANCH  35  37
ATOM     37  C   UNL     1      -2.655  -1.002  -3.529  1.00  0.00     0.060 A 
ATOM     38  C   UNL     1      -1.846  -1.332  -4.621  1.00  0.00     0.016 A 
ATOM     39  C   UNL     1      -2.838   0.322  -3.118  1.00  0.00     0.016 A 
ATOM     40  C   UNL     1      -1.087  -0.340  -5.205  1.00  0.00     0.010 A 
ATOM     41  C   UNL     1      -2.078   1.310  -3.701  1.00  0.00     0.010 A 
ATOM     42  C   UNL     1      -1.158   0.959  -4.688  1.00  0.00    -0.014 A 
BRANCH  42  43
ATOM     43  C   UNL     1      -0.381   1.998  -5.336  1.00  0.00     0.031 A 
ATOM     44  C   UNL     1      -0.879   2.274  -6.702  1.00  0.00     0.074 A 
ATOM     45  C   UNL     1       0.585   2.709  -4.719  1.00  0.00     0.049 A 
ATOM     46  N   UNL     1      -0.290   1.989  -7.813  1.00  0.00    -0.248 NA
ATOM     47  C   UNL     1      -2.272   2.730  -6.859  1.00  0.00     0.031 C 
ATOM     48  C   UNL     1       0.949   2.674  -3.299  1.00  0.00     0.029 A 
ATOM     49  N   UNL     1       1.378   3.705  -5.208  1.00  0.00    -0.354 N 
ATOM     50  C   UNL     1      -1.138   2.459  -8.810  1.00  0.00     0.074 A 
ATOM     51  C   UNL     1      -2.410   2.703  -8.185  1.00  0.00     0.031 C 
ATOM     52  C   UNL     1       1.691   3.767  -2.998  1.00  0.00     0.029 A 
ATOM     53  C   UNL     1       1.982   4.487  -4.227  1.00  0.00     0.049 A 
ATOM     54  H   UNL     1       1.512   3.857  -6.171  1.00  0.00     0.167 HD
ATOM     55  C   UNL     1      -0.621   2.936  -9.974  1.00  0.00     0.031 A 
ATOM     56  C   UNL     1       2.643   5.657  -4.417  1.00  0.00     0.031 A 
ATOM     57  C   UNL     1       0.765   2.571 -10.111  1.00  0.00     0.049 A 
ATOM     58  C   UNL     1       3.063   5.703  -5.831  1.00  0.00     0.074 A 
ATOM     59  C   UNL     1       1.487   1.442 -10.424  1.00  0.00     0.029 A 
ATOM     60  N   UNL     1       1.611   3.439  -9.473  1.00  0.00    -0.354 N 
ATOM     61  N   UNL     1       3.960   4.902  -6.328  1.00  0.00    -0.248 NA
ATOM     62  C   UNL     1       2.233   6.400  -6.806  1.00  0.00     0.031 C 
ATOM     63  C   UNL     1       2.759   1.603  -9.795  1.00  0.00     0.029 A 
ATOM     64  C   UNL     1       2.801   2.846  -9.166  1.00  0.00     0.049 A 
ATOM     65  H   UNL     1       1.388   4.375  -9.261  1.00  0.00     0.167 HD
ATOM     66  C   UNL     1       3.509   4.647  -7.608  1.00  0.00     0.074 A 
ATOM     67  C   UNL     1       2.570   5.722  -7.907  1.00  0.00     0.031 C 
ATOM     68  C   UNL     1       3.684   3.418  -8.172  1.00  0.00     0.031 A 
BRANCH  55  69
ATOM     69  C   UNL     1      -1.148   4.179 -10.659  1.00  0.00    -0.014 A 
ATOM     70  C   UNL     1      -0.527   4.596 -11.851  1.00  0.00     0.009 A 
ATOM     71  C   UNL     1      -1.992   5.114 -10.028  1.00  0.00     0.009 A 
ATOM     72  C   UNL     1      -0.698   5.895 -12.347  1.00  0.00     0.001 A 
ATOM     73  C   UNL     1      -2.191   6.400 -10.539  1.00  0.00     0.001 A 
ATOM     74  C   UNL     1      -1.525   6.798 -11.687  1.00  0.00     0.000 A 
ENDBRANCH  55  69
BRANCH  56  75
ATOM     75  C   UNL     1       2.768   6.849  -3.548  1.00  0.00    -0.014 A 
ATOM     76  C   UNL     1       3.794   7.787  -3.757  1.00  0.00     0.009 A 
ATOM     77  C   UNL     1       1.695   7.228  -2.723  1.00  0.00     0.009 A 
ATOM     78  C   UNL     1       3.722   9.074  -3.204  1.00  0.00     0.001 A 
ATOM     79  C   UNL     1       1.622   8.514  -2.173  1.00  0.00     0.001 A 
ATOM     80  C   UNL     1       2.626   9.443  -2.428  1.00  0.00     0.000 A 
ENDBRANCH  56  75
BRANCH  68  81
ATOM     81  C   UNL     1       4.770   2.545  -7.616  1.00  0.00    -0.014 A 
ATOM     82  C   UNL     1       4.765   2.009  -6.318  1.00  0.00     0.009 A 
ATOM     83  C   UNL     1       5.810   2.189  -8.487  1.00  0.00     0.009 A 
ATOM     84  C   UNL     1       5.793   1.156  -5.901  1.00  0.00     0.001 A 
ATOM     85  C   UNL     1       6.821   1.322  -8.078  1.00  0.00     0.001 A 
ATOM     86  C   UNL     1       6.816   0.810  -6.783  1.00  0.00     0.000 A 
ENDBRANCH  68  81
ENDBRANCH  42  43
ENDBRANCH  35  37
ENDBRANCH  34  35
ENDBRANCH  33  34
ENDBRANCH  32  33
ENDBRANCH   1  32
TORSDOF 17
