REMARK SMILES O=C(Nc1ccccc1C(=O)OCCOC(=O)c1ccc(-c2c3nc(c(-c4ccccc4)c4ccc([nH]4)c(-c4ccccc4)c4nc(c(-c5ccccc5)c5ccc2[nH]5)C=C4)C=C3)cc1)c1ccc(N2C(=O)[C@H]3CC=CC[C@H]3C2=O)cc1
REMARK SMILES IDX 13 1 12 2 10 3 11 4 9 5 4 6 5 7 6 8 8 9 7 10 3 11 1 12 2 13
REMARK SMILES IDX 66 15 67 16 82 17 68 18 81 19 69 20 70 21 71 22 79 23 72 24
REMARK SMILES IDX 73 25 78 26 80 27 74 28 77 29 75 30 76 31 14 32 15 33 16 34
REMARK SMILES IDX 17 35 18 36 19 37 65 38 20 39 64 40 21 41 22 42 23 43 58 44
REMARK SMILES IDX 24 45 63 46 57 47 59 48 25 49 62 50 56 51 55 52 26 54 48 55
REMARK SMILES IDX 33 56 47 57 34 58 37 59 46 60 60 61 35 62 36 63 45 65 61 66
REMARK SMILES IDX 38 67 27 68 28 69 32 70 29 71 31 72 30 73 49 74 50 75 54 76
REMARK SMILES IDX 51 77 53 78 52 79 39 80 40 81 44 82 41 83 43 84 42 85
REMARK H PARENT 3 14 59 53 37 64
REMARK Flexibility Score: inf
ROOT
ATOM      1  C   UNL     1       2.471   2.297   1.910  1.00  0.00     0.275 C 
ENDROOT
BRANCH   1   2
ATOM      2  O   UNL     1       3.135   1.017   1.787  1.00  0.00    -0.458 OA
BRANCH   2   3
ATOM      3  C   UNL     1       4.269   1.015   1.041  1.00  0.00     0.340 C 
ATOM      4  O   UNL     1       4.832   1.992   0.587  1.00  0.00    -0.246 OA
BRANCH   3   5
ATOM      5  C   UNL     1       4.806  -0.349   0.827  1.00  0.00     0.083 A 
ATOM      6  C   UNL     1       4.081  -1.407   0.262  1.00  0.00     0.056 A 
ATOM      7  C   UNL     1       4.687  -2.678   0.209  1.00  0.00     0.027 A 
ATOM      8  C   UNL     1       6.018  -2.871   0.589  1.00  0.00     0.002 A 
ATOM      9  C   UNL     1       6.146  -0.562   1.207  1.00  0.00     0.018 A 
ATOM     10  C   UNL     1       6.757  -1.805   1.073  1.00  0.00     0.001 A 
BRANCH   6  11
ATOM     11  N   UNL     1       2.784  -1.345  -0.287  1.00  0.00    -0.321 N 
ATOM     12  O   UNL     1       0.880  -0.418  -1.058  1.00  0.00    -0.269 OA
ATOM     13  C   UNL     1       2.101  -0.340  -0.935  1.00  0.00     0.255 C 
ATOM     14  H   UNL     1       2.269  -2.178  -0.190  1.00  0.00     0.170 HD
BRANCH  13  15
ATOM     15  C   UNL     1       2.806   0.803  -1.565  1.00  0.00     0.040 A 
ATOM     16  C   UNL     1       4.010   0.657  -2.264  1.00  0.00     0.016 A 
ATOM     17  C   UNL     1       2.243   2.071  -1.415  1.00  0.00     0.016 A 
ATOM     18  C   UNL     1       4.699   1.792  -2.715  1.00  0.00     0.027 A 
ATOM     19  C   UNL     1       2.964   3.201  -1.802  1.00  0.00     0.027 A 
ATOM     20  C   UNL     1       4.211   3.075  -2.431  1.00  0.00     0.052 A 
BRANCH  20  21
ATOM     21  N   UNL     1       4.939   4.239  -2.761  1.00  0.00    -0.250 N 
ATOM     22  C   UNL     1       5.622   4.420  -3.935  1.00  0.00     0.238 C 
ATOM     23  C   UNL     1       5.038   5.324  -1.924  1.00  0.00     0.238 C 
ATOM     24  O   UNL     1       5.822   3.608  -4.829  1.00  0.00    -0.274 OA
ATOM     25  C   UNL     1       6.050   5.868  -4.030  1.00  0.00     0.096 C 
ATOM     26  C   UNL     1       5.773   6.434  -2.633  1.00  0.00     0.096 C 
ATOM     27  O   UNL     1       4.660   5.420  -0.762  1.00  0.00    -0.274 OA
ATOM     28  C   UNL     1       5.288   6.553  -5.174  1.00  0.00     0.041 C 
ATOM     29  C   UNL     1       4.904   7.693  -2.579  1.00  0.00     0.041 C 
ATOM     30  C   UNL     1       3.941   7.071  -4.760  1.00  0.00    -0.030 C 
ATOM     31  C   UNL     1       3.763   7.614  -3.549  1.00  0.00    -0.030 C 
ENDBRANCH  20  21
ENDBRANCH  13  15
ENDBRANCH   6  11
ENDBRANCH   3   5
ENDBRANCH   2   3
ENDBRANCH   1   2
BRANCH   1  32
ATOM     32  C   UNL     1       2.719   3.001   3.244  1.00  0.00     0.275 C 
BRANCH  32  33
ATOM     33  O   UNL     1       4.050   3.538   3.309  1.00  0.00    -0.458 OA
BRANCH  33  34
ATOM     34  C   UNL     1       4.954   2.688   3.832  1.00  0.00     0.338 C 
ATOM     35  O   UNL     1       4.752   1.581   4.306  1.00  0.00    -0.246 OA
BRANCH  34  36
ATOM     36  C   UNL     1       6.312   3.212   3.675  1.00  0.00     0.060 A 
ATOM     37  C   UNL     1       7.066   2.703   2.626  1.00  0.00     0.016 A 
ATOM     38  C   UNL     1       6.920   3.954   4.680  1.00  0.00     0.016 A 
ATOM     39  C   UNL     1       8.443   2.762   2.651  1.00  0.00     0.010 A 
ATOM     40  C   UNL     1       8.305   4.132   4.638  1.00  0.00     0.010 A 
ATOM     41  C   UNL     1       9.081   3.485   3.656  1.00  0.00    -0.014 A 
BRANCH  41  42
ATOM     42  C   UNL     1      10.559   3.493   3.709  1.00  0.00     0.031 A 
ATOM     43  C   UNL     1      11.252   2.971   4.934  1.00  0.00     0.074 A 
ATOM     44  C   UNL     1      11.270   3.927   2.651  1.00  0.00     0.049 A 
ATOM     45  N   UNL     1      12.504   3.091   5.287  1.00  0.00    -0.248 NA
ATOM     46  C   UNL     1      10.420   2.235   5.902  1.00  0.00     0.031 C 
ATOM     47  C   UNL     1      10.710   4.363   1.367  1.00  0.00     0.029 A 
ATOM     48  N   UNL     1      12.622   4.070   2.486  1.00  0.00    -0.354 N 
ATOM     49  C   UNL     1      12.595   2.510   6.547  1.00  0.00     0.074 A 
ATOM     50  C   UNL     1      11.272   2.043   6.898  1.00  0.00     0.031 C 
ATOM     51  C   UNL     1      11.710   4.700   0.542  1.00  0.00     0.029 A 
ATOM     52  C   UNL     1      12.965   4.615   1.274  1.00  0.00     0.049 A 
ATOM     53  H   UNL     1      13.282   3.808   3.168  1.00  0.00     0.167 HD
ATOM     54  C   UNL     1      13.687   2.394   7.338  1.00  0.00     0.031 A 
ATOM     55  C   UNL     1      14.149   5.066   0.825  1.00  0.00     0.031 A 
ATOM     56  C   UNL     1      14.997   2.847   6.950  1.00  0.00     0.049 A 
ATOM     57  C   UNL     1      15.332   4.995   1.745  1.00  0.00     0.074 A 
ATOM     58  C   UNL     1      16.180   2.790   7.664  1.00  0.00     0.029 A 
ATOM     59  N   UNL     1      15.294   3.432   5.726  1.00  0.00    -0.354 N 
ATOM     60  N   UNL     1      15.400   4.515   2.963  1.00  0.00    -0.248 NA
ATOM     61  C   UNL     1      16.594   5.538   1.234  1.00  0.00     0.031 C 
ATOM     62  C   UNL     1      17.181   3.390   6.893  1.00  0.00     0.029 A 
ATOM     63  C   UNL     1      16.638   3.759   5.672  1.00  0.00     0.049 A 
ATOM     64  H   UNL     1      14.645   3.591   5.003  1.00  0.00     0.167 HD
ATOM     65  C   UNL     1      16.718   4.681   3.362  1.00  0.00     0.074 A 
ATOM     66  C   UNL     1      17.416   5.287   2.244  1.00  0.00     0.031 C 
ATOM     67  C   UNL     1      17.300   4.365   4.545  1.00  0.00     0.031 A 
BRANCH  54  68
ATOM     68  C   UNL     1      13.490   1.815   8.712  1.00  0.00    -0.014 A 
ATOM     69  C   UNL     1      13.169   0.463   8.911  1.00  0.00     0.009 A 
ATOM     70  C   UNL     1      13.629   2.648   9.835  1.00  0.00     0.009 A 
ATOM     71  C   UNL     1      12.948  -0.031  10.200  1.00  0.00     0.001 A 
ATOM     72  C   UNL     1      13.441   2.144  11.124  1.00  0.00     0.001 A 
ATOM     73  C   UNL     1      13.088   0.809  11.305  1.00  0.00     0.000 A 
ENDBRANCH  54  68
BRANCH  55  74
ATOM     74  C   UNL     1      14.242   5.685  -0.523  1.00  0.00    -0.014 A 
ATOM     75  C   UNL     1      14.951   5.054  -1.554  1.00  0.00     0.009 A 
ATOM     76  C   UNL     1      13.590   6.901  -0.794  1.00  0.00     0.009 A 
ATOM     77  C   UNL     1      15.017   5.634  -2.824  1.00  0.00     0.001 A 
ATOM     78  C   UNL     1      13.628   7.460  -2.072  1.00  0.00     0.001 A 
ATOM     79  C   UNL     1      14.349   6.830  -3.084  1.00  0.00     0.000 A 
ENDBRANCH  55  74
BRANCH  67  80
ATOM     80  C   UNL     1      18.773   4.632   4.662  1.00  0.00    -0.014 A 
ATOM     81  C   UNL     1      19.274   5.938   4.769  1.00  0.00     0.009 A 
ATOM     82  C   UNL     1      19.668   3.551   4.696  1.00  0.00     0.009 A 
ATOM     83  C   UNL     1      20.648   6.158   4.870  1.00  0.00     0.001 A 
ATOM     84  C   UNL     1      21.038   3.772   4.830  1.00  0.00     0.001 A 
ATOM     85  C   UNL     1      21.528   5.075   4.906  1.00  0.00     0.000 A 
ENDBRANCH  67  80
ENDBRANCH  41  42
ENDBRANCH  34  36
ENDBRANCH  33  34
ENDBRANCH  32  33
ENDBRANCH   1  32
TORSDOF 14
