REMARK SMILES C[C@@H]1[NH2+]CC[C@H]1C(=O)N[C@@H]1CCC[C@H](C(=O)OCCOC(=O)c2ccc(-c3c4nc(c(-c5ccccc5)c5ccc([nH]5)c(-c5ccccc5)c5nc(c(-c6ccccc6)c6ccc3[nH]6)C=C5)C=C4)cc2)C1
REMARK SMILES IDX 18 1 17 2 15 3 16 4 14 5 10 6 11 7 71 8 12 9 13 10 9 11 7 12
REMARK SMILES IDX 8 13 6 15 1 16 2 17 3 18 4 19 5 22 19 23 20 24 21 25 22 26
REMARK SMILES IDX 23 27 24 28 70 29 25 30 69 31 26 32 27 33 28 34 63 35 29 36
REMARK SMILES IDX 68 37 62 38 64 39 30 40 67 41 61 42 60 43 31 45 53 46 38 47
REMARK SMILES IDX 52 48 39 49 42 50 51 51 65 52 40 53 41 54 50 56 66 57 43 58
REMARK SMILES IDX 32 59 33 60 37 61 34 62 36 63 35 64 54 65 55 66 59 67 56 68
REMARK SMILES IDX 58 69 57 70 44 71 45 72 49 73 46 74 48 75 47 76
REMARK H PARENT 9 14 3 20 3 21 64 44 42 55
REMARK Flexibility Score: inf
ROOT
ATOM      1  C   UNL     1       1.599  -4.375   0.852  1.00  0.00     0.274 C 
ENDROOT
BRANCH   1   2
ATOM      2  O   UNL     1       1.060  -3.604   1.945  1.00  0.00    -0.462 OA
BRANCH   2   3
ATOM      3  C   UNL     1      -0.029  -2.872   1.616  1.00  0.00     0.309 C 
ATOM      4  O   UNL     1      -0.546  -2.869   0.501  1.00  0.00    -0.252 OA
BRANCH   3   5
ATOM      5  C   UNL     1      -0.514  -1.925   2.693  1.00  0.00     0.101 C 
ATOM      6  C   UNL     1      -0.623   0.606   2.999  1.00  0.00     0.082 C 
ATOM      7  C   UNL     1      -0.363   0.381   4.505  1.00  0.00     0.025 C 
ATOM      8  C   UNL     1      -0.061  -0.559   2.226  1.00  0.00     0.040 C 
ATOM      9  C   UNL     1      -0.717  -1.033   4.999  1.00  0.00     0.003 C 
ATOM     10  C   UNL     1      -0.097  -2.142   4.136  1.00  0.00     0.015 C 
BRANCH   6  11
ATOM     11  N   UNL     1      -0.014   1.872   2.557  1.00  0.00    -0.353 N 
ATOM     12  C   UNL     1       0.241   2.487   1.372  1.00  0.00     0.229 C 
ATOM     13  O   UNL     1       0.741   3.617   1.477  1.00  0.00    -0.275 OA
ATOM     14  H   UNL     1       0.287   2.416   3.321  1.00  0.00     0.163 HD
BRANCH  12  15
ATOM     15  C   UNL     1       0.007   1.931  -0.037  1.00  0.00     0.142 C 
ATOM     16  C   UNL     1       2.241   1.333  -1.144  1.00  0.00     0.076 C 
ATOM     17  C   UNL     1       0.956   0.826  -0.503  1.00  0.00     0.192 C 
ATOM     18  N   UNL     1       0.194   0.057  -1.496  1.00  0.00    -0.343 N 
ATOM     19  C   UNL     1      -1.229   0.182  -1.186  1.00  0.00     0.261 C 
ATOM     20  H   UNL     1       0.469  -0.924  -1.457  1.00  0.00     0.346 HD
ATOM     21  H   UNL     1       0.380   0.413  -2.433  1.00  0.00     0.346 HD
ATOM     22  C   UNL     1      -1.401   1.433  -0.335  1.00  0.00     0.081 C 
ENDBRANCH  12  15
ENDBRANCH   6  11
ENDBRANCH   3   5
ENDBRANCH   2   3
ENDBRANCH   1   2
BRANCH   1  23
ATOM     23  C   UNL     1       0.992  -5.780   0.744  1.00  0.00     0.275 C 
BRANCH  23  24
ATOM     24  O   UNL     1      -0.415  -5.774   0.429  1.00  0.00    -0.458 OA
BRANCH  24  25
ATOM     25  C   UNL     1      -1.236  -5.724   1.504  1.00  0.00     0.338 C 
ATOM     26  O   UNL     1      -0.913  -5.706   2.680  1.00  0.00    -0.246 OA
BRANCH  25  27
ATOM     27  C   UNL     1      -2.634  -5.547   1.080  1.00  0.00     0.060 A 
ATOM     28  C   UNL     1      -3.261  -4.336   1.385  1.00  0.00     0.016 A 
ATOM     29  C   UNL     1      -3.365  -6.601   0.534  1.00  0.00     0.016 A 
ATOM     30  C   UNL     1      -4.622  -4.170   1.173  1.00  0.00     0.010 A 
ATOM     31  C   UNL     1      -4.739  -6.438   0.324  1.00  0.00     0.010 A 
ATOM     32  C   UNL     1      -5.374  -5.231   0.666  1.00  0.00    -0.014 A 
BRANCH  32  33
ATOM     33  C   UNL     1      -6.845  -5.098   0.605  1.00  0.00     0.031 A 
ATOM     34  C   UNL     1      -7.686  -5.765   1.653  1.00  0.00     0.074 A 
ATOM     35  C   UNL     1      -7.416  -4.335  -0.342  1.00  0.00     0.049 A 
ATOM     36  N   UNL     1      -8.989  -5.854   1.734  1.00  0.00    -0.248 NA
ATOM     37  C   UNL     1      -6.965  -6.412   2.761  1.00  0.00     0.031 C 
ATOM     38  C   UNL     1      -6.696  -3.563  -1.356  1.00  0.00     0.029 A 
ATOM     39  N   UNL     1      -8.738  -4.082  -0.601  1.00  0.00    -0.354 N 
ATOM     40  C   UNL     1      -9.243  -6.588   2.884  1.00  0.00     0.074 A 
ATOM     41  C   UNL     1      -7.962  -6.924   3.468  1.00  0.00     0.031 C 
ATOM     42  C   UNL     1      -7.588  -2.928  -2.133  1.00  0.00     0.029 A 
ATOM     43  C   UNL     1      -8.936  -3.288  -1.702  1.00  0.00     0.049 A 
ATOM     44  H   UNL     1      -9.474  -4.436  -0.051  1.00  0.00     0.167 HD
ATOM     45  C   UNL     1     -10.438  -6.955   3.403  1.00  0.00     0.031 A 
ATOM     46  C   UNL     1     -10.077  -2.926  -2.317  1.00  0.00     0.031 A 
ATOM     47  C   UNL     1     -11.708  -6.625   2.815  1.00  0.00     0.049 A 
ATOM     48  C   UNL     1     -11.389  -3.415  -1.773  1.00  0.00     0.074 A 
ATOM     49  C   UNL     1     -12.977  -6.974   3.243  1.00  0.00     0.029 A 
ATOM     50  N   UNL     1     -11.867  -5.861   1.669  1.00  0.00    -0.354 N 
ATOM     51  N   UNL     1     -11.618  -4.155  -0.714  1.00  0.00    -0.248 NA
ATOM     52  C   UNL     1     -12.597  -3.027  -2.513  1.00  0.00     0.031 C 
ATOM     53  C   UNL     1     -13.903  -6.451   2.333  1.00  0.00     0.029 A 
ATOM     54  C   UNL     1     -13.211  -5.740   1.364  1.00  0.00     0.049 A 
ATOM     55  H   UNL     1     -11.131  -5.464   1.149  1.00  0.00     0.167 HD
ATOM     56  C   UNL     1     -12.996  -4.314  -0.656  1.00  0.00     0.074 A 
ATOM     57  C   UNL     1     -13.551  -3.578  -1.775  1.00  0.00     0.031 C 
ATOM     58  C   UNL     1     -13.737  -5.010   0.241  1.00  0.00     0.031 A 
BRANCH  45  59
ATOM     59  C   UNL     1     -10.413  -7.804   4.640  1.00  0.00    -0.014 A 
ATOM     60  C   UNL     1     -10.104  -7.257   5.895  1.00  0.00     0.009 A 
ATOM     61  C   UNL     1     -10.702  -9.174   4.545  1.00  0.00     0.009 A 
ATOM     62  C   UNL     1     -10.053  -8.075   7.026  1.00  0.00     0.001 A 
ATOM     63  C   UNL     1     -10.672  -9.984   5.681  1.00  0.00     0.001 A 
ATOM     64  C   UNL     1     -10.338  -9.436   6.919  1.00  0.00     0.000 A 
ENDBRANCH  45  59
BRANCH  46  65
ATOM     65  C   UNL     1     -10.019  -2.100  -3.549  1.00  0.00    -0.014 A 
ATOM     66  C   UNL     1     -10.426  -0.759  -3.534  1.00  0.00     0.009 A 
ATOM     67  C   UNL     1      -9.542  -2.654  -4.748  1.00  0.00     0.009 A 
ATOM     68  C   UNL     1     -10.368   0.008  -4.700  1.00  0.00     0.001 A 
ATOM     69  C   UNL     1      -9.462  -1.878  -5.905  1.00  0.00     0.001 A 
ATOM     70  C   UNL     1      -9.881  -0.550  -5.882  1.00  0.00     0.000 A 
ENDBRANCH  46  65
BRANCH  58  71
ATOM     71  C   UNL     1     -15.226  -4.988   0.055  1.00  0.00    -0.014 A 
ATOM     72  C   UNL     1     -15.841  -5.762  -0.940  1.00  0.00     0.009 A 
ATOM     73  C   UNL     1     -16.023  -4.211   0.910  1.00  0.00     0.009 A 
ATOM     74  C   UNL     1     -17.228  -5.737  -1.093  1.00  0.00     0.001 A 
ATOM     75  C   UNL     1     -17.410  -4.205   0.768  1.00  0.00     0.001 A 
ATOM     76  C   UNL     1     -18.011  -4.962  -0.237  1.00  0.00     0.000 A 
ENDBRANCH  58  71
ENDBRANCH  32  33
ENDBRANCH  25  27
ENDBRANCH  24  25
ENDBRANCH  23  24
ENDBRANCH   1  23
TORSDOF 13
