REMARK SMILES O=C1C[C@@H](C(=O)OCCOC(=O)c2ccc(-c3c4nc(c(-c5ccccc5)c5ccc([nH]5)c(-c5ccccc5)c5nc(c(-c6ccccc6)c6ccc3[nH]6)C=C5)C=C4)cc2)C2(CC[NH+](Cc3c[nH]nc3-c3ccc(Cl)cc3)CC2)N1
REMARK SMILES IDX 8 1 7 2 5 3 6 4 4 5 1 6 2 7 3 8 80 9 61 10 62 12 79 13 63 14
REMARK SMILES IDX 78 15 64 16 65 18 66 19 67 20 70 21 68 22 69 23 71 25 72 26
REMARK SMILES IDX 77 27 73 28 76 29 74 30 75 31 9 32 10 33 11 34 12 35 13 36
REMARK SMILES IDX 14 37 60 38 15 39 59 40 16 41 17 42 18 43 53 44 19 45 58 46
REMARK SMILES IDX 52 47 54 48 20 49 57 50 51 51 50 52 21 54 43 55 28 56 42 57
REMARK SMILES IDX 29 58 32 59 41 60 55 61 30 62 31 63 40 65 56 66 33 67 22 68
REMARK SMILES IDX 23 69 27 70 24 71 26 72 25 73 44 74 45 75 49 76 46 77 48 78
REMARK SMILES IDX 47 79 34 80 35 81 39 82 36 83 38 84 37 85
REMARK H PARENT 80 11 64 17 68 24 54 53 32 64
REMARK Flexibility Score: inf
ROOT
ATOM      1  C   UNL     1       2.592   2.671  -3.626  1.00  0.00     0.274 C 
ENDROOT
BRANCH   1   2
ATOM      2  O   UNL     1       2.933   1.996  -2.397  1.00  0.00    -0.462 OA
BRANCH   2   3
ATOM      3  C   UNL     1       3.476   0.767  -2.540  1.00  0.00     0.311 C 
ATOM      4  O   UNL     1       3.592   0.187  -3.617  1.00  0.00    -0.252 OA
BRANCH   3   5
ATOM      5  C   UNL     1       3.900   0.086  -1.251  1.00  0.00     0.134 C 
ATOM      6  O   UNL     1       0.916  -0.452   0.615  1.00  0.00    -0.275 OA
ATOM      7  C   UNL     1       2.013  -0.169   0.180  1.00  0.00     0.221 C 
ATOM      8  C   UNL     1       2.760  -0.893  -0.907  1.00  0.00     0.117 C 
ATOM      9  N   UNL     1       2.814   0.847   0.643  1.00  0.00    -0.349 N 
ATOM     10  C   UNL     1       4.152   0.854   0.068  1.00  0.00     0.064 C 
ATOM     11  H   UNL     1       2.511   1.511   1.304  1.00  0.00     0.164 HD
ATOM     12  C   UNL     1       4.661   2.300  -0.003  1.00  0.00     0.091 C 
ATOM     13  C   UNL     1       5.064  -0.008   1.002  1.00  0.00     0.091 C 
ATOM     14  C   UNL     1       6.174   2.446  -0.080  1.00  0.00     0.264 C 
ATOM     15  C   UNL     1       6.558   0.337   1.005  1.00  0.00     0.264 C 
ATOM     16  N   UNL     1       6.877   1.752   0.978  1.00  0.00    -0.331 N 
ATOM     17  H   UNL     1       7.865   1.760   0.724  1.00  0.00     0.348 HD
BRANCH  16  18
ATOM     18  C   UNL     1       7.049   2.475   2.245  1.00  0.00     0.303 C 
BRANCH  18  19
ATOM     19  C   UNL     1       5.821   2.592   3.088  1.00  0.00     0.052 A 
ATOM     20  C   UNL     1       5.287   1.603   3.894  1.00  0.00     0.115 A 
ATOM     21  C   UNL     1       5.006   3.742   3.378  1.00  0.00     0.101 A 
ATOM     22  N   UNL     1       4.160   2.115   4.451  1.00  0.00    -0.285 N 
ATOM     23  N   UNL     1       3.975   3.407   4.173  1.00  0.00    -0.175 NA
ATOM     24  H   UNL     1       3.541   1.587   5.005  1.00  0.00     0.189 HD
BRANCH  21  25
ATOM     25  C   UNL     1       5.171   5.147   2.998  1.00  0.00     0.003 A 
ATOM     26  C   UNL     1       5.248   6.114   4.012  1.00  0.00     0.012 A 
ATOM     27  C   UNL     1       5.195   5.572   1.666  1.00  0.00     0.012 A 
ATOM     28  C   UNL     1       5.362   7.472   3.700  1.00  0.00     0.021 A 
ATOM     29  C   UNL     1       5.313   6.930   1.349  1.00  0.00     0.021 A 
ATOM     30  C   UNL     1       5.397   7.874   2.369  1.00  0.00     0.041 A 
ATOM     31  Cl  UNL     1       5.527   9.544   1.979  1.00  0.00    -0.084 Cl
ENDBRANCH  21  25
ENDBRANCH  18  19
ENDBRANCH  16  18
ENDBRANCH   3   5
ENDBRANCH   2   3
ENDBRANCH   1   2
BRANCH   1  32
ATOM     32  C   UNL     1       3.756   3.526  -4.136  1.00  0.00     0.275 C 
BRANCH  32  33
ATOM     33  O   UNL     1       4.945   2.726  -4.290  1.00  0.00    -0.458 OA
BRANCH  33  34
ATOM     34  C   UNL     1       6.035   3.163  -3.622  1.00  0.00     0.338 C 
ATOM     35  O   UNL     1       6.130   4.179  -2.953  1.00  0.00    -0.246 OA
BRANCH  34  36
ATOM     36  C   UNL     1       7.152   2.204  -3.741  1.00  0.00     0.060 A 
ATOM     37  C   UNL     1       6.983   0.868  -3.376  1.00  0.00     0.016 A 
ATOM     38  C   UNL     1       8.425   2.684  -4.044  1.00  0.00     0.016 A 
ATOM     39  C   UNL     1       8.088   0.032  -3.232  1.00  0.00     0.010 A 
ATOM     40  C   UNL     1       9.520   1.816  -4.005  1.00  0.00     0.010 A 
ATOM     41  C   UNL     1       9.368   0.485  -3.579  1.00  0.00    -0.014 A 
BRANCH  41  42
ATOM     42  C   UNL     1      10.534  -0.438  -3.566  1.00  0.00     0.031 A 
ATOM     43  C   UNL     1      11.751  -0.143  -2.733  1.00  0.00     0.074 A 
ATOM     44  C   UNL     1      10.524  -1.519  -4.369  1.00  0.00     0.049 A 
ATOM     45  N   UNL     1      12.925  -0.722  -2.756  1.00  0.00    -0.248 NA
ATOM     46  C   UNL     1      11.639   0.953  -1.758  1.00  0.00     0.031 C 
ATOM     47  C   UNL     1       9.406  -1.936  -5.218  1.00  0.00     0.029 A 
ATOM     48  N   UNL     1      11.497  -2.454  -4.620  1.00  0.00    -0.354 N 
ATOM     49  C   UNL     1      13.709  -0.031  -1.840  1.00  0.00     0.074 A 
ATOM     50  C   UNL     1      12.874   1.011  -1.278  1.00  0.00     0.031 C 
ATOM     51  C   UNL     1       9.750  -3.044  -5.888  1.00  0.00     0.029 A 
ATOM     52  C   UNL     1      11.138  -3.366  -5.583  1.00  0.00     0.049 A 
ATOM     53  H   UNL     1      12.366  -2.470  -4.157  1.00  0.00     0.167 HD
ATOM     54  C   UNL     1      15.007  -0.239  -1.509  1.00  0.00     0.031 A 
ATOM     55  C   UNL     1      11.853  -4.322  -6.203  1.00  0.00     0.031 A 
ATOM     56  C   UNL     1      15.831  -1.287  -2.059  1.00  0.00     0.049 A 
ATOM     57  C   UNL     1      13.296  -4.508  -5.852  1.00  0.00     0.074 A 
ATOM     58  C   UNL     1      17.142  -1.607  -1.746  1.00  0.00     0.029 A 
ATOM     59  N   UNL     1      15.427  -2.181  -3.039  1.00  0.00    -0.354 N 
ATOM     60  N   UNL     1      14.023  -3.849  -4.984  1.00  0.00    -0.248 NA
ATOM     61  C   UNL     1      14.018  -5.566  -6.570  1.00  0.00     0.031 C 
ATOM     62  C   UNL     1      17.548  -2.657  -2.578  1.00  0.00     0.029 A 
ATOM     63  C   UNL     1      16.472  -3.030  -3.366  1.00  0.00     0.049 A 
ATOM     64  H   UNL     1      14.529  -2.208  -3.443  1.00  0.00     0.167 HD
ATOM     65  C   UNL     1      15.288  -4.417  -5.044  1.00  0.00     0.074 A 
ATOM     66  C   UNL     1      15.221  -5.488  -6.018  1.00  0.00     0.031 C 
ATOM     67  C   UNL     1      16.402  -4.079  -4.351  1.00  0.00     0.031 A 
BRANCH  54  68
ATOM     68  C   UNL     1      15.640   0.721  -0.538  1.00  0.00    -0.014 A 
ATOM     69  C   UNL     1      15.311   0.720   0.826  1.00  0.00     0.009 A 
ATOM     70  C   UNL     1      16.616   1.620  -0.998  1.00  0.00     0.009 A 
ATOM     71  C   UNL     1      15.918   1.625   1.701  1.00  0.00     0.001 A 
ATOM     72  C   UNL     1      17.242   2.505  -0.117  1.00  0.00     0.001 A 
ATOM     73  C   UNL     1      16.885   2.514   1.229  1.00  0.00     0.000 A 
ENDBRANCH  54  68
BRANCH  55  74
ATOM     74  C   UNL     1      11.203  -5.137  -7.260  1.00  0.00    -0.014 A 
ATOM     75  C   UNL     1      10.858  -6.474  -7.017  1.00  0.00     0.009 A 
ATOM     76  C   UNL     1      10.868  -4.559  -8.496  1.00  0.00     0.009 A 
ATOM     77  C   UNL     1      10.192  -7.217  -7.994  1.00  0.00     0.001 A 
ATOM     78  C   UNL     1      10.176  -5.295  -9.458  1.00  0.00     0.001 A 
ATOM     79  C   UNL     1       9.843  -6.625  -9.208  1.00  0.00     0.000 A 
ENDBRANCH  55  74
BRANCH  67  80
ATOM     80  C   UNL     1      17.636  -4.895  -4.612  1.00  0.00    -0.014 A 
ATOM     81  C   UNL     1      18.362  -4.755  -5.805  1.00  0.00     0.009 A 
ATOM     82  C   UNL     1      18.087  -5.805  -3.643  1.00  0.00     0.009 A 
ATOM     83  C   UNL     1      19.497  -5.536  -6.037  1.00  0.00     0.001 A 
ATOM     84  C   UNL     1      19.236  -6.565  -3.866  1.00  0.00     0.001 A 
ATOM     85  C   UNL     1      19.934  -6.437  -5.066  1.00  0.00     0.000 A 
ENDBRANCH  67  80
ENDBRANCH  41  42
ENDBRANCH  34  36
ENDBRANCH  33  34
ENDBRANCH  32  33
ENDBRANCH   1  32
TORSDOF 14
