REMARK SMILES CCC1(CC)CCN(c2nc(C(C)C)c(C(=O)OCCOC(=O)c3ccc(-c4c5nc(c(-c6ccccc6)c6ccc([nH]6)c(-c6ccccc6)c6nc(c(-c7ccccc7)c7ccc4[nH]7)C=C6)C=C5)cc3)s2)C1
REMARK SMILES IDX 19 1 18 2 16 3 17 4 15 5 9 6 10 7 72 8 11 9 8 10 3 11 6 12
REMARK SMILES IDX 73 13 7 14 2 15 1 16 4 17 5 18 12 19 13 20 14 21 20 22 21 23
REMARK SMILES IDX 22 24 23 25 24 26 25 27 71 28 26 29 70 30 27 31 28 32 29 33
REMARK SMILES IDX 64 34 30 35 69 36 63 37 65 38 31 39 68 40 62 41 61 42 32 44
REMARK SMILES IDX 54 45 39 46 53 47 40 48 43 49 52 50 66 51 41 52 42 53 51 55
REMARK SMILES IDX 67 56 44 57 33 58 34 59 38 60 35 61 37 62 36 63 55 64 56 65
REMARK SMILES IDX 60 66 57 67 59 68 58 69 45 70 46 71 50 72 47 73 49 74 48 75
REMARK H PARENT 65 43 43 54
REMARK Flexibility Score: inf
ROOT
ATOM      1  C   UNL     1      -1.676  11.663   0.985  1.00  0.00     0.275 C 
ENDROOT
BRANCH   1   2
ATOM      2  O   UNL     1      -0.835  10.492   0.925  1.00  0.00    -0.458 OA
BRANCH   2   3
ATOM      3  C   UNL     1      -1.156   9.435   1.723  1.00  0.00     0.350 C 
ATOM      4  O   UNL     1      -2.135   9.419   2.460  1.00  0.00    -0.245 OA
BRANCH   3   5
ATOM      5  C   UNL     1      -0.242   8.326   1.515  1.00  0.00     0.137 A 
ATOM      6  C   UNL     1       0.638   6.045   1.276  1.00  0.00     0.186 A 
ATOM      7  N   UNL     1       1.566   6.929   0.988  1.00  0.00    -0.224 NA
ATOM      8  S   UNL     1      -0.816   6.735   1.861  1.00  0.00    -0.089 S 
ATOM      9  C   UNL     1       1.087   8.243   1.117  1.00  0.00     0.071 A 
BRANCH   6  10
ATOM     10  N   UNL     1       0.775   4.697   1.224  1.00  0.00    -0.347 N 
ATOM     11  C   UNL     1       1.078   2.583   0.094  1.00  0.00    -0.011 C 
ATOM     12  C   UNL     1       2.324   2.962   0.926  1.00  0.00     0.030 C 
ATOM     13  C   UNL     1       0.277   3.933   0.085  1.00  0.00     0.126 C 
ATOM     14  C   UNL     1       1.858   4.029   1.909  1.00  0.00     0.119 C 
BRANCH  11  15
ATOM     15  C   UNL     1       0.207   1.500   0.802  1.00  0.00     0.005 C 
ATOM     16  C   UNL     1       0.676   0.054   0.704  1.00  0.00     0.004 C 
ENDBRANCH  11  15
BRANCH  11  17
ATOM     17  C   UNL     1       1.470   2.201  -1.363  1.00  0.00     0.005 C 
ATOM     18  C   UNL     1       2.625   1.216  -1.544  1.00  0.00     0.004 C 
ENDBRANCH  11  17
ENDBRANCH   6  10
BRANCH   9  19
ATOM     19  C   UNL     1       2.093   9.352   0.890  1.00  0.00     0.034 C 
ATOM     20  C   UNL     1       1.940  10.058  -0.458  1.00  0.00     0.014 C 
ATOM     21  C   UNL     1       2.151  10.344   2.056  1.00  0.00     0.014 C 
ENDBRANCH   9  19
ENDBRANCH   3   5
ENDBRANCH   2   3
ENDBRANCH   1   2
BRANCH   1  22
ATOM     22  C   UNL     1      -2.440  11.868  -0.326  1.00  0.00     0.275 C 
BRANCH  22  23
ATOM     23  O   UNL     1      -3.452  10.857  -0.483  1.00  0.00    -0.458 OA
BRANCH  23  24
ATOM     24  C   UNL     1      -3.088   9.805  -1.249  1.00  0.00     0.338 C 
ATOM     25  O   UNL     1      -2.052   9.660  -1.874  1.00  0.00    -0.246 OA
BRANCH  24  26
ATOM     26  C   UNL     1      -4.061   8.722  -1.063  1.00  0.00     0.060 A 
ATOM     27  C   UNL     1      -3.685   7.692  -0.207  1.00  0.00     0.016 A 
ATOM     28  C   UNL     1      -5.258   8.649  -1.767  1.00  0.00     0.016 A 
ATOM     29  C   UNL     1      -4.469   6.559  -0.065  1.00  0.00     0.010 A 
ATOM     30  C   UNL     1      -6.074   7.521  -1.599  1.00  0.00     0.010 A 
ATOM     31  C   UNL     1      -5.676   6.461  -0.760  1.00  0.00    -0.014 A 
BRANCH  31  32
ATOM     32  C   UNL     1      -6.475   5.216  -0.647  1.00  0.00     0.031 A 
ATOM     33  C   UNL     1      -6.637   4.325  -1.846  1.00  0.00     0.074 A 
ATOM     34  C   UNL     1      -7.007   4.859   0.538  1.00  0.00     0.049 A 
ATOM     35  N   UNL     1      -7.387   3.262  -1.991  1.00  0.00    -0.248 NA
ATOM     36  C   UNL     1      -5.854   4.677  -3.042  1.00  0.00     0.031 C 
ATOM     37  C   UNL     1      -6.849   5.593   1.796  1.00  0.00     0.029 A 
ATOM     38  N   UNL     1      -7.783   3.780   0.880  1.00  0.00    -0.354 N 
ATOM     39  C   UNL     1      -7.198   2.844  -3.303  1.00  0.00     0.074 A 
ATOM     40  C   UNL     1      -6.272   3.772  -3.915  1.00  0.00     0.031 C 
ATOM     41  C   UNL     1      -7.492   4.935   2.773  1.00  0.00     0.029 A 
ATOM     42  C   UNL     1      -8.170   3.779   2.199  1.00  0.00     0.049 A 
ATOM     43  H   UNL     1      -8.037   3.074   0.242  1.00  0.00     0.167 HD
ATOM     44  C   UNL     1      -7.749   1.782  -3.937  1.00  0.00     0.031 A 
ATOM     45  C   UNL     1      -9.012   2.963   2.861  1.00  0.00     0.031 A 
ATOM     46  C   UNL     1      -8.656   0.855  -3.314  1.00  0.00     0.049 A 
ATOM     47  C   UNL     1      -9.677   1.843   2.110  1.00  0.00     0.074 A 
ATOM     48  C   UNL     1      -9.277  -0.250  -3.870  1.00  0.00     0.029 A 
ATOM     49  N   UNL     1      -9.066   0.921  -1.991  1.00  0.00    -0.354 N 
ATOM     50  N   UNL     1      -9.523   1.480   0.860  1.00  0.00    -0.248 NA
ATOM     51  C   UNL     1     -10.638   1.024   2.861  1.00  0.00     0.031 C 
ATOM     52  C   UNL     1     -10.103  -0.822  -2.897  1.00  0.00     0.029 A 
ATOM     53  C   UNL     1      -9.948  -0.111  -1.718  1.00  0.00     0.049 A 
ATOM     54  H   UNL     1      -8.773   1.600  -1.341  1.00  0.00     0.167 HD
ATOM     55  C   UNL     1     -10.348   0.378   0.681  1.00  0.00     0.074 A 
ATOM     56  C   UNL     1     -10.983   0.119   1.957  1.00  0.00     0.031 C 
ATOM     57  C   UNL     1     -10.565  -0.353  -0.440  1.00  0.00     0.031 A 
BRANCH  44  58
ATOM     58  C   UNL     1      -7.425   1.595  -5.393  1.00  0.00    -0.014 A 
ATOM     59  C   UNL     1      -6.158   1.166  -5.816  1.00  0.00     0.009 A 
ATOM     60  C   UNL     1      -8.422   1.819  -6.356  1.00  0.00     0.009 A 
ATOM     61  C   UNL     1      -5.888   0.995  -7.176  1.00  0.00     0.001 A 
ATOM     62  C   UNL     1      -8.159   1.618  -7.712  1.00  0.00     0.001 A 
ATOM     63  C   UNL     1      -6.889   1.215  -8.122  1.00  0.00     0.000 A 
ENDBRANCH  44  58
BRANCH  45  64
ATOM     64  C   UNL     1      -9.326   3.210   4.294  1.00  0.00    -0.014 A 
ATOM     65  C   UNL     1      -8.944   2.290   5.283  1.00  0.00     0.009 A 
ATOM     66  C   UNL     1     -10.035   4.360   4.678  1.00  0.00     0.009 A 
ATOM     67  C   UNL     1      -9.292   2.504   6.620  1.00  0.00     0.001 A 
ATOM     68  C   UNL     1     -10.350   4.588   6.019  1.00  0.00     0.001 A 
ATOM     69  C   UNL     1      -9.989   3.654   6.987  1.00  0.00     0.000 A 
ENDBRANCH  45  64
BRANCH  57  70
ATOM     70  C   UNL     1     -11.494  -1.528  -0.320  1.00  0.00    -0.014 A 
ATOM     71  C   UNL     1     -12.879  -1.353  -0.174  1.00  0.00     0.009 A 
ATOM     72  C   UNL     1     -10.975  -2.830  -0.388  1.00  0.00     0.009 A 
ATOM     73  C   UNL     1     -13.721  -2.461  -0.062  1.00  0.00     0.001 A 
ATOM     74  C   UNL     1     -11.822  -3.935  -0.308  1.00  0.00     0.001 A 
ATOM     75  C   UNL     1     -13.192  -3.750  -0.134  1.00  0.00     0.000 A 
ENDBRANCH  57  70
ENDBRANCH  31  32
ENDBRANCH  24  26
ENDBRANCH  23  24
ENDBRANCH  22  23
ENDBRANCH   1  22
TORSDOF 15
