REMARK SMILES C[C@H]1CC[C@@](C(=O)OCCOC(=O)c2ccc(-c3c4nc(c(-c5ccccc5)c5ccc([nH]5)c(-c5ccccc5)c5nc(c(-c6ccccc6)c6ccc3[nH]6)C=C5)C=C4)cc2)(C2CCCCC2)C1
REMARK SMILES IDX 10 1 9 2 8 3 6 4 7 5 5 6 1 7 2 8 3 9 68 10 4 11 62 12 63 13
REMARK SMILES IDX 67 14 64 15 66 16 65 17 11 18 12 19 13 20 14 21 15 22 61 23
REMARK SMILES IDX 16 24 60 25 17 26 18 27 19 28 54 29 20 30 59 31 53 32 55 33
REMARK SMILES IDX 21 34 58 35 52 36 51 37 22 39 44 40 29 41 43 42 30 43 33 44
REMARK SMILES IDX 42 45 56 46 31 47 32 48 41 50 57 51 34 52 23 53 24 54 28 55
REMARK SMILES IDX 25 56 27 57 26 58 45 59 46 60 50 61 47 62 49 63 48 64 35 65
REMARK SMILES IDX 36 66 40 67 37 68 39 69 38 70
REMARK H PARENT 55 38 33 49
REMARK Flexibility Score: inf
ROOT
ATOM      1  C   UNL     1      -0.851   1.275  -4.535  1.00  0.00     0.275 C 
ENDROOT
BRANCH   1   2
ATOM      2  C   UNL     1       0.189   1.393  -3.422  1.00  0.00     0.274 C 
BRANCH   2   3
ATOM      3  O   UNL     1      -0.213   0.629  -2.262  1.00  0.00    -0.462 OA
BRANCH   3   4
ATOM      4  C   UNL     1      -0.736   1.325  -1.217  1.00  0.00     0.312 C 
ATOM      5  O   UNL     1      -0.930   2.536  -1.235  1.00  0.00    -0.252 OA
BRANCH   4   6
ATOM      6  C   UNL     1      -0.957   0.466   0.055  1.00  0.00     0.071 C 
ATOM      7  C   UNL     1       2.420  -0.146   1.713  1.00  0.00     0.007 C 
ATOM      8  C   UNL     1       1.338  -0.103   0.646  1.00  0.00    -0.013 C 
ATOM      9  C   UNL     1       0.588  -1.419   0.515  1.00  0.00     0.004 C 
ATOM     10  C   UNL     1       0.217   0.877   0.988  1.00  0.00     0.022 C 
ATOM     11  C   UNL     1      -0.739  -1.060  -0.152  1.00  0.00     0.019 C 
BRANCH   6  12
ATOM     12  C   UNL     1      -2.389   0.804   0.632  1.00  0.00     0.006 C 
ATOM     13  C   UNL     1      -3.524   0.121  -0.173  1.00  0.00     0.005 C 
ATOM     14  C   UNL     1      -2.563   0.484   2.134  1.00  0.00     0.005 C 
ATOM     15  C   UNL     1      -4.913   0.454   0.371  1.00  0.00     0.000 C 
ATOM     16  C   UNL     1      -3.965   0.801   2.654  1.00  0.00     0.000 C 
ATOM     17  C   UNL     1      -5.043   0.100   1.844  1.00  0.00     0.000 C 
ENDBRANCH   6  12
ENDBRANCH   4   6
ENDBRANCH   3   4
ENDBRANCH   2   3
ENDBRANCH   1   2
BRANCH   1  18
ATOM     18  O   UNL     1      -2.043   1.954  -4.112  1.00  0.00    -0.458 OA
BRANCH  18  19
ATOM     19  C   UNL     1      -3.221   1.385  -4.453  1.00  0.00     0.338 C 
ATOM     20  O   UNL     1      -3.383   0.434  -5.198  1.00  0.00    -0.246 OA
BRANCH  19  21
ATOM     21  C   UNL     1      -4.326   2.063  -3.727  1.00  0.00     0.060 A 
ATOM     22  C   UNL     1      -4.085   2.757  -2.543  1.00  0.00     0.016 A 
ATOM     23  C   UNL     1      -5.642   1.913  -4.170  1.00  0.00     0.016 A 
ATOM     24  C   UNL     1      -5.148   3.196  -1.755  1.00  0.00     0.010 A 
ATOM     25  C   UNL     1      -6.704   2.440  -3.419  1.00  0.00     0.010 A 
ATOM     26  C   UNL     1      -6.479   3.045  -2.170  1.00  0.00    -0.014 A 
BRANCH  26  27
ATOM     27  C   UNL     1      -7.615   3.443  -1.277  1.00  0.00     0.031 A 
ATOM     28  C   UNL     1      -8.744   2.477  -0.990  1.00  0.00     0.074 A 
ATOM     29  C   UNL     1      -7.649   4.648  -0.669  1.00  0.00     0.049 A 
ATOM     30  N   UNL     1      -9.923   2.714  -0.467  1.00  0.00    -0.248 NA
ATOM     31  C   UNL     1      -8.529   1.066  -1.352  1.00  0.00     0.031 C 
ATOM     32  C   UNL     1      -6.621   5.686  -0.760  1.00  0.00     0.029 A 
ATOM     33  N   UNL     1      -8.588   5.195   0.175  1.00  0.00    -0.354 N 
ATOM     34  C   UNL     1     -10.618   1.511  -0.530  1.00  0.00     0.074 A 
ATOM     35  C   UNL     1      -9.721   0.537  -1.112  1.00  0.00     0.031 C 
ATOM     36  C   UNL     1      -6.941   6.699   0.058  1.00  0.00     0.029 A 
ATOM     37  C   UNL     1      -8.257   6.448   0.631  1.00  0.00     0.049 A 
ATOM     38  H   UNL     1      -9.419   4.731   0.429  1.00  0.00     0.167 HD
ATOM     39  C   UNL     1     -11.893   1.246  -0.155  1.00  0.00     0.031 A 
ATOM     40  C   UNL     1      -8.947   7.334   1.373  1.00  0.00     0.031 A 
ATOM     41  C   UNL     1     -12.764   2.181   0.507  1.00  0.00     0.049 A 
ATOM     42  C   UNL     1     -10.359   7.028   1.776  1.00  0.00     0.074 A 
ATOM     43  C   UNL     1     -14.075   1.999   0.917  1.00  0.00     0.029 A 
ATOM     44  N   UNL     1     -12.400   3.460   0.893  1.00  0.00    -0.354 N 
ATOM     45  N   UNL     1     -11.057   5.940   1.570  1.00  0.00    -0.248 NA
ATOM     46  C   UNL     1     -11.091   8.094   2.475  1.00  0.00     0.031 C 
ATOM     47  C   UNL     1     -14.512   3.178   1.532  1.00  0.00     0.029 A 
ATOM     48  C   UNL     1     -13.460   4.078   1.536  1.00  0.00     0.049 A 
ATOM     49  H   UNL     1     -11.519   3.869   0.734  1.00  0.00     0.167 HD
ATOM     50  C   UNL     1     -12.317   6.197   2.093  1.00  0.00     0.074 A 
ATOM     51  C   UNL     1     -12.275   7.528   2.662  1.00  0.00     0.031 C 
ATOM     52  C   UNL     1     -13.416   5.407   2.082  1.00  0.00     0.031 A 
BRANCH  39  53
ATOM     53  C   UNL     1     -12.456  -0.103  -0.501  1.00  0.00    -0.014 A 
ATOM     54  C   UNL     1     -12.135  -1.252   0.235  1.00  0.00     0.009 A 
ATOM     55  C   UNL     1     -13.381  -0.204  -1.554  1.00  0.00     0.009 A 
ATOM     56  C   UNL     1     -12.715  -2.481  -0.091  1.00  0.00     0.001 A 
ATOM     57  C   UNL     1     -13.975  -1.428  -1.863  1.00  0.00     0.001 A 
ATOM     58  C   UNL     1     -13.637  -2.567  -1.135  1.00  0.00     0.000 A 
ENDBRANCH  39  53
BRANCH  40  59
ATOM     59  C   UNL     1      -8.338   8.649   1.705  1.00  0.00    -0.014 A 
ATOM     60  C   UNL     1      -7.948   8.942   3.019  1.00  0.00     0.009 A 
ATOM     61  C   UNL     1      -8.132   9.609   0.701  1.00  0.00     0.009 A 
ATOM     62  C   UNL     1      -7.365  10.175   3.321  1.00  0.00     0.001 A 
ATOM     63  C   UNL     1      -7.521  10.827   1.001  1.00  0.00     0.001 A 
ATOM     64  C   UNL     1      -7.143  11.111   2.312  1.00  0.00     0.000 A 
ENDBRANCH  40  59
BRANCH  52  65
ATOM     65  C   UNL     1     -14.660   5.964   2.705  1.00  0.00    -0.014 A 
ATOM     66  C   UNL     1     -15.437   6.917   2.028  1.00  0.00     0.009 A 
ATOM     67  C   UNL     1     -15.069   5.525   3.973  1.00  0.00     0.009 A 
ATOM     68  C   UNL     1     -16.584   7.443   2.623  1.00  0.00     0.001 A 
ATOM     69  C   UNL     1     -16.227   6.038   4.558  1.00  0.00     0.001 A 
ATOM     70  C   UNL     1     -16.979   7.002   3.886  1.00  0.00     0.000 A 
ENDBRANCH  52  65
ENDBRANCH  26  27
ENDBRANCH  19  21
ENDBRANCH  18  19
ENDBRANCH   1  18
TORSDOF 12
