REMARK SMILES C=CCSc1ccccc1C(=O)OCCOC(=O)c1ccc(-c2c3nc(c(-c4ccccc4)c4ccc([nH]4)c(-c4ccccc4)c4nc(c(-c5ccccc5)c5ccc2[nH]5)C=C4)C=C3)cc1
REMARK SMILES IDX 14 1 13 2 11 3 12 4 10 5 5 6 6 7 7 8 9 9 8 10 4 11 3 12 2 13
REMARK SMILES IDX 1 14 15 15 16 16 17 17 18 18 19 19 20 20 66 21 21 22 65 23
REMARK SMILES IDX 22 24 23 25 24 26 59 27 25 28 64 29 58 30 60 31 26 32 63 33
REMARK SMILES IDX 57 34 56 35 27 37 49 38 34 39 48 40 35 41 38 42 47 43 61 44
REMARK SMILES IDX 36 45 37 46 46 48 62 49 39 50 28 51 29 52 33 53 30 54 32 55
REMARK SMILES IDX 31 56 50 57 51 58 55 59 52 60 54 61 53 62 40 63 41 64 45 65
REMARK SMILES IDX 42 66 44 67 43 68
REMARK H PARENT 60 36 38 47
REMARK Flexibility Score: inf
ROOT
ATOM      1  C   UNL     1      -0.726   1.221  -1.017  1.00  0.00     0.275 C 
ENDROOT
BRANCH   1   2
ATOM      2  O   UNL     1      -0.869  -0.191  -0.752  1.00  0.00    -0.458 OA
BRANCH   2   3
ATOM      3  C   UNL     1      -1.540  -0.935  -1.657  1.00  0.00     0.339 C 
ATOM      4  O   UNL     1      -1.993  -0.550  -2.722  1.00  0.00    -0.246 OA
BRANCH   3   5
ATOM      5  C   UNL     1      -1.462  -2.363  -1.277  1.00  0.00     0.073 A 
ATOM      6  C   UNL     1      -1.848  -2.886  -0.031  1.00  0.00     0.022 A 
ATOM      7  C   UNL     1      -1.724  -4.277   0.166  1.00  0.00     0.016 A 
ATOM      8  C   UNL     1      -1.231  -5.121  -0.835  1.00  0.00     0.001 A 
ATOM      9  C   UNL     1      -1.009  -3.229  -2.293  1.00  0.00     0.017 A 
ATOM     10  C   UNL     1      -0.880  -4.598  -2.071  1.00  0.00     0.001 A 
BRANCH   6  11
ATOM     11  S   UNL     1      -2.763  -2.016   1.247  1.00  0.00    -0.121 SA
BRANCH  11  12
ATOM     12  C   UNL     1      -1.525  -0.986   2.091  1.00  0.00     0.101 C 
BRANCH  12  13
ATOM     13  C   UNL     1      -0.291  -1.729   2.487  1.00  0.00    -0.024 C 
ATOM     14  C   UNL     1       0.901  -1.587   1.891  1.00  0.00     0.005 C 
ENDBRANCH  12  13
ENDBRANCH  11  12
ENDBRANCH   6  11
ENDBRANCH   3   5
ENDBRANCH   2   3
ENDBRANCH   1   2
BRANCH   1  15
ATOM     15  C   UNL     1       0.756   1.580  -0.971  1.00  0.00     0.275 C 
BRANCH  15  16
ATOM     16  O   UNL     1       1.394   0.921  -2.076  1.00  0.00    -0.458 OA
BRANCH  16  17
ATOM     17  C   UNL     1       2.491   0.185  -1.802  1.00  0.00     0.338 C 
ATOM     18  O   UNL     1       3.110   0.114  -0.752  1.00  0.00    -0.246 OA
BRANCH  17  19
ATOM     19  C   UNL     1       2.848  -0.542  -3.029  1.00  0.00     0.060 A 
ATOM     20  C   UNL     1       1.883  -1.326  -3.666  1.00  0.00     0.016 A 
ATOM     21  C   UNL     1       4.135  -0.443  -3.552  1.00  0.00     0.016 A 
ATOM     22  C   UNL     1       2.202  -2.026  -4.826  1.00  0.00     0.010 A 
ATOM     23  C   UNL     1       4.429  -1.078  -4.760  1.00  0.00     0.010 A 
ATOM     24  C   UNL     1       3.465  -1.871  -5.412  1.00  0.00    -0.014 A 
BRANCH  24  25
ATOM     25  C   UNL     1       3.781  -2.487  -6.728  1.00  0.00     0.031 A 
ATOM     26  C   UNL     1       4.924  -3.453  -6.855  1.00  0.00     0.074 A 
ATOM     27  C   UNL     1       3.079  -2.130  -7.822  1.00  0.00     0.049 A 
ATOM     28  N   UNL     1       5.512  -3.902  -7.934  1.00  0.00    -0.248 NA
ATOM     29  C   UNL     1       5.490  -3.970  -5.599  1.00  0.00     0.031 C 
ATOM     30  C   UNL     1       1.919  -1.236  -7.835  1.00  0.00     0.029 A 
ATOM     31  N   UNL     1       3.249  -2.468  -9.142  1.00  0.00    -0.354 N 
ATOM     32  C   UNL     1       6.551  -4.710  -7.489  1.00  0.00     0.074 A 
ATOM     33  C   UNL     1       6.511  -4.691  -6.042  1.00  0.00     0.031 C 
ATOM     34  C   UNL     1       1.466  -1.117  -9.093  1.00  0.00     0.029 A 
ATOM     35  C   UNL     1       2.357  -1.847  -9.985  1.00  0.00     0.049 A 
ATOM     36  H   UNL     1       3.941  -3.094  -9.455  1.00  0.00     0.167 HD
ATOM     37  C   UNL     1       7.461  -5.394  -8.223  1.00  0.00     0.031 A 
ATOM     38  C   UNL     1       2.293  -1.820 -11.329  1.00  0.00     0.031 A 
ATOM     39  C   UNL     1       7.483  -5.418  -9.662  1.00  0.00     0.049 A 
ATOM     40  C   UNL     1       3.345  -2.537 -12.122  1.00  0.00     0.074 A 
ATOM     41  C   UNL     1       8.359  -6.082 -10.504  1.00  0.00     0.029 A 
ATOM     42  N   UNL     1       6.577  -4.751 -10.474  1.00  0.00    -0.354 N 
ATOM     43  N   UNL     1       4.354  -3.255 -11.691  1.00  0.00    -0.248 NA
ATOM     44  C   UNL     1       3.264  -2.421 -13.584  1.00  0.00     0.031 C 
ATOM     45  C   UNL     1       8.007  -5.784 -11.825  1.00  0.00     0.029 A 
ATOM     46  C   UNL     1       6.883  -4.973 -11.806  1.00  0.00     0.049 A 
ATOM     47  H   UNL     1       5.828  -4.201 -10.150  1.00  0.00     0.167 HD
ATOM     48  C   UNL     1       5.025  -3.683 -12.828  1.00  0.00     0.074 A 
ATOM     49  C   UNL     1       4.296  -3.161 -13.967  1.00  0.00     0.031 C 
ATOM     50  C   UNL     1       6.147  -4.437 -12.921  1.00  0.00     0.031 A 
BRANCH  37  51
ATOM     51  C   UNL     1       8.539  -6.131  -7.476  1.00  0.00    -0.014 A 
ATOM     52  C   UNL     1       8.266  -7.305  -6.758  1.00  0.00     0.009 A 
ATOM     53  C   UNL     1       9.857  -5.647  -7.507  1.00  0.00     0.009 A 
ATOM     54  C   UNL     1       9.283  -7.957  -6.055  1.00  0.00     0.001 A 
ATOM     55  C   UNL     1      10.876  -6.315  -6.826  1.00  0.00     0.001 A 
ATOM     56  C   UNL     1      10.586  -7.463  -6.092  1.00  0.00     0.000 A 
ENDBRANCH  37  51
BRANCH  38  57
ATOM     57  C   UNL     1       1.220  -1.042 -12.002  1.00  0.00    -0.014 A 
ATOM     58  C   UNL     1       0.178  -1.700 -12.672  1.00  0.00     0.009 A 
ATOM     59  C   UNL     1       1.214   0.362 -11.951  1.00  0.00     0.009 A 
ATOM     60  C   UNL     1      -0.844  -0.968 -13.281  1.00  0.00     0.001 A 
ATOM     61  C   UNL     1       0.176   1.089 -12.536  1.00  0.00     0.001 A 
ATOM     62  C   UNL     1      -0.850   0.424 -13.204  1.00  0.00     0.000 A 
ENDBRANCH  38  57
BRANCH  50  63
ATOM     63  C   UNL     1       6.633  -4.759 -14.304  1.00  0.00    -0.014 A 
ATOM     64  C   UNL     1       7.294  -3.796 -15.081  1.00  0.00     0.009 A 
ATOM     65  C   UNL     1       6.451  -6.050 -14.821  1.00  0.00     0.009 A 
ATOM     66  C   UNL     1       7.740  -4.115 -16.365  1.00  0.00     0.001 A 
ATOM     67  C   UNL     1       6.918  -6.372 -16.095  1.00  0.00     0.001 A 
ATOM     68  C   UNL     1       7.555  -5.403 -16.869  1.00  0.00     0.000 A 
ENDBRANCH  50  63
ENDBRANCH  24  25
ENDBRANCH  17  19
ENDBRANCH  16  17
ENDBRANCH  15  16
ENDBRANCH   1  15
TORSDOF 14
