REMARK SMILES C=Cc1cc(Cl)cc2c1O[C@H](C(F)(F)F)C(C(=O)OCCOC(=O)c1ccc(-c3c4nc(c(-c5ccccc5)c5ccc([nH]5)c(-c5ccccc5)c5nc(c(-c6ccccc6)c6ccc3[nH]6)C=C5)C=C4)cc1)=C2
REMARK SMILES IDX 21 1 20 2 19 3 17 4 18 5 16 6 3 7 4 8 9 9 5 10 8 11 10 12
REMARK SMILES IDX 6 13 7 14 73 15 11 16 2 17 1 18 12 19 13 20 14 21 15 22
REMARK SMILES IDX 22 23 23 24 24 25 25 26 26 27 72 28 27 29 71 30 28 31 29 32
REMARK SMILES IDX 30 33 65 34 31 35 70 36 64 37 66 38 32 39 69 40 63 41 62 42
REMARK SMILES IDX 33 44 55 45 40 46 54 47 41 48 44 49 53 50 67 51 42 52 43 53
REMARK SMILES IDX 52 55 68 56 45 57 34 58 35 59 39 60 36 61 38 62 37 63 56 64
REMARK SMILES IDX 57 65 61 66 58 67 60 68 59 69 46 70 47 71 51 72 48 73 50 74
REMARK SMILES IDX 49 75
REMARK H PARENT 66 43 44 54
REMARK Flexibility Score: inf
ROOT
ATOM      1  C   UNL     1      -4.974  -5.813  -5.490  1.00  0.00     0.275 C 
ENDROOT
BRANCH   1   2
ATOM      2  C   UNL     1      -3.965  -4.846  -6.114  1.00  0.00     0.275 C 
BRANCH   2   3
ATOM      3  O   UNL     1      -3.273  -4.072  -5.107  1.00  0.00    -0.459 OA
BRANCH   3   4
ATOM      4  C   UNL     1      -3.652  -2.778  -4.993  1.00  0.00     0.338 C 
ATOM      5  O   UNL     1      -4.524  -2.214  -5.637  1.00  0.00    -0.246 OA
BRANCH   4   6
ATOM      6  C   UNL     1      -2.891  -2.107  -3.919  1.00  0.00     0.087 C 
ATOM      7  C   UNL     1      -0.754   0.056  -1.017  1.00  0.00     0.018 A 
ATOM      8  C   UNL     1      -1.475   0.879  -0.133  1.00  0.00     0.032 A 
ATOM      9  C   UNL     1      -1.454  -0.695  -1.981  1.00  0.00     0.135 A 
ATOM     10  C   UNL     1      -2.865   0.921  -0.181  1.00  0.00     0.042 A 
ATOM     11  C   UNL     1      -2.848  -0.620  -2.034  1.00  0.00     0.019 A 
ATOM     12  O   UNL     1      -0.731  -1.503  -2.822  1.00  0.00    -0.475 OA
ATOM     13  Cl  UNL     1      -3.735   1.918   0.919  1.00  0.00    -0.084 Cl
ATOM     14  C   UNL     1      -3.556   0.173  -1.124  1.00  0.00     0.032 A 
ATOM     15  C   UNL     1      -3.572  -1.350  -3.053  1.00  0.00     0.027 C 
ATOM     16  C   UNL     1      -1.392  -2.185  -3.925  1.00  0.00     0.316 C 
BRANCH   7  17
ATOM     17  C   UNL     1       0.716   0.042  -0.979  1.00  0.00     0.004 C 
ATOM     18  C   UNL     1       1.435   0.046   0.151  1.00  0.00     0.009 C 
ENDBRANCH   7  17
BRANCH  16  19
ATOM     19  C   UNL     1      -0.825  -1.639  -5.246  1.00  0.00     0.430 C 
ATOM     20  F   UNL     1       0.528  -1.664  -5.254  1.00  0.00    -0.167 F 
ATOM     21  F   UNL     1      -1.233  -2.378  -6.306  1.00  0.00    -0.167 F 
ATOM     22  F   UNL     1      -1.210  -0.362  -5.473  1.00  0.00    -0.167 F 
ENDBRANCH  16  19
ENDBRANCH   4   6
ENDBRANCH   3   4
ENDBRANCH   2   3
ENDBRANCH   1   2
BRANCH   1  23
ATOM     23  O   UNL     1      -6.071  -5.085  -4.910  1.00  0.00    -0.458 OA
BRANCH  23  24
ATOM     24  C   UNL     1      -6.093  -5.051  -3.559  1.00  0.00     0.338 C 
ATOM     25  O   UNL     1      -5.325  -5.595  -2.786  1.00  0.00    -0.246 OA
BRANCH  24  26
ATOM     26  C   UNL     1      -7.140  -4.123  -3.110  1.00  0.00     0.060 A 
ATOM     27  C   UNL     1      -8.284  -4.563  -2.460  1.00  0.00     0.016 A 
ATOM     28  C   UNL     1      -6.863  -2.764  -3.181  1.00  0.00     0.016 A 
ATOM     29  C   UNL     1      -9.145  -3.616  -1.887  1.00  0.00     0.010 A 
ATOM     30  C   UNL     1      -7.629  -1.842  -2.478  1.00  0.00     0.010 A 
ATOM     31  C   UNL     1      -8.803  -2.246  -1.840  1.00  0.00    -0.014 A 
BRANCH  31  32
ATOM     32  C   UNL     1      -9.647  -1.258  -1.103  1.00  0.00     0.031 A 
ATOM     33  C   UNL     1     -10.168  -0.002  -1.766  1.00  0.00     0.074 A 
ATOM     34  C   UNL     1      -9.924  -1.474   0.201  1.00  0.00     0.049 A 
ATOM     35  N   UNL     1     -10.988   0.900  -1.282  1.00  0.00    -0.248 NA
ATOM     36  C   UNL     1      -9.684   0.314  -3.120  1.00  0.00     0.031 C 
ATOM     37  C   UNL     1      -9.385  -2.571   1.009  1.00  0.00     0.029 A 
ATOM     38  N   UNL     1     -10.754  -0.805   1.070  1.00  0.00    -0.354 N 
ATOM     39  C   UNL     1     -11.093   1.886  -2.257  1.00  0.00     0.074 A 
ATOM     40  C   UNL     1     -10.197   1.517  -3.327  1.00  0.00     0.031 C 
ATOM     41  C   UNL     1      -9.977  -2.565   2.212  1.00  0.00     0.029 A 
ATOM     42  C   UNL     1     -10.902  -1.439   2.282  1.00  0.00     0.049 A 
ATOM     43  H   UNL     1     -11.198   0.044   0.846  1.00  0.00     0.167 HD
ATOM     44  C   UNL     1     -11.896   2.976  -2.287  1.00  0.00     0.031 A 
ATOM     45  C   UNL     1     -11.714  -1.172   3.324  1.00  0.00     0.031 A 
ATOM     46  C   UNL     1     -12.831   3.314  -1.249  1.00  0.00     0.049 A 
ATOM     47  C   UNL     1     -12.655  -0.004   3.241  1.00  0.00     0.074 A 
ATOM     48  C   UNL     1     -13.765   4.335  -1.236  1.00  0.00     0.029 A 
ATOM     49  N   UNL     1     -12.957   2.637  -0.048  1.00  0.00    -0.354 N 
ATOM     50  N   UNL     1     -12.826   0.847   2.259  1.00  0.00    -0.248 NA
ATOM     51  C   UNL     1     -13.525   0.233   4.402  1.00  0.00     0.031 C 
ATOM     52  C   UNL     1     -14.419   4.309  -0.003  1.00  0.00     0.029 A 
ATOM     53  C   UNL     1     -13.939   3.232   0.725  1.00  0.00     0.049 A 
ATOM     54  H   UNL     1     -12.428   1.850   0.217  1.00  0.00     0.167 HD
ATOM     55  C   UNL     1     -13.828   1.712   2.677  1.00  0.00     0.074 A 
ATOM     56  C   UNL     1     -14.248   1.267   3.990  1.00  0.00     0.031 C 
ATOM     57  C   UNL     1     -14.346   2.785   2.031  1.00  0.00     0.031 A 
BRANCH  44  58
ATOM     58  C   UNL     1     -11.845   3.867  -3.501  1.00  0.00    -0.014 A 
ATOM     59  C   UNL     1     -11.414   5.198  -3.381  1.00  0.00     0.009 A 
ATOM     60  C   UNL     1     -12.322   3.422  -4.746  1.00  0.00     0.009 A 
ATOM     61  C   UNL     1     -11.469   6.065  -4.475  1.00  0.00     0.001 A 
ATOM     62  C   UNL     1     -12.343   4.281  -5.847  1.00  0.00     0.001 A 
ATOM     63  C   UNL     1     -11.927   5.604  -5.708  1.00  0.00     0.000 A 
ENDBRANCH  44  58
BRANCH  45  64
ATOM     64  C   UNL     1     -11.725  -2.091   4.494  1.00  0.00    -0.014 A 
ATOM     65  C   UNL     1     -10.623  -2.173   5.360  1.00  0.00     0.009 A 
ATOM     66  C   UNL     1     -12.819  -2.944   4.711  1.00  0.00     0.009 A 
ATOM     67  C   UNL     1     -10.605  -3.106   6.400  1.00  0.00     0.001 A 
ATOM     68  C   UNL     1     -12.812  -3.854   5.771  1.00  0.00     0.001 A 
ATOM     69  C   UNL     1     -11.700  -3.942   6.607  1.00  0.00     0.000 A 
ENDBRANCH  45  64
BRANCH  57  70
ATOM     70  C   UNL     1     -15.427   3.568   2.721  1.00  0.00    -0.014 A 
ATOM     71  C   UNL     1     -16.731   3.568   2.200  1.00  0.00     0.009 A 
ATOM     72  C   UNL     1     -15.131   4.396   3.814  1.00  0.00     0.009 A 
ATOM     73  C   UNL     1     -17.713   4.394   2.748  1.00  0.00     0.001 A 
ATOM     74  C   UNL     1     -16.123   5.198   4.380  1.00  0.00     0.001 A 
ATOM     75  C   UNL     1     -17.409   5.205   3.841  1.00  0.00     0.000 A 
ENDBRANCH  57  70
ENDBRANCH  31  32
ENDBRANCH  24  26
ENDBRANCH  23  24
ENDBRANCH   1  23
TORSDOF 13
