REMARK SMILES Cc1c(C)c2c(c(C)c1O)CC[C@@](C)(C(=O)OCCOC(=O)c1ccc(-c3c4nc(c(-c5ccccc5)c5ccc([nH]5)c(-c5ccccc5)c5nc(c(-c6ccccc6)c6ccc3[nH]6)C=C5)C=C4)cc1)O2
REMARK SMILES IDX 19 1 18 2 17 3 15 4 16 5 13 6 1 7 2 8 3 9 9 10 4 11 5 12
REMARK SMILES IDX 7 13 6 14 71 15 8 16 11 17 12 18 14 19 10 20 20 22 21 23
REMARK SMILES IDX 22 24 23 25 24 26 70 27 25 28 69 29 26 30 27 31 28 32 63 33
REMARK SMILES IDX 29 34 68 35 62 36 64 37 30 38 67 39 61 40 60 41 31 43 53 44
REMARK SMILES IDX 38 45 52 46 39 47 42 48 51 49 65 50 40 51 41 52 50 54 66 55
REMARK SMILES IDX 43 56 32 57 33 58 37 59 34 60 36 61 35 62 54 63 55 64 59 65
REMARK SMILES IDX 56 66 58 67 57 68 44 69 45 70 49 71 46 72 48 73 47 74
REMARK H PARENT 10 21 64 42 42 53
REMARK Flexibility Score: inf
ROOT
ATOM      1  C   UNL     1       0.536  -6.569  -7.309  1.00  0.00     0.275 C 
ENDROOT
BRANCH   1   2
ATOM      2  C   UNL     1      -0.919  -6.320  -6.911  1.00  0.00     0.274 C 
BRANCH   2   3
ATOM      3  O   UNL     1      -1.115  -4.958  -6.477  1.00  0.00    -0.459 OA
BRANCH   3   4
ATOM      4  C   UNL     1      -1.135  -4.740  -5.129  1.00  0.00     0.350 C 
ATOM      5  O   UNL     1      -1.035  -5.632  -4.293  1.00  0.00    -0.247 OA
BRANCH   4   6
ATOM      6  C   UNL     1      -1.361  -3.248  -4.785  1.00  0.00     0.203 C 
ATOM      7  C   UNL     1       0.849   0.050   0.000  1.00  0.00     0.049 C 
ATOM      8  C   UNL     1       0.294  -0.194  -1.383  1.00  0.00    -0.002 A 
ATOM      9  C   UNL     1       0.021  -1.508  -1.838  1.00  0.00    -0.002 A 
ATOM     10  C   UNL     1       0.083   0.880  -2.267  1.00  0.00     0.122 A 
ATOM     11  C   UNL     1       0.201  -2.681  -0.904  1.00  0.00     0.049 C 
ATOM     12  C   UNL     1      -0.432  -1.712  -3.161  1.00  0.00     0.127 A 
ATOM     13  C   UNL     1      -0.389   0.684  -3.575  1.00  0.00    -0.002 A 
ATOM     14  C   UNL     1      -0.584  -0.633  -4.045  1.00  0.00     0.001 A 
ATOM     15  O   UNL     1      -0.696  -3.010  -3.528  1.00  0.00    -0.475 OA
ATOM     16  C   UNL     1      -0.646   1.864  -4.480  1.00  0.00     0.049 C 
ATOM     17  C   UNL     1      -0.969  -0.877  -5.480  1.00  0.00     0.044 C 
ATOM     18  C   UNL     1      -0.785  -2.334  -5.865  1.00  0.00     0.065 C 
ATOM     19  C   UNL     1      -2.874  -3.092  -4.582  1.00  0.00     0.069 C 
BRANCH  10  20
ATOM     20  O   UNL     1       0.336   2.176  -1.894  1.00  0.00    -0.507 OA
ATOM     21  H   UNL     1       0.653   2.362  -1.032  1.00  0.00     0.293 HD
ENDBRANCH  10  20
ENDBRANCH   4   6
ENDBRANCH   3   4
ENDBRANCH   2   3
ENDBRANCH   1   2
BRANCH   1  22
ATOM     22  O   UNL     1       1.379  -6.524  -6.144  1.00  0.00    -0.458 OA
BRANCH  22  23
ATOM     23  C   UNL     1       2.256  -5.497  -6.087  1.00  0.00     0.338 C 
ATOM     24  O   UNL     1       2.470  -4.644  -6.928  1.00  0.00    -0.246 OA
BRANCH  23  25
ATOM     25  C   UNL     1       2.906  -5.513  -4.769  1.00  0.00     0.060 A 
ATOM     26  C   UNL     1       2.219  -4.965  -3.690  1.00  0.00     0.016 A 
ATOM     27  C   UNL     1       4.214  -5.974  -4.616  1.00  0.00     0.016 A 
ATOM     28  C   UNL     1       2.846  -4.846  -2.458  1.00  0.00     0.010 A 
ATOM     29  C   UNL     1       4.832  -5.885  -3.361  1.00  0.00     0.010 A 
ATOM     30  C   UNL     1       4.157  -5.298  -2.276  1.00  0.00    -0.014 A 
BRANCH  30  31
ATOM     31  C   UNL     1       4.823  -5.048  -0.973  1.00  0.00     0.031 A 
ATOM     32  C   UNL     1       5.926  -4.031  -0.885  1.00  0.00     0.074 A 
ATOM     33  C   UNL     1       4.362  -5.627   0.153  1.00  0.00     0.049 A 
ATOM     34  N   UNL     1       6.667  -3.701   0.143  1.00  0.00    -0.248 NA
ATOM     35  C   UNL     1       6.228  -3.276  -2.111  1.00  0.00     0.031 C 
ATOM     36  C   UNL     1       3.216  -6.535   0.230  1.00  0.00     0.029 A 
ATOM     37  N   UNL     1       4.775  -5.501   1.456  1.00  0.00    -0.354 N 
ATOM     38  C   UNL     1       7.540  -2.726  -0.320  1.00  0.00     0.074 A 
ATOM     39  C   UNL     1       7.246  -2.522  -1.721  1.00  0.00     0.031 C 
ATOM     40  C   UNL     1       2.982  -6.835   1.518  1.00  0.00     0.029 A 
ATOM     41  C   UNL     1       4.004  -6.205   2.348  1.00  0.00     0.049 A 
ATOM     42  H   UNL     1       5.550  -4.957   1.725  1.00  0.00     0.167 HD
ATOM     43  C   UNL     1       8.502  -2.059   0.361  1.00  0.00     0.031 A 
ATOM     44  C   UNL     1       4.119  -6.346   3.683  1.00  0.00     0.031 A 
ATOM     45  C   UNL     1       8.788  -2.248   1.758  1.00  0.00     0.049 A 
ATOM     46  C   UNL     1       5.266  -5.688   4.395  1.00  0.00     0.074 A 
ATOM     47  C   UNL     1       9.780  -1.659   2.523  1.00  0.00     0.029 A 
ATOM     48  N   UNL     1       8.069  -3.078   2.602  1.00  0.00    -0.354 N 
ATOM     49  N   UNL     1       6.161  -4.855   3.923  1.00  0.00    -0.248 NA
ATOM     50  C   UNL     1       5.437  -6.016   5.818  1.00  0.00     0.031 C 
ATOM     51  C   UNL     1       9.682  -2.163   3.825  1.00  0.00     0.029 A 
ATOM     52  C   UNL     1       8.603  -3.029   3.878  1.00  0.00     0.049 A 
ATOM     53  H   UNL     1       7.294  -3.623   2.333  1.00  0.00     0.167 HD
ATOM     54  C   UNL     1       7.001  -4.559   4.988  1.00  0.00     0.074 A 
ATOM     55  C   UNL     1       6.496  -5.283   6.137  1.00  0.00     0.031 C 
ATOM     56  C   UNL     1       8.098  -3.765   5.007  1.00  0.00     0.031 A 
BRANCH  43  57
ATOM     57  C   UNL     1       9.347  -1.092  -0.416  1.00  0.00    -0.014 A 
ATOM     58  C   UNL     1       8.852   0.163  -0.802  1.00  0.00     0.009 A 
ATOM     59  C   UNL     1      10.666  -1.438  -0.748  1.00  0.00     0.009 A 
ATOM     60  C   UNL     1       9.656   1.042  -1.532  1.00  0.00     0.001 A 
ATOM     61  C   UNL     1      11.474  -0.549  -1.457  1.00  0.00     0.001 A 
ATOM     62  C   UNL     1      10.966   0.687  -1.855  1.00  0.00     0.000 A 
ENDBRANCH  43  57
BRANCH  44  63
ATOM     63  C   UNL     1       3.138  -7.176   4.429  1.00  0.00    -0.014 A 
ATOM     64  C   UNL     1       2.217  -6.575   5.301  1.00  0.00     0.009 A 
ATOM     65  C   UNL     1       3.111  -8.570   4.267  1.00  0.00     0.009 A 
ATOM     66  C   UNL     1       1.290  -7.356   5.996  1.00  0.00     0.001 A 
ATOM     67  C   UNL     1       2.167  -9.345   4.944  1.00  0.00     0.001 A 
ATOM     68  C   UNL     1       1.261  -8.738   5.811  1.00  0.00     0.000 A 
ENDBRANCH  44  63
BRANCH  56  69
ATOM     69  C   UNL     1       8.829  -3.631   6.311  1.00  0.00    -0.014 A 
ATOM     70  C   UNL     1       9.671  -4.654   6.771  1.00  0.00     0.009 A 
ATOM     71  C   UNL     1       8.725  -2.444   7.052  1.00  0.00     0.009 A 
ATOM     72  C   UNL     1      10.383  -4.498   7.962  1.00  0.00     0.001 A 
ATOM     73  C   UNL     1       9.454  -2.283   8.231  1.00  0.00     0.001 A 
ATOM     74  C   UNL     1      10.278  -3.311   8.687  1.00  0.00     0.000 A 
ENDBRANCH  56  69
ENDBRANCH  30  31
ENDBRANCH  23  25
ENDBRANCH  22  23
ENDBRANCH   1  22
TORSDOF 12
