REMARK SMILES CCc1cc(Nc2ccc(C(=O)OCCOC(=O)c3ccc(-c4c5nc(c(-c6ccccc6)c6ccc([nH]6)c(-c6ccccc6)c6nc(c(-c7ccccc7)c7ccc4[nH]7)C=C6)C=C5)cc3)cc2)nc(C(C)C)n1
REMARK SMILES IDX 14 1 13 2 11 3 12 4 10 5 7 6 8 7 68 8 9 9 67 10 6 11 5 13
REMARK SMILES IDX 3 14 4 15 74 16 70 17 69 18 2 19 1 20 71 21 72 22 73 23
REMARK SMILES IDX 15 24 16 25 17 26 18 27 19 28 20 29 66 30 21 31 65 32 22 33
REMARK SMILES IDX 23 34 24 35 59 36 25 37 64 38 58 39 60 40 26 41 63 42 57 43
REMARK SMILES IDX 56 44 27 46 49 47 34 48 48 49 35 50 38 51 47 52 61 53 36 54
REMARK SMILES IDX 37 55 46 57 62 58 39 59 28 60 29 61 33 62 30 63 32 64 31 65
REMARK SMILES IDX 50 66 51 67 55 68 52 69 54 70 53 71 40 72 41 73 45 74 42 75
REMARK SMILES IDX 44 76 43 77
REMARK H PARENT 6 12 60 45 38 56
REMARK Flexibility Score: inf
ROOT
ATOM      1  C   UNL     1       2.808   4.619 -11.809  1.00  0.00     0.275 C 
ENDROOT
BRANCH   1   2
ATOM      2  O   UNL     1       2.199   4.523 -10.505  1.00  0.00    -0.458 OA
BRANCH   2   3
ATOM      3  C   UNL     1       3.069   4.513  -9.465  1.00  0.00     0.338 C 
ATOM      4  O   UNL     1       4.286   4.554  -9.530  1.00  0.00    -0.246 OA
BRANCH   3   5
ATOM      5  C   UNL     1       2.342   4.517  -8.178  1.00  0.00     0.060 A 
ATOM      6  C   UNL     1       1.201   4.353  -5.620  1.00  0.00     0.040 A 
ATOM      7  C   UNL     1       2.310   5.172  -5.843  1.00  0.00     0.027 A 
ATOM      8  C   UNL     1       0.648   3.647  -6.700  1.00  0.00     0.027 A 
ATOM      9  C   UNL     1       2.892   5.232  -7.107  1.00  0.00     0.018 A 
ATOM     10  C   UNL     1       1.199   3.742  -7.981  1.00  0.00     0.018 A 
BRANCH   6  11
ATOM     11  N   UNL     1       0.805   4.088  -4.292  1.00  0.00    -0.340 N 
ATOM     12  H   UNL     1       0.418   4.824  -3.766  1.00  0.00     0.168 HD
BRANCH  11  13
ATOM     13  C   UNL     1       0.937   2.824  -3.678  1.00  0.00     0.134 A 
ATOM     14  C   UNL     1       0.736   1.421  -1.793  1.00  0.00     0.046 A 
ATOM     15  C   UNL     1       0.552   2.669  -2.362  1.00  0.00     0.071 A 
ATOM     16  N   UNL     1       1.229   0.382  -2.495  1.00  0.00    -0.238 NA
ATOM     17  C   UNL     1       1.560   0.611  -3.777  1.00  0.00     0.133 A 
ATOM     18  N   UNL     1       1.424   1.794  -4.389  1.00  0.00    -0.216 NA
BRANCH  14  19
ATOM     19  C   UNL     1       0.343   1.199  -0.352  1.00  0.00     0.053 C 
ATOM     20  C   UNL     1       0.873  -0.095   0.251  1.00  0.00     0.011 C 
ENDBRANCH  14  19
BRANCH  17  21
ATOM     21  C   UNL     1       2.084  -0.531  -4.617  1.00  0.00     0.051 C 
ATOM     22  C   UNL     1       3.291  -1.203  -3.966  1.00  0.00     0.016 C 
ATOM     23  C   UNL     1       0.970  -1.536  -4.899  1.00  0.00     0.016 C 
ENDBRANCH  17  21
ENDBRANCH  11  13
ENDBRANCH   6  11
ENDBRANCH   3   5
ENDBRANCH   2   3
ENDBRANCH   1   2
BRANCH   1  24
ATOM     24  C   UNL     1       2.878   6.075 -12.268  1.00  0.00     0.275 C 
BRANCH  24  25
ATOM     25  O   UNL     1       3.757   6.817 -11.403  1.00  0.00    -0.458 OA
BRANCH  25  26
ATOM     26  C   UNL     1       3.335   8.054 -11.059  1.00  0.00     0.338 C 
ATOM     27  O   UNL     1       2.331   8.624 -11.453  1.00  0.00    -0.246 OA
BRANCH  26  28
ATOM     28  C   UNL     1       4.274   8.675 -10.100  1.00  0.00     0.060 A 
ATOM     29  C   UNL     1       4.737   7.968  -8.992  1.00  0.00     0.016 A 
ATOM     30  C   UNL     1       4.581  10.029 -10.232  1.00  0.00     0.016 A 
ATOM     31  C   UNL     1       5.393   8.635  -7.954  1.00  0.00     0.010 A 
ATOM     32  C   UNL     1       5.324  10.675  -9.238  1.00  0.00     0.010 A 
ATOM     33  C   UNL     1       5.683  10.004  -8.054  1.00  0.00    -0.014 A 
BRANCH  33  34
ATOM     34  C   UNL     1       6.252  10.762  -6.899  1.00  0.00     0.031 A 
ATOM     35  C   UNL     1       5.501  11.949  -6.340  1.00  0.00     0.074 A 
ATOM     36  C   UNL     1       7.412  10.401  -6.317  1.00  0.00     0.049 A 
ATOM     37  N   UNL     1       5.902  12.856  -5.483  1.00  0.00    -0.248 NA
ATOM     38  C   UNL     1       4.125  12.153  -6.824  1.00  0.00     0.031 C 
ATOM     39  C   UNL     1       8.239   9.254  -6.691  1.00  0.00     0.029 A 
ATOM     40  N   UNL     1       8.090  10.966  -5.262  1.00  0.00    -0.354 N 
ATOM     41  C   UNL     1       4.866  13.780  -5.397  1.00  0.00     0.074 A 
ATOM     42  C   UNL     1       3.813  13.317  -6.274  1.00  0.00     0.031 C 
ATOM     43  C   UNL     1       9.279   9.166  -5.846  1.00  0.00     0.029 A 
ATOM     44  C   UNL     1       9.238  10.293  -4.919  1.00  0.00     0.049 A 
ATOM     45  H   UNL     1       7.781  11.776  -4.795  1.00  0.00     0.167 HD
ATOM     46  C   UNL     1       4.798  14.917  -4.664  1.00  0.00     0.031 A 
ATOM     47  C   UNL     1      10.169  10.562  -3.985  1.00  0.00     0.031 A 
ATOM     48  C   UNL     1       5.800  15.348  -3.727  1.00  0.00     0.049 A 
ATOM     49  C   UNL     1      10.051  11.801  -3.145  1.00  0.00     0.074 A 
ATOM     50  C   UNL     1       5.821  16.494  -2.949  1.00  0.00     0.029 A 
ATOM     51  N   UNL     1       6.939  14.629  -3.411  1.00  0.00    -0.354 N 
ATOM     52  N   UNL     1       9.117  12.720  -3.156  1.00  0.00    -0.248 NA
ATOM     53  C   UNL     1      11.129  12.047  -2.174  1.00  0.00     0.031 C 
ATOM     54  C   UNL     1       6.980  16.469  -2.164  1.00  0.00     0.029 A 
ATOM     55  C   UNL     1       7.661  15.295  -2.436  1.00  0.00     0.049 A 
ATOM     56  H   UNL     1       7.197  13.771  -3.819  1.00  0.00     0.167 HD
ATOM     57  C   UNL     1       9.493  13.651  -2.196  1.00  0.00     0.074 A 
ATOM     58  C   UNL     1      10.725  13.174  -1.603  1.00  0.00     0.031 C 
ATOM     59  C   UNL     1       8.879  14.807  -1.849  1.00  0.00     0.031 A 
BRANCH  46  60
ATOM     60  C   UNL     1       3.604  15.803  -4.878  1.00  0.00    -0.014 A 
ATOM     61  C   UNL     1       2.350  15.493  -4.331  1.00  0.00     0.009 A 
ATOM     62  C   UNL     1       3.750  16.984  -5.624  1.00  0.00     0.009 A 
ATOM     63  C   UNL     1       1.258  16.336  -4.553  1.00  0.00     0.001 A 
ATOM     64  C   UNL     1       2.663  17.835  -5.824  1.00  0.00     0.001 A 
ATOM     65  C   UNL     1       1.416  17.506  -5.295  1.00  0.00     0.000 A 
ENDBRANCH  46  60
BRANCH  47  66
ATOM     66  C   UNL     1      11.323   9.645  -3.806  1.00  0.00    -0.014 A 
ATOM     67  C   UNL     1      11.397   8.811  -2.680  1.00  0.00     0.009 A 
ATOM     68  C   UNL     1      12.355   9.602  -4.756  1.00  0.00     0.009 A 
ATOM     69  C   UNL     1      12.490   7.960  -2.503  1.00  0.00     0.001 A 
ATOM     70  C   UNL     1      13.434   8.733  -4.588  1.00  0.00     0.001 A 
ATOM     71  C   UNL     1      13.504   7.918  -3.459  1.00  0.00     0.000 A 
ENDBRANCH  47  66
BRANCH  59  72
ATOM     72  C   UNL     1       9.514  15.615  -0.757  1.00  0.00    -0.014 A 
ATOM     73  C   UNL     1      10.645  16.406  -1.009  1.00  0.00     0.009 A 
ATOM     74  C   UNL     1       8.963  15.599   0.533  1.00  0.00     0.009 A 
ATOM     75  C   UNL     1      11.231  17.144   0.021  1.00  0.00     0.001 A 
ATOM     76  C   UNL     1       9.542  16.350   1.556  1.00  0.00     0.001 A 
ATOM     77  C   UNL     1      10.680  17.116   1.302  1.00  0.00     0.000 A 
ENDBRANCH  59  72
ENDBRANCH  33  34
ENDBRANCH  26  28
ENDBRANCH  25  26
ENDBRANCH  24  25
ENDBRANCH   1  24
TORSDOF 15
