REMARK SMILES [NH3+][C@@H](Cc1cn(-c2nc(Cl)nc(N3CCOCC3)n2)c2ccccc12)C(=O)OCCOC(=O)c1ccc(-c2c3nc(c(-c4ccccc4)c4ccc([nH]4)c(-c4ccccc4)c4nc(c(-c5ccccc5)c5ccc2[nH]5)C=C4)C=C3)cc1
REMARK SMILES IDX 29 1 28 2 26 3 27 4 2 5 1 6 3 10 4 11 5 12 25 13 6 14 20 15
REMARK SMILES IDX 24 16 21 17 23 18 22 19 7 20 8 21 19 22 9 23 12 24 10 25
REMARK SMILES IDX 11 26 13 27 14 28 18 29 15 30 17 31 16 32 30 33 31 34 32 35
REMARK SMILES IDX 33 36 34 37 35 38 81 39 36 40 80 41 37 42 38 43 39 44 74 45
REMARK SMILES IDX 40 46 79 47 73 48 75 49 41 50 78 51 72 52 71 53 42 55 64 56
REMARK SMILES IDX 49 57 63 58 50 59 53 60 62 61 76 62 51 63 52 64 61 66 77 67
REMARK SMILES IDX 54 68 43 69 44 70 48 71 45 72 47 73 46 74 65 75 66 76 70 77
REMARK SMILES IDX 67 78 69 79 68 80 55 81 56 82 60 83 57 84 59 85 58 86
REMARK H PARENT 1 7 1 8 1 9 75 54 53 65
REMARK Flexibility Score: inf
ROOT
ATOM      1  C   UNL     1      -2.988  -0.439  -0.889  1.00  0.00     0.274 C 
ENDROOT
BRANCH   1   2
ATOM      2  O   UNL     1      -1.558  -0.360  -0.725  1.00  0.00    -0.458 OA
BRANCH   2   3
ATOM      3  C   UNL     1      -0.791  -0.796  -1.756  1.00  0.00     0.365 C 
ATOM      4  O   UNL     1      -1.245  -1.226  -2.812  1.00  0.00    -0.245 OA
BRANCH   3   5
ATOM      5  C   UNL     1       0.722  -0.697  -1.473  1.00  0.00     0.296 C 
BRANCH   5   6
ATOM      6  N   UNL     1       1.121   0.043  -0.250  1.00  0.00    -0.346 N 
ATOM      7  H   UNL     1       2.138   0.041  -0.168  1.00  0.00     0.345 HD
ATOM      8  H   UNL     1       0.713  -0.409   0.569  1.00  0.00     0.345 HD
ATOM      9  H   UNL     1       0.786   1.004  -0.310  1.00  0.00     0.345 HD
ENDBRANCH   5   6
BRANCH   5  10
ATOM     10  C   UNL     1       1.428  -2.031  -1.577  1.00  0.00     0.115 C 
BRANCH  10  11
ATOM     11  C   UNL     1       0.875  -3.199  -0.845  1.00  0.00    -0.015 A 
ATOM     12  C   UNL     1       1.251  -4.464  -1.224  1.00  0.00     0.099 A 
ATOM     13  C   UNL     1      -0.041  -3.361   0.246  1.00  0.00     0.004 A 
ATOM     14  N   UNL     1       0.528  -5.387  -0.520  1.00  0.00    -0.285 N 
ATOM     15  C   UNL     1      -0.319  -4.735   0.355  1.00  0.00     0.056 A 
ATOM     16  C   UNL     1      -0.688  -2.495   1.156  1.00  0.00     0.010 A 
ATOM     17  C   UNL     1      -1.231  -5.240   1.299  1.00  0.00     0.027 A 
ATOM     18  C   UNL     1      -1.587  -2.988   2.102  1.00  0.00     0.001 A 
ATOM     19  C   UNL     1      -1.861  -4.344   2.164  1.00  0.00     0.002 A 
BRANCH  14  20
ATOM     20  C   UNL     1       0.768  -6.770  -0.661  1.00  0.00     0.240 A 
ATOM     21  N   UNL     1      -0.240  -7.617  -0.771  1.00  0.00    -0.181 NA
ATOM     22  N   UNL     1       2.057  -7.087  -0.781  1.00  0.00    -0.176 NA
ATOM     23  C   UNL     1       0.179  -8.817  -1.155  1.00  0.00     0.228 A 
ATOM     24  C   UNL     1       2.348  -8.342  -1.051  1.00  0.00     0.231 A 
ATOM     25  Cl  UNL     1      -1.054  -9.954  -1.486  1.00  0.00    -0.041 Cl
ATOM     26  N   UNL     1       1.429  -9.245  -1.337  1.00  0.00    -0.182 NA
BRANCH  24  27
ATOM     27  N   UNL     1       3.666  -8.668  -0.996  1.00  0.00    -0.336 N 
ATOM     28  C   UNL     1       4.470  -8.238   0.144  1.00  0.00     0.148 C 
ATOM     29  C   UNL     1       4.327  -9.434  -2.034  1.00  0.00     0.148 C 
ATOM     30  C   UNL     1       5.774  -7.597  -0.340  1.00  0.00     0.181 C 
ATOM     31  C   UNL     1       5.634  -8.711  -2.419  1.00  0.00     0.181 C 
ATOM     32  O   UNL     1       6.463  -8.450  -1.271  1.00  0.00    -0.378 OA
ENDBRANCH  24  27
ENDBRANCH  14  20
ENDBRANCH  10  11
ENDBRANCH   5  10
ENDBRANCH   3   5
ENDBRANCH   2   3
ENDBRANCH   1   2
BRANCH   1  33
ATOM     33  C   UNL     1      -3.613   0.773  -0.192  1.00  0.00     0.275 C 
BRANCH  33  34
ATOM     34  O   UNL     1      -3.326   1.950  -0.969  1.00  0.00    -0.458 OA
BRANCH  34  35
ATOM     35  C   UNL     1      -2.145   2.558  -0.659  1.00  0.00     0.338 C 
ATOM     36  O   UNL     1      -1.720   2.772   0.448  1.00  0.00    -0.246 OA
BRANCH  35  37
ATOM     37  C   UNL     1      -1.340   2.622  -1.914  1.00  0.00     0.060 A 
ATOM     38  C   UNL     1      -1.927   2.428  -3.170  1.00  0.00     0.016 A 
ATOM     39  C   UNL     1       0.051   2.610  -1.787  1.00  0.00     0.016 A 
ATOM     40  C   UNL     1      -1.141   2.037  -4.249  1.00  0.00     0.010 A 
ATOM     41  C   UNL     1       0.837   2.229  -2.874  1.00  0.00     0.010 A 
ATOM     42  C   UNL     1       0.235   1.853  -4.080  1.00  0.00    -0.014 A 
BRANCH  42  43
ATOM     43  C   UNL     1       1.039   1.490  -5.250  1.00  0.00     0.031 A 
ATOM     44  C   UNL     1       1.468   2.676  -6.015  1.00  0.00     0.074 A 
ATOM     45  C   UNL     1       1.435   0.276  -5.687  1.00  0.00     0.049 A 
ATOM     46  N   UNL     1       1.014   3.038  -7.167  1.00  0.00    -0.248 NA
ATOM     47  C   UNL     1       2.383   3.631  -5.380  1.00  0.00     0.031 C 
ATOM     48  C   UNL     1       1.319  -1.027  -5.051  1.00  0.00     0.029 A 
ATOM     49  N   UNL     1       2.120  -0.025  -6.834  1.00  0.00    -0.354 N 
ATOM     50  C   UNL     1       1.671   4.217  -7.471  1.00  0.00     0.074 A 
ATOM     51  C   UNL     1       2.382   4.612  -6.280  1.00  0.00     0.031 C 
ATOM     52  C   UNL     1       2.121  -1.927  -5.670  1.00  0.00     0.029 A 
ATOM     53  C   UNL     1       2.641  -1.312  -6.877  1.00  0.00     0.049 A 
ATOM     54  H   UNL     1       2.234   0.619  -7.569  1.00  0.00     0.167 HD
ATOM     55  C   UNL     1       1.732   4.697  -8.739  1.00  0.00     0.031 A 
ATOM     56  C   UNL     1       3.412  -1.851  -7.853  1.00  0.00     0.031 A 
ATOM     57  C   UNL     1       0.766   4.075  -9.605  1.00  0.00     0.049 A 
ATOM     58  C   UNL     1       3.148  -1.093  -9.092  1.00  0.00     0.074 A 
ATOM     59  C   UNL     1      -0.614   4.021  -9.633  1.00  0.00     0.029 A 
ATOM     60  N   UNL     1       1.202   3.062 -10.423  1.00  0.00    -0.354 N 
ATOM     61  N   UNL     1       2.027  -1.151  -9.750  1.00  0.00    -0.248 NA
ATOM     62  C   UNL     1       4.011   0.028  -9.417  1.00  0.00     0.031 C 
ATOM     63  C   UNL     1      -0.929   2.715 -10.108  1.00  0.00     0.029 A 
ATOM     64  C   UNL     1       0.271   2.054 -10.378  1.00  0.00     0.049 A 
ATOM     65  H   UNL     1       2.034   3.058 -10.949  1.00  0.00     0.167 HD
ATOM     66  C   UNL     1       1.841   0.135 -10.232  1.00  0.00     0.074 A 
ATOM     67  C   UNL     1       3.147   0.776 -10.106  1.00  0.00     0.031 C 
ATOM     68  C   UNL     1       0.589   0.640 -10.429  1.00  0.00     0.031 A 
BRANCH  55  69
ATOM     69  C   UNL     1       2.888   5.510  -9.240  1.00  0.00    -0.014 A 
ATOM     70  C   UNL     1       4.140   5.549  -8.593  1.00  0.00     0.009 A 
ATOM     71  C   UNL     1       2.816   6.090 -10.515  1.00  0.00     0.009 A 
ATOM     72  C   UNL     1       5.255   6.162  -9.165  1.00  0.00     0.001 A 
ATOM     73  C   UNL     1       3.944   6.663 -11.114  1.00  0.00     0.001 A 
ATOM     74  C   UNL     1       5.160   6.704 -10.436  1.00  0.00     0.000 A 
ENDBRANCH  55  69
BRANCH  56  75
ATOM     75  C   UNL     1       4.574  -2.760  -7.743  1.00  0.00    -0.014 A 
ATOM     76  C   UNL     1       5.395  -2.710  -6.604  1.00  0.00     0.009 A 
ATOM     77  C   UNL     1       5.070  -3.422  -8.880  1.00  0.00     0.009 A 
ATOM     78  C   UNL     1       6.690  -3.241  -6.621  1.00  0.00     0.001 A 
ATOM     79  C   UNL     1       6.367  -3.953  -8.897  1.00  0.00     0.001 A 
ATOM     80  C   UNL     1       7.184  -3.843  -7.775  1.00  0.00     0.000 A 
ENDBRANCH  56  75
BRANCH  68  81
ATOM     81  C   UNL     1      -0.587  -0.314 -10.407  1.00  0.00    -0.014 A 
ATOM     82  C   UNL     1      -1.502  -0.263 -11.472  1.00  0.00     0.009 A 
ATOM     83  C   UNL     1      -0.902  -1.127  -9.304  1.00  0.00     0.009 A 
ATOM     84  C   UNL     1      -2.699  -0.984 -11.431  1.00  0.00     0.001 A 
ATOM     85  C   UNL     1      -2.088  -1.872  -9.275  1.00  0.00     0.001 A 
ATOM     86  C   UNL     1      -2.991  -1.790 -10.333  1.00  0.00     0.000 A 
ENDBRANCH  68  81
ENDBRANCH  42  43
ENDBRANCH  35  37
ENDBRANCH  34  35
ENDBRANCH  33  34
ENDBRANCH   1  33
TORSDOF 16
