REMARK SMILES O=C(CCSC1=NC=NC2=[NH+]C=N[C@@H]12)OCCOC(=O)c1ccc(-c2c3nc(c(-c4ccccc4)c4ccc([nH]4)c(-c4ccccc4)c4nc(c(-c5ccccc5)c5ccc2[nH]5)C=C4)C=C3)cc1
REMARK SMILES IDX 16 1 15 2 2 3 1 4 3 5 4 6 5 7 6 8 7 9 14 10 8 11 10 12 13 13
REMARK SMILES IDX 9 14 11 15 12 16 17 18 18 19 19 20 20 21 21 22 22 23 68 24
REMARK SMILES IDX 23 25 67 26 24 27 25 28 26 29 61 30 27 31 66 32 60 33 62 34
REMARK SMILES IDX 28 35 65 36 59 37 58 38 29 40 51 41 36 42 50 43 37 44 40 45
REMARK SMILES IDX 49 46 63 47 38 48 39 49 48 51 64 52 41 53 30 54 31 55 35 56
REMARK SMILES IDX 32 57 34 58 33 59 52 60 53 61 57 62 54 63 56 64 55 65 42 66
REMARK SMILES IDX 43 67 47 68 44 69 46 70 45 71
REMARK H PARENT 11 17 62 39 40 50
REMARK Flexibility Score: inf
ROOT
ATOM      1  C   UNL     1       4.899   0.781  -0.419  1.00  0.00     0.274 C 
ENDROOT
BRANCH   1   2
ATOM      2  O   UNL     1       3.511   0.345  -0.340  1.00  0.00    -0.462 OA
BRANCH   2   3
ATOM      3  C   UNL     1       2.877  -0.408   0.570  1.00  0.00     0.306 C 
ATOM      4  O   UNL     1       1.656  -0.528   0.546  1.00  0.00    -0.252 OA
BRANCH   3   5
ATOM      5  C   UNL     1       3.707  -1.162   1.549  1.00  0.00     0.134 C 
BRANCH   5   6
ATOM      6  C   UNL     1       4.020  -2.554   1.022  1.00  0.00     0.088 C 
BRANCH   6   7
ATOM      7  S   UNL     1       4.973  -2.571  -0.543  1.00  0.00    -0.106 SA
BRANCH   7   8
ATOM      8  C   UNL     1       3.685  -2.788  -1.725  1.00  0.00     0.128 C 
ATOM      9  N   UNL     1       2.902  -3.809  -1.565  1.00  0.00    -0.214 NA
ATOM     10  C   UNL     1       3.629  -1.943  -2.973  1.00  0.00     0.340 C 
ATOM     11  C   UNL     1       1.995  -4.089  -2.560  1.00  0.00     0.320 C 
ATOM     12  C   UNL     1       2.230  -2.069  -3.439  1.00  0.00     0.285 C 
ATOM     13  N   UNL     1       3.727  -0.478  -2.829  1.00  0.00    -0.130 NA
ATOM     14  N   UNL     1       1.641  -3.283  -3.509  1.00  0.00    -0.092 NA
ATOM     15  N   UNL     1       1.639  -0.949  -3.645  1.00  0.00    -0.248 N 
ATOM     16  C   UNL     1       2.569  -0.030  -3.232  1.00  0.00     0.362 C 
ATOM     17  H   UNL     1       0.739  -0.788  -4.010  1.00  0.00     0.266 HD
ENDBRANCH   7   8
ENDBRANCH   6   7
ENDBRANCH   5   6
ENDBRANCH   3   5
ENDBRANCH   2   3
ENDBRANCH   1   2
BRANCH   1  18
ATOM     18  C   UNL     1       4.904   2.143  -1.122  1.00  0.00     0.275 C 
BRANCH  18  19
ATOM     19  O   UNL     1       4.200   3.088  -0.318  1.00  0.00    -0.458 OA
BRANCH  19  20
ATOM     20  C   UNL     1       2.853   2.842  -0.209  1.00  0.00     0.338 C 
ATOM     21  O   UNL     1       2.079   2.678  -1.110  1.00  0.00    -0.246 OA
BRANCH  20  22
ATOM     22  C   UNL     1       2.542   2.930   1.253  1.00  0.00     0.060 A 
ATOM     23  C   UNL     1       1.579   3.893   1.517  1.00  0.00     0.016 A 
ATOM     24  C   UNL     1       3.626   2.723   2.121  1.00  0.00     0.016 A 
ATOM     25  C   UNL     1       1.981   4.955   2.291  1.00  0.00     0.010 A 
ATOM     26  C   UNL     1       4.078   3.812   2.811  1.00  0.00     0.010 A 
ATOM     27  C   UNL     1       3.291   4.954   2.782  1.00  0.00    -0.014 A 
BRANCH  27  28
ATOM     28  C   UNL     1       3.856   6.200   3.228  1.00  0.00     0.031 A 
ATOM     29  C   UNL     1       3.660   6.458   4.659  1.00  0.00     0.074 A 
ATOM     30  C   UNL     1       4.611   6.978   2.434  1.00  0.00     0.049 A 
ATOM     31  N   UNL     1       2.869   7.319   5.199  1.00  0.00    -0.248 NA
ATOM     32  C   UNL     1       4.310   5.534   5.599  1.00  0.00     0.031 C 
ATOM     33  C   UNL     1       5.191   6.667   1.125  1.00  0.00     0.029 A 
ATOM     34  N   UNL     1       5.116   8.205   2.719  1.00  0.00    -0.354 N 
ATOM     35  C   UNL     1       3.046   7.157   6.564  1.00  0.00     0.074 A 
ATOM     36  C   UNL     1       3.764   5.922   6.748  1.00  0.00     0.031 C 
ATOM     37  C   UNL     1       6.141   7.590   0.838  1.00  0.00     0.029 A 
ATOM     38  C   UNL     1       6.139   8.606   1.879  1.00  0.00     0.049 A 
ATOM     39  H   UNL     1       4.783   8.761   3.460  1.00  0.00     0.167 HD
ATOM     40  C   UNL     1       2.843   8.174   7.439  1.00  0.00     0.031 A 
ATOM     41  C   UNL     1       6.977   9.647   2.102  1.00  0.00     0.031 A 
ATOM     42  C   UNL     1       2.107   9.263   6.856  1.00  0.00     0.049 A 
ATOM     43  C   UNL     1       6.353  10.522   3.127  1.00  0.00     0.074 A 
ATOM     44  C   UNL     1       0.856   9.396   6.287  1.00  0.00     0.029 A 
ATOM     45  N   UNL     1       2.825  10.364   6.452  1.00  0.00    -0.354 N 
ATOM     46  N   UNL     1       5.272  11.219   2.923  1.00  0.00    -0.248 NA
ATOM     47  C   UNL     1       6.683  10.293   4.527  1.00  0.00     0.031 C 
ATOM     48  C   UNL     1       1.030  10.322   5.216  1.00  0.00     0.029 A 
ATOM     49  C   UNL     1       2.369  10.719   5.208  1.00  0.00     0.049 A 
ATOM     50  H   UNL     1       3.537  10.814   6.962  1.00  0.00     0.167 HD
ATOM     51  C   UNL     1       4.571  11.162   4.121  1.00  0.00     0.074 A 
ATOM     52  C   UNL     1       5.539  10.678   5.101  1.00  0.00     0.031 C 
ATOM     53  C   UNL     1       3.207  11.237   4.147  1.00  0.00     0.031 A 
BRANCH  40  54
ATOM     54  C   UNL     1       3.663   8.321   8.687  1.00  0.00    -0.014 A 
ATOM     55  C   UNL     1       3.271   9.254   9.654  1.00  0.00     0.009 A 
ATOM     56  C   UNL     1       4.943   7.744   8.835  1.00  0.00     0.009 A 
ATOM     57  C   UNL     1       4.128   9.609  10.701  1.00  0.00     0.001 A 
ATOM     58  C   UNL     1       5.779   8.056   9.906  1.00  0.00     0.001 A 
ATOM     59  C   UNL     1       5.379   9.008  10.828  1.00  0.00     0.000 A 
ENDBRANCH  40  54
BRANCH  41  60
ATOM     60  C   UNL     1       8.404   9.742   1.730  1.00  0.00    -0.014 A 
ATOM     61  C   UNL     1       9.069  10.976   1.718  1.00  0.00     0.009 A 
ATOM     62  C   UNL     1       9.186   8.576   1.620  1.00  0.00     0.009 A 
ATOM     63  C   UNL     1      10.467  11.037   1.626  1.00  0.00     0.001 A 
ATOM     64  C   UNL     1      10.579   8.636   1.522  1.00  0.00     0.001 A 
ATOM     65  C   UNL     1      11.220   9.868   1.538  1.00  0.00     0.000 A 
ENDBRANCH  41  60
BRANCH  53  66
ATOM     66  C   UNL     1       2.506  11.607   2.861  1.00  0.00    -0.014 A 
ATOM     67  C   UNL     1       2.569  10.799   1.710  1.00  0.00     0.009 A 
ATOM     68  C   UNL     1       1.636  12.706   2.853  1.00  0.00     0.009 A 
ATOM     69  C   UNL     1       1.808  11.101   0.577  1.00  0.00     0.001 A 
ATOM     70  C   UNL     1       0.860  12.996   1.728  1.00  0.00     0.001 A 
ATOM     71  C   UNL     1       0.949  12.197   0.589  1.00  0.00     0.000 A 
ENDBRANCH  53  66
ENDBRANCH  27  28
ENDBRANCH  20  22
ENDBRANCH  19  20
ENDBRANCH  18  19
ENDBRANCH   1  18
TORSDOF 14
