REMARK SMILES C[N@@H+]1CC2(CC[NH+](C(=O)c3cc(-c4ccncc4)n[nH]3)CC2)C[C@H]1C(=O)OCCOC(=O)c1ccc(-c2c3nc(c(-c4ccccc4)c4ccc([nH]4)c(-c4ccccc4)c4nc(c(-c5ccccc5)c5ccc2[nH]5)C=C4)C=C3)cc1
REMARK SMILES IDX 28 1 27 2 25 3 26 4 24 5 1 6 2 7 3 8 4 10 23 11 5 12 22 13
REMARK SMILES IDX 6 14 21 15 7 16 8 18 9 19 10 20 11 21 20 22 12 23 19 24
REMARK SMILES IDX 13 26 14 27 18 28 15 29 17 30 16 31 29 32 30 33 31 34 32 35
REMARK SMILES IDX 33 36 34 37 80 38 35 39 79 40 36 41 37 42 38 43 73 44 39 45
REMARK SMILES IDX 78 46 72 47 74 48 40 49 77 50 71 51 70 52 41 54 63 55 48 56
REMARK SMILES IDX 62 57 49 58 52 59 61 60 75 61 50 62 51 63 60 65 76 66 53 67
REMARK SMILES IDX 42 68 43 69 47 70 44 71 46 72 45 73 64 74 65 75 69 76 66 77
REMARK SMILES IDX 68 78 67 79 54 80 55 81 59 82 56 83 58 84 57 85
REMARK H PARENT 2 9 7 17 20 25 74 53 52 64
REMARK Flexibility Score: inf
ROOT
ATOM      1  C   UNL     1      -1.818   4.879  -0.787  1.00  0.00     0.274 C 
ENDROOT
BRANCH   1   2
ATOM      2  O   UNL     1      -0.805   3.906  -0.474  1.00  0.00    -0.458 OA
BRANCH   2   3
ATOM      3  C   UNL     1      -0.733   3.487   0.819  1.00  0.00     0.365 C 
ATOM      4  O   UNL     1      -1.402   3.956   1.736  1.00  0.00    -0.245 OA
BRANCH   3   5
ATOM      5  C   UNL     1       0.297   2.368   1.055  1.00  0.00     0.295 C 
ATOM      6  C   UNL     1       0.964   0.246   0.028  1.00  0.00     0.333 C 
ATOM      7  N   UNL     1       0.694   1.665  -0.182  1.00  0.00    -0.325 N 
ATOM      8  C   UNL     1       1.870   2.374  -0.702  1.00  0.00     0.270 C 
ATOM      9  H   UNL     1      -0.074   1.680  -0.854  1.00  0.00     0.348 HD
ATOM     10  C   UNL     1       2.559   3.069   0.496  1.00  0.00     0.036 C 
ATOM     11  C   UNL     1       1.575   2.905   1.666  1.00  0.00     0.091 C 
ATOM     12  C   UNL     1       2.785   4.571   0.203  1.00  0.00     0.075 C 
ATOM     13  C   UNL     1       3.909   2.401   0.861  1.00  0.00     0.075 C 
ATOM     14  C   UNL     1       3.891   4.778  -0.824  1.00  0.00     0.271 C 
ATOM     15  C   UNL     1       5.017   2.700  -0.149  1.00  0.00     0.271 C 
ATOM     16  N   UNL     1       5.119   4.137  -0.360  1.00  0.00    -0.266 N 
ATOM     17  H   UNL     1       4.473   3.652  -0.923  1.00  0.00     0.357 HD
BRANCH  16  18
ATOM     18  C   UNL     1       6.349   4.767  -0.199  1.00  0.00     0.362 C 
ATOM     19  O   UNL     1       7.397   4.133  -0.107  1.00  0.00    -0.224 OA
BRANCH  18  20
ATOM     20  C   UNL     1       6.362   6.203  -0.167  1.00  0.00     0.163 A 
ATOM     21  C   UNL     1       5.634   7.125   0.558  1.00  0.00     0.068 A 
ATOM     22  N   UNL     1       7.254   6.947  -0.884  1.00  0.00    -0.269 N 
ATOM     23  C   UNL     1       6.074   8.396   0.112  1.00  0.00     0.093 A 
ATOM     24  N   UNL     1       7.039   8.271  -0.810  1.00  0.00    -0.175 NA
ATOM     25  H   UNL     1       7.988   6.550  -1.407  1.00  0.00     0.190 HD
BRANCH  23  26
ATOM     26  C   UNL     1       5.578   9.698   0.526  1.00  0.00     0.005 A 
ATOM     27  C   UNL     1       5.564  10.056   1.874  1.00  0.00     0.030 A 
ATOM     28  C   UNL     1       5.106  10.601  -0.426  1.00  0.00     0.030 A 
ATOM     29  C   UNL     1       5.075  11.306   2.210  1.00  0.00     0.111 A 
ATOM     30  C   UNL     1       4.627  11.822   0.013  1.00  0.00     0.111 A 
ATOM     31  N   UNL     1       4.597  12.193   1.311  1.00  0.00    -0.265 NA
ENDBRANCH  23  26
ENDBRANCH  18  20
ENDBRANCH  16  18
ENDBRANCH   3   5
ENDBRANCH   2   3
ENDBRANCH   1   2
BRANCH   1  32
ATOM     32  C   UNL     1      -3.006   4.220  -1.489  1.00  0.00     0.275 C 
BRANCH  32  33
ATOM     33  O   UNL     1      -3.650   3.271  -0.619  1.00  0.00    -0.458 OA
BRANCH  33  34
ATOM     34  C   UNL     1      -3.370   1.975  -0.885  1.00  0.00     0.338 C 
ATOM     35  O   UNL     1      -2.711   1.524  -1.805  1.00  0.00    -0.246 OA
BRANCH  34  36
ATOM     36  C   UNL     1      -3.910   1.123   0.183  1.00  0.00     0.060 A 
ATOM     37  C   UNL     1      -3.011   0.586   1.103  1.00  0.00     0.016 A 
ATOM     38  C   UNL     1      -5.245   0.721   0.181  1.00  0.00     0.016 A 
ATOM     39  C   UNL     1      -3.421  -0.387   2.006  1.00  0.00     0.010 A 
ATOM     40  C   UNL     1      -5.663  -0.254   1.094  1.00  0.00     0.010 A 
ATOM     41  C   UNL     1      -4.744  -0.841   1.985  1.00  0.00    -0.014 A 
BRANCH  41  42
ATOM     42  C   UNL     1      -5.107  -2.034   2.788  1.00  0.00     0.031 A 
ATOM     43  C   UNL     1      -5.329  -3.349   2.088  1.00  0.00     0.074 A 
ATOM     44  C   UNL     1      -5.165  -1.967   4.130  1.00  0.00     0.049 A 
ATOM     45  N   UNL     1      -5.704  -4.500   2.585  1.00  0.00    -0.248 NA
ATOM     46  C   UNL     1      -5.097  -3.369   0.634  1.00  0.00     0.031 C 
ATOM     47  C   UNL     1      -4.893  -0.774   4.933  1.00  0.00     0.029 A 
ATOM     48  N   UNL     1      -5.460  -2.934   5.057  1.00  0.00    -0.354 N 
ATOM     49  C   UNL     1      -5.792  -5.367   1.503  1.00  0.00     0.074 A 
ATOM     50  C   UNL     1      -5.440  -4.610   0.322  1.00  0.00     0.031 C 
ATOM     51  C   UNL     1      -5.018  -1.085   6.234  1.00  0.00     0.029 A 
ATOM     52  C   UNL     1      -5.427  -2.482   6.353  1.00  0.00     0.049 A 
ATOM     53  H   UNL     1      -5.674  -3.865   4.816  1.00  0.00     0.167 HD
ATOM     54  C   UNL     1      -6.136  -6.677   1.492  1.00  0.00     0.031 A 
ATOM     55  C   UNL     1      -5.716  -3.118   7.504  1.00  0.00     0.031 A 
ATOM     56  C   UNL     1      -6.461  -7.437   2.669  1.00  0.00     0.049 A 
ATOM     57  C   UNL     1      -6.145  -4.559   7.459  1.00  0.00     0.074 A 
ATOM     58  C   UNL     1      -6.821  -8.770   2.764  1.00  0.00     0.029 A 
ATOM     59  N   UNL     1      -6.456  -6.930   3.959  1.00  0.00    -0.354 N 
ATOM     60  N   UNL     1      -6.250  -5.360   6.426  1.00  0.00    -0.248 NA
ATOM     61  C   UNL     1      -6.492  -5.184   8.744  1.00  0.00     0.031 C 
ATOM     62  C   UNL     1      -7.072  -9.060   4.110  1.00  0.00     0.029 A 
ATOM     63  C   UNL     1      -6.818  -7.921   4.856  1.00  0.00     0.049 A 
ATOM     64  H   UNL     1      -6.229  -6.004   4.202  1.00  0.00     0.167 HD
ATOM     65  C   UNL     1      -6.644  -6.590   6.940  1.00  0.00     0.074 A 
ATOM     66  C   UNL     1      -6.744  -6.432   8.376  1.00  0.00     0.031 C 
ATOM     67  C   UNL     1      -6.900  -7.747   6.282  1.00  0.00     0.031 A 
BRANCH  54  68
ATOM     68  C   UNL     1      -6.223  -7.359   0.156  1.00  0.00    -0.014 A 
ATOM     69  C   UNL     1      -5.074  -7.693  -0.577  1.00  0.00     0.009 A 
ATOM     70  C   UNL     1      -7.483  -7.694  -0.365  1.00  0.00     0.009 A 
ATOM     71  C   UNL     1      -5.187  -8.321  -1.820  1.00  0.00     0.001 A 
ATOM     72  C   UNL     1      -7.592  -8.345  -1.595  1.00  0.00     0.001 A 
ATOM     73  C   UNL     1      -6.444  -8.650  -2.325  1.00  0.00     0.000 A 
ENDBRANCH  54  68
BRANCH  55  74
ATOM     74  C   UNL     1      -5.637  -2.397   8.802  1.00  0.00    -0.014 A 
ATOM     75  C   UNL     1      -4.662  -2.737   9.751  1.00  0.00     0.009 A 
ATOM     76  C   UNL     1      -6.561  -1.387   9.112  1.00  0.00     0.009 A 
ATOM     77  C   UNL     1      -4.633  -2.102  10.995  1.00  0.00     0.001 A 
ATOM     78  C   UNL     1      -6.511  -0.732  10.344  1.00  0.00     0.001 A 
ATOM     79  C   UNL     1      -5.555  -1.098  11.289  1.00  0.00     0.000 A 
ENDBRANCH  55  74
BRANCH  67  80
ATOM     80  C   UNL     1      -7.255  -8.943   7.120  1.00  0.00    -0.014 A 
ATOM     81  C   UNL     1      -8.500  -9.048   7.758  1.00  0.00     0.009 A 
ATOM     82  C   UNL     1      -6.329  -9.989   7.255  1.00  0.00     0.009 A 
ATOM     83  C   UNL     1      -8.793 -10.160   8.551  1.00  0.00     0.001 A 
ATOM     84  C   UNL     1      -6.636 -11.112   8.025  1.00  0.00     0.001 A 
ATOM     85  C   UNL     1      -7.863 -11.191   8.681  1.00  0.00     0.000 A 
ENDBRANCH  67  80
ENDBRANCH  41  42
ENDBRANCH  34  36
ENDBRANCH  33  34
ENDBRANCH  32  33
ENDBRANCH   1  32
TORSDOF 14
