REMARK SMILES COc1ccc(NS(=O)(=O)c2ccc(Cl)c(C(=O)OCCOC(=O)c3ccc(-c4c5nc(c(-c6ccccc6)c6ccc([nH]6)c(-c6ccccc6)c6nc(c(-c7ccccc7)c7ccc4[nH]7)C=C6)C=C5)cc3)c2)cc1Cl
REMARK SMILES IDX 20 1 19 2 17 3 18 4 16 5 11 6 12 7 73 8 13 9 14 10 15 11
REMARK SMILES IDX 8 12 9 13 10 14 7 15 6 17 3 18 4 19 75 20 5 21 74 22 76 23
REMARK SMILES IDX 2 24 1 25 21 26 22 27 23 28 24 29 25 30 26 31 72 32 27 33
REMARK SMILES IDX 71 34 28 35 29 36 30 37 65 38 31 39 70 40 64 41 66 42 32 43
REMARK SMILES IDX 69 44 63 45 62 46 33 48 55 49 40 50 54 51 41 52 44 53 53 54
REMARK SMILES IDX 67 55 42 56 43 57 52 59 68 60 45 61 34 62 35 63 39 64 36 65
REMARK SMILES IDX 38 66 37 67 56 68 57 69 61 70 58 71 60 72 59 73 46 74 47 75
REMARK SMILES IDX 51 76 48 77 50 78 49 79
REMARK H PARENT 7 16 66 47 44 58
REMARK Flexibility Score: inf
ROOT
ATOM      1  C   UNL     1      -4.567   1.685   2.599  1.00  0.00     0.275 C 
ENDROOT
BRANCH   1   2
ATOM      2  O   UNL     1      -4.115   3.058   2.612  1.00  0.00    -0.458 OA
BRANCH   2   3
ATOM      3  C   UNL     1      -3.539   3.519   3.751  1.00  0.00     0.339 C 
ATOM      4  O   UNL     1      -3.295   2.866   4.752  1.00  0.00    -0.246 OA
BRANCH   3   5
ATOM      5  C   UNL     1      -3.052   4.911   3.572  1.00  0.00     0.080 A 
ATOM      6  C   UNL     1      -1.127   6.394   3.670  1.00  0.00     0.088 A 
ATOM      7  C   UNL     1      -1.864   7.412   3.070  1.00  0.00     0.024 A 
ATOM      8  C   UNL     1      -1.739   5.182   3.999  1.00  0.00     0.039 A 
ATOM      9  C   UNL     1      -3.204   7.186   2.744  1.00  0.00     0.023 A 
ATOM     10  C   UNL     1      -3.795   5.932   2.966  1.00  0.00     0.055 A 
ATOM     11  Cl  UNL     1      -5.450   5.752   2.512  1.00  0.00    -0.083 Cl
BRANCH   6  12
ATOM     12  S   UNL     1       0.636   6.572   3.835  1.00  0.00     0.261 S 
ATOM     13  O   UNL     1       0.925   6.463   5.244  1.00  0.00    -0.201 OA
ATOM     14  O   UNL     1       1.047   7.730   3.065  1.00  0.00    -0.201 OA
BRANCH  12  15
ATOM     15  N   UNL     1       1.311   5.214   3.120  1.00  0.00    -0.280 N 
ATOM     16  H   UNL     1       1.794   4.593   3.712  1.00  0.00     0.180 HD
BRANCH  15  17
ATOM     17  C   UNL     1       1.253   4.870   1.735  1.00  0.00     0.051 A 
ATOM     18  C   UNL     1       1.038   3.497  -0.703  1.00  0.00     0.137 A 
ATOM     19  C   UNL     1      -0.047   4.202  -0.206  1.00  0.00     0.050 A 
ATOM     20  C   UNL     1       2.279   3.622  -0.082  1.00  0.00     0.085 A 
ATOM     21  C   UNL     1       0.066   4.894   1.005  1.00  0.00     0.030 A 
ATOM     22  C   UNL     1       2.378   4.268   1.158  1.00  0.00     0.051 A 
ATOM     23  Cl  UNL     1       3.694   2.980  -0.829  1.00  0.00    -0.080 Cl
BRANCH  18  24
ATOM     24  O   UNL     1       0.842   2.688  -1.792  1.00  0.00    -0.495 OA
ATOM     25  C   UNL     1       0.617   1.341  -1.353  1.00  0.00     0.278 C 
ENDBRANCH  18  24
ENDBRANCH  15  17
ENDBRANCH  12  15
ENDBRANCH   6  12
ENDBRANCH   3   5
ENDBRANCH   2   3
ENDBRANCH   1   2
BRANCH   1  26
ATOM     26  C   UNL     1      -3.724   0.794   1.673  1.00  0.00     0.275 C 
BRANCH  26  27
ATOM     27  O   UNL     1      -2.450   0.432   2.253  1.00  0.00    -0.458 OA
BRANCH  27  28
ATOM     28  C   UNL     1      -1.493   1.358   2.043  1.00  0.00     0.338 C 
ATOM     29  O   UNL     1      -1.635   2.409   1.440  1.00  0.00    -0.246 OA
BRANCH  28  30
ATOM     30  C   UNL     1      -0.227   1.051   2.725  1.00  0.00     0.060 A 
ATOM     31  C   UNL     1       0.152   1.944   3.720  1.00  0.00     0.016 A 
ATOM     32  C   UNL     1       0.673   0.084   2.282  1.00  0.00     0.016 A 
ATOM     33  C   UNL     1       1.451   1.957   4.208  1.00  0.00     0.010 A 
ATOM     34  C   UNL     1       1.970   0.047   2.829  1.00  0.00     0.010 A 
ATOM     35  C   UNL     1       2.383   1.006   3.773  1.00  0.00    -0.014 A 
BRANCH  35  36
ATOM     36  C   UNL     1       3.745   1.026   4.377  1.00  0.00     0.031 A 
ATOM     37  C   UNL     1       4.974   1.369   3.578  1.00  0.00     0.074 A 
ATOM     38  C   UNL     1       3.864   0.833   5.705  1.00  0.00     0.049 A 
ATOM     39  N   UNL     1       6.204   1.561   3.988  1.00  0.00    -0.248 NA
ATOM     40  C   UNL     1       4.795   1.553   2.135  1.00  0.00     0.031 C 
ATOM     41  C   UNL     1       2.755   0.543   6.617  1.00  0.00     0.029 A 
ATOM     42  N   UNL     1       4.965   0.871   6.519  1.00  0.00    -0.354 N 
ATOM     43  C   UNL     1       6.931   1.929   2.861  1.00  0.00     0.074 A 
ATOM     44  C   UNL     1       6.012   1.911   1.746  1.00  0.00     0.031 C 
ATOM     45  C   UNL     1       3.228   0.453   7.867  1.00  0.00     0.029 A 
ATOM     46  C   UNL     1       4.679   0.600   7.834  1.00  0.00     0.049 A 
ATOM     47  H   UNL     1       5.872   1.072   6.194  1.00  0.00     0.167 HD
ATOM     48  C   UNL     1       8.246   2.239   2.757  1.00  0.00     0.031 A 
ATOM     49  C   UNL     1       5.490   0.436   8.893  1.00  0.00     0.031 A 
ATOM     50  C   UNL     1       9.191   2.146   3.838  1.00  0.00     0.049 A 
ATOM     51  C   UNL     1       6.968   0.594   8.716  1.00  0.00     0.074 A 
ATOM     52  C   UNL     1      10.555   2.384   3.818  1.00  0.00     0.029 A 
ATOM     53  N   UNL     1       8.874   1.742   5.124  1.00  0.00    -0.354 N 
ATOM     54  N   UNL     1       7.633   0.966   7.650  1.00  0.00    -0.248 NA
ATOM     55  C   UNL     1       7.809   0.298   9.883  1.00  0.00     0.031 C 
ATOM     56  C   UNL     1      11.074   2.054   5.075  1.00  0.00     0.029 A 
ATOM     57  C   UNL     1      10.023   1.668   5.892  1.00  0.00     0.049 A 
ATOM     58  H   UNL     1       7.966   1.539   5.445  1.00  0.00     0.167 HD
ATOM     59  C   UNL     1       8.971   0.954   8.018  1.00  0.00     0.074 A 
ATOM     60  C   UNL     1       9.020   0.556   9.411  1.00  0.00     0.031 C 
ATOM     61  C   UNL     1      10.060   1.246   7.267  1.00  0.00     0.031 A 
BRANCH  48  62
ATOM     62  C   UNL     1       8.762   2.655   1.407  1.00  0.00    -0.014 A 
ATOM     63  C   UNL     1       8.559   3.958   0.927  1.00  0.00     0.009 A 
ATOM     64  C   UNL     1       9.518   1.757   0.637  1.00  0.00     0.009 A 
ATOM     65  C   UNL     1       9.093   4.349  -0.305  1.00  0.00     0.001 A 
ATOM     66  C   UNL     1      10.061   2.154  -0.586  1.00  0.00     0.001 A 
ATOM     67  C   UNL     1       9.846   3.448  -1.058  1.00  0.00     0.000 A 
ENDBRANCH  48  62
BRANCH  49  68
ATOM     68  C   UNL     1       4.903   0.013  10.189  1.00  0.00    -0.014 A 
ATOM     69  C   UNL     1       4.858   0.883  11.286  1.00  0.00     0.009 A 
ATOM     70  C   UNL     1       4.334  -1.268  10.310  1.00  0.00     0.009 A 
ATOM     71  C   UNL     1       4.253   0.478  12.478  1.00  0.00     0.001 A 
ATOM     72  C   UNL     1       3.704  -1.657  11.491  1.00  0.00     0.001 A 
ATOM     73  C   UNL     1       3.669  -0.785  12.576  1.00  0.00     0.000 A 
ENDBRANCH  49  68
BRANCH  61  74
ATOM     74  C   UNL     1      11.396   1.146   7.942  1.00  0.00    -0.014 A 
ATOM     75  C   UNL     1      11.975  -0.103   8.214  1.00  0.00     0.009 A 
ATOM     76  C   UNL     1      12.091   2.314   8.291  1.00  0.00     0.009 A 
ATOM     77  C   UNL     1      13.213  -0.180   8.853  1.00  0.00     0.001 A 
ATOM     78  C   UNL     1      13.339   2.233   8.909  1.00  0.00     0.001 A 
ATOM     79  C   UNL     1      13.895   0.987   9.197  1.00  0.00     0.000 A 
ENDBRANCH  61  74
ENDBRANCH  35  36
ENDBRANCH  28  30
ENDBRANCH  27  28
ENDBRANCH  26  27
ENDBRANCH   1  26
TORSDOF 15
