REMARK SMILES C[C@@H](Sc1ccccc1[N+](=O)[O-])[C@@H](C)C(=O)OCCOC(=O)c1ccc(-c2c3nc(c(-c4ccccc4)c4ccc([nH]4)c(-c4ccccc4)c4nc(c(-c5ccccc5)c5ccc2[nH]5)C=C4)C=C3)cc1
REMARK SMILES IDX 18 1 17 2 15 3 16 4 13 5 14 6 2 7 1 8 3 9 4 10 5 11 9 12
REMARK SMILES IDX 6 13 8 14 7 15 10 16 11 17 12 18 19 19 20 20 21 21 22 22
REMARK SMILES IDX 23 23 24 24 70 25 25 26 69 27 26 28 27 29 28 30 63 31 29 32
REMARK SMILES IDX 68 33 62 34 64 35 30 36 67 37 61 38 60 39 31 41 53 42 38 43
REMARK SMILES IDX 52 44 39 45 42 46 51 47 65 48 40 49 41 50 50 52 66 53 43 54
REMARK SMILES IDX 32 55 33 56 37 57 34 58 36 59 35 60 54 61 55 62 59 63 56 64
REMARK SMILES IDX 58 65 57 66 44 67 45 68 49 69 46 70 48 71 47 72
REMARK H PARENT 64 40 42 51
REMARK Flexibility Score: inf
ROOT
ATOM      1  C   UNL     1      -1.535   3.432  -3.327  1.00  0.00     0.274 C 
ENDROOT
BRANCH   1   2
ATOM      2  O   UNL     1      -0.908   2.738  -2.228  1.00  0.00    -0.462 OA
BRANCH   2   3
ATOM      3  C   UNL     1      -1.685   1.818  -1.601  1.00  0.00     0.309 C 
ATOM      4  O   UNL     1      -2.880   1.641  -1.818  1.00  0.00    -0.252 OA
BRANCH   3   5
ATOM      5  C   UNL     1      -0.949   1.049  -0.516  1.00  0.00     0.109 C 
ATOM      6  C   UNL     1      -1.360   1.689   0.813  1.00  0.00     0.021 C 
BRANCH   5   7
ATOM      7  C   UNL     1       0.587   0.942  -0.698  1.00  0.00     0.063 C 
ATOM      8  C   UNL     1       1.246   0.232   0.491  1.00  0.00     0.020 C 
BRANCH   7   9
ATOM      9  S   UNL     1       0.966  -0.024  -2.239  1.00  0.00    -0.115 SA
BRANCH   9  10
ATOM     10  C   UNL     1       2.748   0.084  -2.358  1.00  0.00     0.085 A 
ATOM     11  C   UNL     1       3.441  -1.137  -2.286  1.00  0.00     0.022 A 
ATOM     12  C   UNL     1       3.512   1.244  -2.536  1.00  0.00     0.282 A 
ATOM     13  C   UNL     1       4.840  -1.184  -2.349  1.00  0.00     0.002 A 
ATOM     14  C   UNL     1       4.916   1.210  -2.592  1.00  0.00     0.087 A 
ATOM     15  C   UNL     1       5.577  -0.011  -2.494  1.00  0.00     0.007 A 
BRANCH  12  16
ATOM     16  N   UNL     1       2.890   2.543  -2.680  1.00  0.00     0.063 N 
ATOM     17  O   UNL     1       3.166   3.390  -1.818  1.00  0.00    -0.258 OA
ATOM     18  O   UNL     1       2.161   2.730  -3.661  1.00  0.00    -0.258 OA
ENDBRANCH  12  16
ENDBRANCH   9  10
ENDBRANCH   7   9
ENDBRANCH   5   7
ENDBRANCH   3   5
ENDBRANCH   2   3
ENDBRANCH   1   2
BRANCH   1  19
ATOM     19  C   UNL     1      -1.299   2.690  -4.643  1.00  0.00     0.275 C 
BRANCH  19  20
ATOM     20  O   UNL     1      -1.817   1.355  -4.531  1.00  0.00    -0.458 OA
BRANCH  20  21
ATOM     21  C   UNL     1      -1.234   0.438  -5.335  1.00  0.00     0.338 C 
ATOM     22  O   UNL     1      -0.408   0.646  -6.207  1.00  0.00    -0.246 OA
BRANCH  21  23
ATOM     23  C   UNL     1      -1.791  -0.902  -5.042  1.00  0.00     0.060 A 
ATOM     24  C   UNL     1      -2.118  -1.300  -3.741  1.00  0.00     0.016 A 
ATOM     25  C   UNL     1      -1.942  -1.799  -6.100  1.00  0.00     0.016 A 
ATOM     26  C   UNL     1      -2.554  -2.601  -3.489  1.00  0.00     0.010 A 
ATOM     27  C   UNL     1      -2.440  -3.080  -5.858  1.00  0.00     0.010 A 
ATOM     28  C   UNL     1      -2.731  -3.499  -4.548  1.00  0.00    -0.014 A 
BRANCH  28  29
ATOM     29  C   UNL     1      -3.197  -4.889  -4.314  1.00  0.00     0.031 A 
ATOM     30  C   UNL     1      -2.291  -6.044  -4.636  1.00  0.00     0.074 A 
ATOM     31  C   UNL     1      -4.446  -5.119  -3.866  1.00  0.00     0.049 A 
ATOM     32  N   UNL     1      -2.568  -7.322  -4.698  1.00  0.00    -0.248 NA
ATOM     33  C   UNL     1      -0.889  -5.715  -4.939  1.00  0.00     0.031 C 
ATOM     34  C   UNL     1      -5.414  -4.092  -3.478  1.00  0.00     0.029 A 
ATOM     35  N   UNL     1      -5.120  -6.300  -3.680  1.00  0.00    -0.354 N 
ATOM     36  C   UNL     1      -1.389  -7.944  -5.088  1.00  0.00     0.074 A 
ATOM     37  C   UNL     1      -0.396  -6.905  -5.254  1.00  0.00     0.031 C 
ATOM     38  C   UNL     1      -6.556  -4.688  -3.098  1.00  0.00     0.029 A 
ATOM     39  C   UNL     1      -6.421  -6.129  -3.278  1.00  0.00     0.049 A 
ATOM     40  H   UNL     1      -4.709  -7.184  -3.821  1.00  0.00     0.167 HD
ATOM     41  C   UNL     1      -1.158  -9.262  -5.293  1.00  0.00     0.031 A 
ATOM     42  C   UNL     1      -7.410  -7.028  -3.114  1.00  0.00     0.031 A 
ATOM     43  C   UNL     1      -2.142 -10.297  -5.115  1.00  0.00     0.049 A 
ATOM     44  C   UNL     1      -7.145  -8.477  -3.404  1.00  0.00     0.074 A 
ATOM     45  C   UNL     1      -1.998 -11.663  -5.283  1.00  0.00     0.029 A 
ATOM     46  N   UNL     1      -3.453 -10.076  -4.725  1.00  0.00    -0.354 N 
ATOM     47  N   UNL     1      -6.033  -9.052  -3.792  1.00  0.00    -0.248 NA
ATOM     48  C   UNL     1      -8.278  -9.400  -3.243  1.00  0.00     0.031 C 
ATOM     49  C   UNL     1      -3.235 -12.267  -5.031  1.00  0.00     0.029 A 
ATOM     50  C   UNL     1      -4.135 -11.280  -4.663  1.00  0.00     0.049 A 
ATOM     51  H   UNL     1      -3.842  -9.195  -4.522  1.00  0.00     0.167 HD
ATOM     52  C   UNL     1      -6.327 -10.404  -3.906  1.00  0.00     0.074 A 
ATOM     53  C   UNL     1      -7.716 -10.566  -3.530  1.00  0.00     0.031 C 
ATOM     54  C   UNL     1      -5.518 -11.421  -4.290  1.00  0.00     0.031 A 
BRANCH  41  55
ATOM     55  C   UNL     1       0.210  -9.657  -5.770  1.00  0.00    -0.014 A 
ATOM     56  C   UNL     1       1.317  -9.646  -4.906  1.00  0.00     0.009 A 
ATOM     57  C   UNL     1       0.388 -10.076  -7.098  1.00  0.00     0.009 A 
ATOM     58  C   UNL     1       2.579 -10.019  -5.373  1.00  0.00     0.001 A 
ATOM     59  C   UNL     1       1.646 -10.470  -7.555  1.00  0.00     0.001 A 
ATOM     60  C   UNL     1       2.742 -10.434  -6.694  1.00  0.00     0.000 A 
ENDBRANCH  41  55
BRANCH  42  61
ATOM     61  C   UNL     1      -8.760  -6.575  -2.690  1.00  0.00    -0.014 A 
ATOM     62  C   UNL     1      -9.233  -6.863  -1.402  1.00  0.00     0.009 A 
ATOM     63  C   UNL     1      -9.580  -5.854  -3.571  1.00  0.00     0.009 A 
ATOM     64  C   UNL     1     -10.510  -6.453  -1.010  1.00  0.00     0.001 A 
ATOM     65  C   UNL     1     -10.845  -5.422  -3.168  1.00  0.00     0.001 A 
ATOM     66  C   UNL     1     -11.312  -5.728  -1.891  1.00  0.00     0.000 A 
ENDBRANCH  42  61
BRANCH  54  67
ATOM     67  C   UNL     1      -6.110 -12.800  -4.289  1.00  0.00    -0.014 A 
ATOM     68  C   UNL     1      -6.997 -13.209  -5.296  1.00  0.00     0.009 A 
ATOM     69  C   UNL     1      -5.751 -13.710  -3.283  1.00  0.00     0.009 A 
ATOM     70  C   UNL     1      -7.538 -14.496  -5.278  1.00  0.00     0.001 A 
ATOM     71  C   UNL     1      -6.275 -15.003  -3.281  1.00  0.00     0.001 A 
ATOM     72  C   UNL     1      -7.174 -15.392  -4.273  1.00  0.00     0.000 A 
ENDBRANCH  54  67
ENDBRANCH  28  29
ENDBRANCH  21  23
ENDBRANCH  20  21
ENDBRANCH  19  20
ENDBRANCH   1  19
TORSDOF 15
