REMARK SMILES Cc1c(NC(=O)[C@@H]2CC=CC[C@@H]2C(=O)OCCOC(=O)c2ccc(-c3c4nc(c(-c5ccccc5)c5ccc([nH]5)c(-c5ccccc5)c5nc(c(-c6ccccc6)c6ccc3[nH]6)C=C5)C=C4)cc2)cccc1C(=O)N1CCOCC1
REMARK SMILES IDX 16 1 15 2 13 3 14 4 12 5 7 6 8 7 9 8 11 9 10 10 5 11 4 12
REMARK SMILES IDX 6 14 3 15 1 16 2 17 72 18 69 19 71 20 70 21 73 22 74 23
REMARK SMILES IDX 75 24 76 25 80 26 77 27 79 28 78 29 17 30 18 31 19 32 20 33
REMARK SMILES IDX 21 34 22 35 68 36 23 37 67 38 24 39 25 40 26 41 61 42 27 43
REMARK SMILES IDX 66 44 60 45 62 46 28 47 65 48 59 49 58 50 29 52 51 53 36 54
REMARK SMILES IDX 50 55 37 56 40 57 49 58 63 59 38 60 39 61 48 63 64 64 41 65
REMARK SMILES IDX 30 66 31 67 35 68 32 69 34 70 33 71 52 72 53 73 57 74 54 75
REMARK SMILES IDX 56 76 55 77 42 78 43 79 47 80 44 81 46 82 45 83
REMARK H PARENT 4 13 62 51 40 62
REMARK Flexibility Score: inf
ROOT
ATOM      1  C   UNL     1      -5.274  -2.771   1.287  1.00  0.00     0.274 C 
ENDROOT
BRANCH   1   2
ATOM      2  O   UNL     1      -3.886  -2.477   1.177  1.00  0.00    -0.462 OA
BRANCH   2   3
ATOM      3  C   UNL     1      -3.158  -3.326   0.429  1.00  0.00     0.310 C 
ATOM      4  O   UNL     1      -3.604  -4.352  -0.088  1.00  0.00    -0.252 OA
BRANCH   3   5
ATOM      5  C   UNL     1      -1.693  -2.962   0.368  1.00  0.00     0.116 C 
ATOM      6  C   UNL     1      -1.001  -3.692   1.514  1.00  0.00     0.097 C 
ATOM      7  C   UNL     1      -1.505  -3.224   2.878  1.00  0.00     0.041 C 
ATOM      8  C   UNL     1      -1.482  -1.718   2.950  1.00  0.00    -0.030 C 
ATOM      9  C   UNL     1      -1.368  -1.467   0.458  1.00  0.00     0.043 C 
ATOM     10  C   UNL     1      -1.386  -0.932   1.863  1.00  0.00    -0.030 C 
BRANCH   6  11
ATOM     11  C   UNL     1      -1.144  -5.175   1.286  1.00  0.00     0.228 C 
ATOM     12  N   UNL     1      -0.170  -5.749   0.494  1.00  0.00    -0.326 N 
ATOM     13  H   UNL     1      -0.326  -5.950  -0.457  1.00  0.00     0.169 HD
ATOM     14  O   UNL     1      -2.111  -5.832   1.662  1.00  0.00    -0.274 OA
BRANCH  12  15
ATOM     15  C   UNL     1       1.069  -6.035   1.126  1.00  0.00     0.044 A 
ATOM     16  C   UNL     1       0.203  -8.366   1.423  1.00  0.00     0.047 C 
ATOM     17  C   UNL     1       1.303  -7.350   1.589  1.00  0.00    -0.015 A 
ATOM     18  C   UNL     1       2.517  -7.615   2.260  1.00  0.00     0.045 A 
ATOM     19  C   UNL     1       1.976  -5.005   1.387  1.00  0.00     0.026 A 
ATOM     20  C   UNL     1       3.369  -6.538   2.584  1.00  0.00     0.014 A 
ATOM     21  C   UNL     1       3.094  -5.241   2.169  1.00  0.00     0.003 A 
BRANCH  18  22
ATOM     22  C   UNL     1       2.911  -8.930   2.856  1.00  0.00     0.254 C 
ATOM     23  O   UNL     1       3.628  -8.922   3.857  1.00  0.00    -0.269 OA
ATOM     24  N   UNL     1       2.383 -10.114   2.370  1.00  0.00    -0.334 N 
ATOM     25  C   UNL     1       2.412 -10.555   0.971  1.00  0.00     0.148 C 
ATOM     26  C   UNL     1       2.132 -11.176   3.335  1.00  0.00     0.148 C 
ATOM     27  C   UNL     1       1.229 -11.488   0.637  1.00  0.00     0.181 C 
ATOM     28  C   UNL     1       0.869 -11.935   2.937  1.00  0.00     0.181 C 
ATOM     29  O   UNL     1       1.028 -12.508   1.629  1.00  0.00    -0.378 OA
ENDBRANCH  18  22
ENDBRANCH  12  15
ENDBRANCH   6  11
ENDBRANCH   3   5
ENDBRANCH   2   3
ENDBRANCH   1   2
BRANCH   1  30
ATOM     30  C   UNL     1      -6.072  -1.470   1.177  1.00  0.00     0.275 C 
BRANCH  30  31
ATOM     31  O   UNL     1      -5.454  -0.324   0.488  1.00  0.00    -0.458 OA
BRANCH  31  32
ATOM     32  C   UNL     1      -4.712  -0.226  -0.650  1.00  0.00     0.338 C 
ATOM     33  O   UNL     1      -4.041   0.770  -0.901  1.00  0.00    -0.246 OA
BRANCH  32  34
ATOM     34  C   UNL     1      -4.681  -1.373  -1.571  1.00  0.00     0.060 A 
ATOM     35  C   UNL     1      -3.515  -1.720  -2.286  1.00  0.00     0.016 A 
ATOM     36  C   UNL     1      -5.802  -2.175  -1.624  1.00  0.00     0.016 A 
ATOM     37  C   UNL     1      -3.445  -2.943  -2.954  1.00  0.00     0.010 A 
ATOM     38  C   UNL     1      -5.651  -3.461  -2.057  1.00  0.00     0.010 A 
ATOM     39  C   UNL     1      -4.515  -3.822  -2.800  1.00  0.00    -0.014 A 
BRANCH  39  40
ATOM     40  C   UNL     1      -4.753  -4.998  -3.623  1.00  0.00     0.031 A 
ATOM     41  C   UNL     1      -3.991  -6.250  -3.477  1.00  0.00     0.074 A 
ATOM     42  C   UNL     1      -5.817  -4.795  -4.439  1.00  0.00     0.049 A 
ATOM     43  N   UNL     1      -3.780  -7.061  -4.454  1.00  0.00    -0.248 NA
ATOM     44  C   UNL     1      -3.370  -6.718  -2.235  1.00  0.00     0.031 C 
ATOM     45  C   UNL     1      -6.606  -5.660  -5.288  1.00  0.00     0.029 A 
ATOM     46  N   UNL     1      -6.342  -3.520  -4.722  1.00  0.00    -0.354 N 
ATOM     47  C   UNL     1      -3.394  -8.266  -3.901  1.00  0.00     0.074 A 
ATOM     48  C   UNL     1      -2.989  -7.964  -2.554  1.00  0.00     0.031 C 
ATOM     49  C   UNL     1      -7.224  -4.890  -6.214  1.00  0.00     0.029 A 
ATOM     50  C   UNL     1      -6.760  -3.513  -6.038  1.00  0.00     0.049 A 
ATOM     51  H   UNL     1      -6.401  -2.766  -4.092  1.00  0.00     0.167 HD
ATOM     52  C   UNL     1      -3.691  -9.415  -4.569  1.00  0.00     0.031 A 
ATOM     53  C   UNL     1      -6.003  -2.770  -6.898  1.00  0.00     0.031 A 
ATOM     54  C   UNL     1      -4.378  -9.095  -5.816  1.00  0.00     0.049 A 
ATOM     55  C   UNL     1      -5.279  -3.698  -7.838  1.00  0.00     0.074 A 
ATOM     56  C   UNL     1      -5.726  -9.038  -6.130  1.00  0.00     0.029 A 
ATOM     57  N   UNL     1      -3.711  -8.350  -6.778  1.00  0.00    -0.354 N 
ATOM     58  N   UNL     1      -4.859  -4.894  -7.517  1.00  0.00    -0.248 NA
ATOM     59  C   UNL     1      -5.074  -3.378  -9.243  1.00  0.00     0.031 C 
ATOM     60  C   UNL     1      -5.871  -8.175  -7.248  1.00  0.00     0.029 A 
ATOM     61  C   UNL     1      -4.616  -7.710  -7.604  1.00  0.00     0.049 A 
ATOM     62  H   UNL     1      -2.732  -8.287  -6.861  1.00  0.00     0.167 HD
ATOM     63  C   UNL     1      -4.469  -5.545  -8.656  1.00  0.00     0.074 A 
ATOM     64  C   UNL     1      -4.582  -4.541  -9.701  1.00  0.00     0.031 C 
ATOM     65  C   UNL     1      -4.138  -6.870  -8.690  1.00  0.00     0.031 A 
BRANCH  52  66
ATOM     66  C   UNL     1      -3.684 -10.800  -3.971  1.00  0.00    -0.014 A 
ATOM     67  C   UNL     1      -4.646 -11.735  -4.410  1.00  0.00     0.009 A 
ATOM     68  C   UNL     1      -2.778 -11.253  -2.999  1.00  0.00     0.009 A 
ATOM     69  C   UNL     1      -4.731 -13.030  -3.890  1.00  0.00     0.001 A 
ATOM     70  C   UNL     1      -2.864 -12.553  -2.465  1.00  0.00     0.001 A 
ATOM     71  C   UNL     1      -3.842 -13.439  -2.909  1.00  0.00     0.000 A 
ENDBRANCH  52  66
BRANCH  53  72
ATOM     72  C   UNL     1      -5.440  -1.493  -6.311  1.00  0.00    -0.014 A 
ATOM     73  C   UNL     1      -6.321  -0.605  -5.641  1.00  0.00     0.009 A 
ATOM     74  C   UNL     1      -4.066  -1.250  -6.172  1.00  0.00     0.009 A 
ATOM     75  C   UNL     1      -5.853   0.404  -4.788  1.00  0.00     0.001 A 
ATOM     76  C   UNL     1      -3.598  -0.211  -5.343  1.00  0.00     0.001 A 
ATOM     77  C   UNL     1      -4.487   0.594  -4.629  1.00  0.00     0.000 A 
ENDBRANCH  53  72
BRANCH  65  78
ATOM     78  C   UNL     1      -3.397  -7.551  -9.810  1.00  0.00    -0.014 A 
ATOM     79  C   UNL     1      -2.665  -6.871 -10.786  1.00  0.00     0.009 A 
ATOM     80  C   UNL     1      -3.289  -8.962  -9.804  1.00  0.00     0.009 A 
ATOM     81  C   UNL     1      -1.920  -7.561 -11.747  1.00  0.00     0.001 A 
ATOM     82  C   UNL     1      -2.489  -9.651 -10.712  1.00  0.00     0.001 A 
ATOM     83  C   UNL     1      -1.820  -8.948 -11.700  1.00  0.00     0.000 A 
ENDBRANCH  65  78
ENDBRANCH  39  40
ENDBRANCH  32  34
ENDBRANCH  31  32
ENDBRANCH  30  31
ENDBRANCH   1  30
TORSDOF 14
