REMARK SMILES Cc1c(C(=O)NC(=S)Nc2ccccc2C(=O)OCCOC(=O)c2ccc(-c3c4nc(c(-c5ccccc5)c5ccc([nH]5)c(-c5ccccc5)c5nc(c(-c6ccccc6)c6ccc3[nH]6)C=C5)C=C4)cc2)cccc1[N+](=O)[O-]
REMARK SMILES IDX 18 1 16 2 17 3 15 4 10 5 11 6 12 7 14 8 13 9 9 10 7 12 8 13
REMARK SMILES IDX 6 14 4 15 5 16 3 18 1 19 2 20 75 21 72 22 74 23 73 24 76 25
REMARK SMILES IDX 77 26 78 27 19 28 20 29 21 30 22 31 23 32 24 33 25 34 71 35
REMARK SMILES IDX 26 36 70 37 27 38 28 39 29 40 64 41 30 42 69 43 63 44 65 45
REMARK SMILES IDX 31 46 68 47 62 48 61 49 32 51 54 52 39 53 53 54 40 55 43 56
REMARK SMILES IDX 52 57 66 58 41 59 42 60 51 62 67 63 44 64 33 65 34 66 38 67
REMARK SMILES IDX 35 68 37 69 36 70 55 71 56 72 60 73 57 74 59 75 58 76 45 77
REMARK SMILES IDX 46 78 50 79 47 80 49 81 48 82
REMARK H PARENT 9 11 6 17 65 50 43 61
REMARK Flexibility Score: inf
ROOT
ATOM      1  O   UNL     1       0.839  -3.114   1.403  1.00  0.00    -0.458 OA
ENDROOT
BRANCH   1   2
ATOM      2  C   UNL     1       0.316  -1.963   1.922  1.00  0.00     0.340 C 
ATOM      3  O   UNL     1      -0.445  -2.045   2.883  1.00  0.00    -0.246 OA
BRANCH   2   4
ATOM      4  C   UNL     1       0.262  -0.650   1.155  1.00  0.00     0.083 A 
ATOM      5  C   UNL     1       1.388   0.411   0.244  1.00  0.00     0.055 A 
ATOM      6  C   UNL     1       0.845   1.445  -1.177  1.00  0.00     0.027 A 
ATOM      7  C   UNL     1      -0.828   0.981  -1.894  1.00  0.00     0.002 A 
ATOM      8  C   UNL     1      -1.314  -0.836   0.772  1.00  0.00     0.018 A 
ATOM      9  C   UNL     1      -1.874  -0.243  -0.655  1.00  0.00     0.001 A 
BRANCH   5  10
ATOM     10  N   UNL     1       2.590  -0.254  -0.146  1.00  0.00    -0.332 N 
ATOM     11  H   UNL     1       3.420   0.259  -0.017  1.00  0.00     0.169 HD
BRANCH  10  12
ATOM     12  C   UNL     1       2.746  -1.522  -0.681  1.00  0.00     0.177 C 
ATOM     13  S   UNL     1       4.305  -1.895  -1.226  1.00  0.00    -0.040 S 
BRANCH  12  14
ATOM     14  N   UNL     1       1.663  -2.436  -1.037  1.00  0.00    -0.299 N 
ATOM     15  C   UNL     1       0.208  -2.666  -1.592  1.00  0.00     0.257 C 
ATOM     16  O   UNL     1      -0.206  -3.818  -1.695  1.00  0.00    -0.269 OA
ATOM     17  H   UNL     1       2.007  -3.336  -0.833  1.00  0.00     0.172 HD
BRANCH  15  18
ATOM     18  C   UNL     1      -0.699  -1.460  -1.963  1.00  0.00     0.049 A 
ATOM     19  C   UNL     1       1.075  -0.271  -2.625  1.00  0.00     0.053 C 
ATOM     20  C   UNL     1       0.019  -0.389  -1.003  1.00  0.00     0.039 A 
ATOM     21  C   UNL     1      -0.861   1.214  -0.062  1.00  0.00     0.273 A 
ATOM     22  C   UNL     1      -2.196  -0.887  -2.662  1.00  0.00     0.014 A 
ATOM     23  C   UNL     1      -2.466   1.707  -0.824  1.00  0.00     0.086 A 
ATOM     24  C   UNL     1      -3.051   0.651  -2.175  1.00  0.00     0.008 A 
BRANCH  21  25
ATOM     25  N   UNL     1      -0.358   2.474   0.728  1.00  0.00     0.063 N 
ATOM     26  O   UNL     1      -0.893   3.553   0.420  1.00  0.00    -0.258 OA
ATOM     27  O   UNL     1       0.524   2.369   1.590  1.00  0.00    -0.258 OA
ENDBRANCH  21  25
ENDBRANCH  15  18
ENDBRANCH  12  14
ENDBRANCH  10  12
ENDBRANCH   5  10
ENDBRANCH   2   4
ENDBRANCH   1   2
BRANCH   1  28
ATOM     28  C   UNL     1       0.469  -4.308   2.171  1.00  0.00     0.275 C 
BRANCH  28  29
ATOM     29  C   UNL     1       1.513  -5.449   2.174  1.00  0.00     0.275 C 
BRANCH  29  30
ATOM     30  O   UNL     1       2.887  -5.176   2.523  1.00  0.00    -0.458 OA
BRANCH  30  31
ATOM     31  C   UNL     1       3.366  -3.951   2.223  1.00  0.00     0.338 C 
ATOM     32  O   UNL     1       3.950  -3.688   1.194  1.00  0.00    -0.246 OA
BRANCH  31  33
ATOM     33  C   UNL     1       2.968  -2.982   3.259  1.00  0.00     0.060 A 
ATOM     34  C   UNL     1       2.860  -1.625   2.910  1.00  0.00     0.016 A 
ATOM     35  C   UNL     1       2.373  -3.489   4.412  1.00  0.00     0.016 A 
ATOM     36  C   UNL     1       2.141  -0.748   3.698  1.00  0.00     0.010 A 
ATOM     37  C   UNL     1       1.481  -2.697   5.073  1.00  0.00     0.010 A 
ATOM     38  C   UNL     1       1.485  -1.317   4.779  1.00  0.00    -0.014 A 
BRANCH  38  39
ATOM     39  C   UNL     1       1.245  -0.536   5.971  1.00  0.00     0.031 A 
ATOM     40  C   UNL     1      -0.171  -0.010   6.040  1.00  0.00     0.074 A 
ATOM     41  C   UNL     1       2.381  -0.824   6.699  1.00  0.00     0.049 A 
ATOM     42  N   UNL     1      -0.594   1.079   6.596  1.00  0.00    -0.248 NA
ATOM     43  C   UNL     1      -1.318  -0.561   5.266  1.00  0.00     0.031 C 
ATOM     44  C   UNL     1       2.790  -0.968   8.086  1.00  0.00     0.029 A 
ATOM     45  N   UNL     1       3.645  -1.050   6.068  1.00  0.00    -0.354 N 
ATOM     46  C   UNL     1      -1.942   0.816   6.861  1.00  0.00     0.074 A 
ATOM     47  C   UNL     1      -2.400   0.057   5.751  1.00  0.00     0.031 C 
ATOM     48  C   UNL     1       4.133  -0.804   8.184  1.00  0.00     0.029 A 
ATOM     49  C   UNL     1       4.671  -0.554   6.852  1.00  0.00     0.049 A 
ATOM     50  H   UNL     1       3.767  -1.495   5.198  1.00  0.00     0.167 HD
ATOM     51  C   UNL     1      -2.340   0.722   8.166  1.00  0.00     0.031 A 
ATOM     52  C   UNL     1       5.238   0.595   6.379  1.00  0.00     0.031 A 
ATOM     53  C   UNL     1      -1.149   0.875   8.999  1.00  0.00     0.049 A 
ATOM     54  C   UNL     1       4.524   1.730   7.064  1.00  0.00     0.074 A 
ATOM     55  C   UNL     1      -0.345  -0.043   9.647  1.00  0.00     0.029 A 
ATOM     56  N   UNL     1      -0.381   2.012   8.812  1.00  0.00    -0.354 N 
ATOM     57  N   UNL     1       3.248   1.752   7.356  1.00  0.00    -0.248 NA
ATOM     58  C   UNL     1       5.280   2.821   7.647  1.00  0.00     0.031 C 
ATOM     59  C   UNL     1       0.922   0.585   9.846  1.00  0.00     0.029 A 
ATOM     60  C   UNL     1       0.931   1.806   9.188  1.00  0.00     0.049 A 
ATOM     61  H   UNL     1      -0.727   2.861   8.456  1.00  0.00     0.167 HD
ATOM     62  C   UNL     1       3.039   2.712   8.305  1.00  0.00     0.074 A 
ATOM     63  C   UNL     1       4.338   3.365   8.430  1.00  0.00     0.031 C 
ATOM     64  C   UNL     1       1.879   2.901   9.007  1.00  0.00     0.031 A 
BRANCH  51  65
ATOM     65  C   UNL     1      -3.647   0.210   8.732  1.00  0.00    -0.014 A 
ATOM     66  C   UNL     1      -3.723   0.027  10.130  1.00  0.00     0.009 A 
ATOM     67  C   UNL     1      -4.832  -0.039   8.016  1.00  0.00     0.009 A 
ATOM     68  C   UNL     1      -4.891  -0.378  10.784  1.00  0.00     0.001 A 
ATOM     69  C   UNL     1      -6.014  -0.450   8.670  1.00  0.00     0.001 A 
ATOM     70  C   UNL     1      -6.043  -0.614  10.053  1.00  0.00     0.000 A 
ENDBRANCH  51  65
BRANCH  52  71
ATOM     71  C   UNL     1       5.552   0.536   4.908  1.00  0.00    -0.014 A 
ATOM     72  C   UNL     1       6.335  -0.550   4.441  1.00  0.00     0.009 A 
ATOM     73  C   UNL     1       4.854   1.299   3.963  1.00  0.00     0.009 A 
ATOM     74  C   UNL     1       6.285  -0.960   3.107  1.00  0.00     0.001 A 
ATOM     75  C   UNL     1       4.851   0.920   2.613  1.00  0.00     0.001 A 
ATOM     76  C   UNL     1       5.543  -0.221   2.197  1.00  0.00     0.000 A 
ENDBRANCH  52  71
BRANCH  64  77
ATOM     77  C   UNL     1       1.531   4.227   9.637  1.00  0.00    -0.014 A 
ATOM     78  C   UNL     1       2.261   5.397   9.425  1.00  0.00     0.009 A 
ATOM     79  C   UNL     1       0.334   4.365  10.374  1.00  0.00     0.009 A 
ATOM     80  C   UNL     1       1.913   6.595  10.043  1.00  0.00     0.001 A 
ATOM     81  C   UNL     1      -0.092   5.585  10.883  1.00  0.00     0.001 A 
ATOM     82  C   UNL     1       0.729   6.691  10.762  1.00  0.00     0.000 A 
ENDBRANCH  64  77
ENDBRANCH  38  39
ENDBRANCH  31  33
ENDBRANCH  30  31
ENDBRANCH  29  30
ENDBRANCH  28  29
ENDBRANCH   1  28
TORSDOF 16
