REMARK SMILES O=C(OCCOC(=O)c1cc(NS(=O)(=O)c2ccc(Br)s2)cnc1N1CCCC1)c1ccc(-c2c3nc(c(-c4ccccc4)c4ccc([nH]4)c(-c4ccccc4)c4nc(c(-c5ccccc5)c5ccc2[nH]5)C=C4)C=C3)cc1
REMARK SMILES IDX 5 1 4 2 3 3 2 4 1 5 30 6 31 7 77 8 32 9 76 10 33 11 34 12
REMARK SMILES IDX 35 13 70 14 36 15 75 16 69 17 71 18 37 19 74 20 68 21 67 22
REMARK SMILES IDX 38 24 60 25 45 26 59 27 46 28 49 29 58 30 72 31 47 32 48 33
REMARK SMILES IDX 57 35 73 36 50 37 39 38 40 39 44 40 41 41 43 42 42 43 61 44
REMARK SMILES IDX 62 45 66 46 63 47 65 48 64 49 51 50 52 51 56 52 53 53 55 54
REMARK SMILES IDX 54 55 6 56 7 57 8 58 9 59 10 60 24 61 11 62 23 63 22 64
REMARK SMILES IDX 25 65 26 66 29 67 27 68 28 69 12 70 13 72 14 73 15 74 16 75
REMARK SMILES IDX 17 76 21 77 18 78 19 79 20 80
REMARK H PARENT 71 23 49 34 12 71
REMARK Flexibility Score: inf
ROOT
ATOM      1  C   UNL     1       3.887  -1.770  -1.593  1.00  0.00     0.275 C 
ENDROOT
BRANCH   1   2
ATOM      2  C   UNL     1       4.795  -1.982  -0.355  1.00  0.00     0.275 C 
BRANCH   2   3
ATOM      3  O   UNL     1       5.329  -0.801   0.237  1.00  0.00    -0.458 OA
BRANCH   3   4
ATOM      4  C   UNL     1       4.419   0.092   0.695  1.00  0.00     0.338 C 
ATOM      5  O   UNL     1       3.429  -0.163   1.345  1.00  0.00    -0.246 OA
BRANCH   4   6
ATOM      6  C   UNL     1       4.757   1.392   0.047  1.00  0.00     0.060 A 
ATOM      7  C   UNL     1       5.830   1.459  -0.856  1.00  0.00     0.016 A 
ATOM      8  C   UNL     1       3.915   2.491   0.197  1.00  0.00     0.016 A 
ATOM      9  C   UNL     1       6.068   2.607  -1.585  1.00  0.00     0.010 A 
ATOM     10  C   UNL     1       4.104   3.621  -0.592  1.00  0.00     0.010 A 
ATOM     11  C   UNL     1       5.209   3.694  -1.449  1.00  0.00    -0.014 A 
BRANCH  11  12
ATOM     12  C   UNL     1       5.625   4.984  -2.015  1.00  0.00     0.031 A 
ATOM     13  C   UNL     1       6.031   6.053  -1.043  1.00  0.00     0.074 A 
ATOM     14  C   UNL     1       5.710   5.146  -3.346  1.00  0.00     0.049 A 
ATOM     15  N   UNL     1       6.417   7.277  -1.269  1.00  0.00    -0.248 NA
ATOM     16  C   UNL     1       5.985   5.695   0.390  1.00  0.00     0.031 C 
ATOM     17  C   UNL     1       5.360   4.141  -4.359  1.00  0.00     0.029 A 
ATOM     18  N   UNL     1       6.090   6.237  -4.077  1.00  0.00    -0.354 N 
ATOM     19  C   UNL     1       6.667   7.818  -0.015  1.00  0.00     0.074 A 
ATOM     20  C   UNL     1       6.272   6.844   0.970  1.00  0.00     0.031 C 
ATOM     21  C   UNL     1       5.477   4.691  -5.580  1.00  0.00     0.029 A 
ATOM     22  C   UNL     1       5.893   6.081  -5.426  1.00  0.00     0.049 A 
ATOM     23  H   UNL     1       6.466   7.053  -3.675  1.00  0.00     0.167 HD
ATOM     24  C   UNL     1       7.253   8.997   0.287  1.00  0.00     0.031 A 
ATOM     25  C   UNL     1       5.998   6.989  -6.411  1.00  0.00     0.031 A 
ATOM     26  C   UNL     1       7.652   9.936  -0.718  1.00  0.00     0.049 A 
ATOM     27  C   UNL     1       6.506   8.355  -6.054  1.00  0.00     0.074 A 
ATOM     28  C   UNL     1       8.305  11.142  -0.571  1.00  0.00     0.029 A 
ATOM     29  N   UNL     1       7.422   9.755  -2.076  1.00  0.00    -0.354 N 
ATOM     30  N   UNL     1       6.807   8.841  -4.872  1.00  0.00    -0.248 NA
ATOM     31  C   UNL     1       6.746   9.278  -7.168  1.00  0.00     0.031 C 
ATOM     32  C   UNL     1       8.434  11.712  -1.842  1.00  0.00     0.029 A 
ATOM     33  C   UNL     1       7.909  10.836  -2.783  1.00  0.00     0.049 A 
ATOM     34  H   UNL     1       6.978   8.972  -2.475  1.00  0.00     0.167 HD
ATOM     35  C   UNL     1       7.337  10.101  -5.102  1.00  0.00     0.074 A 
ATOM     36  C   UNL     1       7.286  10.313  -6.538  1.00  0.00     0.031 C 
ATOM     37  C   UNL     1       7.853  10.988  -4.216  1.00  0.00     0.031 A 
BRANCH  24  38
ATOM     38  C   UNL     1       7.486   9.281   1.745  1.00  0.00    -0.014 A 
ATOM     39  C   UNL     1       8.381   8.501   2.502  1.00  0.00     0.009 A 
ATOM     40  C   UNL     1       6.751  10.283   2.392  1.00  0.00     0.009 A 
ATOM     41  C   UNL     1       8.481   8.672   3.884  1.00  0.00     0.001 A 
ATOM     42  C   UNL     1       6.880  10.476   3.770  1.00  0.00     0.001 A 
ATOM     43  C   UNL     1       7.729   9.659   4.517  1.00  0.00     0.000 A 
ENDBRANCH  24  38
BRANCH  25  44
ATOM     44  C   UNL     1       5.618   6.629  -7.799  1.00  0.00    -0.014 A 
ATOM     45  C   UNL     1       6.586   6.302  -8.757  1.00  0.00     0.009 A 
ATOM     46  C   UNL     1       4.263   6.584  -8.162  1.00  0.00     0.009 A 
ATOM     47  C   UNL     1       6.204   5.947 -10.055  1.00  0.00     0.001 A 
ATOM     48  C   UNL     1       3.883   6.211  -9.453  1.00  0.00     0.001 A 
ATOM     49  C   UNL     1       4.854   5.897 -10.401  1.00  0.00     0.000 A 
ENDBRANCH  25  44
BRANCH  37  50
ATOM     50  C   UNL     1       8.494  12.215  -4.786  1.00  0.00    -0.014 A 
ATOM     51  C   UNL     1       7.732  13.280  -5.283  1.00  0.00     0.009 A 
ATOM     52  C   UNL     1       9.894  12.322  -4.755  1.00  0.00     0.009 A 
ATOM     53  C   UNL     1       8.366  14.427  -5.761  1.00  0.00     0.001 A 
ATOM     54  C   UNL     1      10.522  13.481  -5.205  1.00  0.00     0.001 A 
ATOM     55  C   UNL     1       9.757  14.529  -5.714  1.00  0.00     0.000 A 
ENDBRANCH  37  50
ENDBRANCH  11  12
ENDBRANCH   4   6
ENDBRANCH   3   4
ENDBRANCH   2   3
ENDBRANCH   1   2
BRANCH   1  56
ATOM     56  O   UNL     1       3.323  -0.448  -1.704  1.00  0.00    -0.458 OA
BRANCH  56  57
ATOM     57  C   UNL     1       2.077  -0.338  -2.232  1.00  0.00     0.342 C 
ATOM     58  O   UNL     1       1.397  -1.235  -2.699  1.00  0.00    -0.246 OA
BRANCH  57  59
ATOM     59  C   UNL     1       1.722   1.091  -2.304  1.00  0.00     0.104 A 
ATOM     60  C   UNL     1       2.028   1.811  -3.472  1.00  0.00     0.048 A 
ATOM     61  C   UNL     1       1.051   1.723  -1.253  1.00  0.00     0.143 A 
ATOM     62  C   UNL     1       1.732   3.172  -3.546  1.00  0.00     0.068 A 
ATOM     63  N   UNL     1       0.867   3.062  -1.270  1.00  0.00    -0.236 NA
ATOM     64  C   UNL     1       1.226   3.747  -2.388  1.00  0.00     0.140 A 
BRANCH  61  65
ATOM     65  N   UNL     1       0.451   1.011  -0.237  1.00  0.00    -0.356 N 
ATOM     66  C   UNL     1       0.578   1.424   1.151  1.00  0.00     0.118 C 
ATOM     67  C   UNL     1      -0.953   0.658  -0.464  1.00  0.00     0.118 C 
ATOM     68  C   UNL     1      -0.273   0.378   1.851  1.00  0.00     0.023 C 
ATOM     69  C   UNL     1      -1.468   0.230   0.918  1.00  0.00     0.023 C 
ENDBRANCH  61  65
BRANCH  62  70
ATOM     70  N   UNL     1       1.677   3.771  -4.854  1.00  0.00    -0.277 N 
ATOM     71  H   UNL     1       1.684   3.174  -5.636  1.00  0.00     0.180 HD
BRANCH  70  72
ATOM     72  S   UNL     1       1.600   5.436  -5.127  1.00  0.00     0.271 S 
ATOM     73  O   UNL     1       2.778   6.021  -4.539  1.00  0.00    -0.200 OA
ATOM     74  O   UNL     1       1.288   5.599  -6.531  1.00  0.00    -0.200 OA
BRANCH  72  75
ATOM     75  C   UNL     1       0.233   6.164  -4.264  1.00  0.00     0.141 A 
ATOM     76  C   UNL     1      -0.991   5.676  -3.839  1.00  0.00     0.035 A 
ATOM     77  S   UNL     1       0.471   7.784  -3.744  1.00  0.00    -0.115 S 
ATOM     78  C   UNL     1      -1.625   6.565  -2.916  1.00  0.00     0.029 A 
ATOM     79  C   UNL     1      -0.907   7.725  -2.770  1.00  0.00     0.071 A 
ATOM     80  Br  UNL     1      -1.381   9.103  -1.595  1.00  0.00    -0.039 Br
ENDBRANCH  72  75
ENDBRANCH  70  72
ENDBRANCH  62  70
ENDBRANCH  57  59
ENDBRANCH  56  57
ENDBRANCH   1  56
TORSDOF 15
