REMARK SMILES Cc1ccc2c(c1)C=C(C(=O)OCCOC(=O)c1ccc(-c3c4nc(c(-c5ccccc5)c5ccc([nH]5)c(-c5ccccc5)c5nc(c(-c6ccccc6)c6ccc3[nH]6)C=C5)C=C4)cc1)[C@@H](C(F)(F)F)O2
REMARK SMILES IDX 14 1 13 2 12 3 10 4 11 5 9 6 1 7 2 8 3 9 7 10 4 11 6 12 5 13
REMARK SMILES IDX 8 14 71 15 66 16 67 17 68 18 69 19 70 20 15 21 16 22 17 23
REMARK SMILES IDX 18 24 19 25 65 26 20 27 64 28 21 29 22 30 23 31 58 32 24 33
REMARK SMILES IDX 63 34 57 35 59 36 25 37 62 38 56 39 55 40 26 42 48 43 33 44
REMARK SMILES IDX 47 45 34 46 37 47 46 48 60 49 35 50 36 51 45 53 61 54 38 55
REMARK SMILES IDX 27 56 28 57 32 58 29 59 31 60 30 61 49 62 50 63 54 64 51 65
REMARK SMILES IDX 53 66 52 67 39 68 40 69 44 70 41 71 43 72 42 73
REMARK H PARENT 59 41 37 52
REMARK Flexibility Score: inf
ROOT
ATOM      1  C   UNL     1      -6.925  -5.696  -1.715  1.00  0.00     0.275 C 
ENDROOT
BRANCH   1   2
ATOM      2  C   UNL     1      -5.777  -6.322  -2.507  1.00  0.00     0.275 C 
BRANCH   2   3
ATOM      3  O   UNL     1      -4.497  -6.024  -1.906  1.00  0.00    -0.459 OA
BRANCH   3   4
ATOM      4  C   UNL     1      -3.764  -5.072  -2.530  1.00  0.00     0.338 C 
ATOM      5  O   UNL     1      -4.085  -4.443  -3.526  1.00  0.00    -0.246 OA
BRANCH   4   6
ATOM      6  C   UNL     1      -2.501  -4.834  -1.804  1.00  0.00     0.087 C 
ATOM      7  C   UNL     1       1.201  -0.270   0.038  1.00  0.00     0.044 C 
ATOM      8  C   UNL     1       0.786  -1.693  -0.192  1.00  0.00    -0.050 A 
ATOM      9  C   UNL     1       1.608  -2.761   0.183  1.00  0.00     0.007 A 
ATOM     10  C   UNL     1      -0.465  -1.971  -0.750  1.00  0.00     0.015 A 
ATOM     11  C   UNL     1       1.189  -4.084  -0.007  1.00  0.00     0.047 A 
ATOM     12  C   UNL     1      -0.871  -3.295  -0.961  1.00  0.00     0.017 A 
ATOM     13  C   UNL     1      -0.053  -4.353  -0.580  1.00  0.00     0.128 A 
ATOM     14  C   UNL     1      -2.141  -3.563  -1.599  1.00  0.00     0.027 C 
ATOM     15  O   UNL     1      -0.403  -5.667  -0.719  1.00  0.00    -0.475 OA
ATOM     16  C   UNL     1      -1.621  -6.000  -1.449  1.00  0.00     0.316 C 
BRANCH  16  17
ATOM     17  C   UNL     1      -1.237  -6.795  -2.708  1.00  0.00     0.430 C 
ATOM     18  F   UNL     1      -0.417  -7.831  -2.411  1.00  0.00    -0.167 F 
ATOM     19  F   UNL     1      -2.328  -7.327  -3.311  1.00  0.00    -0.167 F 
ATOM     20  F   UNL     1      -0.606  -6.026  -3.625  1.00  0.00    -0.167 F 
ENDBRANCH  16  17
ENDBRANCH   4   6
ENDBRANCH   3   4
ENDBRANCH   2   3
ENDBRANCH   1   2
BRANCH   1  21
ATOM     21  O   UNL     1      -6.870  -4.262  -1.819  1.00  0.00    -0.458 OA
BRANCH  21  22
ATOM     22  C   UNL     1      -6.606  -3.597  -0.672  1.00  0.00     0.338 C 
ATOM     23  O   UNL     1      -6.459  -4.060   0.445  1.00  0.00    -0.246 OA
BRANCH  22  24
ATOM     24  C   UNL     1      -6.431  -2.168  -0.973  1.00  0.00     0.060 A 
ATOM     25  C   UNL     1      -7.289  -1.205  -0.455  1.00  0.00     0.016 A 
ATOM     26  C   UNL     1      -5.300  -1.780  -1.681  1.00  0.00     0.016 A 
ATOM     27  C   UNL     1      -7.005   0.149  -0.674  1.00  0.00     0.010 A 
ATOM     28  C   UNL     1      -4.943  -0.439  -1.774  1.00  0.00     0.010 A 
ATOM     29  C   UNL     1      -5.808   0.553  -1.303  1.00  0.00    -0.014 A 
BRANCH  29  30
ATOM     30  C   UNL     1      -5.457   1.994  -1.475  1.00  0.00     0.031 A 
ATOM     31  C   UNL     1      -5.137   2.562  -2.841  1.00  0.00     0.074 A 
ATOM     32  C   UNL     1      -5.379   2.799  -0.394  1.00  0.00     0.049 A 
ATOM     33  N   UNL     1      -4.809   3.789  -3.166  1.00  0.00    -0.248 NA
ATOM     34  C   UNL     1      -5.144   1.633  -3.984  1.00  0.00     0.031 C 
ATOM     35  C   UNL     1      -5.569   2.373   0.995  1.00  0.00     0.029 A 
ATOM     36  N   UNL     1      -5.139   4.149  -0.292  1.00  0.00    -0.354 N 
ATOM     37  C   UNL     1      -4.542   3.764  -4.531  1.00  0.00     0.074 A 
ATOM     38  C   UNL     1      -4.679   2.394  -4.963  1.00  0.00     0.031 C 
ATOM     39  C   UNL     1      -5.525   3.448   1.796  1.00  0.00     0.029 A 
ATOM     40  C   UNL     1      -5.253   4.633   0.990  1.00  0.00     0.049 A 
ATOM     41  H   UNL     1      -4.907   4.714  -1.064  1.00  0.00     0.167 HD
ATOM     42  C   UNL     1      -4.250   4.792  -5.363  1.00  0.00     0.031 A 
ATOM     43  C   UNL     1      -5.171   5.891   1.467  1.00  0.00     0.031 A 
ATOM     44  C   UNL     1      -4.183   6.168  -4.952  1.00  0.00     0.049 A 
ATOM     45  C   UNL     1      -4.912   7.027   0.517  1.00  0.00     0.074 A 
ATOM     46  C   UNL     1      -3.986   7.289  -5.740  1.00  0.00     0.029 A 
ATOM     47  N   UNL     1      -4.330   6.612  -3.649  1.00  0.00    -0.354 N 
ATOM     48  N   UNL     1      -4.740   6.989  -0.781  1.00  0.00    -0.248 NA
ATOM     49  C   UNL     1      -4.846   8.378   1.094  1.00  0.00     0.031 C 
ATOM     50  C   UNL     1      -3.973   8.409  -4.908  1.00  0.00     0.029 A 
ATOM     51  C   UNL     1      -4.216   7.990  -3.610  1.00  0.00     0.049 A 
ATOM     52  H   UNL     1      -4.490   6.034  -2.868  1.00  0.00     0.167 HD
ATOM     53  C   UNL     1      -4.565   8.308  -1.179  1.00  0.00     0.074 A 
ATOM     54  C   UNL     1      -4.670   9.125   0.011  1.00  0.00     0.031 C 
ATOM     55  C   UNL     1      -4.333   8.794  -2.422  1.00  0.00     0.031 A 
BRANCH  42  56
ATOM     56  C   UNL     1      -4.027   4.488  -6.820  1.00  0.00    -0.014 A 
ATOM     57  C   UNL     1      -2.763   4.697  -7.396  1.00  0.00     0.009 A 
ATOM     58  C   UNL     1      -5.090   4.089  -7.646  1.00  0.00     0.009 A 
ATOM     59  C   UNL     1      -2.571   4.521  -8.768  1.00  0.00     0.001 A 
ATOM     60  C   UNL     1      -4.887   3.883  -9.012  1.00  0.00     0.001 A 
ATOM     61  C   UNL     1      -3.631   4.109  -9.574  1.00  0.00     0.000 A 
ENDBRANCH  42  56
BRANCH  43  62
ATOM     62  C   UNL     1      -5.407   6.143   2.914  1.00  0.00    -0.014 A 
ATOM     63  C   UNL     1      -4.480   5.723   3.881  1.00  0.00     0.009 A 
ATOM     64  C   UNL     1      -6.592   6.765   3.338  1.00  0.00     0.009 A 
ATOM     65  C   UNL     1      -4.743   5.904   5.241  1.00  0.00     0.001 A 
ATOM     66  C   UNL     1      -6.839   6.971   4.697  1.00  0.00     0.001 A 
ATOM     67  C   UNL     1      -5.919   6.532   5.648  1.00  0.00     0.000 A 
ENDBRANCH  43  62
BRANCH  55  68
ATOM     68  C   UNL     1      -4.189  10.279  -2.586  1.00  0.00    -0.014 A 
ATOM     69  C   UNL     1      -5.181  11.003  -3.267  1.00  0.00     0.009 A 
ATOM     70  C   UNL     1      -3.017  10.938  -2.184  1.00  0.00     0.009 A 
ATOM     71  C   UNL     1      -4.994  12.354  -3.561  1.00  0.00     0.001 A 
ATOM     72  C   UNL     1      -2.845  12.296  -2.457  1.00  0.00     0.001 A 
ATOM     73  C   UNL     1      -3.827  13.000  -3.154  1.00  0.00     0.000 A 
ENDBRANCH  55  68
ENDBRANCH  29  30
ENDBRANCH  22  24
ENDBRANCH  21  22
ENDBRANCH   1  21
TORSDOF 12
