REMARK SMILES Cc1ccc(-c2cc(C(=O)OCCOC(=O)c3ccc(-c4c5nc(c(-c6ccccc6)c6ccc([nH]6)c(-c6ccccc6)c6nc(c(-c7ccccc7)c7ccc4[nH]7)C=C6)C=C5)cc3)c3c(-c4cccc([N+](=O)[O-])c4)[nH]nc3n2)cc1
REMARK SMILES IDX 12 1 11 2 9 3 10 4 8 5 6 6 7 7 79 8 78 9 65 10 77 11 66 12
REMARK SMILES IDX 76 13 5 15 1 16 2 17 3 18 81 19 4 20 80 21 67 22 68 23 75 24
REMARK SMILES IDX 69 25 71 26 70 27 72 28 73 29 74 30 13 31 14 32 15 33 16 34
REMARK SMILES IDX 17 35 18 36 64 37 19 38 63 39 20 40 21 41 22 42 57 43 23 44
REMARK SMILES IDX 62 45 56 46 58 47 24 48 61 49 55 50 54 51 25 53 47 54 32 55
REMARK SMILES IDX 46 56 33 57 36 58 45 59 59 60 34 61 35 62 44 64 60 65 37 66
REMARK SMILES IDX 26 67 27 68 31 69 28 70 30 71 29 72 48 73 49 74 53 75 50 76
REMARK SMILES IDX 52 77 51 78 38 79 39 80 43 81 40 82 42 83 41 84
REMARK H PARENT 76 14 58 52 36 63
REMARK Flexibility Score: inf
ROOT
ATOM      1  C   UNL     1      -4.590   0.752  -4.866  1.00  0.00     0.275 C 
ENDROOT
BRANCH   1   2
ATOM      2  O   UNL     1      -4.845  -0.170  -3.765  1.00  0.00    -0.458 OA
BRANCH   2   3
ATOM      3  C   UNL     1      -4.772   0.387  -2.523  1.00  0.00     0.339 C 
ATOM      4  O   UNL     1      -4.437   1.549  -2.308  1.00  0.00    -0.246 OA
BRANCH   3   5
ATOM      5  C   UNL     1      -4.684  -0.569  -1.407  1.00  0.00     0.075 A 
ATOM      6  C   UNL     1      -2.802  -0.787   0.191  1.00  0.00     0.074 A 
ATOM      7  C   UNL     1      -3.304  -0.650  -1.109  1.00  0.00     0.045 A 
ATOM      8  N   UNL     1      -3.531  -1.016   1.292  1.00  0.00    -0.226 NA
ATOM      9  C   UNL     1      -4.860  -1.066   1.060  1.00  0.00     0.182 A 
ATOM     10  C   UNL     1      -5.500  -0.831  -0.247  1.00  0.00     0.061 A 
ATOM     11  N   UNL     1      -5.727  -1.303   2.029  1.00  0.00    -0.154 NA
ATOM     12  C   UNL     1      -6.878  -0.954   0.058  1.00  0.00     0.076 A 
ATOM     13  N   UNL     1      -6.886  -1.294   1.405  1.00  0.00    -0.275 N 
ATOM     14  H   UNL     1      -7.723  -1.518   1.873  1.00  0.00     0.190 HD
BRANCH   6  15
ATOM     15  C   UNL     1      -1.374  -0.556   0.385  1.00  0.00     0.000 A 
ATOM     16  C   UNL     1       2.863   0.080   0.020  1.00  0.00     0.044 C 
ATOM     17  C   UNL     1       1.392  -0.122   0.225  1.00  0.00    -0.051 A 
ATOM     18  C   UNL     1       0.880  -1.423   0.294  1.00  0.00     0.004 A 
ATOM     19  C   UNL     1       0.519   0.967   0.307  1.00  0.00     0.004 A 
ATOM     20  C   UNL     1      -0.493  -1.639   0.381  1.00  0.00     0.010 A 
ATOM     21  C   UNL     1      -0.857   0.752   0.390  1.00  0.00     0.010 A 
ENDBRANCH   6  15
BRANCH  12  22
ATOM     22  C   UNL     1      -8.249  -0.930  -0.520  1.00  0.00     0.007 A 
ATOM     23  C   UNL     1      -9.302  -0.372   0.262  1.00  0.00     0.011 A 
ATOM     24  C   UNL     1      -8.611  -1.488  -1.743  1.00  0.00     0.096 A 
ATOM     25  C   UNL     1     -10.636  -0.324  -0.170  1.00  0.00     0.008 A 
ATOM     26  C   UNL     1      -9.935  -1.328  -2.223  1.00  0.00     0.270 A 
ATOM     27  C   UNL     1     -10.951  -0.768  -1.442  1.00  0.00     0.085 A 
BRANCH  26  28
ATOM     28  N   UNL     1     -10.247  -1.626  -3.621  1.00  0.00     0.062 N 
ATOM     29  O   UNL     1     -10.944  -0.795  -4.230  1.00  0.00    -0.258 OA
ATOM     30  O   UNL     1      -9.827  -2.690  -4.090  1.00  0.00    -0.258 OA
ENDBRANCH  26  28
ENDBRANCH  12  22
ENDBRANCH   3   5
ENDBRANCH   2   3
ENDBRANCH   1   2
BRANCH   1  31
ATOM     31  C   UNL     1      -5.530   0.553  -6.078  1.00  0.00     0.275 C 
BRANCH  31  32
ATOM     32  O   UNL     1      -6.955   0.657  -5.888  1.00  0.00    -0.458 OA
BRANCH  32  33
ATOM     33  C   UNL     1      -7.395   0.529  -4.629  1.00  0.00     0.338 C 
ATOM     34  O   UNL     1      -7.659  -0.546  -4.107  1.00  0.00    -0.246 OA
BRANCH  33  35
ATOM     35  C   UNL     1      -7.345   1.814  -3.920  1.00  0.00     0.060 A 
ATOM     36  C   UNL     1      -7.237   1.823  -2.521  1.00  0.00     0.016 A 
ATOM     37  C   UNL     1      -7.151   2.971  -4.663  1.00  0.00     0.016 A 
ATOM     38  C   UNL     1      -6.874   2.970  -1.843  1.00  0.00     0.010 A 
ATOM     39  C   UNL     1      -6.732   4.094  -4.014  1.00  0.00     0.010 A 
ATOM     40  C   UNL     1      -6.644   4.090  -2.617  1.00  0.00    -0.014 A 
BRANCH  40  41
ATOM     41  C   UNL     1      -6.511   5.398  -2.041  1.00  0.00     0.031 A 
ATOM     42  C   UNL     1      -5.213   5.762  -1.452  1.00  0.00     0.074 A 
ATOM     43  C   UNL     1      -7.617   6.143  -2.278  1.00  0.00     0.049 A 
ATOM     44  N   UNL     1      -5.065   6.545  -0.442  1.00  0.00    -0.248 NA
ATOM     45  C   UNL     1      -3.933   5.178  -1.890  1.00  0.00     0.031 C 
ATOM     46  C   UNL     1      -7.830   7.569  -2.231  1.00  0.00     0.029 A 
ATOM     47  N   UNL     1      -8.905   5.650  -2.559  1.00  0.00    -0.354 N 
ATOM     48  C   UNL     1      -3.748   6.957  -0.501  1.00  0.00     0.074 A 
ATOM     49  C   UNL     1      -3.047   5.915  -1.205  1.00  0.00     0.031 C 
ATOM     50  C   UNL     1      -9.154   7.804  -2.112  1.00  0.00     0.029 A 
ATOM     51  C   UNL     1      -9.822   6.520  -1.968  1.00  0.00     0.049 A 
ATOM     52  H   UNL     1      -9.120   4.841  -3.078  1.00  0.00     0.167 HD
ATOM     53  C   UNL     1      -3.476   8.276  -0.281  1.00  0.00     0.031 A 
ATOM     54  C   UNL     1     -10.600   6.137  -0.908  1.00  0.00     0.031 A 
ATOM     55  C   UNL     1      -4.720   8.990   0.010  1.00  0.00     0.049 A 
ATOM     56  C   UNL     1     -10.113   6.810   0.351  1.00  0.00     0.074 A 
ATOM     57  C   UNL     1      -5.541   9.758  -0.799  1.00  0.00     0.029 A 
ATOM     58  N   UNL     1      -5.484   8.613   1.106  1.00  0.00    -0.354 N 
ATOM     59  N   UNL     1      -8.898   7.258   0.514  1.00  0.00    -0.248 NA
ATOM     60  C   UNL     1     -10.968   7.054   1.503  1.00  0.00     0.031 C 
ATOM     61  C   UNL     1      -6.828   9.797  -0.201  1.00  0.00     0.029 A 
ATOM     62  C   UNL     1      -6.792   9.032   0.951  1.00  0.00     0.049 A 
ATOM     63  H   UNL     1      -5.142   8.118   1.885  1.00  0.00     0.167 HD
ATOM     64  C   UNL     1      -8.846   7.996   1.664  1.00  0.00     0.074 A 
ATOM     65  C   UNL     1     -10.154   7.798   2.271  1.00  0.00     0.031 C 
ATOM     66  C   UNL     1      -7.768   8.765   1.997  1.00  0.00     0.031 A 
BRANCH  53  67
ATOM     67  C   UNL     1      -2.214   8.988  -0.710  1.00  0.00    -0.014 A 
ATOM     68  C   UNL     1      -2.273  10.370  -0.985  1.00  0.00     0.009 A 
ATOM     69  C   UNL     1      -0.956   8.384  -0.866  1.00  0.00     0.009 A 
ATOM     70  C   UNL     1      -1.168  11.099  -1.438  1.00  0.00     0.001 A 
ATOM     71  C   UNL     1       0.158   9.107  -1.332  1.00  0.00     0.001 A 
ATOM     72  C   UNL     1       0.050  10.463  -1.622  1.00  0.00     0.000 A 
ENDBRANCH  53  67
BRANCH  54  73
ATOM     73  C   UNL     1     -11.049   4.716  -0.971  1.00  0.00    -0.014 A 
ATOM     74  C   UNL     1     -11.877   4.364  -2.062  1.00  0.00     0.009 A 
ATOM     75  C   UNL     1     -10.226   3.748  -0.401  1.00  0.00     0.009 A 
ATOM     76  C   UNL     1     -11.640   3.189  -2.771  1.00  0.00     0.001 A 
ATOM     77  C   UNL     1      -9.997   2.587  -1.126  1.00  0.00     0.001 A 
ATOM     78  C   UNL     1     -10.633   2.344  -2.344  1.00  0.00     0.000 A 
ENDBRANCH  54  73
BRANCH  66  79
ATOM     79  C   UNL     1      -7.556   9.475   3.307  1.00  0.00    -0.014 A 
ATOM     80  C   UNL     1      -8.239   9.177   4.487  1.00  0.00     0.009 A 
ATOM     81  C   UNL     1      -6.522  10.438   3.398  1.00  0.00     0.009 A 
ATOM     82  C   UNL     1      -7.963   9.864   5.673  1.00  0.00     0.001 A 
ATOM     83  C   UNL     1      -6.191  11.068   4.592  1.00  0.00     0.001 A 
ATOM     84  C   UNL     1      -6.934  10.799   5.728  1.00  0.00     0.000 A 
ENDBRANCH  66  79
ENDBRANCH  40  41
ENDBRANCH  33  35
ENDBRANCH  32  33
ENDBRANCH  31  32
ENDBRANCH   1  31
TORSDOF 14
