REMARK SMILES O=C(OCCOC(=O)[C@H](Cc1ccc(O)cc1)NC(=O)c1ccc(Cl)s1)c1ccc(-c2c3nc(c(-c4ccccc4)c4ccc([nH]4)c(-c4ccccc4)c4nc(c(-c5ccccc5)c5ccc2[nH]5)C=C4)C=C3)cc1
REMARK SMILES IDX 5 1 4 2 3 3 2 4 1 5 27 6 28 7 74 8 29 9 73 10 30 11 31 12
REMARK SMILES IDX 32 13 67 14 33 15 72 16 66 17 68 18 34 19 71 20 65 21 64 22
REMARK SMILES IDX 35 24 57 25 42 26 56 27 43 28 46 29 55 30 69 31 44 32 45 33
REMARK SMILES IDX 54 35 70 36 47 37 36 38 37 39 41 40 38 41 40 42 39 43 58 44
REMARK SMILES IDX 59 45 63 46 60 47 62 48 61 49 48 50 49 51 53 52 50 53 52 54
REMARK SMILES IDX 51 55 6 56 7 57 8 58 9 59 18 60 19 61 20 63 21 64 22 65
REMARK SMILES IDX 26 66 23 67 24 68 25 69 10 70 11 71 12 72 17 73 13 74 16 75
REMARK SMILES IDX 14 76 15 77
REMARK H PARENT 68 23 46 34 18 62 15 78
REMARK Flexibility Score: inf
ROOT
ATOM      1  C   UNL     1       4.187  -4.070  -1.635  1.00  0.00     0.274 C 
ENDROOT
BRANCH   1   2
ATOM      2  C   UNL     1       3.539  -4.633  -2.911  1.00  0.00     0.275 C 
BRANCH   2   3
ATOM      3  O   UNL     1       2.362  -3.949  -3.377  1.00  0.00    -0.458 OA
BRANCH   3   4
ATOM      4  C   UNL     1       1.131  -4.024  -2.811  1.00  0.00     0.338 C 
ATOM      5  O   UNL     1       0.182  -3.398  -3.266  1.00  0.00    -0.246 OA
BRANCH   4   6
ATOM      6  C   UNL     1       0.978  -4.708  -1.502  1.00  0.00     0.060 A 
ATOM      7  C   UNL     1       1.321  -6.039  -1.227  1.00  0.00     0.016 A 
ATOM      8  C   UNL     1       0.494  -3.908  -0.476  1.00  0.00     0.016 A 
ATOM      9  C   UNL     1       1.266  -6.538   0.094  1.00  0.00     0.010 A 
ATOM     10  C   UNL     1       0.482  -4.402   0.821  1.00  0.00     0.010 A 
ATOM     11  C   UNL     1       0.853  -5.710   1.139  1.00  0.00    -0.014 A 
BRANCH  11  12
ATOM     12  C   UNL     1       0.527  -6.136   2.530  1.00  0.00     0.031 A 
ATOM     13  C   UNL     1      -0.935  -6.330   2.869  1.00  0.00     0.074 A 
ATOM     14  C   UNL     1       1.413  -6.077   3.547  1.00  0.00     0.049 A 
ATOM     15  N   UNL     1      -1.493  -6.637   4.012  1.00  0.00    -0.248 NA
ATOM     16  C   UNL     1      -1.898  -6.085   1.779  1.00  0.00     0.031 C 
ATOM     17  C   UNL     1       2.824  -5.707   3.446  1.00  0.00     0.029 A 
ATOM     18  N   UNL     1       1.221  -6.272   4.898  1.00  0.00    -0.354 N 
ATOM     19  C   UNL     1      -2.861  -6.633   3.772  1.00  0.00     0.074 A 
ATOM     20  C   UNL     1      -3.055  -6.198   2.409  1.00  0.00     0.031 C 
ATOM     21  C   UNL     1       3.358  -5.667   4.683  1.00  0.00     0.029 A 
ATOM     22  C   UNL     1       2.340  -6.041   5.664  1.00  0.00     0.049 A 
ATOM     23  H   UNL     1       0.358  -6.551   5.281  1.00  0.00     0.167 HD
ATOM     24  C   UNL     1      -3.871  -7.011   4.589  1.00  0.00     0.031 A 
ATOM     25  C   UNL     1       2.530  -6.145   6.997  1.00  0.00     0.031 A 
ATOM     26  C   UNL     1      -3.694  -7.453   5.942  1.00  0.00     0.049 A 
ATOM     27  C   UNL     1       1.416  -6.650   7.886  1.00  0.00     0.074 A 
ATOM     28  C   UNL     1      -4.625  -8.028   6.789  1.00  0.00     0.029 A 
ATOM     29  N   UNL     1      -2.513  -7.348   6.654  1.00  0.00    -0.354 N 
ATOM     30  N   UNL     1       0.168  -6.911   7.586  1.00  0.00    -0.248 NA
ATOM     31  C   UNL     1       1.762  -6.938   9.290  1.00  0.00     0.031 C 
ATOM     32  C   UNL     1      -4.016  -8.238   8.030  1.00  0.00     0.029 A 
ATOM     33  C   UNL     1      -2.692  -7.846   7.933  1.00  0.00     0.049 A 
ATOM     34  H   UNL     1      -1.672  -6.975   6.304  1.00  0.00     0.167 HD
ATOM     35  C   UNL     1      -0.395  -7.455   8.738  1.00  0.00     0.074 A 
ATOM     36  C   UNL     1       0.641  -7.481   9.745  1.00  0.00     0.031 C 
ATOM     37  C   UNL     1      -1.657  -7.910   8.929  1.00  0.00     0.031 A 
BRANCH  24  38
ATOM     38  C   UNL     1      -5.259  -7.035   4.011  1.00  0.00    -0.014 A 
ATOM     39  C   UNL     1      -5.592  -7.944   2.991  1.00  0.00     0.009 A 
ATOM     40  C   UNL     1      -6.260  -6.206   4.535  1.00  0.00     0.009 A 
ATOM     41  C   UNL     1      -6.888  -7.994   2.481  1.00  0.00     0.001 A 
ATOM     42  C   UNL     1      -7.566  -6.284   4.048  1.00  0.00     0.001 A 
ATOM     43  C   UNL     1      -7.877  -7.170   3.016  1.00  0.00     0.000 A 
ENDBRANCH  24  38
BRANCH  25  44
ATOM     44  C   UNL     1       3.864  -5.871   7.599  1.00  0.00    -0.014 A 
ATOM     45  C   UNL     1       4.683  -6.935   8.015  1.00  0.00     0.009 A 
ATOM     46  C   UNL     1       4.290  -4.556   7.835  1.00  0.00     0.009 A 
ATOM     47  C   UNL     1       5.877  -6.690   8.696  1.00  0.00     0.001 A 
ATOM     48  C   UNL     1       5.499  -4.315   8.496  1.00  0.00     0.001 A 
ATOM     49  C   UNL     1       6.284  -5.380   8.937  1.00  0.00     0.000 A 
ENDBRANCH  25  44
BRANCH  37  50
ATOM     50  C   UNL     1      -1.984  -8.577  10.238  1.00  0.00    -0.014 A 
ATOM     51  C   UNL     1      -2.095  -7.855  11.435  1.00  0.00     0.009 A 
ATOM     52  C   UNL     1      -2.244  -9.958  10.254  1.00  0.00     0.009 A 
ATOM     53  C   UNL     1      -2.428  -8.509  12.626  1.00  0.00     0.001 A 
ATOM     54  C   UNL     1      -2.606 -10.603  11.437  1.00  0.00     0.001 A 
ATOM     55  C   UNL     1      -2.688  -9.879  12.624  1.00  0.00     0.000 A 
ENDBRANCH  37  50
ENDBRANCH  11  12
ENDBRANCH   4   6
ENDBRANCH   3   4
ENDBRANCH   2   3
ENDBRANCH   1   2
BRANCH   1  56
ATOM     56  O   UNL     1       3.303  -3.227  -0.870  1.00  0.00    -0.461 OA
BRANCH  56  57
ATOM     57  C   UNL     1       3.627  -3.024   0.441  1.00  0.00     0.329 C 
ATOM     58  O   UNL     1       4.550  -3.583   1.009  1.00  0.00    -0.250 OA
BRANCH  57  59
ATOM     59  C   UNL     1       2.737  -1.933   1.112  1.00  0.00     0.197 C 
BRANCH  59  60
ATOM     60  N   UNL     1       2.522  -2.391   2.509  1.00  0.00    -0.338 N 
ATOM     61  C   UNL     1       1.709  -2.038   3.559  1.00  0.00     0.262 C 
ATOM     62  H   UNL     1       3.116  -3.141   2.742  1.00  0.00     0.164 HD
ATOM     63  O   UNL     1       2.318  -2.028   4.636  1.00  0.00    -0.268 OA
BRANCH  61  64
ATOM     64  C   UNL     1       0.255  -1.842   3.492  1.00  0.00     0.093 A 
ATOM     65  C   UNL     1      -0.698  -1.739   2.486  1.00  0.00     0.027 A 
ATOM     66  S   UNL     1      -0.559  -1.807   5.039  1.00  0.00    -0.118 S 
ATOM     67  C   UNL     1      -2.047  -1.892   2.970  1.00  0.00     0.033 A 
ATOM     68  C   UNL     1      -2.084  -1.913   4.337  1.00  0.00     0.094 A 
ATOM     69  Cl  UNL     1      -3.480  -2.024   5.333  1.00  0.00    -0.072 Cl
ENDBRANCH  61  64
ENDBRANCH  59  60
BRANCH  59  70
ATOM     70  C   UNL     1       3.559  -0.626   1.126  1.00  0.00     0.072 C 
BRANCH  70  71
ATOM     71  C   UNL     1       3.431   0.280  -0.080  1.00  0.00    -0.045 A 
ATOM     72  C   UNL     1       3.183   1.647   0.124  1.00  0.00     0.007 A 
ATOM     73  C   UNL     1       3.635  -0.159  -1.395  1.00  0.00     0.007 A 
ATOM     74  C   UNL     1       3.107   2.535  -0.952  1.00  0.00     0.046 A 
ATOM     75  C   UNL     1       3.538   0.721  -2.475  1.00  0.00     0.046 A 
ATOM     76  C   UNL     1       3.278   2.061  -2.246  1.00  0.00     0.115 A 
BRANCH  76  77
ATOM     77  O   UNL     1       3.216   2.889  -3.326  1.00  0.00    -0.508 OA
ATOM     78  H   UNL     1       3.042   3.802  -3.207  1.00  0.00     0.293 HD
ENDBRANCH  76  77
ENDBRANCH  70  71
ENDBRANCH  59  70
ENDBRANCH  57  59
ENDBRANCH  56  57
ENDBRANCH   1  56
TORSDOF 16
