REMARK SMILES O=C(OCCOC(=O)c1ccc(-n2cc(CSc3nc4ccccc4c(=O)n3-c3ccccc3)nn2)cc1)c1ccc(-c2c3nc(c(-c4ccccc4)c4ccc([nH]4)c(-c4ccccc4)c4nc(c(-c5ccccc5)c5ccc2[nH]5)C=C4)C=C3)cc1
REMARK SMILES IDX 6 1 5 2 4 3 3 4 2 5 1 6 39 7 40 8 86 9 41 10 85 11 42 12
REMARK SMILES IDX 43 13 44 14 79 15 45 16 84 17 78 18 80 19 46 20 83 21 77 22
REMARK SMILES IDX 76 23 47 25 69 26 54 27 68 28 55 29 58 30 67 31 81 32 56 33
REMARK SMILES IDX 57 34 66 36 82 37 59 38 48 39 49 40 53 41 50 42 52 43 51 44
REMARK SMILES IDX 70 45 71 46 75 47 72 48 74 49 73 50 60 51 61 52 65 53 62 54
REMARK SMILES IDX 64 55 63 56 7 57 8 58 9 59 10 60 38 61 11 62 37 63 12 64
REMARK SMILES IDX 13 65 14 66 36 67 15 68 35 69 16 70 17 71 18 72 19 73 28 74
REMARK SMILES IDX 20 75 26 76 21 77 25 78 27 79 22 80 24 81 23 82 29 83 30 84
REMARK SMILES IDX 34 85 31 86 33 87 32 88
REMARK H PARENT 80 24 58 35
REMARK Flexibility Score: inf
ROOT
ATOM      1  O   UNL     1       3.865  -0.626  -1.472  1.00  0.00    -0.458 OA
ENDROOT
BRANCH   1   2
ATOM      2  C   UNL     1       4.372  -1.398  -0.371  1.00  0.00     0.275 C 
BRANCH   2   3
ATOM      3  C   UNL     1       4.556  -0.507   0.859  1.00  0.00     0.275 C 
BRANCH   3   4
ATOM      4  O   UNL     1       3.366   0.026   1.475  1.00  0.00    -0.458 OA
BRANCH   4   5
ATOM      5  C   UNL     1       2.301   0.346   0.711  1.00  0.00     0.338 C 
ATOM      6  O   UNL     1       1.335  -0.382   0.546  1.00  0.00    -0.246 OA
BRANCH   5   7
ATOM      7  C   UNL     1       2.273   1.783   0.348  1.00  0.00     0.060 A 
ATOM      8  C   UNL     1       3.425   2.521   0.060  1.00  0.00     0.016 A 
ATOM      9  C   UNL     1       1.015   2.395   0.274  1.00  0.00     0.016 A 
ATOM     10  C   UNL     1       3.327   3.884  -0.190  1.00  0.00     0.010 A 
ATOM     11  C   UNL     1       0.914   3.748  -0.008  1.00  0.00     0.010 A 
ATOM     12  C   UNL     1       2.073   4.503  -0.178  1.00  0.00    -0.014 A 
BRANCH  12  13
ATOM     13  C   UNL     1       1.991   5.932  -0.472  1.00  0.00     0.031 A 
ATOM     14  C   UNL     1       2.515   6.322  -1.815  1.00  0.00     0.074 A 
ATOM     15  C   UNL     1       1.337   6.814   0.312  1.00  0.00     0.049 A 
ATOM     16  N   UNL     1       3.524   7.077  -2.102  1.00  0.00    -0.248 NA
ATOM     17  C   UNL     1       1.893   5.693  -2.986  1.00  0.00     0.031 C 
ATOM     18  C   UNL     1       0.518   6.554   1.500  1.00  0.00     0.029 A 
ATOM     19  N   UNL     1       1.179   8.153   0.131  1.00  0.00    -0.354 N 
ATOM     20  C   UNL     1       3.560   7.163  -3.495  1.00  0.00     0.074 A 
ATOM     21  C   UNL     1       2.633   6.178  -3.983  1.00  0.00     0.031 C 
ATOM     22  C   UNL     1      -0.232   7.646   1.778  1.00  0.00     0.029 A 
ATOM     23  C   UNL     1       0.163   8.726   0.889  1.00  0.00     0.049 A 
ATOM     24  H   UNL     1       1.739   8.676  -0.487  1.00  0.00     0.167 HD
ATOM     25  C   UNL     1       4.181   8.187  -4.146  1.00  0.00     0.031 A 
ATOM     26  C   UNL     1      -0.337   9.982   0.759  1.00  0.00     0.031 A 
ATOM     27  C   UNL     1       5.075   8.904  -3.278  1.00  0.00     0.049 A 
ATOM     28  C   UNL     1       0.657  10.776   0.001  1.00  0.00     0.074 A 
ATOM     29  C   UNL     1       6.192   8.560  -2.544  1.00  0.00     0.029 A 
ATOM     30  N   UNL     1       4.612  10.079  -2.735  1.00  0.00    -0.354 N 
ATOM     31  N   UNL     1       1.824  11.099   0.479  1.00  0.00    -0.248 NA
ATOM     32  C   UNL     1       0.540  10.807  -1.449  1.00  0.00     0.031 C 
ATOM     33  C   UNL     1       6.010   9.223  -1.296  1.00  0.00     0.029 A 
ATOM     34  C   UNL     1       4.863  10.015  -1.389  1.00  0.00     0.049 A 
ATOM     35  H   UNL     1       4.184  10.822  -3.218  1.00  0.00     0.167 HD
ATOM     36  C   UNL     1       2.695  10.929  -0.586  1.00  0.00     0.074 A 
ATOM     37  C   UNL     1       1.837  10.835  -1.770  1.00  0.00     0.031 C 
ATOM     38  C   UNL     1       4.002  10.590  -0.384  1.00  0.00     0.031 A 
BRANCH  25  39
ATOM     39  C   UNL     1       3.679   8.794  -5.435  1.00  0.00    -0.014 A 
ATOM     40  C   UNL     1       4.410   9.848  -6.017  1.00  0.00     0.009 A 
ATOM     41  C   UNL     1       2.378   8.582  -5.928  1.00  0.00     0.009 A 
ATOM     42  C   UNL     1       3.834  10.698  -6.969  1.00  0.00     0.001 A 
ATOM     43  C   UNL     1       1.814   9.405  -6.907  1.00  0.00     0.001 A 
ATOM     44  C   UNL     1       2.531  10.484  -7.404  1.00  0.00     0.000 A 
ENDBRANCH  25  39
BRANCH  26  45
ATOM     45  C   UNL     1      -1.700  10.497   1.015  1.00  0.00    -0.014 A 
ATOM     46  C   UNL     1      -1.935  11.876   1.153  1.00  0.00     0.009 A 
ATOM     47  C   UNL     1      -2.816   9.661   0.835  1.00  0.00     0.009 A 
ATOM     48  C   UNL     1      -3.233  12.402   1.069  1.00  0.00     0.001 A 
ATOM     49  C   UNL     1      -4.112  10.185   0.752  1.00  0.00     0.001 A 
ATOM     50  C   UNL     1      -4.319  11.557   0.853  1.00  0.00     0.000 A 
ENDBRANCH  26  45
BRANCH  38  51
ATOM     51  C   UNL     1       4.530  10.573   1.030  1.00  0.00    -0.014 A 
ATOM     52  C   UNL     1       4.001   9.757   2.047  1.00  0.00     0.009 A 
ATOM     53  C   UNL     1       5.718  11.271   1.291  1.00  0.00     0.009 A 
ATOM     54  C   UNL     1       4.634   9.664   3.292  1.00  0.00     0.001 A 
ATOM     55  C   UNL     1       6.363  11.158   2.524  1.00  0.00     0.001 A 
ATOM     56  C   UNL     1       5.818  10.359   3.526  1.00  0.00     0.000 A 
ENDBRANCH  38  51
ENDBRANCH  12  13
ENDBRANCH   5   7
ENDBRANCH   4   5
ENDBRANCH   3   4
ENDBRANCH   2   3
ENDBRANCH   1   2
BRANCH   1  57
ATOM     57  C   UNL     1       2.779  -1.145  -2.107  1.00  0.00     0.338 C 
ATOM     58  O   UNL     1       2.233  -2.207  -1.919  1.00  0.00    -0.246 OA
BRANCH  57  59
ATOM     59  C   UNL     1       2.329  -0.133  -3.077  1.00  0.00     0.060 A 
ATOM     60  C   UNL     1       1.232   0.675  -2.768  1.00  0.00     0.018 A 
ATOM     61  C   UNL     1       3.010   0.018  -4.284  1.00  0.00     0.018 A 
ATOM     62  C   UNL     1       0.858   1.702  -3.635  1.00  0.00     0.029 A 
ATOM     63  C   UNL     1       2.585   0.990  -5.193  1.00  0.00     0.029 A 
ATOM     64  C   UNL     1       1.518   1.843  -4.860  1.00  0.00     0.066 A 
BRANCH  64  65
ATOM     65  N   UNL     1       1.059   2.813  -5.778  1.00  0.00    -0.220 N 
ATOM     66  C   UNL     1       1.152   2.777  -7.144  1.00  0.00     0.141 A 
ATOM     67  N   UNL     1       0.419   3.946  -5.404  1.00  0.00    -0.062 NA
ATOM     68  C   UNL     1       0.487   3.904  -7.580  1.00  0.00     0.093 A 
ATOM     69  N   UNL     1       0.118   4.643  -6.494  1.00  0.00    -0.134 NA
BRANCH  68  70
ATOM     70  C   UNL     1       0.260   4.346  -8.970  1.00  0.00     0.138 C 
BRANCH  70  71
ATOM     71  S   UNL     1      -1.397   4.518  -9.643  1.00  0.00    -0.081 SA
BRANCH  71  72
ATOM     72  C   UNL     1      -2.602   3.802  -8.596  1.00  0.00     0.176 A 
ATOM     73  N   UNL     1      -3.704   4.494  -8.586  1.00  0.00    -0.223 NA
ATOM     74  N   UNL     1      -2.459   2.637  -7.853  1.00  0.00    -0.255 N 
ATOM     75  C   UNL     1      -4.726   4.113  -7.711  1.00  0.00     0.079 A 
ATOM     76  C   UNL     1      -3.123   2.660  -6.616  1.00  0.00     0.266 A 
ATOM     77  C   UNL     1      -6.025   4.598  -7.867  1.00  0.00     0.029 A 
ATOM     78  C   UNL     1      -4.435   3.326  -6.607  1.00  0.00     0.066 A 
ATOM     79  O   UNL     1      -2.715   2.184  -5.558  1.00  0.00    -0.268 OA
ATOM     80  C   UNL     1      -6.994   4.348  -6.887  1.00  0.00     0.002 A 
ATOM     81  C   UNL     1      -5.373   3.115  -5.592  1.00  0.00     0.016 A 
ATOM     82  C   UNL     1      -6.657   3.639  -5.732  1.00  0.00     0.001 A 
BRANCH  74  83
ATOM     83  C   UNL     1      -1.692   1.456  -8.209  1.00  0.00     0.051 A 
ATOM     84  C   UNL     1      -1.737   0.304  -7.400  1.00  0.00     0.027 A 
ATOM     85  C   UNL     1      -0.912   1.341  -9.367  1.00  0.00     0.027 A 
ATOM     86  C   UNL     1      -0.886  -0.788  -7.601  1.00  0.00     0.002 A 
ATOM     87  C   UNL     1      -0.010   0.281  -9.547  1.00  0.00     0.002 A 
ATOM     88  C   UNL     1       0.029  -0.767  -8.640  1.00  0.00     0.000 A 
ENDBRANCH  74  83
ENDBRANCH  71  72
ENDBRANCH  70  71
ENDBRANCH  68  70
ENDBRANCH  64  65
ENDBRANCH  57  59
ENDBRANCH   1  57
TORSDOF 16
