REMARK SMILES CC(=O)NS(=O)(=O)c1cc(-c2ccn(C(F)F)c(=O)c2)ccc1C(=O)OCCOC(=O)c1ccc(-c2c3nc(c(-c4ccccc4)c4ccc([nH]4)c(-c4ccccc4)c4nc(c(-c5ccccc5)c5ccc2[nH]5)C=C4)C=C3)cc1
REMARK SMILES IDX 27 1 26 2 24 3 25 4 23 5 8 6 9 7 10 8 22 9 21 10 5 11 6 12
REMARK SMILES IDX 7 13 4 14 1 15 2 16 3 17 11 19 12 20 20 21 13 22 18 23 14 24
REMARK SMILES IDX 19 25 15 26 16 27 17 28 28 29 29 30 30 31 31 32 32 33 33 34
REMARK SMILES IDX 79 35 34 36 78 37 35 38 36 39 37 40 72 41 38 42 77 43 71 44
REMARK SMILES IDX 73 45 39 46 76 47 70 48 69 49 40 51 62 52 47 53 61 54 48 55
REMARK SMILES IDX 51 56 60 57 74 58 49 59 50 60 59 62 75 63 52 64 41 65 42 66
REMARK SMILES IDX 46 67 43 68 45 69 44 70 63 71 64 72 68 73 65 74 67 75 66 76
REMARK SMILES IDX 53 77 54 78 58 79 55 80 57 81 56 82
REMARK H PARENT 4 18 73 50 51 61
REMARK Flexibility Score: inf
ROOT
ATOM      1  C   UNL     1       2.396   1.316  -5.923  1.00  0.00     0.275 C 
ENDROOT
BRANCH   1   2
ATOM      2  O   UNL     1       2.348   1.164  -4.489  1.00  0.00    -0.458 OA
BRANCH   2   3
ATOM      3  C   UNL     1       3.244   1.859  -3.769  1.00  0.00     0.339 C 
ATOM      4  O   UNL     1       4.084   2.624  -4.219  1.00  0.00    -0.246 OA
BRANCH   3   5
ATOM      5  C   UNL     1       3.036   1.715  -2.300  1.00  0.00     0.080 A 
ATOM      6  C   UNL     1       2.517   0.605  -1.620  1.00  0.00     0.103 A 
ATOM      7  C   UNL     1       2.477   0.605  -0.213  1.00  0.00     0.032 A 
ATOM      8  C   UNL     1       2.815   1.746   0.519  1.00  0.00    -0.017 A 
ATOM      9  C   UNL     1       3.442   2.833  -1.538  1.00  0.00     0.018 A 
ATOM     10  C   UNL     1       3.295   2.867  -0.150  1.00  0.00     0.010 A 
BRANCH   6  11
ATOM     11  S   UNL     1       1.829  -0.782  -2.486  1.00  0.00     0.264 S 
ATOM     12  O   UNL     1       2.913  -1.411  -3.208  1.00  0.00    -0.201 OA
ATOM     13  O   UNL     1       0.601  -0.359  -3.115  1.00  0.00    -0.201 OA
BRANCH  11  14
ATOM     14  N   UNL     1       1.403  -1.877  -1.295  1.00  0.00    -0.249 N 
ATOM     15  C   UNL     1      -0.565  -0.744  -0.229  1.00  0.00     0.115 C 
ATOM     16  C   UNL     1       0.111  -1.991  -0.740  1.00  0.00     0.230 C 
ATOM     17  O   UNL     1      -0.332  -3.107  -0.504  1.00  0.00    -0.274 OA
ATOM     18  H   UNL     1       2.101  -2.483  -0.958  1.00  0.00     0.183 HD
ENDBRANCH  11  14
ENDBRANCH   6  11
BRANCH   8  19
ATOM     19  C   UNL     1       2.563   1.787   1.966  1.00  0.00    -0.011 A 
ATOM     20  C   UNL     1       1.333   2.331   2.509  1.00  0.00     0.027 A 
ATOM     21  C   UNL     1       3.488   1.286   2.801  1.00  0.00     0.080 A 
ATOM     22  C   UNL     1       1.125   2.349   3.829  1.00  0.00     0.095 A 
ATOM     23  C   UNL     1       3.268   1.298   4.276  1.00  0.00     0.255 A 
ATOM     24  N   UNL     1       2.070   1.849   4.705  1.00  0.00    -0.258 N 
ATOM     25  O   UNL     1       4.140   0.829   4.998  1.00  0.00    -0.269 OA
BRANCH  24  26
ATOM     26  C   UNL     1       1.844   1.895   6.127  1.00  0.00     0.451 C 
ATOM     27  F   UNL     1       1.861   0.652   6.664  1.00  0.00    -0.185 F 
ATOM     28  F   UNL     1       2.795   2.636   6.745  1.00  0.00    -0.185 F 
ENDBRANCH  24  26
ENDBRANCH   8  19
ENDBRANCH   3   5
ENDBRANCH   2   3
ENDBRANCH   1   2
BRANCH   1  29
ATOM     29  C   UNL     1       1.182   2.110  -6.394  1.00  0.00     0.275 C 
BRANCH  29  30
ATOM     30  O   UNL     1       1.256   3.439  -5.846  1.00  0.00    -0.458 OA
BRANCH  30  31
ATOM     31  C   UNL     1       0.153   3.874  -5.199  1.00  0.00     0.338 C 
ATOM     32  O   UNL     1      -0.924   3.317  -5.086  1.00  0.00    -0.246 OA
BRANCH  31  33
ATOM     33  C   UNL     1       0.437   5.188  -4.602  1.00  0.00     0.060 A 
ATOM     34  C   UNL     1       1.422   5.304  -3.623  1.00  0.00     0.016 A 
ATOM     35  C   UNL     1      -0.358   6.284  -4.936  1.00  0.00     0.016 A 
ATOM     36  C   UNL     1       1.575   6.503  -2.926  1.00  0.00     0.010 A 
ATOM     37  C   UNL     1      -0.153   7.506  -4.288  1.00  0.00     0.010 A 
ATOM     38  C   UNL     1       0.790   7.621  -3.251  1.00  0.00    -0.014 A 
BRANCH  38  39
ATOM     39  C   UNL     1       0.910   8.886  -2.471  1.00  0.00     0.031 A 
ATOM     40  C   UNL     1      -0.280   9.428  -1.719  1.00  0.00     0.074 A 
ATOM     41  C   UNL     1       2.081   9.551  -2.408  1.00  0.00     0.049 A 
ATOM     42  N   UNL     1      -0.422  10.582  -1.115  1.00  0.00    -0.248 NA
ATOM     43  C   UNL     1      -1.469   8.564  -1.645  1.00  0.00     0.031 C 
ATOM     44  C   UNL     1       3.333   9.133  -3.041  1.00  0.00     0.029 A 
ATOM     45  N   UNL     1       2.410  10.719  -1.763  1.00  0.00    -0.354 N 
ATOM     46  C   UNL     1      -1.731  10.610  -0.651  1.00  0.00     0.074 A 
ATOM     47  C   UNL     1      -2.340   9.353  -1.031  1.00  0.00     0.031 C 
ATOM     48  C   UNL     1       4.303  10.000  -2.711  1.00  0.00     0.029 A 
ATOM     49  C   UNL     1       3.727  11.078  -1.913  1.00  0.00     0.049 A 
ATOM     50  H   UNL     1       1.763  11.248  -1.243  1.00  0.00     0.167 HD
ATOM     51  C   UNL     1      -2.374  11.593   0.024  1.00  0.00     0.031 A 
ATOM     52  C   UNL     1       4.396  12.167  -1.488  1.00  0.00     0.031 A 
ATOM     53  C   UNL     1      -1.765  12.824   0.451  1.00  0.00     0.049 A 
ATOM     54  C   UNL     1       3.662  13.248  -0.749  1.00  0.00     0.074 A 
ATOM     55  C   UNL     1      -2.341  13.877   1.144  1.00  0.00     0.029 A 
ATOM     56  N   UNL     1      -0.438  13.159   0.246  1.00  0.00    -0.354 N 
ATOM     57  N   UNL     1       2.404  13.289  -0.383  1.00  0.00    -0.248 NA
ATOM     58  C   UNL     1       4.436  14.444  -0.388  1.00  0.00     0.031 C 
ATOM     59  C   UNL     1      -1.365  14.861   1.336  1.00  0.00     0.029 A 
ATOM     60  C   UNL     1      -0.175  14.404   0.794  1.00  0.00     0.049 A 
ATOM     61  H   UNL     1       0.222  12.597  -0.220  1.00  0.00     0.167 HD
ATOM     62  C   UNL     1       2.235  14.515   0.246  1.00  0.00     0.074 A 
ATOM     63  C   UNL     1       3.525  15.175   0.239  1.00  0.00     0.031 C 
ATOM     64  C   UNL     1       1.108  15.052   0.771  1.00  0.00     0.031 A 
BRANCH  51  65
ATOM     65  C   UNL     1      -3.836  11.394   0.306  1.00  0.00    -0.014 A 
ATOM     66  C   UNL     1      -4.277  10.535   1.323  1.00  0.00     0.009 A 
ATOM     67  C   UNL     1      -4.784  12.111  -0.442  1.00  0.00     0.009 A 
ATOM     68  C   UNL     1      -5.644  10.377   1.567  1.00  0.00     0.001 A 
ATOM     69  C   UNL     1      -6.147  11.967  -0.181  1.00  0.00     0.001 A 
ATOM     70  C   UNL     1      -6.576  11.095   0.818  1.00  0.00     0.000 A 
ENDBRANCH  51  65
BRANCH  52  71
ATOM     71  C   UNL     1       5.841  12.313  -1.796  1.00  0.00    -0.014 A 
ATOM     72  C   UNL     1       6.801  12.184  -0.780  1.00  0.00     0.009 A 
ATOM     73  C   UNL     1       6.268  12.575  -3.107  1.00  0.00     0.009 A 
ATOM     74  C   UNL     1       8.159  12.325  -1.072  1.00  0.00     0.001 A 
ATOM     75  C   UNL     1       7.628  12.689  -3.400  1.00  0.00     0.001 A 
ATOM     76  C   UNL     1       8.572  12.569  -2.381  1.00  0.00     0.000 A 
ENDBRANCH  52  71
BRANCH  64  77
ATOM     77  C   UNL     1       1.226  16.414   1.388  1.00  0.00    -0.014 A 
ATOM     78  C   UNL     1       1.296  17.563   0.586  1.00  0.00     0.009 A 
ATOM     79  C   UNL     1       1.241  16.551   2.784  1.00  0.00     0.009 A 
ATOM     80  C   UNL     1       1.409  18.825   1.173  1.00  0.00     0.001 A 
ATOM     81  C   UNL     1       1.335  17.816   3.368  1.00  0.00     0.001 A 
ATOM     82  C   UNL     1       1.427  18.950   2.562  1.00  0.00     0.000 A 
ENDBRANCH  64  77
ENDBRANCH  38  39
ENDBRANCH  31  33
ENDBRANCH  30  31
ENDBRANCH  29  30
ENDBRANCH   1  29
TORSDOF 15
