REMARK SMILES COC(=O)C1=C(C)NC(C)=C(C(=O)OC)C1c1ccc(C(=O)OCCOC(=O)c2ccc(-c3c4nc(c(-c5ccccc5)c5ccc([nH]5)c(-c5ccccc5)c5nc(c(-c6ccccc6)c6ccc3[nH]6)C=C5)C=C4)cc2)cc1
REMARK SMILES IDX 24 1 23 2 21 3 22 4 20 5 17 6 18 7 78 8 19 9 77 10 16 11
REMARK SMILES IDX 5 12 6 13 7 14 8 15 11 16 9 17 10 19 3 20 4 21 2 22 1 23
REMARK SMILES IDX 12 24 13 25 14 26 15 27 25 28 26 29 27 30 28 31 29 32 30 33
REMARK SMILES IDX 76 34 31 35 75 36 32 37 33 38 34 39 69 40 35 41 74 42 68 43
REMARK SMILES IDX 70 44 36 45 73 46 67 47 66 48 37 50 59 51 44 52 58 53 45 54
REMARK SMILES IDX 48 55 57 56 71 57 46 58 47 59 56 61 72 62 49 63 38 64 39 65
REMARK SMILES IDX 43 66 40 67 42 68 41 69 60 70 61 71 65 72 62 73 64 74 63 75
REMARK SMILES IDX 50 76 51 77 55 78 52 79 54 80 53 81
REMARK H PARENT 8 18 70 49 48 60
REMARK Flexibility Score: inf
ROOT
ATOM      1  C   UNL     1       6.028  -6.206  -2.932  1.00  0.00     0.275 C 
ENDROOT
BRANCH   1   2
ATOM      2  O   UNL     1       5.244  -5.619  -1.878  1.00  0.00    -0.458 OA
BRANCH   2   3
ATOM      3  C   UNL     1       3.950  -6.025  -1.826  1.00  0.00     0.338 C 
ATOM      4  O   UNL     1       3.413  -6.808  -2.593  1.00  0.00    -0.246 OA
BRANCH   3   5
ATOM      5  C   UNL     1       3.244  -5.437  -0.657  1.00  0.00     0.060 A 
ATOM      6  C   UNL     1       1.805  -4.437   1.548  1.00  0.00    -0.035 A 
ATOM      7  C   UNL     1       1.218  -5.372   0.685  1.00  0.00     0.005 A 
ATOM      8  C   UNL     1       3.123  -4.013   1.297  1.00  0.00     0.005 A 
ATOM      9  C   UNL     1       1.933  -5.866  -0.407  1.00  0.00     0.016 A 
ATOM     10  C   UNL     1       3.840  -4.510   0.204  1.00  0.00     0.016 A 
BRANCH   6  11
ATOM     11  C   UNL     1       1.013  -3.814   2.700  1.00  0.00     0.098 C 
ATOM     12  C   UNL     1       0.010  -2.785   2.189  1.00  0.00     0.068 C 
ATOM     13  C   UNL     1      -1.239  -2.690   2.694  1.00  0.00     0.023 C 
ATOM     14  C   UNL     1      -2.277  -1.697   2.237  1.00  0.00     0.065 C 
ATOM     15  N   UNL     1      -1.637  -3.570   3.686  1.00  0.00    -0.362 N 
ATOM     16  C   UNL     1       0.365  -4.841   3.636  1.00  0.00     0.068 C 
ATOM     17  C   UNL     1      -0.895  -4.665   4.102  1.00  0.00     0.023 C 
ATOM     18  H   UNL     1      -2.503  -3.407   4.124  1.00  0.00     0.166 HD
ATOM     19  C   UNL     1      -1.599  -5.587   5.069  1.00  0.00     0.065 C 
BRANCH  12  20
ATOM     20  C   UNL     1       0.396  -1.928   1.057  1.00  0.00     0.336 C 
ATOM     21  O   UNL     1       0.121  -2.178  -0.106  1.00  0.00    -0.246 OA
BRANCH  20  22
ATOM     22  O   UNL     1       1.020  -0.821   1.524  1.00  0.00    -0.466 OA
ATOM     23  C   UNL     1       1.328   0.148   0.518  1.00  0.00     0.282 C 
ENDBRANCH  20  22
ENDBRANCH  12  20
BRANCH  16  24
ATOM     24  C   UNL     1       1.112  -6.079   3.955  1.00  0.00     0.336 C 
ATOM     25  O   UNL     1       0.618  -7.197   3.940  1.00  0.00    -0.246 OA
BRANCH  24  26
ATOM     26  O   UNL     1       2.409  -5.791   4.224  1.00  0.00    -0.466 OA
ATOM     27  C   UNL     1       3.222  -6.952   4.418  1.00  0.00     0.282 C 
ENDBRANCH  24  26
ENDBRANCH  16  24
ENDBRANCH   6  11
ENDBRANCH   3   5
ENDBRANCH   2   3
ENDBRANCH   1   2
BRANCH   1  28
ATOM     28  C   UNL     1       6.898  -7.348  -2.404  1.00  0.00     0.275 C 
BRANCH  28  29
ATOM     29  O   UNL     1       6.099  -8.381  -1.797  1.00  0.00    -0.458 OA
BRANCH  29  30
ATOM     30  C   UNL     1       6.161  -8.435  -0.447  1.00  0.00     0.338 C 
ATOM     31  O   UNL     1       6.837  -7.746   0.299  1.00  0.00    -0.246 OA
BRANCH  30  32
ATOM     32  C   UNL     1       5.225  -9.447   0.063  1.00  0.00     0.060 A 
ATOM     33  C   UNL     1       3.998  -9.018   0.573  1.00  0.00     0.016 A 
ATOM     34  C   UNL     1       5.628 -10.775   0.207  1.00  0.00     0.016 A 
ATOM     35  C   UNL     1       3.181  -9.909   1.267  1.00  0.00     0.010 A 
ATOM     36  C   UNL     1       4.801 -11.673   0.892  1.00  0.00     0.010 A 
ATOM     37  C   UNL     1       3.590 -11.236   1.461  1.00  0.00    -0.014 A 
BRANCH  37  38
ATOM     38  C   UNL     1       2.817 -12.118   2.375  1.00  0.00     0.031 A 
ATOM     39  C   UNL     1       3.386 -12.469   3.725  1.00  0.00     0.074 A 
ATOM     40  C   UNL     1       1.593 -12.562   2.038  1.00  0.00     0.049 A 
ATOM     41  N   UNL     1       2.915 -13.283   4.636  1.00  0.00    -0.248 NA
ATOM     42  C   UNL     1       4.655 -11.822   4.095  1.00  0.00     0.031 C 
ATOM     43  C   UNL     1       0.892 -12.261   0.790  1.00  0.00     0.029 A 
ATOM     44  N   UNL     1       0.712 -13.351   2.736  1.00  0.00    -0.354 N 
ATOM     45  C   UNL     1       3.853 -13.287   5.660  1.00  0.00     0.074 A 
ATOM     46  C   UNL     1       4.916 -12.388   5.265  1.00  0.00     0.031 C 
ATOM     47  C   UNL     1      -0.326 -12.826   0.828  1.00  0.00     0.029 A 
ATOM     48  C   UNL     1      -0.475 -13.562   2.081  1.00  0.00     0.049 A 
ATOM     49  H   UNL     1       0.913 -13.729   3.623  1.00  0.00     0.167 HD
ATOM     50  C   UNL     1       3.839 -13.981   6.824  1.00  0.00     0.031 A 
ATOM     51  C   UNL     1      -1.559 -14.273   2.446  1.00  0.00     0.031 A 
ATOM     52  C   UNL     1       2.771 -14.842   7.250  1.00  0.00     0.049 A 
ATOM     53  C   UNL     1      -1.568 -15.005   3.758  1.00  0.00     0.074 A 
ATOM     54  C   UNL     1       2.685 -15.612   8.398  1.00  0.00     0.029 A 
ATOM     55  N   UNL     1       1.586 -15.024   6.557  1.00  0.00    -0.354 N 
ATOM     56  N   UNL     1      -0.638 -15.062   4.679  1.00  0.00    -0.248 NA
ATOM     57  C   UNL     1      -2.780 -15.776   4.076  1.00  0.00     0.031 C 
ATOM     58  C   UNL     1       1.448 -16.266   8.396  1.00  0.00     0.029 A 
ATOM     59  C   UNL     1       0.757 -15.882   7.259  1.00  0.00     0.049 A 
ATOM     60  H   UNL     1       1.366 -14.606   5.693  1.00  0.00     0.167 HD
ATOM     61  C   UNL     1      -1.152 -15.869   5.685  1.00  0.00     0.074 A 
ATOM     62  C   UNL     1      -2.483 -16.262   5.274  1.00  0.00     0.031 C 
ATOM     63  C   UNL     1      -0.566 -16.259   6.842  1.00  0.00     0.031 A 
BRANCH  50  64
ATOM     64  C   UNL     1       5.048 -13.862   7.704  1.00  0.00    -0.014 A 
ATOM     65  C   UNL     1       5.248 -12.739   8.520  1.00  0.00     0.009 A 
ATOM     66  C   UNL     1       5.989 -14.903   7.727  1.00  0.00     0.009 A 
ATOM     67  C   UNL     1       6.386 -12.651   9.325  1.00  0.00     0.001 A 
ATOM     68  C   UNL     1       7.114 -14.820   8.547  1.00  0.00     0.001 A 
ATOM     69  C   UNL     1       7.316 -13.691   9.339  1.00  0.00     0.000 A 
ENDBRANCH  50  64
BRANCH  51  70
ATOM     70  C   UNL     1      -2.738 -14.335   1.548  1.00  0.00    -0.014 A 
ATOM     71  C   UNL     1      -3.899 -13.608   1.852  1.00  0.00     0.009 A 
ATOM     72  C   UNL     1      -2.711 -15.129   0.392  1.00  0.00     0.009 A 
ATOM     73  C   UNL     1      -5.019 -13.690   1.022  1.00  0.00     0.001 A 
ATOM     74  C   UNL     1      -3.826 -15.193  -0.446  1.00  0.00     0.001 A 
ATOM     75  C   UNL     1      -4.980 -14.479  -0.127  1.00  0.00     0.000 A 
ENDBRANCH  51  70
BRANCH  63  76
ATOM     76  C   UNL     1      -1.371 -17.137   7.753  1.00  0.00    -0.014 A 
ATOM     77  C   UNL     1      -1.508 -18.509   7.495  1.00  0.00     0.009 A 
ATOM     78  C   UNL     1      -1.974 -16.590   8.896  1.00  0.00     0.009 A 
ATOM     79  C   UNL     1      -2.259 -19.314   8.354  1.00  0.00     0.001 A 
ATOM     80  C   UNL     1      -2.711 -17.401   9.760  1.00  0.00     0.001 A 
ATOM     81  C   UNL     1      -2.859 -18.760   9.485  1.00  0.00     0.000 A 
ENDBRANCH  63  76
ENDBRANCH  37  38
ENDBRANCH  30  32
ENDBRANCH  29  30
ENDBRANCH  28  29
ENDBRANCH   1  28
TORSDOF 16
