REMARK SMILES O=C(OCCOC(=O)[C@H](c1ccccc1)C(c1ccccc1)c1ccccc1)c1ccc(-c2c3nc(c(-c4ccccc4)c4ccc([nH]4)c(-c4ccccc4)c4nc(c(-c5ccccc5)c5ccc2[nH]5)C=C4)C=C3)cc1
REMARK SMILES IDX 4 1 3 2 2 3 1 4 29 5 30 6 76 7 31 8 75 9 32 10 33 11 34 12
REMARK SMILES IDX 69 13 35 14 74 15 68 16 70 17 36 18 73 19 67 20 66 21 37 23
REMARK SMILES IDX 59 24 44 25 58 26 45 27 48 28 57 29 71 30 46 31 47 32 56 34
REMARK SMILES IDX 72 35 49 36 38 37 39 38 43 39 40 40 42 41 41 42 60 43 61 44
REMARK SMILES IDX 65 45 62 46 64 47 63 48 50 49 51 50 55 51 52 52 54 53 53 54
REMARK SMILES IDX 5 55 6 56 7 57 8 58 9 59 16 60 17 61 18 62 22 63 19 64 21 65
REMARK SMILES IDX 20 66 23 67 24 68 28 69 25 70 27 71 26 72 10 73 11 74 15 75
REMARK SMILES IDX 12 76 14 77 13 78
REMARK H PARENT 70 22 48 33
REMARK Flexibility Score: inf
ROOT
ATOM      1  C   UNL     1       3.286  -5.101  -0.757  1.00  0.00     0.275 C 
ENDROOT
BRANCH   1   2
ATOM      2  O   UNL     1       3.267  -3.892  -1.533  1.00  0.00    -0.458 OA
BRANCH   2   3
ATOM      3  C   UNL     1       2.349  -2.901  -1.573  1.00  0.00     0.338 C 
ATOM      4  O   UNL     1       2.500  -2.002  -2.402  1.00  0.00    -0.246 OA
BRANCH   3   5
ATOM      5  C   UNL     1       1.204  -2.760  -0.611  1.00  0.00     0.060 A 
ATOM      6  C   UNL     1       0.600  -3.772   0.138  1.00  0.00     0.016 A 
ATOM      7  C   UNL     1       0.704  -1.458  -0.446  1.00  0.00     0.016 A 
ATOM      8  C   UNL     1      -0.394  -3.486   1.083  1.00  0.00     0.010 A 
ATOM      9  C   UNL     1      -0.261  -1.158   0.524  1.00  0.00     0.010 A 
ATOM     10  C   UNL     1      -0.826  -2.175   1.294  1.00  0.00    -0.014 A 
BRANCH  10  11
ATOM     11  C   UNL     1      -1.972  -1.911   2.198  1.00  0.00     0.031 A 
ATOM     12  C   UNL     1      -3.283  -1.508   1.598  1.00  0.00     0.074 A 
ATOM     13  C   UNL     1      -1.880  -2.094   3.529  1.00  0.00     0.049 A 
ATOM     14  N   UNL     1      -4.438  -1.345   2.187  1.00  0.00    -0.248 NA
ATOM     15  C   UNL     1      -3.302  -1.259   0.147  1.00  0.00     0.031 C 
ATOM     16  C   UNL     1      -0.667  -2.488   4.234  1.00  0.00     0.029 A 
ATOM     17  N   UNL     1      -2.826  -1.997   4.523  1.00  0.00    -0.354 N 
ATOM     18  C   UNL     1      -5.320  -1.001   1.176  1.00  0.00     0.074 A 
ATOM     19  C   UNL     1      -4.555  -0.885  -0.044  1.00  0.00     0.031 C 
ATOM     20  C   UNL     1      -0.954  -2.622   5.539  1.00  0.00     0.029 A 
ATOM     21  C   UNL     1      -2.348  -2.312   5.772  1.00  0.00     0.049 A 
ATOM     22  H   UNL     1      -3.758  -1.728   4.355  1.00  0.00     0.167 HD
ATOM     23  C   UNL     1      -6.660  -0.844   1.243  1.00  0.00     0.031 A 
ATOM     24  C   UNL     1      -2.943  -2.373   6.979  1.00  0.00     0.031 A 
ATOM     25  C   UNL     1      -7.423  -0.942   2.453  1.00  0.00     0.049 A 
ATOM     26  C   UNL     1      -4.418  -2.118   7.043  1.00  0.00     0.074 A 
ATOM     27  C   UNL     1      -8.784  -0.780   2.630  1.00  0.00     0.029 A 
ATOM     28  N   UNL     1      -6.883  -1.223   3.700  1.00  0.00    -0.354 N 
ATOM     29  N   UNL     1      -5.245  -1.855   6.062  1.00  0.00    -0.248 NA
ATOM     30  C   UNL     1      -5.049  -2.198   8.367  1.00  0.00     0.031 C 
ATOM     31  C   UNL     1      -9.063  -0.923   3.993  1.00  0.00     0.029 A 
ATOM     32  C   UNL     1      -7.883  -1.223   4.656  1.00  0.00     0.049 A 
ATOM     33  H   UNL     1      -5.930  -1.396   3.878  1.00  0.00     0.167 HD
ATOM     34  C   UNL     1      -6.499  -1.768   6.643  1.00  0.00     0.074 A 
ATOM     35  C   UNL     1      -6.326  -2.034   8.057  1.00  0.00     0.031 C 
ATOM     36  C   UNL     1      -7.687  -1.489   6.057  1.00  0.00     0.031 A 
BRANCH  23  37
ATOM     37  C   UNL     1      -7.353  -0.551  -0.053  1.00  0.00    -0.014 A 
ATOM     38  C   UNL     1      -7.467  -1.541  -1.045  1.00  0.00     0.009 A 
ATOM     39  C   UNL     1      -7.838   0.737  -0.315  1.00  0.00     0.009 A 
ATOM     40  C   UNL     1      -8.011  -1.232  -2.291  1.00  0.00     0.001 A 
ATOM     41  C   UNL     1      -8.408   1.035  -1.553  1.00  0.00     0.001 A 
ATOM     42  C   UNL     1      -8.483   0.055  -2.543  1.00  0.00     0.000 A 
ENDBRANCH  23  37
BRANCH  24  43
ATOM     43  C   UNL     1      -2.171  -2.708   8.213  1.00  0.00    -0.014 A 
ATOM     44  C   UNL     1      -2.414  -3.897   8.921  1.00  0.00     0.009 A 
ATOM     45  C   UNL     1      -1.211  -1.815   8.718  1.00  0.00     0.009 A 
ATOM     46  C   UNL     1      -1.754  -4.159  10.127  1.00  0.00     0.001 A 
ATOM     47  C   UNL     1      -0.529  -2.094   9.907  1.00  0.00     0.001 A 
ATOM     48  C   UNL     1      -0.812  -3.257  10.619  1.00  0.00     0.000 A 
ENDBRANCH  24  43
BRANCH  36  49
ATOM     49  C   UNL     1      -8.891  -1.488   6.950  1.00  0.00    -0.014 A 
ATOM     50  C   UNL     1      -9.094  -0.469   7.893  1.00  0.00     0.009 A 
ATOM     51  C   UNL     1      -9.842  -2.511   6.830  1.00  0.00     0.009 A 
ATOM     52  C   UNL     1     -10.211  -0.498   8.728  1.00  0.00     0.001 A 
ATOM     53  C   UNL     1     -10.974  -2.519   7.642  1.00  0.00     0.001 A 
ATOM     54  C   UNL     1     -11.152  -1.519   8.598  1.00  0.00     0.000 A 
ENDBRANCH  36  49
ENDBRANCH  10  11
ENDBRANCH   3   5
ENDBRANCH   2   3
ENDBRANCH   1   2
BRANCH   1  55
ATOM     55  C   UNL     1       3.823  -4.913   0.660  1.00  0.00     0.274 C 
BRANCH  55  56
ATOM     56  O   UNL     1       3.276  -3.752   1.312  1.00  0.00    -0.462 OA
BRANCH  56  57
ATOM     57  C   UNL     1       4.170  -2.860   1.831  1.00  0.00     0.314 C 
ATOM     58  O   UNL     1       5.394  -2.994   1.760  1.00  0.00    -0.252 OA
BRANCH  57  59
ATOM     59  C   UNL     1       3.472  -1.711   2.571  1.00  0.00     0.141 C 
BRANCH  59  60
ATOM     60  C   UNL     1       3.673  -1.801   4.159  1.00  0.00     0.068 C 
BRANCH  60  61
ATOM     61  C   UNL     1       3.094  -0.583   4.971  1.00  0.00    -0.039 A 
ATOM     62  C   UNL     1       2.409   0.500   4.394  1.00  0.00     0.004 A 
ATOM     63  C   UNL     1       3.274  -0.506   6.367  1.00  0.00     0.004 A 
ATOM     64  C   UNL     1       1.967   1.605   5.134  1.00  0.00     0.000 A 
ATOM     65  C   UNL     1       2.739   0.546   7.130  1.00  0.00     0.000 A 
ATOM     66  C   UNL     1       2.106   1.616   6.511  1.00  0.00     0.000 A 
ENDBRANCH  60  61
BRANCH  60  67
ATOM     67  C   UNL     1       3.253  -3.202   4.739  1.00  0.00    -0.039 A 
ATOM     68  C   UNL     1       2.284  -3.364   5.739  1.00  0.00     0.004 A 
ATOM     69  C   UNL     1       3.873  -4.394   4.316  1.00  0.00     0.004 A 
ATOM     70  C   UNL     1       1.894  -4.623   6.225  1.00  0.00     0.000 A 
ATOM     71  C   UNL     1       3.440  -5.661   4.739  1.00  0.00     0.000 A 
ATOM     72  C   UNL     1       2.441  -5.777   5.692  1.00  0.00     0.000 A 
ENDBRANCH  60  67
ENDBRANCH  59  60
BRANCH  59  73
ATOM     73  C   UNL     1       3.946  -0.410   1.893  1.00  0.00    -0.033 A 
ATOM     74  C   UNL     1       5.251   0.075   2.022  1.00  0.00     0.004 A 
ATOM     75  C   UNL     1       3.052   0.335   1.106  1.00  0.00     0.004 A 
ATOM     76  C   UNL     1       5.629   1.272   1.401  1.00  0.00     0.000 A 
ATOM     77  C   UNL     1       3.420   1.527   0.487  1.00  0.00     0.000 A 
ATOM     78  C   UNL     1       4.715   1.999   0.639  1.00  0.00     0.000 A 
ENDBRANCH  59  73
ENDBRANCH  57  59
ENDBRANCH  56  57
ENDBRANCH  55  56
ENDBRANCH   1  55
TORSDOF 15
