REMARK SMILES C[N@@H+]([C@@H]1CCOC2(CCCC2)C1)C(C)(C)C(=O)OCCOC(=O)c1ccc(-c2c3nc(c(-c4ccccc4)c4ccc([nH]4)c(-c4ccccc4)c4nc(c(-c5ccccc5)c5ccc2[nH]5)C=C4)C=C3)cc1
REMARK SMILES IDX 19 1 18 2 16 3 17 4 13 5 14 6 15 7 2 8 1 9 3 11 4 12 12 13
REMARK SMILES IDX 5 14 7 15 6 16 8 17 11 18 9 19 10 20 20 21 21 22 22 23 23 24
REMARK SMILES IDX 24 25 25 26 71 27 26 28 70 29 27 30 28 31 29 32 64 33 30 34
REMARK SMILES IDX 69 35 63 36 65 37 31 38 68 39 62 40 61 41 32 43 54 44 39 45
REMARK SMILES IDX 53 46 40 47 43 48 52 49 66 50 41 51 42 52 51 54 67 55 44 56
REMARK SMILES IDX 33 57 34 58 38 59 35 60 37 61 36 62 55 63 56 64 60 65 57 66
REMARK SMILES IDX 59 67 58 68 45 69 46 70 50 71 47 72 49 73 48 74
REMARK H PARENT 2 10 65 42 43 53
REMARK Flexibility Score: inf
ROOT
ATOM      1  C   UNL     1       0.418  -6.087  -1.485  1.00  0.00     0.274 C 
ENDROOT
BRANCH   1   2
ATOM      2  O   UNL     1       1.055  -4.794  -1.475  1.00  0.00    -0.457 OA
BRANCH   2   3
ATOM      3  C   UNL     1       0.441  -3.819  -2.205  1.00  0.00     0.367 C 
ATOM      4  O   UNL     1      -0.557  -4.018  -2.897  1.00  0.00    -0.245 OA
BRANCH   3   5
ATOM      5  C   UNL     1       1.071  -2.406  -2.022  1.00  0.00     0.190 C 
ATOM      6  C   UNL     1       0.790  -1.669  -3.353  1.00  0.00     0.092 C 
ATOM      7  C   UNL     1       2.609  -2.545  -1.892  1.00  0.00     0.092 C 
BRANCH   5   8
ATOM      8  N   UNL     1       0.515  -1.657  -0.825  1.00  0.00    -0.321 N 
ATOM      9  C   UNL     1       1.041  -0.286  -0.747  1.00  0.00     0.333 C 
ATOM     10  H   UNL     1       0.877  -2.150  -0.009  1.00  0.00     0.349 HD
BRANCH   8  11
ATOM     11  C   UNL     1      -0.955  -1.775  -0.614  1.00  0.00     0.189 C 
ATOM     12  C   UNL     1      -1.616  -0.668   0.230  1.00  0.00     0.093 C 
ATOM     13  C   UNL     1      -1.340  -3.099   0.106  1.00  0.00     0.100 C 
ATOM     14  C   UNL     1      -1.233  -0.790   1.691  1.00  0.00     0.167 C 
ATOM     15  C   UNL     1      -0.715  -3.221   1.522  1.00  0.00     0.074 C 
ATOM     16  O   UNL     1      -1.422  -2.108   2.201  1.00  0.00    -0.375 OA
ATOM     17  C   UNL     1      -1.301  -4.828   2.610  1.00  0.00     0.036 C 
ATOM     18  C   UNL     1       1.306  -3.160   1.595  1.00  0.00     0.036 C 
ATOM     19  C   UNL     1       0.365  -5.690   3.439  1.00  0.00     0.003 C 
ATOM     20  C   UNL     1       1.953  -4.475   3.032  1.00  0.00     0.003 C 
ENDBRANCH   8  11
ENDBRANCH   5   8
ENDBRANCH   3   5
ENDBRANCH   2   3
ENDBRANCH   1   2
BRANCH   1  21
ATOM     21  C   UNL     1      -0.039  -6.556  -0.099  1.00  0.00     0.275 C 
BRANCH  21  22
ATOM     22  O   UNL     1      -0.464  -5.468   0.773  1.00  0.00    -0.458 OA
BRANCH  22  23
ATOM     23  C   UNL     1       0.499  -4.906   1.700  1.00  0.00     0.338 C 
ATOM     24  O   UNL     1       1.563  -5.438   1.263  1.00  0.00    -0.246 OA
BRANCH  23  25
ATOM     25  C   UNL     1       0.174  -3.617   3.367  1.00  0.00     0.060 A 
ATOM     26  C   UNL     1       0.740  -2.251   3.655  1.00  0.00     0.016 A 
ATOM     27  C   UNL     1      -0.581  -3.852   4.690  1.00  0.00     0.016 A 
ATOM     28  C   UNL     1       0.385  -1.323   4.631  1.00  0.00     0.010 A 
ATOM     29  C   UNL     1      -0.896  -2.956   5.742  1.00  0.00     0.010 A 
ATOM     30  C   UNL     1      -0.482  -1.657   5.637  1.00  0.00    -0.014 A 
BRANCH  30  31
ATOM     31  C   UNL     1      -0.862  -0.538   6.488  1.00  0.00     0.031 A 
ATOM     32  C   UNL     1       0.206   0.031   7.359  1.00  0.00     0.074 A 
ATOM     33  C   UNL     1      -1.958   0.144   6.109  1.00  0.00     0.049 A 
ATOM     34  N   UNL     1       0.261   1.196   7.934  1.00  0.00    -0.248 NA
ATOM     35  C   UNL     1       1.427  -0.786   7.511  1.00  0.00     0.031 C 
ATOM     36  C   UNL     1      -2.880  -0.276   5.045  1.00  0.00     0.029 A 
ATOM     37  N   UNL     1      -2.416   1.376   6.476  1.00  0.00    -0.354 N 
ATOM     38  C   UNL     1       1.517   1.253   8.518  1.00  0.00     0.074 A 
ATOM     39  C   UNL     1       2.221   0.042   8.171  1.00  0.00     0.031 C 
ATOM     40  C   UNL     1      -3.761   0.709   4.812  1.00  0.00     0.029 A 
ATOM     41  C   UNL     1      -3.511   1.790   5.753  1.00  0.00     0.049 A 
ATOM     42  H   UNL     1      -2.003   1.915   7.189  1.00  0.00     0.167 HD
ATOM     43  C   UNL     1       1.996   2.217   9.333  1.00  0.00     0.031 A 
ATOM     44  C   UNL     1      -4.232   2.919   5.879  1.00  0.00     0.031 A 
ATOM     45  C   UNL     1       1.187   3.329   9.743  1.00  0.00     0.049 A 
ATOM     46  C   UNL     1      -3.775   3.877   6.945  1.00  0.00     0.074 A 
ATOM     47  C   UNL     1       1.411   4.251  10.744  1.00  0.00     0.029 A 
ATOM     48  N   UNL     1      -0.044   3.637   9.172  1.00  0.00    -0.354 N 
ATOM     49  N   UNL     1      -2.662   3.859   7.645  1.00  0.00    -0.248 NA
ATOM     50  C   UNL     1      -4.679   4.980   7.274  1.00  0.00     0.031 C 
ATOM     51  C   UNL     1       0.278   5.071  10.826  1.00  0.00     0.029 A 
ATOM     52  C   UNL     1      -0.610   4.716   9.819  1.00  0.00     0.049 A 
ATOM     53  H   UNL     1      -0.452   3.155   8.417  1.00  0.00     0.167 HD
ATOM     54  C   UNL     1      -2.734   4.941   8.507  1.00  0.00     0.074 A 
ATOM     55  C   UNL     1      -3.981   5.621   8.201  1.00  0.00     0.031 C 
ATOM     56  C   UNL     1      -1.868   5.335   9.475  1.00  0.00     0.031 A 
BRANCH  43  57
ATOM     57  C   UNL     1       3.326   1.942   9.969  1.00  0.00    -0.014 A 
ATOM     58  C   UNL     1       4.532   2.027   9.254  1.00  0.00     0.009 A 
ATOM     59  C   UNL     1       3.352   1.463  11.288  1.00  0.00     0.009 A 
ATOM     60  C   UNL     1       5.729   1.602   9.840  1.00  0.00     0.001 A 
ATOM     61  C   UNL     1       4.551   1.061  11.877  1.00  0.00     0.001 A 
ATOM     62  C   UNL     1       5.737   1.119  11.149  1.00  0.00     0.000 A 
ENDBRANCH  43  57
BRANCH  44  63
ATOM     63  C   UNL     1      -5.485   3.135   5.098  1.00  0.00    -0.014 A 
ATOM     64  C   UNL     1      -5.675   4.274   4.300  1.00  0.00     0.009 A 
ATOM     65  C   UNL     1      -6.539   2.207   5.189  1.00  0.00     0.009 A 
ATOM     66  C   UNL     1      -6.892   4.488   3.639  1.00  0.00     0.001 A 
ATOM     67  C   UNL     1      -7.738   2.402   4.499  1.00  0.00     0.001 A 
ATOM     68  C   UNL     1      -7.919   3.550   3.735  1.00  0.00     0.000 A 
ENDBRANCH  44  63
BRANCH  56  69
ATOM     69  C   UNL     1      -2.247   6.570  10.235  1.00  0.00    -0.014 A 
ATOM     70  C   UNL     1      -3.313   6.571  11.147  1.00  0.00     0.009 A 
ATOM     71  C   UNL     1      -1.498   7.741  10.048  1.00  0.00     0.009 A 
ATOM     72  C   UNL     1      -3.653   7.742  11.821  1.00  0.00     0.001 A 
ATOM     73  C   UNL     1      -1.817   8.899  10.752  1.00  0.00     0.001 A 
ATOM     74  C   UNL     1      -2.903   8.902  11.627  1.00  0.00     0.000 A 
ENDBRANCH  56  69
ENDBRANCH  30  31
ENDBRANCH  23  25
ENDBRANCH  22  23
ENDBRANCH  21  22
ENDBRANCH   1  21
TORSDOF 13
