REMARK SMILES O=C(Cc1ccccc1Nc1c(Cl)cccc1C(F)(F)F)OCCOC(=O)c1ccc(-c2c3nc(c(-c4ccccc4)c4ccc([nH]4)c(-c4ccccc4)c4nc(c(-c5ccccc5)c5ccc2[nH]5)C=C4)C=C3)cc1
REMARK SMILES IDX 23 1 22 2 2 3 1 4 3 5 4 6 5 7 9 8 6 9 8 10 7 11 10 12 11 14
REMARK SMILES IDX 12 15 17 16 13 17 14 18 16 19 15 20 18 21 19 22 20 23 21 24
REMARK SMILES IDX 24 25 25 26 26 27 27 28 28 29 29 30 75 31 30 32 74 33 31 34
REMARK SMILES IDX 32 35 33 36 68 37 34 38 73 39 67 40 69 41 35 42 72 43 66 44
REMARK SMILES IDX 65 45 36 47 58 48 43 49 57 50 44 51 47 52 56 53 70 54 45 55
REMARK SMILES IDX 46 56 55 58 71 59 48 60 37 61 38 62 42 63 39 64 41 65 40 66
REMARK SMILES IDX 59 67 60 68 64 69 61 70 63 71 62 72 49 73 50 74 54 75 51 76
REMARK SMILES IDX 53 77 52 78
REMARK H PARENT 10 13 69 46 47 57
REMARK Flexibility Score: inf
ROOT
ATOM      1  C   UNL     1       3.473   1.466  -0.274  1.00  0.00     0.274 C 
ENDROOT
BRANCH   1   2
ATOM      2  O   UNL     1       2.276   0.672  -0.369  1.00  0.00    -0.462 OA
BRANCH   2   3
ATOM      3  C   UNL     1       2.357  -0.637  -0.750  1.00  0.00     0.310 C 
ATOM      4  O   UNL     1       1.523  -1.114  -1.516  1.00  0.00    -0.252 OA
BRANCH   3   5
ATOM      5  C   UNL     1       3.341  -1.498   0.017  1.00  0.00     0.160 C 
BRANCH   5   6
ATOM      6  C   UNL     1       4.175  -2.454  -0.802  1.00  0.00    -0.013 A 
ATOM      7  C   UNL     1       3.702  -3.759  -1.016  1.00  0.00     0.006 A 
ATOM      8  C   UNL     1       5.429  -2.077  -1.326  1.00  0.00     0.042 A 
ATOM      9  C   UNL     1       4.483  -4.695  -1.691  1.00  0.00     0.000 A 
ATOM     10  C   UNL     1       6.210  -3.036  -1.982  1.00  0.00     0.026 A 
ATOM     11  C   UNL     1       5.740  -4.336  -2.166  1.00  0.00     0.002 A 
BRANCH   8  12
ATOM     12  N   UNL     1       5.969  -0.808  -1.041  1.00  0.00    -0.354 N 
ATOM     13  H   UNL     1       5.858  -0.515  -0.108  1.00  0.00     0.167 HD
BRANCH  12  14
ATOM     14  C   UNL     1       6.644   0.119  -1.874  1.00  0.00     0.070 A 
ATOM     15  C   UNL     1       7.653   0.925  -1.286  1.00  0.00     0.065 A 
ATOM     16  C   UNL     1       6.334   0.336  -3.233  1.00  0.00     0.080 A 
ATOM     17  Cl  UNL     1       8.006   0.790   0.407  1.00  0.00    -0.082 Cl
ATOM     18  C   UNL     1       8.379   1.859  -2.025  1.00  0.00     0.023 A 
ATOM     19  C   UNL     1       7.101   1.268  -3.971  1.00  0.00     0.015 A 
ATOM     20  C   UNL     1       8.114   2.018  -3.377  1.00  0.00     0.002 A 
BRANCH  16  21
ATOM     21  C   UNL     1       5.171  -0.319  -3.946  1.00  0.00     0.418 C 
ATOM     22  F   UNL     1       4.801   0.371  -5.069  1.00  0.00    -0.166 F 
ATOM     23  F   UNL     1       5.446  -1.576  -4.383  1.00  0.00    -0.166 F 
ATOM     24  F   UNL     1       4.037  -0.382  -3.199  1.00  0.00    -0.166 F 
ENDBRANCH  16  21
ENDBRANCH  12  14
ENDBRANCH   8  12
ENDBRANCH   5   6
ENDBRANCH   3   5
ENDBRANCH   2   3
ENDBRANCH   1   2
BRANCH   1  25
ATOM     25  C   UNL     1       3.821   1.902   1.154  1.00  0.00     0.275 C 
BRANCH  25  26
ATOM     26  O   UNL     1       3.632   0.834   2.095  1.00  0.00    -0.458 OA
BRANCH  26  27
ATOM     27  C   UNL     1       2.378   0.784   2.608  1.00  0.00     0.338 C 
ATOM     28  O   UNL     1       1.517   1.645   2.513  1.00  0.00    -0.246 OA
BRANCH  27  29
ATOM     29  C   UNL     1       2.109  -0.553   3.173  1.00  0.00     0.060 A 
ATOM     30  C   UNL     1       0.840  -1.095   2.940  1.00  0.00     0.016 A 
ATOM     31  C   UNL     1       3.042  -1.248   3.949  1.00  0.00     0.016 A 
ATOM     32  C   UNL     1       0.462  -2.280   3.565  1.00  0.00     0.010 A 
ATOM     33  C   UNL     1       2.663  -2.444   4.574  1.00  0.00     0.010 A 
ATOM     34  C   UNL     1       1.349  -2.927   4.435  1.00  0.00    -0.014 A 
BRANCH  34  35
ATOM     35  C   UNL     1       0.800  -3.947   5.363  1.00  0.00     0.031 A 
ATOM     36  C   UNL     1       0.406  -3.511   6.752  1.00  0.00     0.074 A 
ATOM     37  C   UNL     1       0.552  -5.207   4.963  1.00  0.00     0.049 A 
ATOM     38  N   UNL     1      -0.233  -4.175   7.681  1.00  0.00    -0.248 NA
ATOM     39  C   UNL     1       0.777  -2.140   7.141  1.00  0.00     0.031 C 
ATOM     40  C   UNL     1       0.852  -5.753   3.641  1.00  0.00     0.029 A 
ATOM     41  N   UNL     1      -0.036  -6.249   5.636  1.00  0.00    -0.354 N 
ATOM     42  C   UNL     1      -0.350  -3.300   8.755  1.00  0.00     0.074 A 
ATOM     43  C   UNL     1       0.326  -2.078   8.383  1.00  0.00     0.031 C 
ATOM     44  C   UNL     1       0.429  -7.030   3.594  1.00  0.00     0.029 A 
ATOM     45  C   UNL     1      -0.162  -7.390   4.883  1.00  0.00     0.049 A 
ATOM     46  H   UNL     1      -0.338  -6.184   6.571  1.00  0.00     0.167 HD
ATOM     47  C   UNL     1      -0.979  -3.484   9.940  1.00  0.00     0.031 A 
ATOM     48  C   UNL     1      -0.705  -8.583   5.194  1.00  0.00     0.031 A 
ATOM     49  C   UNL     1      -1.641  -4.698  10.328  1.00  0.00     0.049 A 
ATOM     50  C   UNL     1      -1.342  -8.785   6.545  1.00  0.00     0.074 A 
ATOM     51  C   UNL     1      -2.320  -4.972  11.503  1.00  0.00     0.029 A 
ATOM     52  N   UNL     1      -1.698  -5.845   9.553  1.00  0.00    -0.354 N 
ATOM     53  N   UNL     1      -1.499  -7.929   7.526  1.00  0.00    -0.248 NA
ATOM     54  C   UNL     1      -1.901 -10.118   6.817  1.00  0.00     0.031 C 
ATOM     55  C   UNL     1      -2.742  -6.305  11.460  1.00  0.00     0.029 A 
ATOM     56  C   UNL     1      -2.378  -6.839  10.235  1.00  0.00     0.049 A 
ATOM     57  H   UNL     1      -1.312  -5.939   8.652  1.00  0.00     0.167 HD
ATOM     58  C   UNL     1      -2.211  -8.606   8.510  1.00  0.00     0.074 A 
ATOM     59  C   UNL     1      -2.461  -9.940   8.005  1.00  0.00     0.031 C 
ATOM     60  C   UNL     1      -2.629  -8.160   9.720  1.00  0.00     0.031 A 
BRANCH  47  61
ATOM     61  C   UNL     1      -0.951  -2.340  10.913  1.00  0.00    -0.014 A 
ATOM     62  C   UNL     1      -1.704  -1.175  10.690  1.00  0.00     0.009 A 
ATOM     63  C   UNL     1      -0.170  -2.433  12.075  1.00  0.00     0.009 A 
ATOM     64  C   UNL     1      -1.645  -0.113  11.595  1.00  0.00     0.001 A 
ATOM     65  C   UNL     1      -0.135  -1.381  12.991  1.00  0.00     0.001 A 
ATOM     66  C   UNL     1      -0.865  -0.218  12.745  1.00  0.00     0.000 A 
ENDBRANCH  47  61
BRANCH  48  67
ATOM     67  C   UNL     1      -0.697  -9.690   4.202  1.00  0.00    -0.014 A 
ATOM     68  C   UNL     1      -1.891 -10.127   3.607  1.00  0.00     0.009 A 
ATOM     69  C   UNL     1       0.501 -10.346   3.881  1.00  0.00     0.009 A 
ATOM     70  C   UNL     1      -1.889 -11.220   2.736  1.00  0.00     0.001 A 
ATOM     71  C   UNL     1       0.503 -11.421   2.990  1.00  0.00     0.001 A 
ATOM     72  C   UNL     1      -0.692 -11.864   2.427  1.00  0.00     0.000 A 
ENDBRANCH  48  67
BRANCH  60  73
ATOM     73  C   UNL     1      -3.448  -9.100  10.562  1.00  0.00    -0.014 A 
ATOM     74  C   UNL     1      -2.876 -10.222  11.180  1.00  0.00     0.009 A 
ATOM     75  C   UNL     1      -4.811  -8.831  10.769  1.00  0.00     0.009 A 
ATOM     76  C   UNL     1      -3.662 -11.078  11.955  1.00  0.00     0.001 A 
ATOM     77  C   UNL     1      -5.587  -9.671  11.569  1.00  0.00     0.001 A 
ATOM     78  C   UNL     1      -5.015 -10.800  12.152  1.00  0.00     0.000 A 
ENDBRANCH  60  73
ENDBRANCH  34  35
ENDBRANCH  27  29
ENDBRANCH  26  27
ENDBRANCH  25  26
ENDBRANCH   1  25
TORSDOF 15
