REMARK SMILES C#CCN(CC(=O)OCCOC(=O)c1ccc(-c2c3nc(c(-c4ccccc4)c4ccc([nH]4)c(-c4ccccc4)c4nc(c(-c5ccccc5)c5ccc2[nH]5)C=C4)C=C3)cc1)C(=O)N1CCO[C@@H](C#N)C1
REMARK SMILES IDX 9 1 8 2 6 3 7 4 5 5 4 6 3 7 2 8 1 9 62 10 63 11 64 12 65 13
REMARK SMILES IDX 71 14 66 15 68 16 67 17 69 18 70 19 10 20 11 21 12 22 13 23
REMARK SMILES IDX 14 24 15 25 61 26 16 27 60 28 17 29 18 30 19 31 54 32 20 33
REMARK SMILES IDX 59 34 53 35 55 36 21 37 58 38 52 39 51 40 22 42 44 43 29 44
REMARK SMILES IDX 43 45 30 46 33 47 42 48 56 49 31 50 32 51 41 53 57 54 34 55
REMARK SMILES IDX 23 56 24 57 28 58 25 59 27 60 26 61 45 62 46 63 50 64 47 65
REMARK SMILES IDX 49 66 48 67 35 68 36 69 40 70 37 71 39 72 38 73
REMARK H PARENT 55 41 33 52
REMARK Flexibility Score: inf
ROOT
ATOM      1  C   UNL     1      -6.767   2.047  -1.541  1.00  0.00     0.274 C 
ENDROOT
BRANCH   1   2
ATOM      2  O   UNL     1      -5.413   1.626  -1.267  1.00  0.00    -0.461 OA
BRANCH   2   3
ATOM      3  C   UNL     1      -5.074   0.425  -1.790  1.00  0.00     0.325 C 
ATOM      4  O   UNL     1      -5.849  -0.334  -2.368  1.00  0.00    -0.250 OA
BRANCH   3   5
ATOM      5  C   UNL     1      -3.582   0.110  -1.735  1.00  0.00     0.245 C 
BRANCH   5   6
ATOM      6  N   UNL     1      -2.559   0.888  -0.990  1.00  0.00    -0.302 N 
BRANCH   6   7
ATOM      7  C   UNL     1      -1.850   0.082  -0.052  1.00  0.00     0.211 C 
BRANCH   7   8
ATOM      8  C   UNL     1      -0.330   0.082  -0.052  1.00  0.00    -0.085 C 
ATOM      9  C   UNL     1       0.974   0.082  -0.052  1.00  0.00     0.006 C 
ENDBRANCH   7   8
ENDBRANCH   6   7
BRANCH   6  10
ATOM     10  C   UNL     1      -2.070   2.179  -1.041  1.00  0.00     0.321 C 
ATOM     11  O   UNL     1      -1.466   2.667  -0.081  1.00  0.00    -0.248 OA
BRANCH  10  12
ATOM     12  N   UNL     1      -2.111   2.885  -2.204  1.00  0.00    -0.319 N 
ATOM     13  C   UNL     1      -1.046   3.860  -2.509  1.00  0.00     0.150 C 
ATOM     14  C   UNL     1      -2.902   2.583  -3.353  1.00  0.00     0.169 C 
ATOM     15  C   UNL     1      -0.258   3.447  -3.781  1.00  0.00     0.183 C 
ATOM     16  C   UNL     1      -2.002   1.983  -4.415  1.00  0.00     0.240 C 
ATOM     17  O   UNL     1      -1.094   3.002  -4.861  1.00  0.00    -0.360 OA
BRANCH  16  18
ATOM     18  C   UNL     1      -1.342   0.696  -4.106  1.00  0.00     0.096 C 
ATOM     19  N   UNL     1      -0.884  -0.342  -3.900  1.00  0.00    -0.195 NA
ENDBRANCH  16  18
ENDBRANCH  10  12
ENDBRANCH   6  10
ENDBRANCH   5   6
ENDBRANCH   3   5
ENDBRANCH   2   3
ENDBRANCH   1   2
BRANCH   1  20
ATOM     20  C   UNL     1      -6.750   3.434  -2.192  1.00  0.00     0.275 C 
BRANCH  20  21
ATOM     21  O   UNL     1      -5.977   3.513  -3.413  1.00  0.00    -0.458 OA
BRANCH  21  22
ATOM     22  C   UNL     1      -6.464   2.861  -4.495  1.00  0.00     0.338 C 
ATOM     23  O   UNL     1      -7.468   2.175  -4.541  1.00  0.00    -0.246 OA
BRANCH  22  24
ATOM     24  C   UNL     1      -5.461   2.934  -5.585  1.00  0.00     0.060 A 
ATOM     25  C   UNL     1      -4.991   1.726  -6.073  1.00  0.00     0.016 A 
ATOM     26  C   UNL     1      -4.898   4.128  -6.061  1.00  0.00     0.016 A 
ATOM     27  C   UNL     1      -3.920   1.731  -6.973  1.00  0.00     0.010 A 
ATOM     28  C   UNL     1      -3.893   4.113  -7.064  1.00  0.00     0.010 A 
ATOM     29  C   UNL     1      -3.376   2.905  -7.553  1.00  0.00    -0.014 A 
BRANCH  29  30
ATOM     30  C   UNL     1      -2.356   2.777  -8.672  1.00  0.00     0.031 A 
ATOM     31  C   UNL     1      -1.101   3.636  -8.825  1.00  0.00     0.074 A 
ATOM     32  C   UNL     1      -2.548   1.805  -9.599  1.00  0.00     0.049 A 
ATOM     33  N   UNL     1      -0.271   3.703  -9.848  1.00  0.00    -0.248 NA
ATOM     34  C   UNL     1      -0.713   4.518  -7.715  1.00  0.00     0.031 C 
ATOM     35  C   UNL     1      -3.669   0.857  -9.615  1.00  0.00     0.029 A 
ATOM     36  N   UNL     1      -1.806   1.418 -10.692  1.00  0.00    -0.354 N 
ATOM     37  C   UNL     1       0.699   4.653  -9.523  1.00  0.00     0.074 A 
ATOM     38  C   UNL     1       0.371   5.124  -8.193  1.00  0.00     0.031 C 
ATOM     39  C   UNL     1      -3.461  -0.080 -10.536  1.00  0.00     0.029 A 
ATOM     40  C   UNL     1      -2.369   0.364 -11.376  1.00  0.00     0.049 A 
ATOM     41  H   UNL     1      -0.961   1.849 -10.957  1.00  0.00     0.167 HD
ATOM     42  C   UNL     1       1.742   5.109 -10.270  1.00  0.00     0.031 A 
ATOM     43  C   UNL     1      -2.176  -0.129 -12.611  1.00  0.00     0.031 A 
ATOM     44  C   UNL     1       2.061   4.645 -11.604  1.00  0.00     0.049 A 
ATOM     45  C   UNL     1      -1.149   0.503 -13.480  1.00  0.00     0.074 A 
ATOM     46  C   UNL     1       3.080   5.066 -12.448  1.00  0.00     0.029 A 
ATOM     47  N   UNL     1       1.364   3.665 -12.294  1.00  0.00    -0.354 N 
ATOM     48  N   UNL     1      -0.312   1.464 -13.188  1.00  0.00    -0.248 NA
ATOM     49  C   UNL     1      -1.059   0.002 -14.854  1.00  0.00     0.031 C 
ATOM     50  C   UNL     1       2.942   4.407 -13.675  1.00  0.00     0.029 A 
ATOM     51  C   UNL     1       1.894   3.509 -13.568  1.00  0.00     0.049 A 
ATOM     52  H   UNL     1       0.604   3.155 -11.934  1.00  0.00     0.167 HD
ATOM     53  C   UNL     1       0.422   1.678 -14.342  1.00  0.00     0.074 A 
ATOM     54  C   UNL     1      -0.059   0.729 -15.328  1.00  0.00     0.031 C 
ATOM     55  C   UNL     1       1.406   2.582 -14.557  1.00  0.00     0.031 A 
BRANCH  42  56
ATOM     56  C   UNL     1       2.583   6.246  -9.724  1.00  0.00    -0.014 A 
ATOM     57  C   UNL     1       3.511   6.069  -8.686  1.00  0.00     0.009 A 
ATOM     58  C   UNL     1       2.506   7.510 -10.340  1.00  0.00     0.009 A 
ATOM     59  C   UNL     1       4.312   7.137  -8.258  1.00  0.00     0.001 A 
ATOM     60  C   UNL     1       3.325   8.566  -9.931  1.00  0.00     0.001 A 
ATOM     61  C   UNL     1       4.221   8.382  -8.882  1.00  0.00     0.000 A 
ENDBRANCH  42  56
BRANCH  43  62
ATOM     62  C   UNL     1      -3.114  -1.165 -13.127  1.00  0.00    -0.014 A 
ATOM     63  C   UNL     1      -2.681  -2.471 -13.377  1.00  0.00     0.009 A 
ATOM     64  C   UNL     1      -4.480  -0.858 -13.287  1.00  0.00     0.009 A 
ATOM     65  C   UNL     1      -3.598  -3.450 -13.770  1.00  0.00     0.001 A 
ATOM     66  C   UNL     1      -5.400  -1.848 -13.627  1.00  0.00     0.001 A 
ATOM     67  C   UNL     1      -4.956  -3.143 -13.876  1.00  0.00     0.000 A 
ENDBRANCH  43  62
BRANCH  55  68
ATOM     68  C   UNL     1       2.061   2.544 -15.906  1.00  0.00    -0.014 A 
ATOM     69  C   UNL     1       1.382   2.959 -17.063  1.00  0.00     0.009 A 
ATOM     70  C   UNL     1       3.371   2.056 -16.023  1.00  0.00     0.009 A 
ATOM     71  C   UNL     1       1.988   2.843 -18.315  1.00  0.00     0.001 A 
ATOM     72  C   UNL     1       3.987   1.974 -17.271  1.00  0.00     0.001 A 
ATOM     73  C   UNL     1       3.290   2.355 -18.417  1.00  0.00     0.000 A 
ENDBRANCH  55  68
ENDBRANCH  29  30
ENDBRANCH  22  24
ENDBRANCH  21  22
ENDBRANCH  20  21
ENDBRANCH   1  20
TORSDOF 17
