REMARK SMILES CC(C)[C@@H](NC(=O)[C@H]1CCCO1)C(=O)OCCOC(=O)c1ccc(-c2c3nc(c(-c4ccccc4)c4ccc([nH]4)c(-c4ccccc4)c4nc(c(-c5ccccc5)c5ccc2[nH]5)C=C4)C=C3)cc1
REMARK SMILES IDX 16 1 15 2 13 3 14 4 4 5 2 6 1 7 3 8 5 9 6 10 7 12 8 13 9 14
REMARK SMILES IDX 12 15 10 16 11 17 17 18 18 19 19 20 20 21 21 22 22 23 68 24
REMARK SMILES IDX 23 25 67 26 24 27 25 28 26 29 61 30 27 31 66 32 60 33 62 34
REMARK SMILES IDX 28 35 65 36 59 37 58 38 29 40 51 41 36 42 50 43 37 44 40 45
REMARK SMILES IDX 49 46 63 47 38 48 39 49 48 51 64 52 41 53 30 54 31 55 35 56
REMARK SMILES IDX 32 57 34 58 33 59 52 60 53 61 57 62 54 63 56 64 55 65 42 66
REMARK SMILES IDX 43 67 47 68 44 69 46 70 45 71
REMARK H PARENT 5 11 62 39 40 50
REMARK Flexibility Score: inf
ROOT
ATOM      1  C   UNL     1       0.165   0.621  -1.966  1.00  0.00     0.274 C 
ENDROOT
BRANCH   1   2
ATOM      2  O   UNL     1      -1.139   0.076  -2.246  1.00  0.00    -0.461 OA
BRANCH   2   3
ATOM      3  C   UNL     1      -1.846   0.697  -3.228  1.00  0.00     0.329 C 
ATOM      4  O   UNL     1      -1.389   1.555  -3.975  1.00  0.00    -0.250 OA
BRANCH   3   5
ATOM      5  C   UNL     1      -3.346   0.405  -3.183  1.00  0.00     0.194 C 
BRANCH   5   6
ATOM      6  C   UNL     1      -3.735  -1.069  -2.923  1.00  0.00     0.017 C 
ATOM      7  C   UNL     1      -5.188  -1.317  -3.364  1.00  0.00     0.010 C 
ATOM      8  C   UNL     1      -2.850  -2.064  -3.688  1.00  0.00     0.010 C 
ENDBRANCH   5   6
BRANCH   5   9
ATOM      9  N   UNL     1      -3.906   1.368  -2.212  1.00  0.00    -0.340 N 
ATOM     10  C   UNL     1      -4.066   2.684  -2.621  1.00  0.00     0.249 C 
ATOM     11  H   UNL     1      -4.157   1.085  -1.304  1.00  0.00     0.164 HD
ATOM     12  O   UNL     1      -4.852   2.940  -3.531  1.00  0.00    -0.272 OA
BRANCH  10  13
ATOM     13  C   UNL     1      -3.286   3.766  -1.815  1.00  0.00     0.207 C 
ATOM     14  C   UNL     1      -1.881   4.046  -2.317  1.00  0.00     0.044 C 
ATOM     15  O   UNL     1      -3.932   5.047  -1.947  1.00  0.00    -0.368 OA
ATOM     16  C   UNL     1      -2.154   4.898  -3.530  1.00  0.00     0.032 C 
ATOM     17  C   UNL     1      -3.274   5.774  -3.007  1.00  0.00     0.161 C 
ENDBRANCH  10  13
ENDBRANCH   5   9
ENDBRANCH   3   5
ENDBRANCH   2   3
ENDBRANCH   1   2
BRANCH   1  18
ATOM     18  C   UNL     1       1.298   0.159  -2.892  1.00  0.00     0.275 C 
BRANCH  18  19
ATOM     19  O   UNL     1       1.119   0.554  -4.265  1.00  0.00    -0.458 OA
BRANCH  19  20
ATOM     20  C   UNL     1       0.521  -0.374  -5.045  1.00  0.00     0.338 C 
ATOM     21  O   UNL     1       0.198  -1.509  -4.718  1.00  0.00    -0.246 OA
BRANCH  20  22
ATOM     22  C   UNL     1       0.163   0.183  -6.359  1.00  0.00     0.060 A 
ATOM     23  C   UNL     1      -1.195   0.256  -6.698  1.00  0.00     0.016 A 
ATOM     24  C   UNL     1       1.144   0.493  -7.300  1.00  0.00     0.016 A 
ATOM     25  C   UNL     1      -1.583   0.617  -7.982  1.00  0.00     0.010 A 
ATOM     26  C   UNL     1       0.754   0.834  -8.599  1.00  0.00     0.010 A 
ATOM     27  C   UNL     1      -0.608   0.869  -8.950  1.00  0.00    -0.014 A 
BRANCH  27  28
ATOM     28  C   UNL     1      -1.014   1.025 -10.362  1.00  0.00     0.031 A 
ATOM     29  C   UNL     1      -0.910  -0.158 -11.281  1.00  0.00     0.074 A 
ATOM     30  C   UNL     1      -1.504   2.193 -10.808  1.00  0.00     0.049 A 
ATOM     31  N   UNL     1      -1.107  -0.224 -12.572  1.00  0.00    -0.248 NA
ATOM     32  C   UNL     1      -0.539  -1.440 -10.660  1.00  0.00     0.031 C 
ATOM     33  C   UNL     1      -1.740   3.381  -9.989  1.00  0.00     0.029 A 
ATOM     34  N   UNL     1      -1.887   2.569 -12.070  1.00  0.00    -0.354 N 
ATOM     35  C   UNL     1      -0.863  -1.545 -12.922  1.00  0.00     0.074 A 
ATOM     36  C   UNL     1      -0.497  -2.247 -11.710  1.00  0.00     0.031 C 
ATOM     37  C   UNL     1      -2.215   4.363 -10.775  1.00  0.00     0.029 A 
ATOM     38  C   UNL     1      -2.270   3.884 -12.154  1.00  0.00     0.049 A 
ATOM     39  H   UNL     1      -1.887   1.956 -12.840  1.00  0.00     0.167 HD
ATOM     40  C   UNL     1      -0.930  -2.120 -14.146  1.00  0.00     0.031 A 
ATOM     41  C   UNL     1      -2.593   4.625 -13.230  1.00  0.00     0.031 A 
ATOM     42  C   UNL     1      -1.283  -1.415 -15.348  1.00  0.00     0.049 A 
ATOM     43  C   UNL     1      -2.564   3.989 -14.594  1.00  0.00     0.074 A 
ATOM     44  C   UNL     1      -1.363  -1.899 -16.642  1.00  0.00     0.029 A 
ATOM     45  N   UNL     1      -1.613  -0.070 -15.401  1.00  0.00    -0.354 N 
ATOM     46  N   UNL     1      -2.299   2.748 -14.922  1.00  0.00    -0.248 NA
ATOM     47  C   UNL     1      -2.873   4.862 -15.736  1.00  0.00     0.031 C 
ATOM     48  C   UNL     1      -1.699  -0.834 -17.485  1.00  0.00     0.029 A 
ATOM     49  C   UNL     1      -1.876   0.300 -16.709  1.00  0.00     0.049 A 
ATOM     50  H   UNL     1      -1.654   0.533 -14.624  1.00  0.00     0.167 HD
ATOM     51  C   UNL     1      -2.430   2.684 -16.303  1.00  0.00     0.074 A 
ATOM     52  C   UNL     1      -2.810   4.009 -16.749  1.00  0.00     0.031 C 
ATOM     53  C   UNL     1      -2.251   1.625 -17.129  1.00  0.00     0.031 A 
BRANCH  40  54
ATOM     54  C   UNL     1      -0.562  -3.572 -14.245  1.00  0.00    -0.014 A 
ATOM     55  C   UNL     1      -1.421  -4.578 -13.777  1.00  0.00     0.009 A 
ATOM     56  C   UNL     1       0.660  -3.937 -14.830  1.00  0.00     0.009 A 
ATOM     57  C   UNL     1      -1.048  -5.921 -13.867  1.00  0.00     0.001 A 
ATOM     58  C   UNL     1       1.019  -5.281 -14.941  1.00  0.00     0.001 A 
ATOM     59  C   UNL     1       0.169  -6.272 -14.451  1.00  0.00     0.000 A 
ENDBRANCH  40  54
BRANCH  41  60
ATOM     60  C   UNL     1      -2.922   6.064 -13.071  1.00  0.00    -0.014 A 
ATOM     61  C   UNL     1      -4.230   6.527 -13.278  1.00  0.00     0.009 A 
ATOM     62  C   UNL     1      -1.923   6.987 -12.722  1.00  0.00     0.009 A 
ATOM     63  C   UNL     1      -4.526   7.887 -13.158  1.00  0.00     0.001 A 
ATOM     64  C   UNL     1      -2.227   8.341 -12.576  1.00  0.00     0.001 A 
ATOM     65  C   UNL     1      -3.526   8.792 -12.803  1.00  0.00     0.000 A 
ENDBRANCH  41  60
BRANCH  53  66
ATOM     66  C   UNL     1      -2.498   1.850 -18.593  1.00  0.00    -0.014 A 
ATOM     67  C   UNL     1      -1.578   2.553 -19.385  1.00  0.00     0.009 A 
ATOM     68  C   UNL     1      -3.650   1.317 -19.192  1.00  0.00     0.009 A 
ATOM     69  C   UNL     1      -1.823   2.743 -20.747  1.00  0.00     0.001 A 
ATOM     70  C   UNL     1      -3.879   1.488 -20.558  1.00  0.00     0.001 A 
ATOM     71  C   UNL     1      -2.970   2.207 -21.332  1.00  0.00     0.000 A 
ENDBRANCH  53  66
ENDBRANCH  27  28
ENDBRANCH  20  22
ENDBRANCH  19  20
ENDBRANCH  18  19
ENDBRANCH   1  18
TORSDOF 14
