REMARK SMILES O=C(Cc1c(C(=O)c2cc3c(cn2)CCCC3)[nH]c2cc(Cl)ccc12)OCCOC(=O)c1ccc(-c2c3nc(c(-c4ccccc4)c4ccc([nH]4)c(-c4ccccc4)c4nc(c(-c5ccccc5)c5ccc2[nH]5)C=C4)C=C3)cc1
REMARK SMILES IDX 27 1 26 2 2 3 1 4 3 5 4 6 5 7 25 8 18 9 19 10 24 11 20 13
REMARK SMILES IDX 23 14 21 15 22 16 6 17 7 18 8 19 9 20 13 21 10 22 12 23
REMARK SMILES IDX 11 24 17 25 14 26 16 27 15 28 28 29 29 30 30 31 31 32 32 33
REMARK SMILES IDX 33 34 79 35 34 36 78 37 35 38 36 39 37 40 72 41 38 42 77 43
REMARK SMILES IDX 71 44 73 45 39 46 76 47 70 48 69 49 40 51 62 52 47 53 61 54
REMARK SMILES IDX 48 55 51 56 60 57 74 58 49 59 50 60 59 62 75 63 52 64 41 65
REMARK SMILES IDX 42 66 46 67 43 68 45 69 44 70 63 71 64 72 68 73 65 74 67 75
REMARK SMILES IDX 66 76 53 77 54 78 58 79 55 80 57 81 56 82
REMARK H PARENT 18 12 73 50 51 61
REMARK Flexibility Score: inf
ROOT
ATOM      1  C   UNL     1       4.491  -0.950  -0.654  1.00  0.00     0.274 C 
ENDROOT
BRANCH   1   2
ATOM      2  O   UNL     1       3.179  -1.106  -0.068  1.00  0.00    -0.462 OA
BRANCH   2   3
ATOM      3  C   UNL     1       2.550  -0.182   0.700  1.00  0.00     0.310 C 
ATOM      4  O   UNL     1       1.551  -0.497   1.345  1.00  0.00    -0.252 OA
BRANCH   3   5
ATOM      5  C   UNL     1       3.089   1.221   0.728  1.00  0.00     0.161 C 
BRANCH   5   6
ATOM      6  C   UNL     1       4.070   1.568   1.812  1.00  0.00     0.000 A 
ATOM      7  C   UNL     1       4.548   2.865   2.018  1.00  0.00     0.093 A 
ATOM      8  C   UNL     1       4.782   0.713   2.717  1.00  0.00     0.004 A 
ATOM      9  N   UNL     1       5.354   2.827   3.127  1.00  0.00    -0.351 N 
ATOM     10  C   UNL     1       5.623   1.528   3.474  1.00  0.00     0.048 A 
ATOM     11  C   UNL     1       4.838  -0.680   2.941  1.00  0.00     0.012 A 
ATOM     12  H   UNL     1       5.692   3.619   3.605  1.00  0.00     0.167 HD
ATOM     13  C   UNL     1       6.548   1.030   4.398  1.00  0.00     0.047 A 
ATOM     14  C   UNL     1       5.777  -1.202   3.841  1.00  0.00     0.021 A 
ATOM     15  C   UNL     1       6.625  -0.355   4.544  1.00  0.00     0.043 A 
ATOM     16  Cl  UNL     1       7.805  -1.022   5.606  1.00  0.00    -0.084 Cl
BRANCH   7  17
ATOM     17  C   UNL     1       4.292   4.052   1.221  1.00  0.00     0.227 C 
ATOM     18  O   UNL     1       3.701   4.035   0.146  1.00  0.00    -0.285 OA
BRANCH  17  19
ATOM     19  C   UNL     1       4.834   5.344   1.686  1.00  0.00     0.113 A 
ATOM     20  C   UNL     1       6.108   5.737   1.294  1.00  0.00     0.036 A 
ATOM     21  N   UNL     1       4.032   6.049   2.513  1.00  0.00    -0.252 NA
ATOM     22  C   UNL     1       6.579   6.974   1.739  1.00  0.00    -0.041 A 
ATOM     23  C   UNL     1       4.491   7.258   2.886  1.00  0.00     0.115 A 
ATOM     24  C   UNL     1       5.733   7.774   2.520  1.00  0.00    -0.026 A 
ATOM     25  C   UNL     1       8.003   7.387   1.463  1.00  0.00     0.036 C 
ATOM     26  C   UNL     1       6.102   9.190   2.866  1.00  0.00     0.037 C 
ATOM     27  C   UNL     1       8.255   8.885   1.631  1.00  0.00     0.005 C 
ATOM     28  C   UNL     1       7.607   9.418   2.904  1.00  0.00     0.005 C 
ENDBRANCH  17  19
ENDBRANCH   7  17
ENDBRANCH   5   6
ENDBRANCH   3   5
ENDBRANCH   2   3
ENDBRANCH   1   2
BRANCH   1  29
ATOM     29  C   UNL     1       4.406  -0.782  -2.171  1.00  0.00     0.275 C 
BRANCH  29  30
ATOM     30  O   UNL     1       4.018   0.565  -2.498  1.00  0.00    -0.458 OA
BRANCH  30  31
ATOM     31  C   UNL     1       2.695   0.774  -2.715  1.00  0.00     0.338 C 
ATOM     32  O   UNL     1       1.829  -0.079  -2.787  1.00  0.00    -0.246 OA
BRANCH  31  33
ATOM     33  C   UNL     1       2.418   2.231  -2.654  1.00  0.00     0.060 A 
ATOM     34  C   UNL     1       3.366   3.179  -3.050  1.00  0.00     0.016 A 
ATOM     35  C   UNL     1       1.191   2.650  -2.123  1.00  0.00     0.016 A 
ATOM     36  C   UNL     1       3.087   4.541  -2.904  1.00  0.00     0.010 A 
ATOM     37  C   UNL     1       0.909   4.014  -1.989  1.00  0.00     0.010 A 
ATOM     38  C   UNL     1       1.854   4.973  -2.378  1.00  0.00    -0.014 A 
BRANCH  38  39
ATOM     39  C   UNL     1       1.506   6.416  -2.418  1.00  0.00     0.031 A 
ATOM     40  C   UNL     1       1.417   7.282  -1.193  1.00  0.00     0.074 A 
ATOM     41  C   UNL     1       1.208   6.948  -3.620  1.00  0.00     0.049 A 
ATOM     42  N   UNL     1       1.300   8.587  -1.133  1.00  0.00    -0.248 NA
ATOM     43  C   UNL     1       1.442   6.626   0.121  1.00  0.00     0.031 C 
ATOM     44  C   UNL     1       1.152   6.198  -4.876  1.00  0.00     0.029 A 
ATOM     45  N   UNL     1       0.882   8.231  -3.979  1.00  0.00    -0.354 N 
ATOM     46  C   UNL     1       1.266   8.910   0.217  1.00  0.00     0.074 A 
ATOM     47  C   UNL     1       1.318   7.662   0.946  1.00  0.00     0.031 C 
ATOM     48  C   UNL     1       0.808   7.033  -5.867  1.00  0.00     0.029 A 
ATOM     49  C   UNL     1       0.609   8.371  -5.317  1.00  0.00     0.049 A 
ATOM     50  H   UNL     1       0.848   8.979  -3.340  1.00  0.00     0.167 HD
ATOM     51  C   UNL     1       1.240  10.143   0.779  1.00  0.00     0.031 A 
ATOM     52  C   UNL     1       0.237   9.449  -6.033  1.00  0.00     0.031 A 
ATOM     53  C   UNL     1       1.238  11.371   0.033  1.00  0.00     0.049 A 
ATOM     54  C   UNL     1       0.159  10.791  -5.368  1.00  0.00     0.074 A 
ATOM     55  C   UNL     1       1.485  12.653   0.494  1.00  0.00     0.029 A 
ATOM     56  N   UNL     1       0.927  11.477  -1.309  1.00  0.00    -0.354 N 
ATOM     57  N   UNL     1       0.446  11.110  -4.130  1.00  0.00    -0.248 NA
ATOM     58  C   UNL     1      -0.267  11.927  -6.197  1.00  0.00     0.031 C 
ATOM     59  C   UNL     1       1.236  13.544  -0.551  1.00  0.00     0.029 A 
ATOM     60  C   UNL     1       0.877  12.812  -1.671  1.00  0.00     0.049 A 
ATOM     61  H   UNL     1       0.766  10.719  -1.915  1.00  0.00     0.167 HD
ATOM     62  C   UNL     1       0.273  12.484  -4.041  1.00  0.00     0.074 A 
ATOM     63  C   UNL     1      -0.146  12.941  -5.349  1.00  0.00     0.031 C 
ATOM     64  C   UNL     1       0.461  13.285  -2.965  1.00  0.00     0.031 A 
BRANCH  51  65
ATOM     65  C   UNL     1       1.320  10.281   2.271  1.00  0.00    -0.014 A 
ATOM     66  C   UNL     1       0.217  10.701   3.026  1.00  0.00     0.009 A 
ATOM     67  C   UNL     1       2.574  10.220   2.890  1.00  0.00     0.009 A 
ATOM     68  C   UNL     1       0.371  11.036   4.375  1.00  0.00     0.001 A 
ATOM     69  C   UNL     1       2.725  10.533   4.242  1.00  0.00     0.001 A 
ATOM     70  C   UNL     1       1.623  10.945   4.984  1.00  0.00     0.000 A 
ENDBRANCH  51  65
BRANCH  52  71
ATOM     71  C   UNL     1      -0.056   9.279  -7.478  1.00  0.00    -0.014 A 
ATOM     72  C   UNL     1      -1.187   8.550  -7.886  1.00  0.00     0.009 A 
ATOM     73  C   UNL     1       0.825   9.770  -8.450  1.00  0.00     0.009 A 
ATOM     74  C   UNL     1      -1.413   8.293  -9.239  1.00  0.00     0.001 A 
ATOM     75  C   UNL     1       0.580   9.535  -9.805  1.00  0.00     0.001 A 
ATOM     76  C   UNL     1      -0.531   8.788 -10.197  1.00  0.00     0.000 A 
ENDBRANCH  52  71
BRANCH  64  77
ATOM     77  C   UNL     1       0.219  14.759  -3.119  1.00  0.00    -0.014 A 
ATOM     78  C   UNL     1       1.294  15.659  -3.035  1.00  0.00     0.009 A 
ATOM     79  C   UNL     1      -1.085  15.265  -3.219  1.00  0.00     0.009 A 
ATOM     80  C   UNL     1       1.067  17.036  -3.016  1.00  0.00     0.001 A 
ATOM     81  C   UNL     1      -1.307  16.643  -3.232  1.00  0.00     0.001 A 
ATOM     82  C   UNL     1      -0.234  17.527  -3.117  1.00  0.00     0.000 A 
ENDBRANCH  64  77
ENDBRANCH  38  39
ENDBRANCH  31  33
ENDBRANCH  30  31
ENDBRANCH  29  30
ENDBRANCH   1  29
TORSDOF 14
