REMARK SMILES Cc1ccc(CCC(=O)N2CCC3(CC2)[C@H](C(=O)OCCOC(=O)c2ccc(-c4c5nc(c(-c6ccccc6)c6ccc([nH]6)c(-c6ccccc6)c6nc(c(-c7ccccc7)c7ccc4[nH]7)C=C6)C=C5)cc2)CC(=O)N3C)cc1
REMARK SMILES IDX 20 1 19 2 17 3 18 4 16 5 8 6 9 7 10 8 11 9 15 10 12 11 14 12
REMARK SMILES IDX 13 13 76 14 73 15 74 16 77 17 75 18 7 19 6 20 5 21 1 22 2 23
REMARK SMILES IDX 3 24 79 25 4 26 78 27 21 28 22 29 23 30 24 31 25 32 26 33
REMARK SMILES IDX 72 34 27 35 71 36 28 37 29 38 30 39 65 40 31 41 70 42 64 43
REMARK SMILES IDX 66 44 32 45 69 46 63 47 62 48 33 50 55 51 40 52 54 53 41 54
REMARK SMILES IDX 44 55 53 56 67 57 42 58 43 59 52 61 68 62 45 63 34 64 35 65
REMARK SMILES IDX 39 66 36 67 38 68 37 69 56 70 57 71 61 72 58 73 60 74 59 75
REMARK SMILES IDX 46 76 47 77 51 78 48 79 50 80 49 81
REMARK H PARENT 66 49 44 60
REMARK Flexibility Score: inf
ROOT
ATOM      1  C   UNL     1       0.418  -3.759  -6.292  1.00  0.00     0.274 C 
ENDROOT
BRANCH   1   2
ATOM      2  O   UNL     1       1.142  -3.656  -5.034  1.00  0.00    -0.462 OA
BRANCH   2   3
ATOM      3  C   UNL     1       0.636  -2.885  -4.063  1.00  0.00     0.311 C 
ATOM      4  O   UNL     1      -0.428  -2.279  -4.146  1.00  0.00    -0.252 OA
BRANCH   3   5
ATOM      5  C   UNL     1       1.362  -2.827  -2.764  1.00  0.00     0.134 C 
ATOM      6  C   UNL     1      -3.398  -2.235  -1.193  1.00  0.00     0.222 C 
ATOM      7  O   UNL     1      -4.434  -2.776  -1.590  1.00  0.00    -0.275 OA
ATOM      8  N   UNL     1      -2.271  -2.994  -0.914  1.00  0.00    -0.343 N 
ATOM      9  C   UNL     1      -2.048  -4.323  -1.454  1.00  0.00     0.122 C 
ATOM     10  C   UNL     1      -1.230  -2.588  -0.028  1.00  0.00     0.122 C 
ATOM     11  C   UNL     1      -0.693  -4.403  -2.185  1.00  0.00     0.051 C 
ATOM     12  C   UNL     1       0.006  -2.275  -0.814  1.00  0.00     0.051 C 
ATOM     13  C   UNL     1       0.484  -3.476  -1.656  1.00  0.00     0.060 C 
ATOM     14  N   UNL     1       1.480  -4.296  -0.940  1.00  0.00    -0.339 N 
ATOM     15  C   UNL     1       2.798  -3.252  -2.563  1.00  0.00     0.118 C 
ATOM     16  C   UNL     1       2.752  -4.265  -1.476  1.00  0.00     0.223 C 
ATOM     17  C   UNL     1       1.256  -4.960   0.323  1.00  0.00     0.147 C 
ATOM     18  O   UNL     1       3.728  -4.893  -1.070  1.00  0.00    -0.275 OA
BRANCH   6  19
ATOM     19  C   UNL     1      -3.311  -0.684  -1.174  1.00  0.00     0.105 C 
BRANCH  19  20
ATOM     20  C   UNL     1      -3.285   0.123   0.149  1.00  0.00     0.045 C 
BRANCH  20  21
ATOM     21  C   UNL     1      -1.906   0.649   0.536  1.00  0.00    -0.047 A 
ATOM     22  C   UNL     1       2.372   0.840   0.708  1.00  0.00     0.044 C 
ATOM     23  C   UNL     1       0.876   0.935   0.781  1.00  0.00    -0.051 A 
ATOM     24  C   UNL     1       0.156   0.227   1.746  1.00  0.00     0.004 A 
ATOM     25  C   UNL     1       0.174   1.669  -0.181  1.00  0.00     0.004 A 
ATOM     26  C   UNL     1      -1.236   0.137   1.658  1.00  0.00     0.004 A 
ATOM     27  C   UNL     1      -1.210   1.519  -0.311  1.00  0.00     0.004 A 
ENDBRANCH  20  21
ENDBRANCH  19  20
ENDBRANCH   6  19
ENDBRANCH   3   5
ENDBRANCH   2   3
ENDBRANCH   1   2
BRANCH   1  28
ATOM     28  C   UNL     1      -0.863  -2.906  -6.609  1.00  0.00     0.275 C 
BRANCH  28  29
ATOM     29  O   UNL     1      -0.973  -1.429  -6.737  1.00  0.00    -0.458 OA
BRANCH  29  30
ATOM     30  C   UNL     1      -0.448  -0.427  -5.969  1.00  0.00     0.338 C 
ATOM     31  O   UNL     1      -1.081   0.523  -5.532  1.00  0.00    -0.246 OA
BRANCH  30  32
ATOM     32  C   UNL     1       1.014  -0.487  -5.861  1.00  0.00     0.060 A 
ATOM     33  C   UNL     1       1.754  -0.016  -4.757  1.00  0.00     0.016 A 
ATOM     34  C   UNL     1       1.615  -1.212  -6.865  1.00  0.00     0.016 A 
ATOM     35  C   UNL     1       3.107  -0.356  -4.656  1.00  0.00     0.010 A 
ATOM     36  C   UNL     1       2.803  -1.808  -6.591  1.00  0.00     0.010 A 
ATOM     37  C   UNL     1       3.606  -1.273  -5.582  1.00  0.00    -0.014 A 
BRANCH  37  38
ATOM     38  C   UNL     1       4.993  -1.462  -5.976  1.00  0.00     0.031 A 
ATOM     39  C   UNL     1       5.818  -2.497  -5.331  1.00  0.00     0.074 A 
ATOM     40  C   UNL     1       5.195  -0.880  -7.189  1.00  0.00     0.049 A 
ATOM     41  N   UNL     1       7.021  -2.334  -4.889  1.00  0.00    -0.248 NA
ATOM     42  C   UNL     1       5.284  -3.840  -5.057  1.00  0.00     0.031 C 
ATOM     43  C   UNL     1       6.164  -1.116  -8.234  1.00  0.00     0.029 A 
ATOM     44  N   UNL     1       4.386   0.101  -7.788  1.00  0.00    -0.354 N 
ATOM     45  C   UNL     1       7.496  -3.621  -4.689  1.00  0.00     0.074 A 
ATOM     46  C   UNL     1       6.332  -4.453  -4.494  1.00  0.00     0.031 C 
ATOM     47  C   UNL     1       6.130  -0.067  -9.090  1.00  0.00     0.029 A 
ATOM     48  C   UNL     1       5.182   0.914  -8.564  1.00  0.00     0.049 A 
ATOM     49  H   UNL     1       3.412   0.191  -7.672  1.00  0.00     0.167 HD
ATOM     50  C   UNL     1       8.678  -4.017  -5.252  1.00  0.00     0.031 A 
ATOM     51  C   UNL     1       5.444   2.179  -8.112  1.00  0.00     0.031 A 
ATOM     52  C   UNL     1       9.118  -3.028  -6.229  1.00  0.00     0.049 A 
ATOM     53  C   UNL     1       6.883   2.209  -7.650  1.00  0.00     0.074 A 
ATOM     54  C   UNL     1       9.039  -3.021  -7.612  1.00  0.00     0.029 A 
ATOM     55  N   UNL     1       9.384  -1.727  -5.837  1.00  0.00    -0.354 N 
ATOM     56  N   UNL     1       7.495   1.187  -7.113  1.00  0.00    -0.248 NA
ATOM     57  C   UNL     1       7.763   3.350  -7.869  1.00  0.00     0.031 C 
ATOM     58  C   UNL     1       9.252  -1.690  -8.051  1.00  0.00     0.029 A 
ATOM     59  C   UNL     1       9.418  -0.889  -6.932  1.00  0.00     0.049 A 
ATOM     60  H   UNL     1       9.528  -1.440  -4.906  1.00  0.00     0.167 HD
ATOM     61  C   UNL     1       8.837   1.447  -7.075  1.00  0.00     0.074 A 
ATOM     62  C   UNL     1       8.948   2.833  -7.503  1.00  0.00     0.031 C 
ATOM     63  C   UNL     1       9.777   0.508  -6.767  1.00  0.00     0.031 A 
BRANCH  50  64
ATOM     64  C   UNL     1       9.217  -5.432  -5.245  1.00  0.00    -0.014 A 
ATOM     65  C   UNL     1      10.150  -5.828  -6.224  1.00  0.00     0.009 A 
ATOM     66  C   UNL     1       8.911  -6.388  -4.260  1.00  0.00     0.009 A 
ATOM     67  C   UNL     1      10.703  -7.113  -6.260  1.00  0.00     0.001 A 
ATOM     68  C   UNL     1       9.449  -7.686  -4.300  1.00  0.00     0.001 A 
ATOM     69  C   UNL     1      10.344  -8.049  -5.301  1.00  0.00     0.000 A 
ENDBRANCH  50  64
BRANCH  51  70
ATOM     70  C   UNL     1       4.282   2.832  -7.405  1.00  0.00    -0.014 A 
ATOM     71  C   UNL     1       3.080   3.008  -8.133  1.00  0.00     0.009 A 
ATOM     72  C   UNL     1       4.215   2.958  -6.009  1.00  0.00     0.009 A 
ATOM     73  C   UNL     1       1.847   3.174  -7.487  1.00  0.00     0.001 A 
ATOM     74  C   UNL     1       2.978   3.159  -5.366  1.00  0.00     0.001 A 
ATOM     75  C   UNL     1       1.794   3.229  -6.100  1.00  0.00     0.000 A 
ENDBRANCH  51  70
BRANCH  63  76
ATOM     76  C   UNL     1      11.193   0.803  -6.355  1.00  0.00    -0.014 A 
ATOM     77  C   UNL     1      11.612   2.052  -5.891  1.00  0.00     0.009 A 
ATOM     78  C   UNL     1      12.119  -0.262  -6.255  1.00  0.00     0.009 A 
ATOM     79  C   UNL     1      12.909   2.244  -5.409  1.00  0.00     0.001 A 
ATOM     80  C   UNL     1      13.388  -0.090  -5.708  1.00  0.00     0.001 A 
ATOM     81  C   UNL     1      13.790   1.172  -5.303  1.00  0.00     0.000 A 
ENDBRANCH  63  76
ENDBRANCH  37  38
ENDBRANCH  30  32
ENDBRANCH  29  30
ENDBRANCH  28  29
ENDBRANCH   1  28
TORSDOF 14
