REMARK SMILES CCOc1cc(OCC)cc(-c2ccc([C@@H](C)C(=O)OCCOC(=O)c3ccc(-c4c5nc(c(-c6ccccc6)c6ccc([nH]6)c(-c6ccccc6)c6nc(c(-c7ccccc7)c7ccc4[nH]7)C=C6)C=C5)cc3)cc2)c1
REMARK SMILES IDX 21 1 20 2 18 3 19 4 16 5 17 6 15 7 12 8 13 9 75 10 14 11
REMARK SMILES IDX 74 12 11 13 4 14 5 15 76 16 6 17 10 18 3 19 2 20 1 21 7 22
REMARK SMILES IDX 8 23 9 24 22 25 23 26 24 27 25 28 26 29 27 30 73 31 28 32
REMARK SMILES IDX 72 33 29 34 30 35 31 36 66 37 32 38 71 39 65 40 67 41 33 42
REMARK SMILES IDX 70 43 64 44 63 45 34 47 56 48 41 49 55 50 42 51 45 52 54 53
REMARK SMILES IDX 68 54 43 55 44 56 53 58 69 59 46 60 35 61 36 62 40 63 37 64
REMARK SMILES IDX 39 65 38 66 57 67 58 68 62 69 59 70 61 71 60 72 47 73 48 74
REMARK SMILES IDX 52 75 49 76 51 77 50 78
REMARK H PARENT 67 46 45 57
REMARK Flexibility Score: inf
ROOT
ATOM      1  C   UNL     1       8.677  -4.064   1.168  1.00  0.00     0.274 C 
ENDROOT
BRANCH   1   2
ATOM      2  O   UNL     1       8.613  -3.110   0.092  1.00  0.00    -0.462 OA
BRANCH   2   3
ATOM      3  C   UNL     1       8.804  -3.582  -1.167  1.00  0.00     0.313 C 
ATOM      4  O   UNL     1       9.136  -4.733  -1.432  1.00  0.00    -0.252 OA
BRANCH   3   5
ATOM      5  C   UNL     1       8.602  -2.527  -2.250  1.00  0.00     0.126 C 
ATOM      6  C   UNL     1       9.945  -1.921  -2.650  1.00  0.00     0.025 C 
BRANCH   5   7
ATOM      7  C   UNL     1       7.559  -1.465  -1.944  1.00  0.00    -0.034 A 
ATOM      8  C   UNL     1       5.613   0.532  -1.430  1.00  0.00    -0.018 A 
ATOM      9  C   UNL     1       6.798   0.462  -0.680  1.00  0.00     0.009 A 
ATOM     10  C   UNL     1       5.404  -0.430  -2.425  1.00  0.00     0.009 A 
ATOM     11  C   UNL     1       7.761  -0.511  -0.940  1.00  0.00     0.005 A 
ATOM     12  C   UNL     1       6.364  -1.416  -2.679  1.00  0.00     0.005 A 
BRANCH   8  13
ATOM     13  C   UNL     1       4.659   1.624  -1.193  1.00  0.00    -0.011 A 
ATOM     14  C   UNL     1       2.435   2.452  -0.700  1.00  0.00     0.123 A 
ATOM     15  C   UNL     1       2.913   3.763  -0.683  1.00  0.00     0.092 A 
ATOM     16  C   UNL     1       3.297   1.390  -0.974  1.00  0.00     0.055 A 
ATOM     17  C   UNL     1       4.261   4.022  -0.929  1.00  0.00     0.123 A 
ATOM     18  C   UNL     1       5.118   2.952  -1.181  1.00  0.00     0.055 A 
BRANCH  14  19
ATOM     19  O   UNL     1       1.088   2.257  -0.562  1.00  0.00    -0.494 OA
BRANCH  19  20
ATOM     20  C   UNL     1       0.729   1.543   0.628  1.00  0.00     0.226 C 
ATOM     21  C   UNL     1       0.542   0.059   0.356  1.00  0.00     0.049 C 
ENDBRANCH  19  20
ENDBRANCH  14  19
BRANCH  17  22
ATOM     22  O   UNL     1       4.643   5.335  -0.875  1.00  0.00    -0.494 OA
BRANCH  22  23
ATOM     23  C   UNL     1       5.896   5.687  -1.469  1.00  0.00     0.226 C 
ATOM     24  C   UNL     1       7.035   5.611  -0.462  1.00  0.00     0.049 C 
ENDBRANCH  22  23
ENDBRANCH  17  22
ENDBRANCH   8  13
ENDBRANCH   5   7
ENDBRANCH   3   5
ENDBRANCH   2   3
ENDBRANCH   1   2
BRANCH   1  25
ATOM     25  C   UNL     1       7.275  -4.509   1.584  1.00  0.00     0.275 C 
BRANCH  25  26
ATOM     26  O   UNL     1       6.675  -5.321   0.559  1.00  0.00    -0.458 OA
BRANCH  26  27
ATOM     27  C   UNL     1       5.793  -4.685  -0.244  1.00  0.00     0.338 C 
ATOM     28  O   UNL     1       5.404  -3.535  -0.171  1.00  0.00    -0.246 OA
BRANCH  27  29
ATOM     29  C   UNL     1       5.382  -5.602  -1.312  1.00  0.00     0.060 A 
ATOM     30  C   UNL     1       5.905  -5.430  -2.597  1.00  0.00     0.016 A 
ATOM     31  C   UNL     1       4.420  -6.577  -1.056  1.00  0.00     0.016 A 
ATOM     32  C   UNL     1       5.458  -6.231  -3.644  1.00  0.00     0.010 A 
ATOM     33  C   UNL     1       3.982  -7.387  -2.103  1.00  0.00     0.010 A 
ATOM     34  C   UNL     1       4.487  -7.210  -3.404  1.00  0.00    -0.014 A 
BRANCH  34  35
ATOM     35  C   UNL     1       3.940  -8.029  -4.508  1.00  0.00     0.031 A 
ATOM     36  C   UNL     1       2.537  -7.783  -4.978  1.00  0.00     0.074 A 
ATOM     37  C   UNL     1       4.675  -9.018  -5.044  1.00  0.00     0.049 A 
ATOM     38  N   UNL     1       1.788  -8.512  -5.763  1.00  0.00    -0.248 NA
ATOM     39  C   UNL     1       1.889  -6.555  -4.488  1.00  0.00     0.031 C 
ATOM     40  C   UNL     1       6.070  -9.315  -4.714  1.00  0.00     0.029 A 
ATOM     41  N   UNL     1       4.335  -9.977  -5.965  1.00  0.00    -0.354 N 
ATOM     42  C   UNL     1       0.568  -7.852  -5.834  1.00  0.00     0.074 A 
ATOM     43  C   UNL     1       0.676  -6.667  -5.011  1.00  0.00     0.031 C 
ATOM     44  C   UNL     1       6.461 -10.396  -5.409  1.00  0.00     0.029 A 
ATOM     45  C   UNL     1       5.329 -10.899  -6.182  1.00  0.00     0.049 A 
ATOM     46  H   UNL     1       3.465 -10.001  -6.424  1.00  0.00     0.167 HD
ATOM     47  C   UNL     1      -0.543  -8.213  -6.517  1.00  0.00     0.031 A 
ATOM     48  C   UNL     1       5.311 -12.048  -6.884  1.00  0.00     0.031 A 
ATOM     49  C   UNL     1      -0.640  -9.393  -7.332  1.00  0.00     0.049 A 
ATOM     50  C   UNL     1       4.043 -12.466  -7.574  1.00  0.00     0.074 A 
ATOM     51  C   UNL     1      -1.721  -9.849  -8.067  1.00  0.00     0.029 A 
ATOM     52  N   UNL     1       0.387 -10.306  -7.519  1.00  0.00    -0.354 N 
ATOM     53  N   UNL     1       2.886 -11.851  -7.619  1.00  0.00    -0.248 NA
ATOM     54  C   UNL     1       4.076 -13.741  -8.305  1.00  0.00     0.031 C 
ATOM     55  C   UNL     1      -1.359 -11.060  -8.667  1.00  0.00     0.029 A 
ATOM     56  C   UNL     1      -0.039 -11.331  -8.345  1.00  0.00     0.049 A 
ATOM     57  H   UNL     1       1.285 -10.234  -7.123  1.00  0.00     0.167 HD
ATOM     58  C   UNL     1       2.064 -12.646  -8.406  1.00  0.00     0.074 A 
ATOM     59  C   UNL     1       2.854 -13.787  -8.820  1.00  0.00     0.031 C 
ATOM     60  C   UNL     1       0.770 -12.447  -8.758  1.00  0.00     0.031 A 
BRANCH  47  61
ATOM     61  C   UNL     1      -1.758  -7.342  -6.371  1.00  0.00    -0.014 A 
ATOM     62  C   UNL     1      -1.833  -6.082  -6.985  1.00  0.00     0.009 A 
ATOM     63  C   UNL     1      -2.855  -7.804  -5.628  1.00  0.00     0.009 A 
ATOM     64  C   UNL     1      -2.974  -5.290  -6.831  1.00  0.00     0.001 A 
ATOM     65  C   UNL     1      -4.003  -7.021  -5.496  1.00  0.00     0.001 A 
ATOM     66  C   UNL     1      -4.058  -5.761  -6.091  1.00  0.00     0.000 A 
ENDBRANCH  47  61
BRANCH  48  67
ATOM     67  C   UNL     1       6.523 -12.905  -6.933  1.00  0.00    -0.014 A 
ATOM     68  C   UNL     1       7.264 -13.024  -8.118  1.00  0.00     0.009 A 
ATOM     69  C   UNL     1       6.946 -13.608  -5.794  1.00  0.00     0.009 A 
ATOM     70  C   UNL     1       8.394 -13.845  -8.165  1.00  0.00     0.001 A 
ATOM     71  C   UNL     1       8.091 -14.406  -5.837  1.00  0.00     0.001 A 
ATOM     72  C   UNL     1       8.809 -14.530  -7.024  1.00  0.00     0.000 A 
ENDBRANCH  48  67
BRANCH  60  73
ATOM     73  C   UNL     1       0.144 -13.451  -9.681  1.00  0.00    -0.014 A 
ATOM     74  C   UNL     1      -0.273 -14.708  -9.218  1.00  0.00     0.009 A 
ATOM     75  C   UNL     1      -0.092 -13.102 -11.020  1.00  0.00     0.009 A 
ATOM     76  C   UNL     1      -0.898 -15.604 -10.088  1.00  0.00     0.001 A 
ATOM     77  C   UNL     1      -0.737 -13.990 -11.880  1.00  0.00     0.001 A 
ATOM     78  C   UNL     1      -1.135 -15.242 -11.414  1.00  0.00     0.000 A 
ENDBRANCH  60  73
ENDBRANCH  34  35
ENDBRANCH  27  29
ENDBRANCH  26  27
ENDBRANCH  25  26
ENDBRANCH   1  25
TORSDOF 17
