REMARK SMILES O=C(/C=C\N1[C@@H]2CC[C@H]1C[C@H](O)C2)OCCOC(=O)c1ccc(-c2c3nc(c(-c4ccccc4)c4ccc([nH]4)c(-c4ccccc4)c4nc(c(-c5ccccc5)c5ccc2[nH]5)C=C4)C=C3)cc1
REMARK SMILES IDX 15 1 14 2 2 3 1 4 3 5 4 6 5 7 6 8 9 9 7 10 13 11 8 12 10 13
REMARK SMILES IDX 11 14 12 15 16 17 17 18 18 19 19 20 20 21 21 22 67 23 22 24
REMARK SMILES IDX 66 25 23 26 24 27 25 28 60 29 26 30 65 31 59 32 61 33 27 34
REMARK SMILES IDX 64 35 58 36 57 37 28 39 50 40 35 41 49 42 36 43 39 44 48 45
REMARK SMILES IDX 62 46 37 47 38 48 47 50 63 51 40 52 29 53 30 54 34 55 31 56
REMARK SMILES IDX 33 57 32 58 51 59 52 60 56 61 53 62 55 63 54 64 41 65 42 66
REMARK SMILES IDX 46 67 43 68 45 69 44 70
REMARK H PARENT 12 16 61 38 39 49
REMARK Flexibility Score: inf
ROOT
ATOM      1  C   UNL     1       2.804   0.293   1.782  1.00  0.00     0.275 C 
ENDROOT
BRANCH   1   2
ATOM      2  O   UNL     1       1.948   0.080   0.656  1.00  0.00    -0.459 OA
BRANCH   2   3
ATOM      3  C   UNL     1       2.411   0.200  -0.609  1.00  0.00     0.332 C 
ATOM      4  O   UNL     1       1.671   0.549  -1.524  1.00  0.00    -0.247 OA
BRANCH   3   5
ATOM      5  C   UNL     1       3.693  -0.443  -0.943  1.00  0.00     0.111 C 
ATOM      6  C   UNL     1       4.983  -0.098  -0.851  1.00  0.00     0.089 C 
BRANCH   6   7
ATOM      7  N   UNL     1       5.731   0.955  -0.380  1.00  0.00    -0.371 N 
ATOM      8  C   UNL     1       6.700   1.659  -1.222  1.00  0.00     0.084 C 
ATOM      9  C   UNL     1       5.871   1.560   0.938  1.00  0.00     0.084 C 
ATOM     10  C   UNL     1       7.911   1.885  -0.305  1.00  0.00     0.027 C 
ATOM     11  C   UNL     1       6.007   2.963  -1.624  1.00  0.00     0.056 C 
ATOM     12  C   UNL     1       7.394   1.637   1.103  1.00  0.00     0.027 C 
ATOM     13  C   UNL     1       5.270   2.974   0.911  1.00  0.00     0.056 C 
ATOM     14  C   UNL     1       5.165   3.593  -0.493  1.00  0.00     0.118 C 
BRANCH  14  15
ATOM     15  O   UNL     1       3.783   3.572  -0.879  1.00  0.00    -0.393 OA
ATOM     16  H   UNL     1       3.482   2.653  -0.952  1.00  0.00     0.210 HD
ENDBRANCH  14  15
ENDBRANCH   6   7
ENDBRANCH   3   5
ENDBRANCH   2   3
ENDBRANCH   1   2
BRANCH   1  17
ATOM     17  C   UNL     1       3.475  -0.955   2.369  1.00  0.00     0.275 C 
BRANCH  17  18
ATOM     18  O   UNL     1       3.408  -2.080   1.503  1.00  0.00    -0.458 OA
BRANCH  18  19
ATOM     19  C   UNL     1       2.173  -2.628   1.446  1.00  0.00     0.338 C 
ATOM     20  O   UNL     1       1.216  -2.391   2.162  1.00  0.00    -0.246 OA
BRANCH  19  21
ATOM     21  C   UNL     1       2.129  -3.452   0.237  1.00  0.00     0.060 A 
ATOM     22  C   UNL     1       1.060  -3.277  -0.648  1.00  0.00     0.016 A 
ATOM     23  C   UNL     1       3.128  -4.401   0.004  1.00  0.00     0.016 A 
ATOM     24  C   UNL     1       0.927  -4.136  -1.729  1.00  0.00     0.010 A 
ATOM     25  C   UNL     1       3.000  -5.253  -1.080  1.00  0.00     0.010 A 
ATOM     26  C   UNL     1       1.862  -5.164  -1.900  1.00  0.00    -0.014 A 
BRANCH  26  27
ATOM     27  C   UNL     1       1.540  -6.320  -2.753  1.00  0.00     0.031 A 
ATOM     28  C   UNL     1       1.034  -7.559  -2.073  1.00  0.00     0.074 A 
ATOM     29  C   UNL     1       1.756  -6.273  -4.074  1.00  0.00     0.049 A 
ATOM     30  N   UNL     1       0.825  -8.750  -2.565  1.00  0.00    -0.248 NA
ATOM     31  C   UNL     1       0.756  -7.442  -0.630  1.00  0.00     0.031 C 
ATOM     32  C   UNL     1       2.219  -5.101  -4.814  1.00  0.00     0.029 A 
ATOM     33  N   UNL     1       1.640  -7.255  -5.019  1.00  0.00    -0.354 N 
ATOM     34  C   UNL     1       0.418  -9.528  -1.488  1.00  0.00     0.074 A 
ATOM     35  C   UNL     1       0.447  -8.689  -0.313  1.00  0.00     0.031 C 
ATOM     36  C   UNL     1       2.373  -5.441  -6.104  1.00  0.00     0.029 A 
ATOM     37  C   UNL     1       2.058  -6.859  -6.262  1.00  0.00     0.049 A 
ATOM     38  H   UNL     1       1.292  -8.155  -4.825  1.00  0.00     0.167 HD
ATOM     39  C   UNL     1       0.054 -10.831  -1.485  1.00  0.00     0.031 A 
ATOM     40  C   UNL     1       2.199  -7.579  -7.389  1.00  0.00     0.031 A 
ATOM     41  C   UNL     1       0.058 -11.647  -2.668  1.00  0.00     0.049 A 
ATOM     42  C   UNL     1       1.835  -9.038  -7.361  1.00  0.00     0.074 A 
ATOM     43  C   UNL     1      -0.316 -12.969  -2.808  1.00  0.00     0.029 A 
ATOM     44  N   UNL     1       0.474 -11.207  -3.918  1.00  0.00    -0.354 N 
ATOM     45  N   UNL     1       1.416  -9.765  -6.351  1.00  0.00    -0.248 NA
ATOM     46  C   UNL     1       1.950  -9.773  -8.626  1.00  0.00     0.031 C 
ATOM     47  C   UNL     1      -0.062 -13.349  -4.130  1.00  0.00     0.029 A 
ATOM     48  C   UNL     1       0.396 -12.242  -4.831  1.00  0.00     0.049 A 
ATOM     49  H   UNL     1       0.779 -10.294  -4.124  1.00  0.00     0.167 HD
ATOM     50  C   UNL     1       1.182 -11.034  -6.864  1.00  0.00     0.074 A 
ATOM     51  C   UNL     1       1.507 -10.974  -8.277  1.00  0.00     0.031 C 
ATOM     52  C   UNL     1       0.729 -12.145  -6.232  1.00  0.00     0.031 A 
BRANCH  39  53
ATOM     53  C   UNL     1      -0.313 -11.442  -0.160  1.00  0.00    -0.014 A 
ATOM     54  C   UNL     1      -1.449 -11.029   0.557  1.00  0.00     0.009 A 
ATOM     55  C   UNL     1       0.510 -12.433   0.397  1.00  0.00     0.009 A 
ATOM     56  C   UNL     1      -1.718 -11.551   1.825  1.00  0.00     0.001 A 
ATOM     57  C   UNL     1       0.218 -12.981   1.648  1.00  0.00     0.001 A 
ATOM     58  C   UNL     1      -0.886 -12.528   2.368  1.00  0.00     0.000 A 
ENDBRANCH  39  53
BRANCH  40  59
ATOM     59  C   UNL     1       2.708  -6.917  -8.617  1.00  0.00    -0.014 A 
ATOM     60  C   UNL     1       1.849  -6.651  -9.693  1.00  0.00     0.009 A 
ATOM     61  C   UNL     1       4.044  -6.490  -8.693  1.00  0.00     0.009 A 
ATOM     62  C   UNL     1       2.320  -5.979 -10.823  1.00  0.00     0.001 A 
ATOM     63  C   UNL     1       4.505  -5.794  -9.812  1.00  0.00     0.001 A 
ATOM     64  C   UNL     1       3.644  -5.543 -10.879  1.00  0.00     0.000 A 
ENDBRANCH  40  59
BRANCH  52  65
ATOM     65  C   UNL     1       0.510 -13.374  -7.069  1.00  0.00    -0.014 A 
ATOM     66  C   UNL     1       1.584 -14.129  -7.562  1.00  0.00     0.009 A 
ATOM     67  C   UNL     1      -0.802 -13.821  -7.297  1.00  0.00     0.009 A 
ATOM     68  C   UNL     1       1.345 -15.297  -8.288  1.00  0.00     0.001 A 
ATOM     69  C   UNL     1      -1.035 -15.006  -7.994  1.00  0.00     0.001 A 
ATOM     70  C   UNL     1       0.038 -15.739  -8.496  1.00  0.00     0.000 A 
ENDBRANCH  52  65
ENDBRANCH  26  27
ENDBRANCH  19  21
ENDBRANCH  18  19
ENDBRANCH  17  18
ENDBRANCH   1  17
TORSDOF 13
