REMARK SMILES Cc1cnn(C2(C(=O)OCCOC(=O)c3ccc(-c4c5nc(c(-c6ccccc6)c6ccc([nH]6)c(-c6ccccc6)c6nc(c(-c7ccccc7)c7ccc4[nH]7)C=C6)C=C5)cc3)CCN(C(=O)c3cc4ccccc4[nH]3)CC2)c1
REMARK SMILES IDX 11 1 10 2 9 3 7 4 8 5 6 6 63 7 78 8 64 9 77 10 65 11 66 12
REMARK SMILES IDX 67 13 5 14 1 15 2 16 3 17 79 18 4 19 68 20 69 21 76 22 70 23
REMARK SMILES IDX 75 24 71 26 74 27 72 28 73 29 12 30 13 31 14 32 15 33 16 34
REMARK SMILES IDX 62 35 17 36 61 37 18 38 19 39 20 40 55 41 21 42 60 43 54 44
REMARK SMILES IDX 56 45 22 46 59 47 53 48 52 49 23 51 45 52 30 53 44 54 31 55
REMARK SMILES IDX 34 56 43 57 57 58 32 59 33 60 42 62 58 63 35 64 24 65 25 66
REMARK SMILES IDX 29 67 26 68 28 69 27 70 46 71 47 72 51 73 48 74 50 75 49 76
REMARK SMILES IDX 36 77 37 78 41 79 38 80 40 81 39 82
REMARK H PARENT 76 25 56 50 34 61
REMARK Flexibility Score: inf
ROOT
ATOM      1  C   UNL     1       0.800   7.064   4.939  1.00  0.00     0.275 C 
ENDROOT
BRANCH   1   2
ATOM      2  C   UNL     1       1.626   7.097   3.662  1.00  0.00     0.274 C 
BRANCH   2   3
ATOM      3  O   UNL     1       0.931   6.576   2.506  1.00  0.00    -0.460 OA
BRANCH   3   4
ATOM      4  C   UNL     1       1.140   5.240   2.269  1.00  0.00     0.334 C 
ATOM      5  O   UNL     1       1.710   4.511   3.083  1.00  0.00    -0.249 OA
BRANCH   4   6
ATOM      6  C   UNL     1       0.976   4.853   0.787  1.00  0.00     0.163 C 
ATOM      7  C   UNL     1      -0.253   5.285  -0.053  1.00  0.00     0.064 C 
ATOM      8  C   UNL     1       2.218   5.636   0.247  1.00  0.00     0.064 C 
ATOM      9  C   UNL     1       0.090   5.066  -1.545  1.00  0.00     0.123 C 
ATOM     10  C   UNL     1       2.381   5.812  -1.248  1.00  0.00     0.123 C 
ATOM     11  N   UNL     1       1.106   6.042  -1.911  1.00  0.00    -0.337 N 
ATOM     12  C   UNL     1       0.678   7.147  -2.659  1.00  0.00     0.270 C 
ATOM     13  O   UNL     1      -0.429   7.130  -3.204  1.00  0.00    -0.267 OA
BRANCH   6  14
ATOM     14  N   UNL     1       0.917   3.381   0.800  1.00  0.00    -0.255 N 
ATOM     15  C   UNL     1       1.338  -0.129  -0.163  1.00  0.00     0.048 C 
ATOM     16  C   UNL     1       1.013   1.223   0.343  1.00  0.00    -0.013 A 
ATOM     17  C   UNL     1      -0.126   1.546   1.101  1.00  0.00     0.138 A 
ATOM     18  C   UNL     1       1.681   2.429   0.184  1.00  0.00     0.113 A 
ATOM     19  N   UNL     1      -0.186   2.839   1.385  1.00  0.00    -0.180 NA
ENDBRANCH   6  14
BRANCH  12  20
ATOM     20  C   UNL     1       1.433   8.383  -2.680  1.00  0.00     0.105 A 
ATOM     21  C   UNL     1       2.770   8.728  -2.614  1.00  0.00     0.042 A 
ATOM     22  N   UNL     1       0.755   9.583  -2.828  1.00  0.00    -0.351 N 
ATOM     23  C   UNL     1       2.859  10.133  -2.419  1.00  0.00     0.000 A 
ATOM     24  C   UNL     1       1.583  10.653  -2.602  1.00  0.00     0.046 A 
ATOM     25  H   UNL     1      -0.198   9.657  -3.065  1.00  0.00     0.167 HD
ATOM     26  C   UNL     1       3.912  11.010  -2.102  1.00  0.00     0.010 A 
ATOM     27  C   UNL     1       1.306  12.023  -2.539  1.00  0.00     0.026 A 
ATOM     28  C   UNL     1       3.647  12.378  -1.984  1.00  0.00     0.001 A 
ATOM     29  C   UNL     1       2.366  12.877  -2.219  1.00  0.00     0.002 A 
ENDBRANCH  12  20
ENDBRANCH   4   6
ENDBRANCH   3   4
ENDBRANCH   2   3
ENDBRANCH   1   2
BRANCH   1  30
ATOM     30  O   UNL     1       0.522   5.726   5.325  1.00  0.00    -0.458 OA
BRANCH  30  31
ATOM     31  C   UNL     1      -0.534   5.205   4.678  1.00  0.00     0.338 C 
ATOM     32  O   UNL     1      -1.199   5.716   3.770  1.00  0.00    -0.246 OA
BRANCH  31  33
ATOM     33  C   UNL     1      -0.975   4.010   5.357  1.00  0.00     0.060 A 
ATOM     34  C   UNL     1      -1.790   3.153   4.614  1.00  0.00     0.016 A 
ATOM     35  C   UNL     1      -1.028   4.119   6.751  1.00  0.00     0.016 A 
ATOM     36  C   UNL     1      -2.858   2.588   5.255  1.00  0.00     0.010 A 
ATOM     37  C   UNL     1      -2.097   3.564   7.385  1.00  0.00     0.010 A 
ATOM     38  C   UNL     1      -3.039   2.885   6.610  1.00  0.00    -0.014 A 
BRANCH  38  39
ATOM     39  C   UNL     1      -4.152   2.278   7.295  1.00  0.00     0.031 A 
ATOM     40  C   UNL     1      -3.970   0.806   7.350  1.00  0.00     0.074 A 
ATOM     41  C   UNL     1      -5.064   3.050   7.919  1.00  0.00     0.049 A 
ATOM     42  N   UNL     1      -4.771  -0.104   6.913  1.00  0.00    -0.248 NA
ATOM     43  C   UNL     1      -2.637   0.284   7.737  1.00  0.00     0.031 C 
ATOM     44  C   UNL     1      -5.057   4.518   8.034  1.00  0.00     0.029 A 
ATOM     45  N   UNL     1      -6.097   2.698   8.726  1.00  0.00    -0.354 N 
ATOM     46  C   UNL     1      -4.147  -1.313   7.205  1.00  0.00     0.074 A 
ATOM     47  C   UNL     1      -2.773  -1.018   7.494  1.00  0.00     0.031 C 
ATOM     48  C   UNL     1      -5.837   4.889   9.074  1.00  0.00     0.029 A 
ATOM     49  C   UNL     1      -6.498   3.707   9.598  1.00  0.00     0.049 A 
ATOM     50  H   UNL     1      -6.524   1.811   8.697  1.00  0.00     0.167 HD
ATOM     51  C   UNL     1      -4.897  -2.387   7.563  1.00  0.00     0.031 A 
ATOM     52  C   UNL     1      -7.255   3.552  10.713  1.00  0.00     0.031 A 
ATOM     53  C   UNL     1      -6.263  -2.214   7.145  1.00  0.00     0.049 A 
ATOM     54  C   UNL     1      -7.917   2.234  10.607  1.00  0.00     0.074 A 
ATOM     55  C   UNL     1      -6.937  -2.224   5.945  1.00  0.00     0.029 A 
ATOM     56  N   UNL     1      -7.030  -1.521   8.049  1.00  0.00    -0.354 N 
ATOM     57  N   UNL     1      -8.820   1.964   9.709  1.00  0.00    -0.248 NA
ATOM     58  C   UNL     1      -7.296   1.075  11.236  1.00  0.00     0.031 C 
ATOM     59  C   UNL     1      -8.038  -1.333   6.111  1.00  0.00     0.029 A 
ATOM     60  C   UNL     1      -8.048  -0.857   7.422  1.00  0.00     0.049 A 
ATOM     61  H   UNL     1      -6.868  -1.505   9.020  1.00  0.00     0.167 HD
ATOM     62  C   UNL     1      -8.554   0.657   9.341  1.00  0.00     0.074 A 
ATOM     63  C   UNL     1      -7.748   0.110  10.428  1.00  0.00     0.031 C 
ATOM     64  C   UNL     1      -8.734   0.252   8.050  1.00  0.00     0.031 A 
BRANCH  51  65
ATOM     65  C   UNL     1      -4.551  -3.232   8.772  1.00  0.00    -0.014 A 
ATOM     66  C   UNL     1      -5.409  -4.294   9.103  1.00  0.00     0.009 A 
ATOM     67  C   UNL     1      -3.626  -2.837   9.761  1.00  0.00     0.009 A 
ATOM     68  C   UNL     1      -5.384  -4.880  10.376  1.00  0.00     0.001 A 
ATOM     69  C   UNL     1      -3.577  -3.439  11.020  1.00  0.00     0.001 A 
ATOM     70  C   UNL     1      -4.475  -4.446  11.336  1.00  0.00     0.000 A 
ENDBRANCH  51  65
BRANCH  52  71
ATOM     71  C   UNL     1      -7.251   4.317  11.980  1.00  0.00    -0.014 A 
ATOM     72  C   UNL     1      -8.344   4.249  12.859  1.00  0.00     0.009 A 
ATOM     73  C   UNL     1      -6.058   4.885  12.463  1.00  0.00     0.009 A 
ATOM     74  C   UNL     1      -8.233   4.686  14.187  1.00  0.00     0.001 A 
ATOM     75  C   UNL     1      -5.947   5.321  13.789  1.00  0.00     0.001 A 
ATOM     76  C   UNL     1      -7.029   5.205  14.656  1.00  0.00     0.000 A 
ENDBRANCH  52  71
BRANCH  64  77
ATOM     77  C   UNL     1      -9.593   1.118   7.170  1.00  0.00    -0.014 A 
ATOM     78  C   UNL     1      -9.238   2.412   6.752  1.00  0.00     0.009 A 
ATOM     79  C   UNL     1     -10.772   0.552   6.667  1.00  0.00     0.009 A 
ATOM     80  C   UNL     1     -10.061   3.126   5.873  1.00  0.00     0.001 A 
ATOM     81  C   UNL     1     -11.580   1.254   5.775  1.00  0.00     0.001 A 
ATOM     82  C   UNL     1     -11.229   2.544   5.383  1.00  0.00     0.000 A 
ENDBRANCH  64  77
ENDBRANCH  38  39
ENDBRANCH  31  33
ENDBRANCH  30  31
ENDBRANCH   1  30
TORSDOF 13
