REMARK SMILES C[N@H+]1CCO[C@@H](COc2ccc(C(=O)OCCOC(=O)c3ccc(-c4c5nc(c(-c6ccccc6)c6ccc([nH]6)c(-c6ccccc6)c6nc(c(-c7ccccc7)c7ccc4[nH]7)C=C6)C=C5)cc3)cc2N)C1
REMARK SMILES IDX 16 1 15 2 13 3 14 4 12 5 9 6 10 7 70 8 11 9 69 10 8 11 7 12
REMARK SMILES IDX 6 13 1 14 2 15 3 16 72 17 4 19 5 20 71 21 17 24 18 25 19 26
REMARK SMILES IDX 20 27 21 28 22 29 68 30 23 31 67 32 24 33 25 34 26 35 61 36
REMARK SMILES IDX 27 37 66 38 60 39 62 40 28 41 65 42 59 43 58 44 29 46 51 47
REMARK SMILES IDX 36 48 50 49 37 50 40 51 49 52 63 53 38 54 39 55 48 57 64 58
REMARK SMILES IDX 41 59 30 60 31 61 35 62 32 63 34 64 33 65 52 66 53 67 57 68
REMARK SMILES IDX 54 69 56 70 55 71 42 72 43 73 47 74 44 75 46 76 45 77
REMARK H PARENT 2 18 71 22 71 23 62 45 40 56
REMARK Flexibility Score: inf
ROOT
ATOM      1  C   UNL     1      -3.955  -4.790  -0.487  1.00  0.00     0.275 C 
ENDROOT
BRANCH   1   2
ATOM      2  O   UNL     1      -2.622  -4.375  -0.834  1.00  0.00    -0.458 OA
BRANCH   2   3
ATOM      3  C   UNL     1      -1.949  -3.696   0.123  1.00  0.00     0.338 C 
ATOM      4  O   UNL     1      -2.390  -3.350   1.209  1.00  0.00    -0.246 OA
BRANCH   3   5
ATOM      5  C   UNL     1      -0.535  -3.462  -0.271  1.00  0.00     0.062 A 
ATOM      6  C   UNL     1       2.072  -2.793  -0.943  1.00  0.00     0.142 A 
ATOM      7  C   UNL     1       1.636  -2.592   0.364  1.00  0.00     0.049 A 
ATOM      8  C   UNL     1       1.278  -3.472  -1.885  1.00  0.00     0.075 A 
ATOM      9  C   UNL     1       0.323  -2.905   0.692  1.00  0.00     0.019 A 
ATOM     10  C   UNL     1      -0.045  -3.771  -1.547  1.00  0.00     0.045 A 
BRANCH   6  11
ATOM     11  O   UNL     1       3.280  -2.296  -1.360  1.00  0.00    -0.488 OA
BRANCH  11  12
ATOM     12  C   UNL     1       3.326  -0.856  -1.302  1.00  0.00     0.267 C 
BRANCH  12  13
ATOM     13  C   UNL     1       2.600  -0.157  -2.473  1.00  0.00     0.210 C 
ATOM     14  C   UNL     1       0.400   0.801  -0.163  1.00  0.00     0.332 C 
ATOM     15  N   UNL     1       0.490   1.081  -1.587  1.00  0.00    -0.333 N 
ATOM     16  C   UNL     1       1.226   2.316  -1.882  1.00  0.00     0.290 C 
ATOM     17  C   UNL     1       1.051  -0.026  -2.386  1.00  0.00     0.298 C 
ATOM     18  H   UNL     1      -0.483   1.200  -1.869  1.00  0.00     0.348 HD
ATOM     19  C   UNL     1       2.748   2.144  -1.817  1.00  0.00     0.222 C 
ATOM     20  O   UNL     1       3.199   1.135  -2.728  1.00  0.00    -0.363 OA
ENDBRANCH  12  13
ENDBRANCH  11  12
ENDBRANCH   6  11
BRANCH   8  21
ATOM     21  N   UNL     1       1.715  -3.622  -3.201  1.00  0.00    -0.396 N 
ATOM     22  H   UNL     1       2.647  -3.411  -3.437  1.00  0.00     0.156 HD
ATOM     23  H   UNL     1       1.091  -3.939  -3.894  1.00  0.00     0.156 HD
ENDBRANCH   8  21
ENDBRANCH   3   5
ENDBRANCH   2   3
ENDBRANCH   1   2
BRANCH   1  24
ATOM     24  C   UNL     1      -3.971  -6.276  -0.129  1.00  0.00     0.275 C 
BRANCH  24  25
ATOM     25  O   UNL     1      -3.227  -6.516   1.082  1.00  0.00    -0.458 OA
BRANCH  25  26
ATOM     26  C   UNL     1      -2.000  -7.060   0.915  1.00  0.00     0.338 C 
ATOM     27  O   UNL     1      -1.473  -7.416  -0.124  1.00  0.00    -0.246 OA
BRANCH  26  28
ATOM     28  C   UNL     1      -1.308  -7.094   2.212  1.00  0.00     0.060 A 
ATOM     29  C   UNL     1      -0.521  -6.002   2.571  1.00  0.00     0.016 A 
ATOM     30  C   UNL     1      -1.338  -8.233   3.014  1.00  0.00     0.016 A 
ATOM     31  C   UNL     1       0.267  -6.045   3.716  1.00  0.00     0.010 A 
ATOM     32  C   UNL     1      -0.575  -8.264   4.189  1.00  0.00     0.010 A 
ATOM     33  C   UNL     1       0.249  -7.177   4.538  1.00  0.00    -0.014 A 
BRANCH  33  34
ATOM     34  C   UNL     1       1.146  -7.240   5.720  1.00  0.00     0.031 A 
ATOM     35  C   UNL     1       2.296  -8.210   5.737  1.00  0.00     0.074 A 
ATOM     36  C   UNL     1       0.972  -6.395   6.755  1.00  0.00     0.049 A 
ATOM     37  N   UNL     1       3.122  -8.495   6.712  1.00  0.00    -0.248 NA
ATOM     38  C   UNL     1       2.550  -8.955   4.494  1.00  0.00     0.031 C 
ATOM     39  C   UNL     1      -0.053  -5.353   6.838  1.00  0.00     0.029 A 
ATOM     40  N   UNL     1       1.669  -6.271   7.931  1.00  0.00    -0.354 N 
ATOM     41  C   UNL     1       3.968  -9.478   6.213  1.00  0.00     0.074 A 
ATOM     42  C   UNL     1       3.553  -9.744   4.852  1.00  0.00     0.031 C 
ATOM     43  C   UNL     1       0.104  -4.675   7.987  1.00  0.00     0.029 A 
ATOM     44  C   UNL     1       1.192  -5.277   8.750  1.00  0.00     0.049 A 
ATOM     45  H   UNL     1       2.436  -6.841   8.166  1.00  0.00     0.167 HD
ATOM     46  C   UNL     1       4.998 -10.103   6.832  1.00  0.00     0.031 A 
ATOM     47  C   UNL     1       1.571  -4.909   9.989  1.00  0.00     0.031 A 
ATOM     48  C   UNL     1       5.429  -9.827   8.176  1.00  0.00     0.049 A 
ATOM     49  C   UNL     1       2.673  -5.662  10.678  1.00  0.00     0.074 A 
ATOM     50  C   UNL     1       6.441 -10.433   8.900  1.00  0.00     0.029 A 
ATOM     51  N   UNL     1       4.882  -8.850   8.992  1.00  0.00    -0.354 N 
ATOM     52  N   UNL     1       3.415  -6.642  10.221  1.00  0.00    -0.248 NA
ATOM     53  C   UNL     1       2.979  -5.268  12.061  1.00  0.00     0.031 C 
ATOM     54  C   UNL     1       6.489  -9.839  10.166  1.00  0.00     0.029 A 
ATOM     55  C   UNL     1       5.533  -8.838  10.213  1.00  0.00     0.049 A 
ATOM     56  H   UNL     1       4.141  -8.253   8.740  1.00  0.00     0.167 HD
ATOM     57  C   UNL     1       4.282  -6.971  11.254  1.00  0.00     0.074 A 
ATOM     58  C   UNL     1       3.989  -6.075  12.353  1.00  0.00     0.031 C 
ATOM     59  C   UNL     1       5.232  -7.937  11.293  1.00  0.00     0.031 A 
BRANCH  46  60
ATOM     60  C   UNL     1       5.710 -11.180   6.065  1.00  0.00    -0.014 A 
ATOM     61  C   UNL     1       6.614 -10.868   5.040  1.00  0.00     0.009 A 
ATOM     62  C   UNL     1       5.492 -12.527   6.398  1.00  0.00     0.009 A 
ATOM     63  C   UNL     1       7.269 -11.887   4.344  1.00  0.00     0.001 A 
ATOM     64  C   UNL     1       6.165 -13.541   5.716  1.00  0.00     0.001 A 
ATOM     65  C   UNL     1       7.047 -13.222   4.685  1.00  0.00     0.000 A 
ENDBRANCH  46  60
BRANCH  47  66
ATOM     66  C   UNL     1       0.874  -3.796  10.685  1.00  0.00    -0.014 A 
ATOM     67  C   UNL     1       1.534  -2.582  10.927  1.00  0.00     0.009 A 
ATOM     68  C   UNL     1      -0.447  -3.953  11.133  1.00  0.00     0.009 A 
ATOM     69  C   UNL     1       0.891  -1.555  11.623  1.00  0.00     0.001 A 
ATOM     70  C   UNL     1      -1.096  -2.915  11.804  1.00  0.00     0.001 A 
ATOM     71  C   UNL     1      -0.423  -1.721  12.056  1.00  0.00     0.000 A 
ENDBRANCH  47  66
BRANCH  59  72
ATOM     72  C   UNL     1       6.041  -8.046  12.551  1.00  0.00    -0.014 A 
ATOM     73  C   UNL     1       5.503  -8.626  13.710  1.00  0.00     0.009 A 
ATOM     74  C   UNL     1       7.366  -7.584  12.568  1.00  0.00     0.009 A 
ATOM     75  C   UNL     1       6.270  -8.713  14.874  1.00  0.00     0.001 A 
ATOM     76  C   UNL     1       8.136  -7.692  13.727  1.00  0.00     0.001 A 
ATOM     77  C   UNL     1       7.585  -8.249  14.880  1.00  0.00     0.000 A 
ENDBRANCH  59  72
ENDBRANCH  33  34
ENDBRANCH  26  28
ENDBRANCH  25  26
ENDBRANCH  24  25
ENDBRANCH   1  24
TORSDOF 15
