REMARK SMILES CC[C@@H]1CCCN(S(=O)(=O)c2cc(C(=O)OCCOC(=O)c3ccc(-c4c5nc(c(-c6ccccc6)c6ccc([nH]6)c(-c6ccccc6)c6nc(c(-c7ccccc7)c7ccc4[nH]7)C=C6)C=C5)cc3)ccc2F)C1
REMARK SMILES IDX 17 1 16 2 14 3 15 4 13 5 11 6 12 7 72 8 71 9 73 10 70 11
REMARK SMILES IDX 8 12 9 13 10 14 7 15 3 16 4 17 74 18 5 19 6 20 2 21 1 22
REMARK SMILES IDX 18 23 19 24 20 25 21 26 22 27 23 28 69 29 24 30 68 31 25 32
REMARK SMILES IDX 26 33 27 34 62 35 28 36 67 37 61 38 63 39 29 40 66 41 60 42
REMARK SMILES IDX 59 43 30 45 52 46 37 47 51 48 38 49 41 50 50 51 64 52 39 53
REMARK SMILES IDX 40 54 49 56 65 57 42 58 31 59 32 60 36 61 33 62 35 63 34 64
REMARK SMILES IDX 53 65 54 66 58 67 55 68 57 69 56 70 43 71 44 72 48 73 45 74
REMARK SMILES IDX 47 75 46 76
REMARK H PARENT 63 44 41 55
REMARK Flexibility Score: inf
ROOT
ATOM      1  C   UNL     1      -5.313   7.695   5.736  1.00  0.00     0.275 C 
ENDROOT
BRANCH   1   2
ATOM      2  O   UNL     1      -4.036   7.785   5.072  1.00  0.00    -0.458 OA
BRANCH   2   3
ATOM      3  C   UNL     1      -3.600   6.664   4.447  1.00  0.00     0.338 C 
ATOM      4  O   UNL     1      -4.162   5.582   4.415  1.00  0.00    -0.246 OA
BRANCH   3   5
ATOM      5  C   UNL     1      -2.363   6.950   3.674  1.00  0.00     0.061 A 
ATOM      6  C   UNL     1      -1.039   6.537   1.679  1.00  0.00     0.119 A 
ATOM      7  C   UNL     1      -2.123   6.214   2.504  1.00  0.00     0.040 A 
ATOM      8  C   UNL     1      -0.160   7.541   2.058  1.00  0.00     0.143 A 
ATOM      9  C   UNL     1      -0.348   8.225   3.259  1.00  0.00     0.041 A 
ATOM     10  F   UNL     1       0.907   7.855   1.312  1.00  0.00    -0.206 F 
ATOM     11  C   UNL     1      -1.460   7.947   4.060  1.00  0.00     0.019 A 
BRANCH   6  12
ATOM     12  S   UNL     1      -0.932   5.806   0.075  1.00  0.00     0.246 S 
ATOM     13  O   UNL     1      -0.296   6.743  -0.831  1.00  0.00    -0.207 OA
ATOM     14  O   UNL     1      -2.242   5.281  -0.235  1.00  0.00    -0.207 OA
BRANCH  12  15
ATOM     15  N   UNL     1       0.126   4.455   0.272  1.00  0.00    -0.197 NA
ATOM     16  C   UNL     1       0.958   2.328  -0.795  1.00  0.00     0.004 C 
ATOM     17  C   UNL     1       2.379   2.699  -0.347  1.00  0.00     0.006 C 
ATOM     18  C   UNL     1       0.114   3.602  -0.964  1.00  0.00     0.106 C 
ATOM     19  C   UNL     1       2.368   3.597   0.884  1.00  0.00     0.017 C 
ATOM     20  C   UNL     1       1.517   4.838   0.650  1.00  0.00     0.102 C 
BRANCH  16  21
ATOM     21  C   UNL     1       0.270   1.310   0.139  1.00  0.00     0.001 C 
ATOM     22  C   UNL     1       0.854  -0.092   0.006  1.00  0.00     0.004 C 
ENDBRANCH  16  21
ENDBRANCH  12  15
ENDBRANCH   6  12
ENDBRANCH   3   5
ENDBRANCH   2   3
ENDBRANCH   1   2
BRANCH   1  23
ATOM     23  C   UNL     1      -6.406   8.410   4.940  1.00  0.00     0.275 C 
BRANCH  23  24
ATOM     24  O   UNL     1      -6.711   7.695   3.728  1.00  0.00    -0.458 OA
BRANCH  24  25
ATOM     25  C   UNL     1      -6.157   8.204   2.606  1.00  0.00     0.338 C 
ATOM     26  O   UNL     1      -5.462   9.200   2.502  1.00  0.00    -0.246 OA
BRANCH  25  27
ATOM     27  C   UNL     1      -6.435   7.312   1.473  1.00  0.00     0.060 A 
ATOM     28  C   UNL     1      -5.562   6.252   1.251  1.00  0.00     0.016 A 
ATOM     29  C   UNL     1      -7.439   7.600   0.553  1.00  0.00     0.016 A 
ATOM     30  C   UNL     1      -5.625   5.526   0.067  1.00  0.00     0.010 A 
ATOM     31  C   UNL     1      -7.561   6.807  -0.595  1.00  0.00     0.010 A 
ATOM     32  C   UNL     1      -6.635   5.780  -0.867  1.00  0.00    -0.014 A 
BRANCH  32  33
ATOM     33  C   UNL     1      -6.709   5.001  -2.135  1.00  0.00     0.031 A 
ATOM     34  C   UNL     1      -6.650   5.715  -3.460  1.00  0.00     0.074 A 
ATOM     35  C   UNL     1      -6.839   3.659  -2.111  1.00  0.00     0.049 A 
ATOM     36  N   UNL     1      -6.937   5.266  -4.657  1.00  0.00    -0.248 NA
ATOM     37  C   UNL     1      -6.229   7.125  -3.434  1.00  0.00     0.031 C 
ATOM     38  C   UNL     1      -6.825   2.821  -0.910  1.00  0.00     0.029 A 
ATOM     39  N   UNL     1      -7.013   2.759  -3.136  1.00  0.00    -0.354 N 
ATOM     40  C   UNL     1      -6.797   6.354  -5.512  1.00  0.00     0.074 A 
ATOM     41  C   UNL     1      -6.395   7.482  -4.700  1.00  0.00     0.031 C 
ATOM     42  C   UNL     1      -6.956   1.534  -1.267  1.00  0.00     0.029 A 
ATOM     43  C   UNL     1      -7.167   1.463  -2.707  1.00  0.00     0.049 A 
ATOM     44  H   UNL     1      -7.025   3.019  -4.085  1.00  0.00     0.167 HD
ATOM     45  C   UNL     1      -6.996   6.404  -6.851  1.00  0.00     0.031 A 
ATOM     46  C   UNL     1      -7.500   0.346  -3.382  1.00  0.00     0.031 A 
ATOM     47  C   UNL     1      -7.344   5.264  -7.658  1.00  0.00     0.049 A 
ATOM     48  C   UNL     1      -7.789   0.442  -4.854  1.00  0.00     0.074 A 
ATOM     49  C   UNL     1      -7.541   5.206  -9.027  1.00  0.00     0.029 A 
ATOM     50  N   UNL     1      -7.531   3.980  -7.171  1.00  0.00    -0.354 N 
ATOM     51  N   UNL     1      -7.705   1.483  -5.645  1.00  0.00    -0.248 NA
ATOM     52  C   UNL     1      -8.238  -0.788  -5.522  1.00  0.00     0.031 C 
ATOM     53  C   UNL     1      -7.903   3.898  -9.361  1.00  0.00     0.029 A 
ATOM     54  C   UNL     1      -7.869   3.129  -8.209  1.00  0.00     0.049 A 
ATOM     55  H   UNL     1      -7.437   3.713  -6.228  1.00  0.00     0.167 HD
ATOM     56  C   UNL     1      -8.060   1.029  -6.907  1.00  0.00     0.074 A 
ATOM     57  C   UNL     1      -8.353  -0.384  -6.780  1.00  0.00     0.031 C 
ATOM     58  C   UNL     1      -8.136   1.722  -8.069  1.00  0.00     0.031 A 
BRANCH  45  59
ATOM     59  C   UNL     1      -6.901   7.743  -7.529  1.00  0.00    -0.014 A 
ATOM     60  C   UNL     1      -5.673   8.389  -7.731  1.00  0.00     0.009 A 
ATOM     61  C   UNL     1      -8.071   8.338  -8.032  1.00  0.00     0.009 A 
ATOM     62  C   UNL     1      -5.623   9.617  -8.397  1.00  0.00     0.001 A 
ATOM     63  C   UNL     1      -8.014   9.550  -8.722  1.00  0.00     0.001 A 
ATOM     64  C   UNL     1      -6.791  10.193  -8.897  1.00  0.00     0.000 A 
ENDBRANCH  45  59
BRANCH  46  65
ATOM     65  C   UNL     1      -7.646  -0.948  -2.663  1.00  0.00    -0.014 A 
ATOM     66  C   UNL     1      -6.761  -2.008  -2.913  1.00  0.00     0.009 A 
ATOM     67  C   UNL     1      -8.678  -1.135  -1.728  1.00  0.00     0.009 A 
ATOM     68  C   UNL     1      -6.919  -3.232  -2.257  1.00  0.00     0.001 A 
ATOM     69  C   UNL     1      -8.812  -2.347  -1.049  1.00  0.00     0.001 A 
ATOM     70  C   UNL     1      -7.939  -3.398  -1.322  1.00  0.00     0.000 A 
ENDBRANCH  46  65
BRANCH  58  71
ATOM     71  C   UNL     1      -8.488   0.954  -9.310  1.00  0.00    -0.014 A 
ATOM     72  C   UNL     1      -9.800   0.523  -9.556  1.00  0.00     0.009 A 
ATOM     73  C   UNL     1      -7.498   0.721 -10.278  1.00  0.00     0.009 A 
ATOM     74  C   UNL     1     -10.108  -0.145 -10.743  1.00  0.00     0.001 A 
ATOM     75  C   UNL     1      -7.816   0.078 -11.474  1.00  0.00     0.001 A 
ATOM     76  C   UNL     1      -9.119  -0.360 -11.703  1.00  0.00     0.000 A 
ENDBRANCH  58  71
ENDBRANCH  32  33
ENDBRANCH  25  27
ENDBRANCH  24  25
ENDBRANCH  23  24
ENDBRANCH   1  23
TORSDOF 14
