REMARK SMILES CCn1ccc([C@@H](C)NC(=O)[C@H](C)n2ccc(C(=O)OCCOC(=O)c3ccc(-c4c5nc(c(-c6ccccc6)c6ccc([nH]6)c(-c6ccccc6)c6nc(c(-c7ccccc7)c7ccc4[nH]7)C=C6)C=C5)cc3)n2)n1
REMARK SMILES IDX 20 1 18 2 19 3 17 4 14 5 15 6 74 7 16 8 12 9 13 10 10 11
REMARK SMILES IDX 9 12 11 14 7 15 8 16 6 17 3 18 4 19 75 20 5 21 2 22 1 23
REMARK SMILES IDX 21 24 22 25 23 26 24 27 25 28 26 29 27 30 73 31 28 32 72 33
REMARK SMILES IDX 29 34 30 35 31 36 66 37 32 38 71 39 65 40 67 41 33 42 70 43
REMARK SMILES IDX 64 44 63 45 34 47 56 48 41 49 55 50 42 51 45 52 54 53 68 54
REMARK SMILES IDX 43 55 44 56 53 58 69 59 46 60 35 61 36 62 40 63 37 64 39 65
REMARK SMILES IDX 38 66 57 67 58 68 62 69 59 70 61 71 60 72 47 73 48 74 52 75
REMARK SMILES IDX 49 76 51 77 50 78
REMARK H PARENT 9 13 67 46 45 57
REMARK Flexibility Score: inf
ROOT
ATOM      1  O   UNL     1       6.880   0.021   7.756  1.00  0.00    -0.457 OA
ENDROOT
BRANCH   1   2
ATOM      2  C   UNL     1       6.934   1.351   8.093  1.00  0.00     0.358 C 
ATOM      3  O   UNL     1       7.950   1.924   8.451  1.00  0.00    -0.244 OA
BRANCH   2   4
ATOM      4  C   UNL     1       5.657   2.052   7.874  1.00  0.00     0.170 A 
ATOM      5  N   UNL     1       3.577   2.418   7.529  1.00  0.00    -0.260 N 
ATOM      6  C   UNL     1       4.166   3.649   7.454  1.00  0.00     0.110 A 
ATOM      7  N   UNL     1       4.462   1.441   7.827  1.00  0.00    -0.165 NA
ATOM      8  C   UNL     1       5.508   3.450   7.675  1.00  0.00     0.057 A 
BRANCH   5   9
ATOM      9  C   UNL     1       2.157   2.078   7.484  1.00  0.00     0.193 C 
ATOM     10  C   UNL     1       1.154   3.234   7.420  1.00  0.00     0.044 C 
BRANCH   9  11
ATOM     11  C   UNL     1       1.862   0.980   6.463  1.00  0.00     0.245 C 
ATOM     12  N   UNL     1       1.834   1.199   5.122  1.00  0.00    -0.346 N 
ATOM     13  H   UNL     1       1.675   0.393   4.580  1.00  0.00     0.164 HD
ATOM     14  O   UNL     1       1.564  -0.162   6.836  1.00  0.00    -0.273 OA
BRANCH  12  15
ATOM     15  C   UNL     1       1.999   2.423   4.350  1.00  0.00     0.130 C 
ATOM     16  C   UNL     1       0.686   2.776   3.655  1.00  0.00     0.038 C 
BRANCH  15  17
ATOM     17  C   UNL     1       3.113   2.244   3.360  1.00  0.00     0.084 A 
ATOM     18  N   UNL     1       4.937   2.658   2.367  1.00  0.00    -0.273 N 
ATOM     19  C   UNL     1       4.479   1.523   1.769  1.00  0.00     0.109 A 
ATOM     20  N   UNL     1       4.102   3.146   3.303  1.00  0.00    -0.176 NA
ATOM     21  C   UNL     1       3.289   1.225   2.389  1.00  0.00     0.047 A 
BRANCH  18  22
ATOM     22  C   UNL     1       6.213   3.302   2.146  1.00  0.00     0.141 C 
ATOM     23  C   UNL     1       6.312   4.026   0.817  1.00  0.00     0.029 C 
ENDBRANCH  18  22
ENDBRANCH  15  17
ENDBRANCH  12  15
ENDBRANCH   9  11
ENDBRANCH   5   9
ENDBRANCH   2   4
ENDBRANCH   1   2
BRANCH   1  24
ATOM     24  C   UNL     1       8.140  -0.661   7.661  1.00  0.00     0.275 C 
BRANCH  24  25
ATOM     25  C   UNL     1       8.742  -0.543   6.264  1.00  0.00     0.275 C 
BRANCH  25  26
ATOM     26  O   UNL     1       9.341   0.739   6.043  1.00  0.00    -0.458 OA
BRANCH  26  27
ATOM     27  C   UNL     1       8.529   1.649   5.467  1.00  0.00     0.338 C 
ATOM     28  O   UNL     1       7.323   1.560   5.293  1.00  0.00    -0.246 OA
BRANCH  27  29
ATOM     29  C   UNL     1       9.315   2.723   4.856  1.00  0.00     0.060 A 
ATOM     30  C   UNL     1       8.628   3.875   4.467  1.00  0.00     0.016 A 
ATOM     31  C   UNL     1      10.602   2.447   4.385  1.00  0.00     0.016 A 
ATOM     32  C   UNL     1       9.142   4.636   3.435  1.00  0.00     0.010 A 
ATOM     33  C   UNL     1      11.123   3.224   3.371  1.00  0.00     0.010 A 
ATOM     34  C   UNL     1      10.341   4.245   2.830  1.00  0.00    -0.014 A 
BRANCH  34  35
ATOM     35  C   UNL     1      10.765   4.959   1.633  1.00  0.00     0.031 A 
ATOM     36  C   UNL     1      11.028   6.409   1.821  1.00  0.00     0.074 A 
ATOM     37  C   UNL     1      11.040   4.335   0.469  1.00  0.00     0.049 A 
ATOM     38  N   UNL     1      10.566   7.408   1.144  1.00  0.00    -0.248 NA
ATOM     39  C   UNL     1      11.861   6.786   2.974  1.00  0.00     0.031 C 
ATOM     40  C   UNL     1      11.106   2.893   0.211  1.00  0.00     0.029 A 
ATOM     41  N   UNL     1      11.470   4.879  -0.704  1.00  0.00    -0.354 N 
ATOM     42  C   UNL     1      11.156   8.542   1.696  1.00  0.00     0.074 A 
ATOM     43  C   UNL     1      11.854   8.114   2.882  1.00  0.00     0.031 C 
ATOM     44  C   UNL     1      11.801   2.682  -0.928  1.00  0.00     0.029 A 
ATOM     45  C   UNL     1      12.101   3.967  -1.537  1.00  0.00     0.049 A 
ATOM     46  H   UNL     1      11.345   5.828  -0.937  1.00  0.00     0.167 HD
ATOM     47  C   UNL     1      11.192   9.742   1.057  1.00  0.00     0.031 A 
ATOM     48  C   UNL     1      12.895   4.254  -2.595  1.00  0.00     0.031 A 
ATOM     49  C   UNL     1      10.216   9.843   0.011  1.00  0.00     0.049 A 
ATOM     50  C   UNL     1      12.642   5.655  -2.997  1.00  0.00     0.074 A 
ATOM     51  C   UNL     1       8.837   9.816  -0.037  1.00  0.00     0.029 A 
ATOM     52  N   UNL     1      10.640   9.680  -1.284  1.00  0.00    -0.354 N 
ATOM     53  N   UNL     1      11.532   6.063  -3.540  1.00  0.00    -0.248 NA
ATOM     54  C   UNL     1      13.482   6.701  -2.436  1.00  0.00     0.031 C 
ATOM     55  C   UNL     1       8.521   9.171  -1.268  1.00  0.00     0.029 A 
ATOM     56  C   UNL     1       9.726   8.866  -1.903  1.00  0.00     0.049 A 
ATOM     57  H   UNL     1      11.446  10.072  -1.691  1.00  0.00     0.167 HD
ATOM     58  C   UNL     1      11.331   7.335  -3.025  1.00  0.00     0.074 A 
ATOM     59  C   UNL     1      12.618   7.720  -2.454  1.00  0.00     0.031 C 
ATOM     60  C   UNL     1      10.072   7.839  -2.861  1.00  0.00     0.031 A 
BRANCH  47  61
ATOM     61  C   UNL     1      12.350  10.694   1.183  1.00  0.00    -0.014 A 
ATOM     62  C   UNL     1      12.255  11.974   0.613  1.00  0.00     0.009 A 
ATOM     63  C   UNL     1      13.626  10.284   1.616  1.00  0.00     0.009 A 
ATOM     64  C   UNL     1      13.389  12.781   0.449  1.00  0.00     0.001 A 
ATOM     65  C   UNL     1      14.751  11.102   1.495  1.00  0.00     0.001 A 
ATOM     66  C   UNL     1      14.635  12.344   0.888  1.00  0.00     0.000 A 
ENDBRANCH  47  61
BRANCH  48  67
ATOM     67  C   UNL     1      14.057   3.487  -3.089  1.00  0.00    -0.014 A 
ATOM     68  C   UNL     1      14.555   3.687  -4.385  1.00  0.00     0.009 A 
ATOM     69  C   UNL     1      14.836   2.725  -2.197  1.00  0.00     0.009 A 
ATOM     70  C   UNL     1      15.800   3.165  -4.763  1.00  0.00     0.001 A 
ATOM     71  C   UNL     1      16.073   2.198  -2.576  1.00  0.00     0.001 A 
ATOM     72  C   UNL     1      16.561   2.430  -3.857  1.00  0.00     0.000 A 
ENDBRANCH  48  67
BRANCH  60  73
ATOM     73  C   UNL     1       8.922   7.074  -3.470  1.00  0.00    -0.014 A 
ATOM     74  C   UNL     1       8.618   5.750  -3.104  1.00  0.00     0.009 A 
ATOM     75  C   UNL     1       8.031   7.750  -4.316  1.00  0.00     0.009 A 
ATOM     76  C   UNL     1       7.477   5.112  -3.599  1.00  0.00     0.001 A 
ATOM     77  C   UNL     1       6.879   7.120  -4.793  1.00  0.00     0.001 A 
ATOM     78  C   UNL     1       6.605   5.800  -4.440  1.00  0.00     0.000 A 
ENDBRANCH  60  73
ENDBRANCH  34  35
ENDBRANCH  27  29
ENDBRANCH  26  27
ENDBRANCH  25  26
ENDBRANCH  24  25
ENDBRANCH   1  24
TORSDOF 16
