REMARK SMILES Cc1cc([C@H](O)C[C@@H](C)CC(=O)OCCOC(=O)c2ccc(-c3c4nc(c(-c5ccccc5)c5ccc([nH]5)c(-c5ccccc5)c5nc(c(-c6ccccc6)c6ccc3[nH]6)C=C5)C=C4)cc2)sc1Br
REMARK SMILES IDX 14 1 13 2 11 3 12 4 10 5 8 6 9 7 7 8 5 9 4 10 1 11 2 12 3 13
REMARK SMILES IDX 68 14 67 15 69 16 6 17 15 19 16 20 17 21 18 22 19 23 20 24
REMARK SMILES IDX 66 25 21 26 65 27 22 28 23 29 24 30 59 31 25 32 64 33 58 34
REMARK SMILES IDX 60 35 26 36 63 37 57 38 56 39 27 41 49 42 34 43 48 44 35 45
REMARK SMILES IDX 38 46 47 47 61 48 36 49 37 50 46 52 62 53 39 54 28 55 29 56
REMARK SMILES IDX 33 57 30 58 32 59 31 60 50 61 51 62 55 63 52 64 54 65 53 66
REMARK SMILES IDX 40 67 41 68 45 69 42 70 44 71 43 72
REMARK H PARENT 6 18 60 40 38 51
REMARK Flexibility Score: inf
ROOT
ATOM      1  C   UNL     1       1.219  -0.061  -8.509  1.00  0.00     0.274 C 
ENDROOT
BRANCH   1   2
ATOM      2  O   UNL     1       1.543  -1.240  -7.748  1.00  0.00    -0.462 OA
BRANCH   2   3
ATOM      3  C   UNL     1       2.837  -1.394  -7.362  1.00  0.00     0.306 C 
ATOM      4  O   UNL     1       3.759  -0.660  -7.702  1.00  0.00    -0.252 OA
BRANCH   3   5
ATOM      5  C   UNL     1       3.039  -2.642  -6.524  1.00  0.00     0.126 C 
BRANCH   5   6
ATOM      6  C   UNL     1       2.270  -2.744  -5.184  1.00  0.00    -0.000 C 
ATOM      7  C   UNL     1       2.802  -3.958  -4.412  1.00  0.00     0.008 C 
BRANCH   6   8
ATOM      8  C   UNL     1       0.745  -2.833  -5.418  1.00  0.00     0.041 C 
BRANCH   8   9
ATOM      9  C   UNL     1      -0.141  -3.177  -4.208  1.00  0.00     0.155 C 
BRANCH   9  10
ATOM     10  C   UNL     1      -1.610  -3.212  -4.581  1.00  0.00     0.035 A 
ATOM     11  C   UNL     1      -5.242  -2.210  -4.299  1.00  0.00     0.046 C 
ATOM     12  C   UNL     1      -3.943  -2.825  -4.703  1.00  0.00    -0.026 A 
ATOM     13  C   UNL     1      -2.688  -2.514  -4.063  1.00  0.00     0.022 A 
ATOM     14  C   UNL     1      -3.733  -3.730  -5.720  1.00  0.00     0.073 A 
ATOM     15  S   UNL     1      -2.138  -4.283  -5.822  1.00  0.00    -0.130 S 
ATOM     16  Br  UNL     1      -5.049  -4.351  -6.910  1.00  0.00    -0.039 Br
ENDBRANCH   9  10
BRANCH   9  17
ATOM     17  O   UNL     1       0.040  -2.190  -3.196  1.00  0.00    -0.388 OA
ATOM     18  H   UNL     1      -0.229  -1.323  -3.537  1.00  0.00     0.211 HD
ENDBRANCH   9  17
ENDBRANCH   8   9
ENDBRANCH   6   8
ENDBRANCH   5   6
ENDBRANCH   3   5
ENDBRANCH   2   3
ENDBRANCH   1   2
BRANCH   1  19
ATOM     19  C   UNL     1       0.865   1.131  -7.623  1.00  0.00     0.275 C 
BRANCH  19  20
ATOM     20  O   UNL     1       2.017   1.668  -6.967  1.00  0.00    -0.458 OA
BRANCH  20  21
ATOM     21  C   UNL     1       2.228   1.154  -5.736  1.00  0.00     0.338 C 
ATOM     22  O   UNL     1       1.627   0.233  -5.216  1.00  0.00    -0.246 OA
BRANCH  21  23
ATOM     23  C   UNL     1       3.191   1.958  -4.987  1.00  0.00     0.060 A 
ATOM     24  C   UNL     1       3.793   1.379  -3.862  1.00  0.00     0.016 A 
ATOM     25  C   UNL     1       3.256   3.331  -5.238  1.00  0.00     0.016 A 
ATOM     26  C   UNL     1       4.357   2.202  -2.907  1.00  0.00     0.010 A 
ATOM     27  C   UNL     1       3.801   4.151  -4.277  1.00  0.00     0.010 A 
ATOM     28  C   UNL     1       4.290   3.583  -3.095  1.00  0.00    -0.014 A 
BRANCH  28  29
ATOM     29  C   UNL     1       4.771   4.458  -2.039  1.00  0.00     0.031 A 
ATOM     30  C   UNL     1       6.244   4.645  -1.981  1.00  0.00     0.074 A 
ATOM     31  C   UNL     1       3.912   5.228  -1.343  1.00  0.00     0.049 A 
ATOM     32  N   UNL     1       7.022   4.601  -0.949  1.00  0.00    -0.248 NA
ATOM     33  C   UNL     1       6.947   4.869  -3.257  1.00  0.00     0.031 C 
ATOM     34  C   UNL     1       2.470   5.373  -1.574  1.00  0.00     0.029 A 
ATOM     35  N   UNL     1       4.176   6.183  -0.406  1.00  0.00    -0.354 N 
ATOM     36  C   UNL     1       8.287   4.947  -1.417  1.00  0.00     0.074 A 
ATOM     37  C   UNL     1       8.209   4.983  -2.854  1.00  0.00     0.031 C 
ATOM     38  C   UNL     1       2.050   6.523  -1.004  1.00  0.00     0.029 A 
ATOM     39  C   UNL     1       3.164   7.127  -0.291  1.00  0.00     0.049 A 
ATOM     40  H   UNL     1       5.000   6.201   0.133  1.00  0.00     0.167 HD
ATOM     41  C   UNL     1       9.269   5.406  -0.596  1.00  0.00     0.031 A 
ATOM     42  C   UNL     1       3.270   8.367   0.245  1.00  0.00     0.031 A 
ATOM     43  C   UNL     1       9.052   5.054   0.779  1.00  0.00     0.049 A 
ATOM     44  C   UNL     1       4.524   8.426   1.032  1.00  0.00     0.074 A 
ATOM     45  C   UNL     1       8.866   3.864   1.455  1.00  0.00     0.029 A 
ATOM     46  N   UNL     1       8.661   6.041   1.649  1.00  0.00    -0.354 N 
ATOM     47  N   UNL     1       4.711   7.808   2.160  1.00  0.00    -0.248 NA
ATOM     48  C   UNL     1       5.734   8.873   0.357  1.00  0.00     0.031 C 
ATOM     49  C   UNL     1       7.922   4.166   2.478  1.00  0.00     0.029 A 
ATOM     50  C   UNL     1       7.623   5.526   2.382  1.00  0.00     0.049 A 
ATOM     51  H   UNL     1       9.049   6.942   1.731  1.00  0.00     0.167 HD
ATOM     52  C   UNL     1       6.040   7.411   2.131  1.00  0.00     0.074 A 
ATOM     53  C   UNL     1       6.646   8.191   1.055  1.00  0.00     0.031 C 
ATOM     54  C   UNL     1       6.462   6.286   2.782  1.00  0.00     0.031 A 
BRANCH  41  55
ATOM     55  C   UNL     1      10.217   6.499  -1.015  1.00  0.00    -0.014 A 
ATOM     56  C   UNL     1      11.291   6.835  -0.176  1.00  0.00     0.009 A 
ATOM     57  C   UNL     1       9.928   7.392  -2.068  1.00  0.00     0.009 A 
ATOM     58  C   UNL     1      12.002   8.028  -0.352  1.00  0.00     0.001 A 
ATOM     59  C   UNL     1      10.665   8.559  -2.275  1.00  0.00     0.001 A 
ATOM     60  C   UNL     1      11.686   8.890  -1.399  1.00  0.00     0.000 A 
ENDBRANCH  41  55
BRANCH  42  61
ATOM     61  C   UNL     1       2.510   9.587  -0.108  1.00  0.00    -0.014 A 
ATOM     62  C   UNL     1       2.515  10.701   0.744  1.00  0.00     0.009 A 
ATOM     63  C   UNL     1       1.964   9.753  -1.395  1.00  0.00     0.009 A 
ATOM     64  C   UNL     1       2.018  11.939   0.315  1.00  0.00     0.001 A 
ATOM     65  C   UNL     1       1.455  10.984  -1.820  1.00  0.00     0.001 A 
ATOM     66  C   UNL     1       1.496  12.081  -0.969  1.00  0.00     0.000 A 
ENDBRANCH  42  61
BRANCH  54  67
ATOM     67  C   UNL     1       5.520   5.620   3.753  1.00  0.00    -0.014 A 
ATOM     68  C   UNL     1       4.232   5.186   3.394  1.00  0.00     0.009 A 
ATOM     69  C   UNL     1       6.000   5.282   5.028  1.00  0.00     0.009 A 
ATOM     70  C   UNL     1       3.433   4.479   4.298  1.00  0.00     0.001 A 
ATOM     71  C   UNL     1       5.213   4.553   5.922  1.00  0.00     0.001 A 
ATOM     72  C   UNL     1       3.926   4.160   5.561  1.00  0.00     0.000 A 
ENDBRANCH  54  67
ENDBRANCH  28  29
ENDBRANCH  21  23
ENDBRANCH  20  21
ENDBRANCH  19  20
ENDBRANCH   1  19
TORSDOF 16
