REMARK SMILES C[C@@H](NC1=[NH+]CCC1)C(=O)OCCOC(=O)c1ccc(-c2c3nc(c(-c4ccccc4)c4ccc([nH]4)c(-c4ccccc4)c4nc(c(-c5ccccc5)c5ccc2[nH]5)C=C4)C=C3)cc1
REMARK SMILES IDX 13 1 12 2 11 3 9 4 10 5 2 6 1 7 3 8 4 9 5 11 8 12 6 13 7 15
REMARK SMILES IDX 14 16 15 17 16 18 17 19 18 20 64 21 19 22 63 23 20 24 21 25
REMARK SMILES IDX 22 26 57 27 23 28 62 29 56 30 58 31 24 32 61 33 55 34 54 35
REMARK SMILES IDX 25 37 47 38 32 39 46 40 33 41 36 42 45 43 59 44 34 45 35 46
REMARK SMILES IDX 44 48 60 49 37 50 26 51 27 52 31 53 28 54 30 55 29 56 48 57
REMARK SMILES IDX 49 58 53 59 50 60 52 61 51 62 38 63 39 64 43 65 40 66 42 67
REMARK SMILES IDX 41 68
REMARK H PARENT 3 10 5 14 58 36 36 47
REMARK Flexibility Score: inf
ROOT
ATOM      1  C   UNL     1      -3.478  -0.318   0.423  1.00  0.00     0.275 C 
ENDROOT
BRANCH   1   2
ATOM      2  C   UNL     1      -3.024   0.895  -0.400  1.00  0.00     0.274 C 
BRANCH   2   3
ATOM      3  O   UNL     1      -1.599   0.931  -0.614  1.00  0.00    -0.459 OA
BRANCH   3   4
ATOM      4  C   UNL     1      -0.873   1.621   0.308  1.00  0.00     0.350 C 
ATOM      5  O   UNL     1      -1.352   2.155   1.304  1.00  0.00    -0.247 OA
BRANCH   4   6
ATOM      6  C   UNL     1       0.615   1.713  -0.042  1.00  0.00     0.279 C 
ATOM      7  C   UNL     1       1.163   0.358  -0.492  1.00  0.00     0.071 C 
BRANCH   6   8
ATOM      8  N   UNL     1       0.945   2.710  -1.059  1.00  0.00    -0.265 N 
ATOM      9  C   UNL     1       0.124   3.627  -1.635  1.00  0.00     0.243 C 
ATOM     10  H   UNL     1       1.881   2.719  -1.365  1.00  0.00     0.305 HD
ATOM     11  N   UNL     1       0.189   3.817  -2.922  1.00  0.00    -0.279 N 
ATOM     12  C   UNL     1      -0.835   4.522  -0.902  1.00  0.00     0.131 C 
ATOM     13  C   UNL     1      -0.856   4.813  -3.227  1.00  0.00     0.234 C 
ATOM     14  H   UNL     1       0.805   3.386  -3.557  1.00  0.00     0.304 HD
ATOM     15  C   UNL     1      -1.794   4.787  -2.034  1.00  0.00     0.058 C 
ENDBRANCH   6   8
ENDBRANCH   4   6
ENDBRANCH   3   4
ENDBRANCH   2   3
ENDBRANCH   1   2
BRANCH   1  16
ATOM     16  O   UNL     1      -3.085  -0.215   1.805  1.00  0.00    -0.458 OA
BRANCH  16  17
ATOM     17  C   UNL     1      -1.886  -0.770   2.099  1.00  0.00     0.338 C 
ATOM     18  O   UNL     1      -1.166  -1.403   1.345  1.00  0.00    -0.246 OA
BRANCH  17  19
ATOM     19  C   UNL     1      -1.447  -0.351   3.442  1.00  0.00     0.060 A 
ATOM     20  C   UNL     1      -0.173   0.220   3.554  1.00  0.00     0.016 A 
ATOM     21  C   UNL     1      -2.231  -0.558   4.577  1.00  0.00     0.016 A 
ATOM     22  C   UNL     1       0.324   0.591   4.797  1.00  0.00     0.010 A 
ATOM     23  C   UNL     1      -1.722  -0.204   5.832  1.00  0.00     0.010 A 
ATOM     24  C   UNL     1      -0.439   0.359   5.946  1.00  0.00    -0.014 A 
BRANCH  24  25
ATOM     25  C   UNL     1       0.165   0.614   7.272  1.00  0.00     0.031 A 
ATOM     26  C   UNL     1       0.742  -0.535   8.046  1.00  0.00     0.074 A 
ATOM     27  C   UNL     1       0.243   1.867   7.753  1.00  0.00     0.049 A 
ATOM     28  N   UNL     1       1.282  -0.542   9.237  1.00  0.00    -0.248 NA
ATOM     29  C   UNL     1       0.713  -1.851   7.386  1.00  0.00     0.031 C 
ATOM     30  C   UNL     1      -0.219   3.070   7.061  1.00  0.00     0.029 A 
ATOM     31  N   UNL     1       0.745   2.333   8.941  1.00  0.00    -0.354 N 
ATOM     32  C   UNL     1       1.641  -1.862   9.478  1.00  0.00     0.074 A 
ATOM     33  C   UNL     1       1.248  -2.629   8.316  1.00  0.00     0.031 C 
ATOM     34  C   UNL     1       0.018   4.138   7.840  1.00  0.00     0.029 A 
ATOM     35  C   UNL     1       0.610   3.690   9.098  1.00  0.00     0.049 A 
ATOM     36  H   UNL     1       1.162   1.750   9.617  1.00  0.00     0.167 HD
ATOM     37  C   UNL     1       2.243  -2.386  10.571  1.00  0.00     0.031 A 
ATOM     38  C   UNL     1       0.906   4.476  10.150  1.00  0.00     0.031 A 
ATOM     39  C   UNL     1       2.623  -1.623  11.729  1.00  0.00     0.049 A 
ATOM     40  C   UNL     1       1.502   3.856  11.385  1.00  0.00     0.074 A 
ATOM     41  C   UNL     1       3.232  -2.062  12.891  1.00  0.00     0.029 A 
ATOM     42  N   UNL     1       2.425  -0.258  11.870  1.00  0.00    -0.354 N 
ATOM     43  N   UNL     1       1.829   2.605  11.606  1.00  0.00    -0.248 NA
ATOM     44  C   UNL     1       1.769   4.757  12.515  1.00  0.00     0.031 C 
ATOM     45  C   UNL     1       3.360  -0.970  13.756  1.00  0.00     0.029 A 
ATOM     46  C   UNL     1       2.879   0.158  13.110  1.00  0.00     0.049 A 
ATOM     47  H   UNL     1       2.022   0.328  11.190  1.00  0.00     0.167 HD
ATOM     48  C   UNL     1       2.359   2.573  12.889  1.00  0.00     0.074 A 
ATOM     49  C   UNL     1       2.325   3.932  13.391  1.00  0.00     0.031 C 
ATOM     50  C   UNL     1       2.833   1.514  13.591  1.00  0.00     0.031 A 
BRANCH  37  51
ATOM     51  C   UNL     1       2.479  -3.869  10.580  1.00  0.00    -0.014 A 
ATOM     52  C   UNL     1       3.482  -4.455   9.791  1.00  0.00     0.009 A 
ATOM     53  C   UNL     1       1.697  -4.690  11.407  1.00  0.00     0.009 A 
ATOM     54  C   UNL     1       3.674  -5.838   9.808  1.00  0.00     0.001 A 
ATOM     55  C   UNL     1       1.908  -6.069  11.440  1.00  0.00     0.001 A 
ATOM     56  C   UNL     1       2.890  -6.643  10.635  1.00  0.00     0.000 A 
ENDBRANCH  37  51
BRANCH  38  57
ATOM     57  C   UNL     1       0.611   5.931  10.099  1.00  0.00    -0.014 A 
ATOM     58  C   UNL     1       1.648   6.874  10.046  1.00  0.00     0.009 A 
ATOM     59  C   UNL     1      -0.718   6.384  10.115  1.00  0.00     0.009 A 
ATOM     60  C   UNL     1       1.361   8.241  10.033  1.00  0.00     0.001 A 
ATOM     61  C   UNL     1      -1.003   7.750  10.074  1.00  0.00     0.001 A 
ATOM     62  C   UNL     1       0.036   8.678  10.042  1.00  0.00     0.000 A 
ENDBRANCH  38  57
BRANCH  50  63
ATOM     63  C   UNL     1       3.380   1.790  14.963  1.00  0.00    -0.014 A 
ATOM     64  C   UNL     1       2.529   2.076  16.041  1.00  0.00     0.009 A 
ATOM     65  C   UNL     1       4.764   1.723  15.184  1.00  0.00     0.009 A 
ATOM     66  C   UNL     1       3.058   2.320  17.310  1.00  0.00     0.001 A 
ATOM     67  C   UNL     1       5.288   1.942  16.459  1.00  0.00     0.001 A 
ATOM     68  C   UNL     1       4.436   2.249  17.518  1.00  0.00     0.000 A 
ENDBRANCH  50  63
ENDBRANCH  24  25
ENDBRANCH  17  19
ENDBRANCH  16  17
ENDBRANCH   1  16
TORSDOF 12
