REMARK SMILES CC1(C)[C@H](C(=O)Nc2ccc(NC(=O)C[NH+]3CCCCC3)cc2)[C@@H]1C(=O)OCCOC(=O)c1ccc(-c2c3nc(c(-c4ccccc4)c4ccc([nH]4)c(-c4ccccc4)c4nc(c(-c5ccccc5)c5ccc2[nH]5)C=C4)C=C3)cc1
REMARK SMILES IDX 27 1 25 2 26 3 24 4 1 5 2 6 3 7 4 8 5 9 6 10 7 11 8 13 9 14
REMARK SMILES IDX 23 15 10 16 22 17 11 18 12 19 13 20 14 22 15 23 16 24 17 25
REMARK SMILES IDX 21 26 18 28 20 29 19 30 28 31 29 32 30 33 31 34 32 35 33 36
REMARK SMILES IDX 34 37 80 38 35 39 79 40 36 41 37 42 38 43 73 44 39 45 78 46
REMARK SMILES IDX 72 47 74 48 40 49 77 50 71 51 70 52 41 54 63 55 48 56 62 57
REMARK SMILES IDX 49 58 52 59 61 60 75 61 50 62 51 63 60 65 76 66 53 67 42 68
REMARK SMILES IDX 43 69 47 70 44 71 46 72 45 73 64 74 65 75 69 76 66 77 68 78
REMARK SMILES IDX 67 79 54 80 55 81 59 82 56 83 58 84 57 85
REMARK H PARENT 7 12 12 21 16 27 74 53 52 64
REMARK Flexibility Score: inf
ROOT
ATOM      1  O   UNL     1      -2.878   1.379   1.294  1.00  0.00    -0.462 OA
ENDROOT
BRANCH   1   2
ATOM      2  C   UNL     1      -1.544   1.109   1.256  1.00  0.00     0.310 C 
ATOM      3  O   UNL     1      -0.704   1.611   2.000  1.00  0.00    -0.252 OA
BRANCH   2   4
ATOM      4  C   UNL     1      -1.235  -0.038   0.376  1.00  0.00     0.118 C 
ATOM      5  C   UNL     1       0.591  -1.819  -0.214  1.00  0.00     0.013 C 
ATOM      6  C   UNL     1       0.167  -0.360  -0.187  1.00  0.00    -0.009 C 
ATOM      7  C   UNL     1       1.354   0.530   0.041  1.00  0.00     0.013 C 
ATOM      8  C   UNL     1      -0.993  -0.007  -1.105  1.00  0.00     0.100 C 
BRANCH   8   9
ATOM      9  C   UNL     1      -1.243   1.095  -2.082  1.00  0.00     0.228 C 
ATOM     10  O   UNL     1      -1.536   0.747  -3.228  1.00  0.00    -0.274 OA
ATOM     11  N   UNL     1      -1.492   2.400  -1.753  1.00  0.00    -0.326 N 
ATOM     12  H   UNL     1      -2.270   2.795  -2.209  1.00  0.00     0.169 HD
BRANCH  11  13
ATOM     13  C   UNL     1      -0.834   3.260  -0.886  1.00  0.00     0.041 A 
ATOM     14  C   UNL     1      -1.618   4.064  -0.080  1.00  0.00     0.028 A 
ATOM     15  C   UNL     1       0.548   3.348  -0.804  1.00  0.00     0.028 A 
ATOM     16  C   UNL     1      -1.025   4.732   0.990  1.00  0.00     0.028 A 
ATOM     17  C   UNL     1       1.142   4.080   0.234  1.00  0.00     0.028 A 
ATOM     18  C   UNL     1       0.353   4.741   1.177  1.00  0.00     0.041 A 
BRANCH  18  19
ATOM     19  N   UNL     1       0.997   5.304   2.295  1.00  0.00    -0.321 N 
ATOM     20  C   UNL     1       0.592   6.192   3.258  1.00  0.00     0.279 C 
ATOM     21  H   UNL     1       1.926   4.999   2.408  1.00  0.00     0.170 HD
ATOM     22  O   UNL     1       1.330   6.348   4.240  1.00  0.00    -0.268 OA
BRANCH  20  23
ATOM     23  C   UNL     1      -0.711   7.004   3.147  1.00  0.00     0.363 C 
BRANCH  23  24
ATOM     24  N   UNL     1      -0.841   7.581   1.805  1.00  0.00    -0.327 N 
ATOM     25  C   UNL     1      -2.212   7.854   1.383  1.00  0.00     0.262 C 
ATOM     26  C   UNL     1       0.040   8.723   1.573  1.00  0.00     0.262 C 
ATOM     27  H   UNL     1      -0.519   6.830   1.195  1.00  0.00     0.348 HD
ATOM     28  C   UNL     1      -2.210   8.041  -0.136  1.00  0.00     0.062 C 
ATOM     29  C   UNL     1       0.106   9.017   0.073  1.00  0.00     0.062 C 
ATOM     30  C   UNL     1      -1.282   9.182  -0.544  1.00  0.00     0.012 C 
ENDBRANCH  23  24
ENDBRANCH  20  23
ENDBRANCH  18  19
ENDBRANCH  11  13
ENDBRANCH   8   9
ENDBRANCH   2   4
ENDBRANCH   1   2
BRANCH   1  31
ATOM     31  C   UNL     1      -3.306   2.338   2.284  1.00  0.00     0.274 C 
BRANCH  31  32
ATOM     32  C   UNL     1      -3.741   1.706   3.610  1.00  0.00     0.275 C 
BRANCH  32  33
ATOM     33  O   UNL     1      -2.619   1.180   4.341  1.00  0.00    -0.458 OA
BRANCH  33  34
ATOM     34  C   UNL     1      -2.299  -0.096   4.024  1.00  0.00     0.338 C 
ATOM     35  O   UNL     1      -2.914  -0.841   3.279  1.00  0.00    -0.246 OA
BRANCH  34  36
ATOM     36  C   UNL     1      -0.982  -0.452   4.579  1.00  0.00     0.060 A 
ATOM     37  C   UNL     1      -0.064  -1.044   3.707  1.00  0.00     0.016 A 
ATOM     38  C   UNL     1      -0.678  -0.301   5.932  1.00  0.00     0.016 A 
ATOM     39  C   UNL     1       1.147  -1.525   4.181  1.00  0.00     0.010 A 
ATOM     40  C   UNL     1       0.539  -0.794   6.414  1.00  0.00     0.010 A 
ATOM     41  C   UNL     1       1.439  -1.437   5.545  1.00  0.00    -0.014 A 
BRANCH  41  42
ATOM     42  C   UNL     1       2.636  -2.138   6.057  1.00  0.00     0.031 A 
ATOM     43  C   UNL     1       2.467  -3.451   6.766  1.00  0.00     0.074 A 
ATOM     44  C   UNL     1       3.862  -1.642   5.818  1.00  0.00     0.049 A 
ATOM     45  N   UNL     1       3.378  -4.234   7.285  1.00  0.00    -0.248 NA
ATOM     46  C   UNL     1       1.090  -3.951   6.907  1.00  0.00     0.031 C 
ATOM     47  C   UNL     1       4.147  -0.410   5.081  1.00  0.00     0.029 A 
ATOM     48  N   UNL     1       5.098  -2.123   6.162  1.00  0.00    -0.354 N 
ATOM     49  C   UNL     1       2.684  -5.309   7.826  1.00  0.00     0.074 A 
ATOM     50  C   UNL     1       1.277  -5.066   7.597  1.00  0.00     0.031 C 
ATOM     51  C   UNL     1       5.478  -0.235   5.025  1.00  0.00     0.029 A 
ATOM     52  C   UNL     1       6.132  -1.317   5.756  1.00  0.00     0.049 A 
ATOM     53  H   UNL     1       5.232  -2.966   6.653  1.00  0.00     0.167 HD
ATOM     54  C   UNL     1       3.179  -6.402   8.454  1.00  0.00     0.031 A 
ATOM     55  C   UNL     1       7.456  -1.430   5.970  1.00  0.00     0.031 A 
ATOM     56  C   UNL     1       4.580  -6.632   8.687  1.00  0.00     0.049 A 
ATOM     57  C   UNL     1       7.972  -2.613   6.743  1.00  0.00     0.074 A 
ATOM     58  C   UNL     1       5.186  -7.708   9.311  1.00  0.00     0.029 A 
ATOM     59  N   UNL     1       5.594  -5.764   8.309  1.00  0.00    -0.354 N 
ATOM     60  N   UNL     1       7.309  -3.628   7.244  1.00  0.00    -0.248 NA
ATOM     61  C   UNL     1       9.422  -2.669   6.971  1.00  0.00     0.031 C 
ATOM     62  C   UNL     1       6.561  -7.463   9.364  1.00  0.00     0.029 A 
ATOM     63  C   UNL     1       6.820  -6.268   8.710  1.00  0.00     0.049 A 
ATOM     64  H   UNL     1       5.462  -4.916   7.827  1.00  0.00     0.167 HD
ATOM     65  C   UNL     1       8.264  -4.459   7.818  1.00  0.00     0.074 A 
ATOM     66  C   UNL     1       9.551  -3.836   7.588  1.00  0.00     0.031 C 
ATOM     67  C   UNL     1       8.091  -5.634   8.472  1.00  0.00     0.031 A 
BRANCH  54  68
ATOM     68  C   UNL     1       2.189  -7.408   8.975  1.00  0.00    -0.014 A 
ATOM     69  C   UNL     1       1.448  -8.227   8.109  1.00  0.00     0.009 A 
ATOM     70  C   UNL     1       2.017  -7.556  10.360  1.00  0.00     0.009 A 
ATOM     71  C   UNL     1       0.529  -9.148   8.619  1.00  0.00     0.001 A 
ATOM     72  C   UNL     1       1.121  -8.498  10.868  1.00  0.00     0.001 A 
ATOM     73  C   UNL     1       0.371  -9.286   9.998  1.00  0.00     0.000 A 
ENDBRANCH  54  68
BRANCH  55  74
ATOM     74  C   UNL     1       8.384  -0.385   5.466  1.00  0.00    -0.014 A 
ATOM     75  C   UNL     1       9.305  -0.671   4.447  1.00  0.00     0.009 A 
ATOM     76  C   UNL     1       8.361   0.908   6.015  1.00  0.00     0.009 A 
ATOM     77  C   UNL     1      10.202   0.307   4.009  1.00  0.00     0.001 A 
ATOM     78  C   UNL     1       9.237   1.892   5.553  1.00  0.00     0.001 A 
ATOM     79  C   UNL     1      10.164   1.587   4.558  1.00  0.00     0.000 A 
ENDBRANCH  55  74
BRANCH  67  80
ATOM     80  C   UNL     1       9.330  -6.346   8.943  1.00  0.00    -0.014 A 
ATOM     81  C   UNL     1      10.101  -5.854  10.008  1.00  0.00     0.009 A 
ATOM     82  C   UNL     1       9.710  -7.549   8.328  1.00  0.00     0.009 A 
ATOM     83  C   UNL     1      11.250  -6.533  10.418  1.00  0.00     0.001 A 
ATOM     84  C   UNL     1      10.839  -8.243   8.762  1.00  0.00     0.001 A 
ATOM     85  C   UNL     1      11.615  -7.728   9.799  1.00  0.00     0.000 A 
ENDBRANCH  67  80
ENDBRANCH  41  42
ENDBRANCH  34  36
ENDBRANCH  33  34
ENDBRANCH  32  33
ENDBRANCH  31  32
ENDBRANCH   1  31
TORSDOF 16
