REMARK SMILES CC(C)c1cc(C(=O)N[C@@H](Cc2c[nH]c3ccccc23)C(=O)OCCOC(=O)c2ccc(-c3c4nc(c(-c5ccccc5)c5ccc([nH]5)c(-c5ccccc5)c5nc(c(-c6ccccc6)c6ccc3[nH]6)C=C5)C=C4)cc2)n(C)n1
REMARK SMILES IDX 24 1 23 2 21 3 22 4 10 5 9 6 7 7 8 8 6 10 4 11 5 12 79 13
REMARK SMILES IDX 77 14 78 15 2 16 1 17 3 18 11 19 12 20 13 21 20 22 14 23
REMARK SMILES IDX 15 24 19 25 16 27 18 28 17 29 25 30 26 31 27 32 28 33 29 34
REMARK SMILES IDX 30 35 76 36 31 37 75 38 32 39 33 40 34 41 69 42 35 43 74 44
REMARK SMILES IDX 68 45 70 46 36 47 73 48 67 49 66 50 37 52 59 53 44 54 58 55
REMARK SMILES IDX 45 56 48 57 57 58 71 59 46 60 47 61 56 63 72 64 49 65 38 66
REMARK SMILES IDX 39 67 43 68 40 69 42 70 41 71 60 72 61 73 65 74 62 75 64 76
REMARK SMILES IDX 63 77 50 78 51 79 55 80 52 81 54 82 53 83
REMARK H PARENT 9 9 14 26 70 51 48 62
REMARK Flexibility Score: inf
ROOT
ATOM      1  C   UNL     1      -8.457   0.203   4.249  1.00  0.00     0.274 C 
ENDROOT
BRANCH   1   2
ATOM      2  O   UNL     1      -7.629  -0.194   3.139  1.00  0.00    -0.461 OA
BRANCH   2   3
ATOM      3  C   UNL     1      -7.175   0.815   2.348  1.00  0.00     0.329 C 
ATOM      4  O   UNL     1      -7.443   2.004   2.492  1.00  0.00    -0.250 OA
BRANCH   3   5
ATOM      5  C   UNL     1      -6.310   0.316   1.183  1.00  0.00     0.197 C 
BRANCH   5   6
ATOM      6  N   UNL     1      -5.779  -1.038   1.296  1.00  0.00    -0.337 N 
ATOM      7  C   UNL     1      -4.556  -1.607   1.072  1.00  0.00     0.270 C 
ATOM      8  O   UNL     1      -4.552  -2.839   1.151  1.00  0.00    -0.268 OA
ATOM      9  H   UNL     1      -6.452  -1.687   1.603  1.00  0.00     0.164 HD
BRANCH   7  10
ATOM     10  C   UNL     1      -3.313  -0.883   0.849  1.00  0.00     0.126 A 
ATOM     11  C   UNL     1      -1.092  -0.480   0.815  1.00  0.00     0.066 A 
ATOM     12  C   UNL     1      -2.067  -1.430   1.164  1.00  0.00     0.059 A 
ATOM     13  N   UNL     1      -1.671   0.629   0.360  1.00  0.00    -0.177 NA
ATOM     14  N   UNL     1      -2.979   0.314   0.256  1.00  0.00    -0.263 N 
ATOM     15  C   UNL     1      -3.742   1.211  -0.574  1.00  0.00     0.174 C 
BRANCH  11  16
ATOM     16  C   UNL     1       0.403  -0.598   0.897  1.00  0.00     0.034 C 
ATOM     17  C   UNL     1       1.074  -0.327  -0.452  1.00  0.00     0.014 C 
ATOM     18  C   UNL     1       0.981   0.321   1.970  1.00  0.00     0.014 C 
ENDBRANCH  11  16
ENDBRANCH   7  10
ENDBRANCH   5   6
BRANCH   5  19
ATOM     19  C   UNL     1      -7.089   0.465  -0.136  1.00  0.00     0.074 C 
BRANCH  19  20
ATOM     20  C   UNL     1      -8.469  -0.118  -0.119  1.00  0.00    -0.020 A 
ATOM     21  C   UNL     1      -8.816  -1.451  -0.224  1.00  0.00     0.087 A 
ATOM     22  C   UNL     1      -9.688   0.622  -0.006  1.00  0.00     0.003 A 
ATOM     23  N   UNL     1     -10.182  -1.543  -0.172  1.00  0.00    -0.361 N 
ATOM     24  C   UNL     1     -10.739  -0.293  -0.043  1.00  0.00     0.046 A 
ATOM     25  C   UNL     1      -9.989   1.993   0.125  1.00  0.00     0.010 A 
ATOM     26  H   UNL     1     -10.691  -2.384  -0.221  1.00  0.00     0.166 HD
ATOM     27  C   UNL     1     -12.081   0.097   0.040  1.00  0.00     0.026 A 
ATOM     28  C   UNL     1     -11.323   2.401   0.206  1.00  0.00     0.001 A 
ATOM     29  C   UNL     1     -12.352   1.464   0.163  1.00  0.00     0.002 A 
ENDBRANCH  19  20
ENDBRANCH   5  19
ENDBRANCH   3   5
ENDBRANCH   2   3
ENDBRANCH   1   2
BRANCH   1  30
ATOM     30  C   UNL     1      -7.741  -0.033   5.580  1.00  0.00     0.275 C 
BRANCH  30  31
ATOM     31  O   UNL     1      -6.488   0.674   5.639  1.00  0.00    -0.458 OA
BRANCH  31  32
ATOM     32  C   UNL     1      -5.417  -0.053   5.247  1.00  0.00     0.338 C 
ATOM     33  O   UNL     1      -5.402  -1.219   4.880  1.00  0.00    -0.246 OA
BRANCH  32  34
ATOM     34  C   UNL     1      -4.223   0.799   5.203  1.00  0.00     0.060 A 
ATOM     35  C   UNL     1      -3.728   1.166   3.953  1.00  0.00     0.016 A 
ATOM     36  C   UNL     1      -3.521   1.119   6.365  1.00  0.00     0.016 A 
ATOM     37  C   UNL     1      -2.509   1.827   3.849  1.00  0.00     0.010 A 
ATOM     38  C   UNL     1      -2.307   1.808   6.262  1.00  0.00     0.010 A 
ATOM     39  C   UNL     1      -1.779   2.145   5.002  1.00  0.00    -0.014 A 
BRANCH  39  40
ATOM     40  C   UNL     1      -0.437   2.764   4.865  1.00  0.00     0.031 A 
ATOM     41  C   UNL     1       0.800   1.964   5.168  1.00  0.00     0.074 A 
ATOM     42  C   UNL     1      -0.317   4.017   4.384  1.00  0.00     0.049 A 
ATOM     43  N   UNL     1       2.057   2.316   5.063  1.00  0.00    -0.248 NA
ATOM     44  C   UNL     1       0.601   0.576   5.619  1.00  0.00     0.031 C 
ATOM     45  C   UNL     1      -1.428   4.880   3.982  1.00  0.00     0.029 A 
ATOM     46  N   UNL     1       0.801   4.774   4.137  1.00  0.00    -0.354 N 
ATOM     47  C   UNL     1       2.795   1.188   5.395  1.00  0.00     0.074 A 
ATOM     48  C   UNL     1       1.850   0.152   5.753  1.00  0.00     0.031 C 
ATOM     49  C   UNL     1      -0.935   6.041   3.520  1.00  0.00     0.029 A 
ATOM     50  C   UNL     1       0.520   6.024   3.643  1.00  0.00     0.049 A 
ATOM     51  H   UNL     1       1.717   4.452   4.299  1.00  0.00     0.167 HD
ATOM     52  C   UNL     1       4.138   1.016   5.379  1.00  0.00     0.031 A 
ATOM     53  C   UNL     1       1.338   7.052   3.347  1.00  0.00     0.031 A 
ATOM     54  C   UNL     1       5.091   2.046   5.071  1.00  0.00     0.049 A 
ATOM     55  C   UNL     1       2.818   6.901   3.551  1.00  0.00     0.074 A 
ATOM     56  C   UNL     1       6.474   1.973   5.074  1.00  0.00     0.029 A 
ATOM     57  N   UNL     1       4.760   3.345   4.722  1.00  0.00    -0.354 N 
ATOM     58  N   UNL     1       3.502   5.833   3.882  1.00  0.00    -0.248 NA
ATOM     59  C   UNL     1       3.638   8.106   3.357  1.00  0.00     0.031 C 
ATOM     60  C   UNL     1       6.979   3.246   4.782  1.00  0.00     0.029 A 
ATOM     61  C   UNL     1       5.911   4.096   4.551  1.00  0.00     0.049 A 
ATOM     62  H   UNL     1       3.842   3.684   4.612  1.00  0.00     0.167 HD
ATOM     63  C   UNL     1       4.831   6.231   3.919  1.00  0.00     0.074 A 
ATOM     64  C   UNL     1       4.860   7.636   3.566  1.00  0.00     0.031 C 
ATOM     65  C   UNL     1       5.929   5.496   4.217  1.00  0.00     0.031 A 
BRANCH  52  66
ATOM     66  C   UNL     1       4.653  -0.346   5.737  1.00  0.00    -0.014 A 
ATOM     67  C   UNL     1       4.596  -1.402   4.814  1.00  0.00     0.009 A 
ATOM     68  C   UNL     1       5.216  -0.573   7.002  1.00  0.00     0.009 A 
ATOM     69  C   UNL     1       5.072  -2.668   5.161  1.00  0.00     0.001 A 
ATOM     70  C   UNL     1       5.706  -1.835   7.339  1.00  0.00     0.001 A 
ATOM     71  C   UNL     1       5.627  -2.883   6.422  1.00  0.00     0.000 A 
ENDBRANCH  52  66
BRANCH  53  72
ATOM     72  C   UNL     1       0.770   8.343   2.880  1.00  0.00    -0.014 A 
ATOM     73  C   UNL     1       0.982   8.787   1.567  1.00  0.00     0.009 A 
ATOM     74  C   UNL     1       0.027   9.148   3.759  1.00  0.00     0.009 A 
ATOM     75  C   UNL     1       0.473  10.018   1.148  1.00  0.00     0.001 A 
ATOM     76  C   UNL     1      -0.502  10.365   3.329  1.00  0.00     0.001 A 
ATOM     77  C   UNL     1      -0.272  10.803   2.027  1.00  0.00     0.000 A 
ENDBRANCH  53  72
BRANCH  65  78
ATOM     78  C   UNL     1       7.256   6.195   4.162  1.00  0.00    -0.014 A 
ATOM     79  C   UNL     1       7.647   7.085   5.175  1.00  0.00     0.009 A 
ATOM     80  C   UNL     1       8.138   5.940   3.100  1.00  0.00     0.009 A 
ATOM     81  C   UNL     1       8.885   7.726   5.110  1.00  0.00     0.001 A 
ATOM     82  C   UNL     1       9.385   6.565   3.051  1.00  0.00     0.001 A 
ATOM     83  C   UNL     1       9.754   7.463   4.051  1.00  0.00     0.000 A 
ENDBRANCH  65  78
ENDBRANCH  39  40
ENDBRANCH  32  34
ENDBRANCH  31  32
ENDBRANCH  30  31
ENDBRANCH   1  30
TORSDOF 16
