REMARK SMILES O=C(C[C@@H](C(=O)OCCOC(=O)c1ccc(-c2c3nc(c(-c4ccccc4)c4ccc([nH]4)c(-c4ccccc4)c4nc(c(-c5ccccc5)c5ccc2[nH]5)C=C4)C=C3)cc1)c1ccccc1)Nc1cc(C(F)(F)F)ccc1-n1cncn1
REMARK SMILES IDX 8 1 7 2 5 3 6 4 4 5 3 6 2 7 1 8 67 9 68 11 69 12 77 13 70 14
REMARK SMILES IDX 76 15 75 16 78 17 79 18 82 19 80 20 81 21 71 22 72 23 73 24
REMARK SMILES IDX 74 25 61 26 62 27 66 28 63 29 65 30 64 31 9 32 10 33 11 34
REMARK SMILES IDX 12 35 13 36 14 37 60 38 15 39 59 40 16 41 17 42 18 43 53 44
REMARK SMILES IDX 19 45 58 46 52 47 54 48 20 49 57 50 51 51 50 52 21 54 43 55
REMARK SMILES IDX 28 56 42 57 29 58 32 59 41 60 55 61 30 62 31 63 40 65 56 66
REMARK SMILES IDX 33 67 22 68 23 69 27 70 24 71 26 72 25 73 44 74 45 75 49 76
REMARK SMILES IDX 46 77 48 78 47 79 34 80 35 81 39 82 36 83 38 84 37 85
REMARK H PARENT 67 10 54 53 32 64
REMARK Flexibility Score: inf
ROOT
ATOM      1  C   UNL     1       5.825   0.058   2.407  1.00  0.00     0.274 C 
ENDROOT
BRANCH   1   2
ATOM      2  O   UNL     1       4.842   0.424   1.409  1.00  0.00    -0.462 OA
BRANCH   2   3
ATOM      3  C   UNL     1       4.655   1.751   1.161  1.00  0.00     0.314 C 
ATOM      4  O   UNL     1       5.264   2.637   1.750  1.00  0.00    -0.252 OA
BRANCH   3   5
ATOM      5  C   UNL     1       3.592   2.021   0.081  1.00  0.00     0.138 C 
BRANCH   5   6
ATOM      6  C   UNL     1       3.009   0.760  -0.565  1.00  0.00     0.120 C 
BRANCH   6   7
ATOM      7  C   UNL     1       2.140  -0.035   0.377  1.00  0.00     0.225 C 
ATOM      8  O   UNL     1       1.013   0.331   0.688  1.00  0.00    -0.275 OA
ATOM      9  N   UNL     1       2.747  -1.200   0.816  1.00  0.00    -0.324 N 
ATOM     10  H   UNL     1       3.710  -1.316   0.645  1.00  0.00     0.170 HD
BRANCH   9  11
ATOM     11  C   UNL     1       2.063  -2.226   1.494  1.00  0.00     0.067 A 
ATOM     12  C   UNL     1       2.675  -2.702   2.662  1.00  0.00     0.041 A 
ATOM     13  C   UNL     1       0.804  -2.727   1.118  1.00  0.00     0.090 A 
ATOM     14  C   UNL     1       2.011  -3.599   3.514  1.00  0.00     0.058 A 
ATOM     15  C   UNL     1       0.125  -3.602   1.982  1.00  0.00     0.031 A 
ATOM     16  C   UNL     1       0.724  -4.031   3.170  1.00  0.00     0.015 A 
BRANCH  13  17
ATOM     17  N   UNL     1       0.234  -2.479  -0.159  1.00  0.00    -0.219 N 
ATOM     18  C   UNL     1       0.872  -2.200  -1.348  1.00  0.00     0.226 A 
ATOM     19  N   UNL     1      -1.095  -2.623  -0.405  1.00  0.00    -0.155 NA
ATOM     20  N   UNL     1       0.001  -1.993  -2.307  1.00  0.00    -0.223 NA
ATOM     21  C   UNL     1      -1.183  -2.229  -1.677  1.00  0.00     0.246 A 
ENDBRANCH  13  17
BRANCH  14  22
ATOM     22  C   UNL     1       2.658  -4.019   4.811  1.00  0.00     0.416 C 
ATOM     23  F   UNL     1       3.989  -4.279   4.665  1.00  0.00    -0.166 F 
ATOM     24  F   UNL     1       2.574  -3.053   5.765  1.00  0.00    -0.166 F 
ATOM     25  F   UNL     1       2.115  -5.140   5.356  1.00  0.00    -0.166 F 
ENDBRANCH  14  22
ENDBRANCH   9  11
ENDBRANCH   6   7
ENDBRANCH   5   6
BRANCH   5  26
ATOM     26  C   UNL     1       4.128   2.985  -0.987  1.00  0.00    -0.033 A 
ATOM     27  C   UNL     1       4.596   2.546  -2.240  1.00  0.00     0.004 A 
ATOM     28  C   UNL     1       4.178   4.361  -0.714  1.00  0.00     0.004 A 
ATOM     29  C   UNL     1       5.083   3.450  -3.187  1.00  0.00     0.000 A 
ATOM     30  C   UNL     1       4.673   5.264  -1.659  1.00  0.00     0.000 A 
ATOM     31  C   UNL     1       5.124   4.809  -2.896  1.00  0.00     0.000 A 
ENDBRANCH   5  26
ENDBRANCH   3   5
ENDBRANCH   2   3
ENDBRANCH   1   2
BRANCH   1  32
ATOM     32  C   UNL     1       6.728  -1.044   1.846  1.00  0.00     0.275 C 
BRANCH  32  33
ATOM     33  O   UNL     1       7.613  -0.471   0.870  1.00  0.00    -0.458 OA
BRANCH  33  34
ATOM     34  C   UNL     1       7.149  -0.463  -0.398  1.00  0.00     0.338 C 
ATOM     35  O   UNL     1       6.151  -1.019  -0.833  1.00  0.00    -0.246 OA
BRANCH  34  36
ATOM     36  C   UNL     1       7.952   0.496  -1.162  1.00  0.00     0.060 A 
ATOM     37  C   UNL     1       7.633   1.848  -1.049  1.00  0.00     0.016 A 
ATOM     38  C   UNL     1       8.949   0.071  -2.035  1.00  0.00     0.016 A 
ATOM     39  C   UNL     1       8.256   2.780  -1.872  1.00  0.00     0.010 A 
ATOM     40  C   UNL     1       9.631   1.024  -2.801  1.00  0.00     0.010 A 
ATOM     41  C   UNL     1       9.271   2.386  -2.751  1.00  0.00    -0.014 A 
BRANCH  41  42
ATOM     42  C   UNL     1       9.934   3.378  -3.641  1.00  0.00     0.031 A 
ATOM     43  C   UNL     1       9.919   3.172  -5.132  1.00  0.00     0.074 A 
ATOM     44  C   UNL     1      10.558   4.460  -3.132  1.00  0.00     0.049 A 
ATOM     45  N   UNL     1      10.654   3.741  -6.053  1.00  0.00    -0.248 NA
ATOM     46  C   UNL     1       8.961   2.183  -5.655  1.00  0.00     0.031 C 
ATOM     47  C   UNL     1      10.594   4.841  -1.718  1.00  0.00     0.029 A 
ATOM     48  N   UNL     1      11.292   5.440  -3.756  1.00  0.00    -0.354 N 
ATOM     49  C   UNL     1      10.308   3.122  -7.248  1.00  0.00     0.074 A 
ATOM     50  C   UNL     1       9.279   2.152  -6.942  1.00  0.00     0.031 C 
ATOM     51  C   UNL     1      11.289   5.981  -1.587  1.00  0.00     0.029 A 
ATOM     52  C   UNL     1      11.832   6.357  -2.886  1.00  0.00     0.049 A 
ATOM     53  H   UNL     1      11.418   5.481  -4.731  1.00  0.00     0.167 HD
ATOM     54  C   UNL     1      10.820   3.334  -8.483  1.00  0.00     0.031 A 
ATOM     55  C   UNL     1      12.715   7.351  -3.094  1.00  0.00     0.031 A 
ATOM     56  C   UNL     1      11.794   4.345  -8.794  1.00  0.00     0.049 A 
ATOM     57  C   UNL     1      13.284   7.554  -4.469  1.00  0.00     0.074 A 
ATOM     58  C   UNL     1      12.364   4.644 -10.020  1.00  0.00     0.029 A 
ATOM     59  N   UNL     1      12.320   5.240  -7.878  1.00  0.00    -0.354 N 
ATOM     60  N   UNL     1      13.018   6.904  -5.575  1.00  0.00    -0.248 NA
ATOM     61  C   UNL     1      14.295   8.611  -4.617  1.00  0.00     0.031 C 
ATOM     62  C   UNL     1      13.258   5.704  -9.839  1.00  0.00     0.029 A 
ATOM     63  C   UNL     1      13.213   6.088  -8.509  1.00  0.00     0.049 A 
ATOM     64  H   UNL     1      12.093   5.268  -6.920  1.00  0.00     0.167 HD
ATOM     65  C   UNL     1      13.821   7.478  -6.551  1.00  0.00     0.074 A 
ATOM     66  C   UNL     1      14.568   8.541  -5.913  1.00  0.00     0.031 C 
ATOM     67  C   UNL     1      13.936   7.146  -7.859  1.00  0.00     0.031 A 
BRANCH  54  68
ATOM     68  C   UNL     1      10.379   2.423  -9.592  1.00  0.00    -0.014 A 
ATOM     69  C   UNL     1       9.132   2.569 -10.216  1.00  0.00     0.009 A 
ATOM     70  C   UNL     1      11.269   1.444 -10.065  1.00  0.00     0.009 A 
ATOM     71  C   UNL     1       8.779   1.740 -11.284  1.00  0.00     0.001 A 
ATOM     72  C   UNL     1      10.922   0.633 -11.146  1.00  0.00     0.001 A 
ATOM     73  C   UNL     1       9.676   0.778 -11.751  1.00  0.00     0.000 A 
ENDBRANCH  54  68
BRANCH  55  74
ATOM     74  C   UNL     1      13.183   8.181  -1.952  1.00  0.00    -0.014 A 
ATOM     75  C   UNL     1      12.821   9.532  -1.853  1.00  0.00     0.009 A 
ATOM     76  C   UNL     1      14.003   7.622  -0.958  1.00  0.00     0.009 A 
ATOM     77  C   UNL     1      13.286  10.311  -0.791  1.00  0.00     0.001 A 
ATOM     78  C   UNL     1      14.440   8.395   0.119  1.00  0.00     0.001 A 
ATOM     79  C   UNL     1      14.088   9.741   0.197  1.00  0.00     0.000 A 
ENDBRANCH  55  74
BRANCH  67  80
ATOM     80  C   UNL     1      14.873   7.968  -8.692  1.00  0.00    -0.014 A 
ATOM     81  C   UNL     1      16.261   7.776  -8.624  1.00  0.00     0.009 A 
ATOM     82  C   UNL     1      14.354   8.916  -9.588  1.00  0.00     0.009 A 
ATOM     83  C   UNL     1      17.115   8.538  -9.423  1.00  0.00     0.001 A 
ATOM     84  C   UNL     1      15.210   9.661 -10.399  1.00  0.00     0.001 A 
ATOM     85  C   UNL     1      16.589   9.476 -10.311  1.00  0.00     0.000 A 
ENDBRANCH  67  80
ENDBRANCH  41  42
ENDBRANCH  34  36
ENDBRANCH  33  34
ENDBRANCH  32  33
ENDBRANCH   1  32
TORSDOF 17
