REMARK SMILES O=C(OCCOC(=O)C1CC[NH+]([C@@H]2CCO[C@]3(CCOC3)C2)CC1)c1ccc(-c2c3nc(c(-c4ccccc4)c4ccc([nH]4)c(-c4ccccc4)c4nc(c(-c5ccccc5)c5ccc2[nH]5)C=C4)C=C3)cc1
REMARK SMILES IDX 4 1 3 2 2 3 1 4 25 5 26 6 72 7 27 8 71 9 28 10 29 11 30 12
REMARK SMILES IDX 65 13 31 14 70 15 64 16 66 17 32 18 69 19 63 20 62 21 33 23
REMARK SMILES IDX 55 24 40 25 54 26 41 27 44 28 53 29 67 30 42 31 43 32 52 34
REMARK SMILES IDX 68 35 45 36 34 37 35 38 39 39 36 40 38 41 37 42 56 43 57 44
REMARK SMILES IDX 61 45 58 46 60 47 59 48 46 49 47 50 51 51 48 52 50 53 49 54
REMARK SMILES IDX 5 55 6 56 7 57 8 58 9 59 10 60 24 61 11 62 23 63 12 64 13 66
REMARK SMILES IDX 14 67 22 68 15 69 17 70 16 71 18 72 21 73 19 74 20 75
REMARK H PARENT 66 22 44 33 12 65
REMARK Flexibility Score: inf
ROOT
ATOM      1  C   UNL     1       4.487  -0.894  -1.307  1.00  0.00     0.275 C 
ENDROOT
BRANCH   1   2
ATOM      2  O   UNL     1       3.515  -1.642  -0.547  1.00  0.00    -0.458 OA
BRANCH   2   3
ATOM      3  C   UNL     1       3.245  -1.683   0.779  1.00  0.00     0.338 C 
ATOM      4  O   UNL     1       2.358  -2.438   1.175  1.00  0.00    -0.246 OA
BRANCH   3   5
ATOM      5  C   UNL     1       3.878  -0.784   1.800  1.00  0.00     0.060 A 
ATOM      6  C   UNL     1       5.116  -0.151   1.675  1.00  0.00     0.016 A 
ATOM      7  C   UNL     1       3.121  -0.521   2.964  1.00  0.00     0.016 A 
ATOM      8  C   UNL     1       5.556   0.771   2.629  1.00  0.00     0.010 A 
ATOM      9  C   UNL     1       3.545   0.419   3.914  1.00  0.00     0.010 A 
ATOM     10  C   UNL     1       4.784   1.051   3.760  1.00  0.00    -0.014 A 
BRANCH  10  11
ATOM     11  C   UNL     1       5.449   1.726   4.898  1.00  0.00     0.031 A 
ATOM     12  C   UNL     1       6.010   0.828   5.965  1.00  0.00     0.074 A 
ATOM     13  C   UNL     1       5.680   3.052   4.918  1.00  0.00     0.049 A 
ATOM     14  N   UNL     1       6.787   1.119   6.973  1.00  0.00    -0.248 NA
ATOM     15  C   UNL     1       5.664  -0.602   5.865  1.00  0.00     0.031 C 
ATOM     16  C   UNL     1       5.241   4.008   3.903  1.00  0.00     0.029 A 
ATOM     17  N   UNL     1       6.378   3.822   5.816  1.00  0.00    -0.354 N 
ATOM     18  C   UNL     1       7.027  -0.091   7.612  1.00  0.00     0.074 A 
ATOM     19  C   UNL     1       6.272  -1.107   6.922  1.00  0.00     0.031 C 
ATOM     20  C   UNL     1       5.699   5.233   4.220  1.00  0.00     0.029 A 
ATOM     21  C   UNL     1       6.454   5.151   5.467  1.00  0.00     0.049 A 
ATOM     22  H   UNL     1       6.786   3.456   6.634  1.00  0.00     0.167 HD
ATOM     23  C   UNL     1       7.827  -0.346   8.670  1.00  0.00     0.031 A 
ATOM     24  C   UNL     1       7.077   6.175   6.084  1.00  0.00     0.031 A 
ATOM     25  C   UNL     1       8.547   0.669   9.377  1.00  0.00     0.049 A 
ATOM     26  C   UNL     1       7.872   5.883   7.333  1.00  0.00     0.074 A 
ATOM     27  C   UNL     1       9.359   0.540  10.486  1.00  0.00     0.029 A 
ATOM     28  N   UNL     1       8.520   2.016   9.043  1.00  0.00    -0.354 N 
ATOM     29  N   UNL     1       8.118   4.729   7.907  1.00  0.00    -0.248 NA
ATOM     30  C   UNL     1       8.488   7.034   8.009  1.00  0.00     0.031 C 
ATOM     31  C   UNL     1       9.774   1.821  10.863  1.00  0.00     0.029 A 
ATOM     32  C   UNL     1       9.278   2.737   9.946  1.00  0.00     0.049 A 
ATOM     33  H   UNL     1       8.034   2.400   8.278  1.00  0.00     0.167 HD
ATOM     34  C   UNL     1       8.947   5.009   8.986  1.00  0.00     0.074 A 
ATOM     35  C   UNL     1       9.171   6.441   8.977  1.00  0.00     0.031 C 
ATOM     36  C   UNL     1       9.482   4.162   9.902  1.00  0.00     0.031 A 
BRANCH  23  37
ATOM     37  C   UNL     1       7.881  -1.773   9.135  1.00  0.00    -0.014 A 
ATOM     38  C   UNL     1       8.500  -2.772   8.364  1.00  0.00     0.009 A 
ATOM     39  C   UNL     1       7.228  -2.135  10.321  1.00  0.00     0.009 A 
ATOM     40  C   UNL     1       8.412  -4.113   8.745  1.00  0.00     0.001 A 
ATOM     41  C   UNL     1       7.169  -3.472  10.715  1.00  0.00     0.001 A 
ATOM     42  C   UNL     1       7.747  -4.461   9.920  1.00  0.00     0.000 A 
ENDBRANCH  23  37
BRANCH  24  43
ATOM     43  C   UNL     1       7.000   7.561   5.539  1.00  0.00    -0.014 A 
ATOM     44  C   UNL     1       8.146   8.212   5.054  1.00  0.00     0.009 A 
ATOM     45  C   UNL     1       5.783   8.262   5.545  1.00  0.00     0.009 A 
ATOM     46  C   UNL     1       8.082   9.540   4.619  1.00  0.00     0.001 A 
ATOM     47  C   UNL     1       5.715   9.580   5.081  1.00  0.00     0.001 A 
ATOM     48  C   UNL     1       6.867  10.222   4.631  1.00  0.00     0.000 A 
ENDBRANCH  24  43
BRANCH  36  49
ATOM     49  C   UNL     1      10.395   4.756  10.937  1.00  0.00    -0.014 A 
ATOM     50  C   UNL     1       9.901   5.563  11.973  1.00  0.00     0.009 A 
ATOM     51  C   UNL     1      11.764   4.447  10.904  1.00  0.00     0.009 A 
ATOM     52  C   UNL     1      10.770   6.078  12.937  1.00  0.00     0.001 A 
ATOM     53  C   UNL     1      12.623   4.935  11.888  1.00  0.00     0.001 A 
ATOM     54  C   UNL     1      12.127   5.758  12.897  1.00  0.00     0.000 A 
ENDBRANCH  36  49
ENDBRANCH  10  11
ENDBRANCH   3   5
ENDBRANCH   2   3
ENDBRANCH   1   2
BRANCH   1  55
ATOM     55  C   UNL     1       4.122   0.566  -1.568  1.00  0.00     0.274 C 
BRANCH  55  56
ATOM     56  O   UNL     1       3.593   1.210  -0.407  1.00  0.00    -0.462 OA
BRANCH  56  57
ATOM     57  C   UNL     1       2.234   1.208  -0.257  1.00  0.00     0.309 C 
ATOM     58  O   UNL     1       1.444   0.715  -1.054  1.00  0.00    -0.252 OA
BRANCH  57  59
ATOM     59  C   UNL     1       1.858   1.923   1.036  1.00  0.00     0.110 C 
ATOM     60  C   UNL     1       0.362   2.179   1.194  1.00  0.00     0.077 C 
ATOM     61  C   UNL     1       2.610   3.234   1.127  1.00  0.00     0.077 C 
ATOM     62  C   UNL     1      -0.150   3.304   0.285  1.00  0.00     0.263 C 
ATOM     63  C   UNL     1       2.100   4.085  -0.011  1.00  0.00     0.263 C 
ATOM     64  N   UNL     1       0.731   4.495   0.290  1.00  0.00    -0.332 N 
ATOM     65  H   UNL     1       0.747   4.916   1.219  1.00  0.00     0.348 HD
BRANCH  64  66
ATOM     66  C   UNL     1       0.204   5.563  -0.590  1.00  0.00     0.189 C 
ATOM     67  C   UNL     1       0.550   5.450  -2.075  1.00  0.00     0.093 C 
ATOM     68  C   UNL     1       0.577   6.985  -0.129  1.00  0.00     0.103 C 
ATOM     69  C   UNL     1       1.969   5.889  -2.408  1.00  0.00     0.167 C 
ATOM     70  C   UNL     1       2.025   7.404  -0.430  1.00  0.00     0.099 C 
ATOM     71  O   UNL     1       2.461   7.045  -1.746  1.00  0.00    -0.372 OA
ATOM     72  C   UNL     1       2.984   7.030   0.714  1.00  0.00     0.066 C 
ATOM     73  C   UNL     1       2.183   8.932  -0.387  1.00  0.00     0.195 C 
ATOM     74  C   UNL     1       3.163   8.278   1.560  1.00  0.00     0.163 C 
ATOM     75  O   UNL     1       2.362   9.302   0.979  1.00  0.00    -0.378 OA
ENDBRANCH  64  66
ENDBRANCH  57  59
ENDBRANCH  56  57
ENDBRANCH  55  56
ENDBRANCH   1  55
TORSDOF 12
