REMARK SMILES Cc1cccc(-n2c(C)cc(/C=N\c3ccc(O)c(C(=O)OCCOC(=O)c4ccc(-c5c6nc(c(-c7ccccc7)c7ccc([nH]7)c(-c7ccccc7)c7nc(c(-c8ccccc8)c8ccc5[nH]8)C=C7)C=C6)cc4)c3)c2C)c1
REMARK SMILES IDX 23 1 22 2 20 3 21 4 19 5 14 6 15 7 76 8 16 9 17 10 13 11
REMARK SMILES IDX 12 12 11 13 7 14 8 15 77 16 9 17 10 18 78 19 6 20 1 21 2 22
REMARK SMILES IDX 3 23 79 24 4 25 5 26 18 27 24 29 25 30 26 31 27 32 28 33
REMARK SMILES IDX 29 34 75 35 30 36 74 37 31 38 32 39 33 40 68 41 34 42 73 43
REMARK SMILES IDX 67 44 69 45 35 46 72 47 66 48 65 49 36 51 58 52 43 53 57 54
REMARK SMILES IDX 44 55 47 56 56 57 70 58 45 59 46 60 55 62 71 63 48 64 37 65
REMARK SMILES IDX 38 66 42 67 39 68 41 69 40 70 59 71 60 72 64 73 61 74 63 75
REMARK SMILES IDX 62 76 49 77 50 78 54 79 51 80 53 81 52 82
REMARK H PARENT 18 28 69 50 47 61
REMARK Flexibility Score: inf
ROOT
ATOM      1  C   UNL     1      -7.545  -2.051   6.700  1.00  0.00     0.275 C 
ENDROOT
BRANCH   1   2
ATOM      2  O   UNL     1      -6.399  -1.732   5.890  1.00  0.00    -0.458 OA
BRANCH   2   3
ATOM      3  C   UNL     1      -6.416  -0.414   5.170  1.00  0.00     0.342 C 
ATOM      4  O   UNL     1      -7.669  -0.270   5.043  1.00  0.00    -0.246 OA
BRANCH   3   5
ATOM      5  C   UNL     1      -4.731   0.815   4.625  1.00  0.00     0.103 A 
ATOM      6  C   UNL     1      -3.726   3.159   3.569  1.00  0.00     0.064 A 
ATOM      7  C   UNL     1      -2.483   2.987   4.107  1.00  0.00     0.032 A 
ATOM      8  C   UNL     1      -4.738   2.199   3.880  1.00  0.00     0.048 A 
ATOM      9  C   UNL     1      -2.212   1.763   4.686  1.00  0.00     0.049 A 
ATOM     10  C   UNL     1      -3.208   0.728   4.827  1.00  0.00     0.130 A 
BRANCH   6  11
ATOM     11  N   UNL     1      -4.072   4.281   2.811  1.00  0.00    -0.256 NA
ATOM     12  C   UNL     1      -3.727   4.512   1.576  1.00  0.00     0.121 C 
BRANCH  12  13
ATOM     13  C   UNL     1      -2.921   3.777   0.598  1.00  0.00     0.014 A 
ATOM     14  N   UNL     1      -1.675   2.288  -0.569  1.00  0.00    -0.318 N 
ATOM     15  C   UNL     1      -1.558   3.494  -1.230  1.00  0.00     0.021 A 
ATOM     16  C   UNL     1      -2.590   2.430   0.474  1.00  0.00     0.029 A 
ATOM     17  C   UNL     1      -0.762   3.665  -2.478  1.00  0.00     0.065 C 
ATOM     18  C   UNL     1      -2.332   4.411  -0.547  1.00  0.00     0.033 A 
ATOM     19  C   UNL     1      -2.979   1.264   1.307  1.00  0.00     0.065 C 
BRANCH  14  20
ATOM     20  C   UNL     1      -0.882   1.131  -0.782  1.00  0.00     0.046 A 
ATOM     21  C   UNL     1       2.672   0.033  -0.002  1.00  0.00     0.044 C 
ATOM     22  C   UNL     1       1.216   0.008  -0.361  1.00  0.00    -0.049 A 
ATOM     23  C   UNL     1       0.565  -1.224  -0.524  1.00  0.00     0.003 A 
ATOM     24  C   UNL     1       0.485   1.195  -0.494  1.00  0.00     0.030 A 
ATOM     25  C   UNL     1      -0.784  -1.276  -0.875  1.00  0.00     0.002 A 
ATOM     26  C   UNL     1      -1.505  -0.096  -1.028  1.00  0.00     0.026 A 
ENDBRANCH  14  20
ENDBRANCH  12  13
ENDBRANCH   6  11
BRANCH  10  27
ATOM     27  O   UNL     1      -2.462  -0.453   5.002  1.00  0.00    -0.507 OA
ATOM     28  H   UNL     1      -1.534  -0.407   5.118  1.00  0.00     0.293 HD
ENDBRANCH  10  27
ENDBRANCH   3   5
ENDBRANCH   2   3
ENDBRANCH   1   2
BRANCH   1  29
ATOM     29  C   UNL     1      -7.479  -1.202   7.977  1.00  0.00     0.275 C 
BRANCH  29  30
ATOM     30  O   UNL     1      -7.657   0.230   7.776  1.00  0.00    -0.458 OA
BRANCH  30  31
ATOM     31  C   UNL     1      -6.576   1.063   7.797  1.00  0.00     0.338 C 
ATOM     32  O   UNL     1      -6.352   1.905   8.646  1.00  0.00    -0.246 OA
BRANCH  31  33
ATOM     33  C   UNL     1      -5.817   1.007   6.526  1.00  0.00     0.060 A 
ATOM     34  C   UNL     1      -6.705   1.618   5.071  1.00  0.00     0.016 A 
ATOM     35  C   UNL     1      -4.736  -0.427   6.393  1.00  0.00     0.016 A 
ATOM     36  C   UNL     1      -6.558   0.710   3.460  1.00  0.00     0.010 A 
ATOM     37  C   UNL     1      -4.615  -1.335   4.796  1.00  0.00     0.010 A 
ATOM     38  C   UNL     1      -5.541  -0.774   3.353  1.00  0.00    -0.014 A 
BRANCH  38  39
ATOM     39  C   UNL     1      -5.953  -1.896   2.504  1.00  0.00     0.031 A 
ATOM     40  C   UNL     1      -4.912  -2.645   1.775  1.00  0.00     0.074 A 
ATOM     41  C   UNL     1      -7.242  -2.330   2.549  1.00  0.00     0.049 A 
ATOM     42  N   UNL     1      -5.162  -3.350   0.730  1.00  0.00    -0.248 NA
ATOM     43  C   UNL     1      -3.490  -2.639   2.115  1.00  0.00     0.031 C 
ATOM     44  C   UNL     1      -7.810  -3.565   2.008  1.00  0.00     0.029 A 
ATOM     45  N   UNL     1      -8.383  -1.685   3.017  1.00  0.00    -0.354 N 
ATOM     46  C   UNL     1      -4.048  -4.104   0.449  1.00  0.00     0.074 A 
ATOM     47  C   UNL     1      -3.006  -3.571   1.286  1.00  0.00     0.031 C 
ATOM     48  C   UNL     1      -9.143  -3.413   1.884  1.00  0.00     0.029 A 
ATOM     49  C   UNL     1      -9.465  -2.038   2.223  1.00  0.00     0.049 A 
ATOM     50  H   UNL     1      -8.417  -1.075   3.789  1.00  0.00     0.167 HD
ATOM     51  C   UNL     1      -4.184  -5.172  -0.382  1.00  0.00     0.031 A 
ATOM     52  C   UNL     1     -10.090  -1.122   1.421  1.00  0.00     0.031 A 
ATOM     53  C   UNL     1      -5.561  -5.266  -0.873  1.00  0.00     0.049 A 
ATOM     54  C   UNL     1      -9.803  -1.402  -0.051  1.00  0.00     0.074 A 
ATOM     55  C   UNL     1      -6.662  -6.015  -0.493  1.00  0.00     0.029 A 
ATOM     56  N   UNL     1      -6.061  -4.207  -1.613  1.00  0.00    -0.354 N 
ATOM     57  N   UNL     1      -9.031  -2.371  -0.470  1.00  0.00    -0.248 NA
ATOM     58  C   UNL     1     -10.289  -0.587  -1.163  1.00  0.00     0.031 C 
ATOM     59  C   UNL     1      -7.831  -5.368  -1.002  1.00  0.00     0.029 A 
ATOM     60  C   UNL     1      -7.436  -4.261  -1.732  1.00  0.00     0.049 A 
ATOM     61  H   UNL     1      -5.502  -3.500  -2.008  1.00  0.00     0.167 HD
ATOM     62  C   UNL     1      -8.884  -2.323  -1.826  1.00  0.00     0.074 A 
ATOM     63  C   UNL     1      -9.674  -1.164  -2.214  1.00  0.00     0.031 C 
ATOM     64  C   UNL     1      -8.110  -3.223  -2.509  1.00  0.00     0.031 A 
BRANCH  51  65
ATOM     65  C   UNL     1      -3.147  -6.247  -0.574  1.00  0.00    -0.014 A 
ATOM     66  C   UNL     1      -3.559  -7.523  -1.001  1.00  0.00     0.009 A 
ATOM     67  C   UNL     1      -1.770  -6.093  -0.334  1.00  0.00     0.009 A 
ATOM     68  C   UNL     1      -2.667  -8.598  -1.109  1.00  0.00     0.001 A 
ATOM     69  C   UNL     1      -0.874  -7.170  -0.414  1.00  0.00     0.001 A 
ATOM     70  C   UNL     1      -1.326  -8.427  -0.795  1.00  0.00     0.000 A 
ENDBRANCH  51  65
BRANCH  52  71
ATOM     71  C   UNL     1     -10.293   0.221   2.061  1.00  0.00    -0.014 A 
ATOM     72  C   UNL     1     -10.996   0.247   3.289  1.00  0.00     0.009 A 
ATOM     73  C   UNL     1      -9.575   1.369   1.703  1.00  0.00     0.009 A 
ATOM     74  C   UNL     1     -10.840   1.296   4.201  1.00  0.00     0.001 A 
ATOM     75  C   UNL     1      -9.442   2.438   2.612  1.00  0.00     0.001 A 
ATOM     76  C   UNL     1     -10.036   2.379   3.873  1.00  0.00     0.000 A 
ENDBRANCH  52  71
BRANCH  64  77
ATOM     77  C   UNL     1      -7.877  -3.196  -4.002  1.00  0.00    -0.014 A 
ATOM     78  C   UNL     1      -8.828  -2.741  -4.920  1.00  0.00     0.009 A 
ATOM     79  C   UNL     1      -6.689  -3.732  -4.551  1.00  0.00     0.009 A 
ATOM     80  C   UNL     1      -8.553  -2.707  -6.294  1.00  0.00     0.001 A 
ATOM     81  C   UNL     1      -6.417  -3.724  -5.918  1.00  0.00     0.001 A 
ATOM     82  C   UNL     1      -7.343  -3.183  -6.790  1.00  0.00     0.000 A 
ENDBRANCH  64  77
ENDBRANCH  38  39
ENDBRANCH  31  33
ENDBRANCH  30  31
ENDBRANCH  29  30
ENDBRANCH   1  29
TORSDOF 15
