REMARK SMILES C=CC[C@@]1(C(=O)OCCOC(=O)c2ccc(-c3c4nc(c(-c5ccccc5)c5ccc([nH]5)c(-c5ccccc5)c5nc(c(-c6ccccc6)c6ccc3[nH]6)C=C5)C=C4)cc2)CCCN(C(=O)c2ccc3c(c2)OCO3)C1
REMARK SMILES IDX 8 1 7 2 5 3 6 4 4 5 61 6 76 7 62 8 64 9 63 10 3 11 2 12 1 13
REMARK SMILES IDX 65 14 66 15 67 16 68 17 72 18 69 19 71 20 70 21 73 22 75 23
REMARK SMILES IDX 74 24 9 25 10 26 11 27 12 28 13 29 14 30 60 31 15 32 59 33
REMARK SMILES IDX 16 34 17 35 18 36 53 37 19 38 58 39 52 40 54 41 20 42 57 43
REMARK SMILES IDX 51 44 50 45 21 47 43 48 28 49 42 50 29 51 32 52 41 53 55 54
REMARK SMILES IDX 30 55 31 56 40 58 56 59 33 60 22 61 23 62 27 63 24 64 26 65
REMARK SMILES IDX 25 66 44 67 45 68 49 69 46 70 48 71 47 72 34 73 35 74 39 75
REMARK SMILES IDX 36 76 38 77 37 78
REMARK H PARENT 54 46 32 57
REMARK Flexibility Score: inf
ROOT
ATOM      1  C   UNL     1       0.692   1.139  -0.090  1.00  0.00     0.274 C 
ENDROOT
BRANCH   1   2
ATOM      2  O   UNL     1      -0.043   0.066   0.536  1.00  0.00    -0.462 OA
BRANCH   2   3
ATOM      3  C   UNL     1      -0.819   0.431   1.593  1.00  0.00     0.314 C 
ATOM      4  O   UNL     1      -0.966   1.600   1.932  1.00  0.00    -0.252 OA
BRANCH   3   5
ATOM      5  C   UNL     1      -1.442  -0.767   2.336  1.00  0.00     0.089 C 
ATOM      6  C   UNL     1      -0.413  -1.927   2.454  1.00  0.00     0.023 C 
ATOM      7  C   UNL     1      -2.748  -1.243   1.668  1.00  0.00     0.138 C 
ATOM      8  C   UNL     1      -0.309  -2.814   1.213  1.00  0.00     0.023 C 
ATOM      9  N   UNL     1      -2.575  -2.142   0.529  1.00  0.00    -0.337 N 
ATOM     10  C   UNL     1      -1.676  -3.274   0.743  1.00  0.00     0.120 C 
BRANCH   5  11
ATOM     11  C   UNL     1      -1.759  -0.293   3.800  1.00  0.00     0.047 C 
BRANCH  11  12
ATOM     12  C   UNL     1      -2.841   0.750   3.967  1.00  0.00    -0.034 C 
ATOM     13  C   UNL     1      -4.046   0.528   4.504  1.00  0.00     0.004 C 
ENDBRANCH  11  12
ENDBRANCH   5  11
BRANCH   9  14
ATOM     14  C   UNL     1      -3.532  -2.111  -0.494  1.00  0.00     0.254 C 
ATOM     15  O   UNL     1      -4.542  -1.414  -0.474  1.00  0.00    -0.269 OA
BRANCH  14  16
ATOM     16  C   UNL     1      -3.323  -3.000  -1.654  1.00  0.00     0.043 A 
ATOM     17  C   UNL     1      -2.220  -2.781  -2.507  1.00  0.00     0.018 A 
ATOM     18  C   UNL     1      -4.176  -4.093  -1.830  1.00  0.00     0.064 A 
ATOM     19  C   UNL     1      -1.928  -3.693  -3.523  1.00  0.00     0.051 A 
ATOM     20  C   UNL     1      -3.838  -4.989  -2.820  1.00  0.00     0.166 A 
ATOM     21  C   UNL     1      -2.742  -4.800  -3.636  1.00  0.00     0.165 A 
ATOM     22  O   UNL     1      -4.479  -6.160  -3.086  1.00  0.00    -0.454 OA
ATOM     23  O   UNL     1      -2.563  -5.828  -4.508  1.00  0.00    -0.454 OA
ATOM     24  C   UNL     1      -3.583  -6.742  -4.055  1.00  0.00     0.468 C 
ENDBRANCH  14  16
ENDBRANCH   9  14
ENDBRANCH   3   5
ENDBRANCH   2   3
ENDBRANCH   1   2
BRANCH   1  25
ATOM     25  C   UNL     1      -0.022   1.657  -1.333  1.00  0.00     0.275 C 
BRANCH  25  26
ATOM     26  O   UNL     1      -1.370   2.029  -1.008  1.00  0.00    -0.458 OA
BRANCH  26  27
ATOM     27  C   UNL     1      -2.328   1.355  -1.687  1.00  0.00     0.338 C 
ATOM     28  O   UNL     1      -2.151   0.546  -2.583  1.00  0.00    -0.246 OA
BRANCH  27  29
ATOM     29  C   UNL     1      -3.669   1.770  -1.239  1.00  0.00     0.060 A 
ATOM     30  C   UNL     1      -3.993   1.878   0.115  1.00  0.00     0.016 A 
ATOM     31  C   UNL     1      -4.652   1.950  -2.211  1.00  0.00     0.016 A 
ATOM     32  C   UNL     1      -5.321   2.070   0.500  1.00  0.00     0.010 A 
ATOM     33  C   UNL     1      -5.958   2.244  -1.827  1.00  0.00     0.010 A 
ATOM     34  C   UNL     1      -6.312   2.283  -0.467  1.00  0.00    -0.014 A 
BRANCH  34  35
ATOM     35  C   UNL     1      -7.717   2.593  -0.104  1.00  0.00     0.031 A 
ATOM     36  C   UNL     1      -8.835   1.721  -0.602  1.00  0.00     0.074 A 
ATOM     37  C   UNL     1      -7.995   3.720   0.578  1.00  0.00     0.049 A 
ATOM     38  N   UNL     1     -10.113   1.991  -0.693  1.00  0.00    -0.248 NA
ATOM     39  C   UNL     1      -8.465   0.377  -1.073  1.00  0.00     0.031 C 
ATOM     40  C   UNL     1      -7.007   4.627   1.165  1.00  0.00     0.029 A 
ATOM     41  N   UNL     1      -9.200   4.316   0.857  1.00  0.00    -0.354 N 
ATOM     42  C   UNL     1     -10.694   0.873  -1.277  1.00  0.00     0.074 A 
ATOM     43  C   UNL     1      -9.630  -0.083  -1.512  1.00  0.00     0.031 C 
ATOM     44  C   UNL     1      -7.642   5.666   1.725  1.00  0.00     0.029 A 
ATOM     45  C   UNL     1      -9.069   5.545   1.455  1.00  0.00     0.049 A 
ATOM     46  H   UNL     1     -10.070   3.903   0.651  1.00  0.00     0.167 HD
ATOM     47  C   UNL     1     -11.994   0.674  -1.600  1.00  0.00     0.031 A 
ATOM     48  C   UNL     1      -9.978   6.508   1.694  1.00  0.00     0.031 A 
ATOM     49  C   UNL     1     -13.045   1.626  -1.348  1.00  0.00     0.049 A 
ATOM     50  C   UNL     1     -11.397   6.299   1.261  1.00  0.00     0.074 A 
ATOM     51  C   UNL     1     -14.396   1.519  -1.632  1.00  0.00     0.029 A 
ATOM     52  N   UNL     1     -12.861   2.860  -0.744  1.00  0.00    -0.354 N 
ATOM     53  N   UNL     1     -11.930   5.265   0.658  1.00  0.00    -0.248 NA
ATOM     54  C   UNL     1     -12.336   7.397   1.526  1.00  0.00     0.031 C 
ATOM     55  C   UNL     1     -15.023   2.704  -1.232  1.00  0.00     0.029 A 
ATOM     56  C   UNL     1     -14.070   3.529  -0.658  1.00  0.00     0.049 A 
ATOM     57  H   UNL     1     -11.998   3.209  -0.423  1.00  0.00     0.167 HD
ATOM     58  C   UNL     1     -13.271   5.577   0.491  1.00  0.00     0.074 A 
ATOM     59  C   UNL     1     -13.472   6.894   1.060  1.00  0.00     0.031 C 
ATOM     60  C   UNL     1     -14.250   4.835  -0.081  1.00  0.00     0.031 A 
BRANCH  47  61
ATOM     61  C   UNL     1     -12.354  -0.605  -2.301  1.00  0.00    -0.014 A 
ATOM     62  C   UNL     1     -12.416  -1.826  -1.613  1.00  0.00     0.009 A 
ATOM     63  C   UNL     1     -12.694  -0.575  -3.663  1.00  0.00     0.009 A 
ATOM     64  C   UNL     1     -12.789  -2.995  -2.282  1.00  0.00     0.001 A 
ATOM     65  C   UNL     1     -13.087  -1.740  -4.324  1.00  0.00     0.001 A 
ATOM     66  C   UNL     1     -13.129  -2.950  -3.635  1.00  0.00     0.000 A 
ENDBRANCH  47  61
BRANCH  48  67
ATOM     67  C   UNL     1      -9.544   7.782   2.319  1.00  0.00    -0.014 A 
ATOM     68  C   UNL     1      -9.882   8.072   3.648  1.00  0.00     0.009 A 
ATOM     69  C   UNL     1      -8.757   8.696   1.600  1.00  0.00     0.009 A 
ATOM     70  C   UNL     1      -9.445   9.258   4.243  1.00  0.00     0.001 A 
ATOM     71  C   UNL     1      -8.299   9.867   2.206  1.00  0.00     0.001 A 
ATOM     72  C   UNL     1      -8.649  10.150   3.525  1.00  0.00     0.000 A 
ENDBRANCH  48  67
BRANCH  60  73
ATOM     73  C   UNL     1     -15.634   5.411  -0.069  1.00  0.00    -0.014 A 
ATOM     74  C   UNL     1     -16.012   6.417  -0.970  1.00  0.00     0.009 A 
ATOM     75  C   UNL     1     -16.583   4.908   0.836  1.00  0.00     0.009 A 
ATOM     76  C   UNL     1     -17.312   6.926  -0.949  1.00  0.00     0.001 A 
ATOM     77  C   UNL     1     -17.886   5.405   0.840  1.00  0.00     0.001 A 
ATOM     78  C   UNL     1     -18.248   6.417  -0.048  1.00  0.00     0.000 A 
ENDBRANCH  60  73
ENDBRANCH  34  35
ENDBRANCH  27  29
ENDBRANCH  26  27
ENDBRANCH  25  26
ENDBRANCH   1  25
TORSDOF 15
