REMARK SMILES C[C@H](NC(=O)c1c(C(=O)OCCOC(=O)c2ccc(-c3c4nc(c(-c5ccccc5)c5ccc([nH]5)c(-c5ccccc5)c5nc(c(-c6ccccc6)c6ccc3[nH]6)C=C5)C=C4)cc2)cnn1C)[C@]12C[C@H]3C[C@H](C[C@H](C3)C1)C2
REMARK SMILES IDX 11 1 10 2 8 3 9 4 7 5 6 6 66 7 64 8 65 9 67 10 4 11 3 12
REMARK SMILES IDX 5 14 2 15 1 16 68 17 69 18 76 19 77 20 70 21 74 22 72 23
REMARK SMILES IDX 71 24 75 25 73 26 12 27 13 28 14 29 15 30 16 31 17 32 63 33
REMARK SMILES IDX 18 34 62 35 19 36 20 37 21 38 56 39 22 40 61 41 55 42 57 43
REMARK SMILES IDX 23 44 60 45 54 46 53 47 24 49 46 50 31 51 45 52 32 53 35 54
REMARK SMILES IDX 44 55 58 56 33 57 34 58 43 60 59 61 36 62 25 63 26 64 30 65
REMARK SMILES IDX 27 66 29 67 28 68 47 69 48 70 52 71 49 72 51 73 50 74 37 75
REMARK SMILES IDX 38 76 42 77 39 78 41 79 40 80
REMARK H PARENT 3 13 57 48 35 59
REMARK Flexibility Score: inf
ROOT
ATOM      1  C   UNL     1       0.579  -4.119   2.729  1.00  0.00     0.275 C 
ENDROOT
BRANCH   1   2
ATOM      2  O   UNL     1       1.045  -3.446   1.543  1.00  0.00    -0.458 OA
BRANCH   2   3
ATOM      3  C   UNL     1       2.019  -4.107   0.856  1.00  0.00     0.342 C 
ATOM      4  O   UNL     1       2.410  -5.231   1.134  1.00  0.00    -0.246 OA
BRANCH   3   5
ATOM      5  C   UNL     1       2.555  -3.391  -0.289  1.00  0.00     0.111 A 
ATOM      6  C   UNL     1       2.540  -2.035  -0.613  1.00  0.00     0.140 A 
ATOM      7  N   UNL     1       3.450  -1.934  -1.645  1.00  0.00    -0.262 N 
ATOM      8  C   UNL     1       3.297  -3.998  -1.329  1.00  0.00     0.151 A 
ATOM      9  N   UNL     1       3.773  -3.115  -2.202  1.00  0.00    -0.180 NA
ATOM     10  C   UNL     1       4.181  -0.770  -2.094  1.00  0.00     0.174 C 
BRANCH   6  11
ATOM     11  C   UNL     1       1.991  -0.934   0.130  1.00  0.00     0.270 C 
ATOM     12  N   UNL     1       1.114  -0.037  -0.428  1.00  0.00    -0.348 N 
ATOM     13  H   UNL     1       0.953   0.727   0.172  1.00  0.00     0.164 HD
ATOM     14  O   UNL     1       2.319  -0.731   1.299  1.00  0.00    -0.267 OA
BRANCH  12  15
ATOM     15  C   UNL     1       0.346   0.096  -1.686  1.00  0.00     0.085 C 
ATOM     16  C   UNL     1       0.808  -0.776  -2.849  1.00  0.00     0.031 C 
BRANCH  15  17
ATOM     17  C   UNL     1      -1.223   0.100  -1.457  1.00  0.00    -0.009 C 
ATOM     18  C   UNL     1      -1.681  -0.814  -0.287  1.00  0.00     0.012 C 
ATOM     19  C   UNL     1      -1.996  -0.346  -2.735  1.00  0.00     0.012 C 
ATOM     20  C   UNL     1      -1.690   1.550  -1.118  1.00  0.00     0.012 C 
ATOM     21  C   UNL     1      -3.213  -0.747  -0.097  1.00  0.00    -0.010 C 
ATOM     22  C   UNL     1      -3.516  -0.283  -2.546  1.00  0.00    -0.010 C 
ATOM     23  C   UNL     1      -3.218   1.625  -0.941  1.00  0.00    -0.010 C 
ATOM     24  C   UNL     1      -3.636   0.700   0.211  1.00  0.00     0.007 C 
ATOM     25  C   UNL     1      -3.912  -1.204  -1.385  1.00  0.00     0.007 C 
ATOM     26  C   UNL     1      -3.912   1.165  -2.232  1.00  0.00     0.007 C 
ENDBRANCH  15  17
ENDBRANCH  12  15
ENDBRANCH   6  11
ENDBRANCH   3   5
ENDBRANCH   2   3
ENDBRANCH   1   2
BRANCH   1  27
ATOM     27  C   UNL     1      -0.708  -4.911   2.486  1.00  0.00     0.275 C 
BRANCH  27  28
ATOM     28  O   UNL     1      -0.502  -5.996   1.561  1.00  0.00    -0.458 OA
BRANCH  28  29
ATOM     29  C   UNL     1      -0.946  -5.772   0.303  1.00  0.00     0.338 C 
ATOM     30  O   UNL     1      -1.525  -4.784  -0.117  1.00  0.00    -0.246 OA
BRANCH  29  31
ATOM     31  C   UNL     1      -0.523  -6.868  -0.580  1.00  0.00     0.060 A 
ATOM     32  C   UNL     1       0.630  -6.676  -1.337  1.00  0.00     0.016 A 
ATOM     33  C   UNL     1      -1.317  -7.997  -0.780  1.00  0.00     0.016 A 
ATOM     34  C   UNL     1       0.993  -7.594  -2.317  1.00  0.00     0.010 A 
ATOM     35  C   UNL     1      -0.937  -8.938  -1.748  1.00  0.00     0.010 A 
ATOM     36  C   UNL     1       0.210  -8.732  -2.540  1.00  0.00    -0.014 A 
BRANCH  36  37
ATOM     37  C   UNL     1       0.563  -9.654  -3.651  1.00  0.00     0.031 A 
ATOM     38  C   UNL     1      -0.339  -9.774  -4.849  1.00  0.00     0.074 A 
ATOM     39  C   UNL     1       1.718 -10.347  -3.617  1.00  0.00     0.049 A 
ATOM     40  N   UNL     1      -0.252 -10.584  -5.874  1.00  0.00    -0.248 NA
ATOM     41  C   UNL     1      -1.494  -8.864  -4.896  1.00  0.00     0.031 C 
ATOM     42  C   UNL     1       2.717 -10.276  -2.550  1.00  0.00     0.029 A 
ATOM     43  N   UNL     1       2.250 -11.240  -4.514  1.00  0.00    -0.354 N 
ATOM     44  C   UNL     1      -1.361 -10.311  -6.666  1.00  0.00     0.074 A 
ATOM     45  C   UNL     1      -2.111  -9.270  -5.996  1.00  0.00     0.031 C 
ATOM     46  C   UNL     1       3.751 -11.071  -2.865  1.00  0.00     0.029 A 
ATOM     47  C   UNL     1       3.458 -11.760  -4.118  1.00  0.00     0.049 A 
ATOM     48  H   UNL     1       1.809 -11.484  -5.359  1.00  0.00     0.167 HD
ATOM     49  C   UNL     1      -1.723 -10.878  -7.842  1.00  0.00     0.031 A 
ATOM     50  C   UNL     1       4.230 -12.710  -4.678  1.00  0.00     0.031 A 
ATOM     51  C   UNL     1      -0.967 -11.900  -8.518  1.00  0.00     0.049 A 
ATOM     52  C   UNL     1       3.780 -13.368  -5.952  1.00  0.00     0.074 A 
ATOM     53  C   UNL     1      -1.248 -12.531  -9.718  1.00  0.00     0.029 A 
ATOM     54  N   UNL     1       0.225 -12.435  -8.056  1.00  0.00    -0.354 N 
ATOM     55  N   UNL     1       2.710 -13.129  -6.670  1.00  0.00    -0.248 NA
ATOM     56  C   UNL     1       4.640 -14.433  -6.485  1.00  0.00     0.031 C 
ATOM     57  C   UNL     1      -0.252 -13.485  -9.955  1.00  0.00     0.029 A 
ATOM     58  C   UNL     1       0.680 -13.407  -8.933  1.00  0.00     0.049 A 
ATOM     59  H   UNL     1       0.682 -12.165  -7.226  1.00  0.00     0.167 HD
ATOM     60  C   UNL     1       2.773 -14.004  -7.746  1.00  0.00     0.074 A 
ATOM     61  C   UNL     1       3.998 -14.764  -7.597  1.00  0.00     0.031 C 
ATOM     62  C   UNL     1       1.894 -14.164  -8.765  1.00  0.00     0.031 A 
BRANCH  49  63
ATOM     63  C   UNL     1      -3.031 -10.439  -8.442  1.00  0.00    -0.014 A 
ATOM     64  C   UNL     1      -3.194  -9.165  -9.009  1.00  0.00     0.009 A 
ATOM     65  C   UNL     1      -4.120 -11.325  -8.444  1.00  0.00     0.009 A 
ATOM     66  C   UNL     1      -4.433  -8.773  -9.523  1.00  0.00     0.001 A 
ATOM     67  C   UNL     1      -5.348 -10.942  -8.986  1.00  0.00     0.001 A 
ATOM     68  C   UNL     1      -5.507  -9.662  -9.514  1.00  0.00     0.000 A 
ENDBRANCH  49  63
BRANCH  50  69
ATOM     69  C   UNL     1       5.487 -13.127  -4.005  1.00  0.00    -0.014 A 
ATOM     70  C   UNL     1       6.737 -12.808  -4.556  1.00  0.00     0.009 A 
ATOM     71  C   UNL     1       5.440 -13.828  -2.789  1.00  0.00     0.009 A 
ATOM     72  C   UNL     1       7.913 -13.191  -3.906  1.00  0.00     0.001 A 
ATOM     73  C   UNL     1       6.616 -14.184  -2.127  1.00  0.00     0.001 A 
ATOM     74  C   UNL     1       7.852 -13.870  -2.689  1.00  0.00     0.000 A 
ENDBRANCH  50  69
BRANCH  62  75
ATOM     75  C   UNL     1       2.238 -15.186  -9.812  1.00  0.00    -0.014 A 
ATOM     76  C   UNL     1       2.141 -16.561  -9.547  1.00  0.00     0.009 A 
ATOM     77  C   UNL     1       2.636 -14.766 -11.091  1.00  0.00     0.009 A 
ATOM     78  C   UNL     1       2.466 -17.495 -10.533  1.00  0.00     0.001 A 
ATOM     79  C   UNL     1       2.933 -15.701 -12.083  1.00  0.00     0.001 A 
ATOM     80  C   UNL     1       2.857 -17.064 -11.801  1.00  0.00     0.000 A 
ENDBRANCH  62  75
ENDBRANCH  36  37
ENDBRANCH  29  31
ENDBRANCH  28  29
ENDBRANCH  27  28
ENDBRANCH   1  27
TORSDOF 14
