REMARK SMILES C[C@H]1OCC[C@H]1c1nnnn1CCC(=O)OCCOC(=O)c1ccc(-c2c3nc(c(-c4ccccc4)c4ccc([nH]4)c(-c4ccccc4)c4nc(c(-c5ccccc5)c5ccc2[nH]5)C=C4)C=C3)cc1
REMARK SMILES IDX 17 1 16 2 14 3 15 4 13 5 12 6 11 7 7 8 8 9 9 10 10 11 6 12
REMARK SMILES IDX 1 13 2 14 3 15 4 16 5 17 18 18 19 19 20 20 21 21 22 22 23 23
REMARK SMILES IDX 69 24 24 25 68 26 25 27 26 28 27 29 62 30 28 31 67 32 61 33
REMARK SMILES IDX 63 34 29 35 66 36 60 37 59 38 30 40 52 41 37 42 51 43 38 44
REMARK SMILES IDX 41 45 50 46 64 47 39 48 40 49 49 51 65 52 42 53 31 54 32 55
REMARK SMILES IDX 36 56 33 57 35 58 34 59 53 60 54 61 58 62 55 63 57 64 56 65
REMARK SMILES IDX 43 66 44 67 48 68 45 69 47 70 46 71
REMARK H PARENT 63 39 41 50
REMARK Flexibility Score: inf
ROOT
ATOM      1  C   UNL     1       2.436  -6.081  -3.726  1.00  0.00     0.274 C 
ENDROOT
BRANCH   1   2
ATOM      2  O   UNL     1       1.964  -5.444  -2.525  1.00  0.00    -0.462 OA
BRANCH   2   3
ATOM      3  C   UNL     1       2.808  -5.367  -1.471  1.00  0.00     0.307 C 
ATOM      4  O   UNL     1       3.898  -5.922  -1.390  1.00  0.00    -0.252 OA
BRANCH   3   5
ATOM      5  C   UNL     1       2.215  -4.546  -0.355  1.00  0.00     0.146 C 
BRANCH   5   6
ATOM      6  C   UNL     1       2.160  -3.045  -0.604  1.00  0.00     0.160 C 
BRANCH   6   7
ATOM      7  N   UNL     1       1.126  -2.568  -1.495  1.00  0.00    -0.229 N 
ATOM      8  C   UNL     1       0.103  -1.686  -1.242  1.00  0.00     0.157 A 
ATOM      9  N   UNL     1      -0.545  -1.485  -2.374  1.00  0.00    -0.113 NA
ATOM     10  N   UNL     1       0.105  -2.213  -3.328  1.00  0.00    -0.024 NA
ATOM     11  N   UNL     1       1.129  -2.862  -2.804  1.00  0.00    -0.045 NA
BRANCH   8  12
ATOM     12  C   UNL     1      -0.206  -1.089   0.088  1.00  0.00     0.090 C 
ATOM     13  C   UNL     1       1.900   0.446  -0.284  1.00  0.00     0.039 C 
ATOM     14  C   UNL     1       0.581   0.189   0.432  1.00  0.00     0.126 C 
ATOM     15  O   UNL     1      -0.284   1.317   0.194  1.00  0.00    -0.378 OA
ATOM     16  C   UNL     1      -1.524   0.833  -0.330  1.00  0.00     0.161 C 
ATOM     17  C   UNL     1      -1.644  -0.595   0.153  1.00  0.00     0.043 C 
ENDBRANCH   8  12
ENDBRANCH   6   7
ENDBRANCH   5   6
ENDBRANCH   3   5
ENDBRANCH   2   3
ENDBRANCH   1   2
BRANCH   1  18
ATOM     18  C   UNL     1       3.235  -5.134  -4.617  1.00  0.00     0.275 C 
BRANCH  18  19
ATOM     19  O   UNL     1       4.576  -4.990  -4.139  1.00  0.00    -0.458 OA
BRANCH  19  20
ATOM     20  C   UNL     1       4.781  -3.912  -3.353  1.00  0.00     0.338 C 
ATOM     21  O   UNL     1       3.946  -3.140  -2.928  1.00  0.00    -0.246 OA
BRANCH  20  22
ATOM     22  C   UNL     1       6.207  -3.645  -3.182  1.00  0.00     0.060 A 
ATOM     23  C   UNL     1       6.552  -2.585  -2.330  1.00  0.00     0.016 A 
ATOM     24  C   UNL     1       7.122  -4.215  -4.069  1.00  0.00     0.016 A 
ATOM     25  C   UNL     1       7.769  -1.966  -2.504  1.00  0.00     0.010 A 
ATOM     26  C   UNL     1       8.331  -3.588  -4.251  1.00  0.00     0.010 A 
ATOM     27  C   UNL     1       8.601  -2.426  -3.524  1.00  0.00    -0.014 A 
BRANCH  27  28
ATOM     28  C   UNL     1       9.773  -1.644  -3.849  1.00  0.00     0.031 A 
ATOM     29  C   UNL     1      10.938  -1.842  -2.962  1.00  0.00     0.074 A 
ATOM     30  C   UNL     1       9.841  -0.948  -4.998  1.00  0.00     0.049 A 
ATOM     31  N   UNL     1      11.603  -0.950  -2.306  1.00  0.00    -0.248 NA
ATOM     32  C   UNL     1      11.376  -3.226  -2.725  1.00  0.00     0.031 C 
ATOM     33  C   UNL     1       8.888  -0.958  -6.112  1.00  0.00     0.029 A 
ATOM     34  N   UNL     1      10.879  -0.215  -5.480  1.00  0.00    -0.354 N 
ATOM     35  C   UNL     1      12.643  -1.637  -1.690  1.00  0.00     0.074 A 
ATOM     36  C   UNL     1      12.379  -3.042  -1.871  1.00  0.00     0.031 C 
ATOM     37  C   UNL     1       9.511  -0.498  -7.220  1.00  0.00     0.029 A 
ATOM     38  C   UNL     1      10.850  -0.062  -6.857  1.00  0.00     0.049 A 
ATOM     39  H   UNL     1      11.582   0.169  -4.907  1.00  0.00     0.167 HD
ATOM     40  C   UNL     1      13.773  -1.014  -1.262  1.00  0.00     0.031 A 
ATOM     41  C   UNL     1      11.899   0.281  -7.643  1.00  0.00     0.031 A 
ATOM     42  C   UNL     1      13.614   0.408  -1.144  1.00  0.00     0.049 A 
ATOM     43  C   UNL     1      12.945   0.875  -6.774  1.00  0.00     0.074 A 
ATOM     44  C   UNL     1      12.761   1.233  -0.438  1.00  0.00     0.029 A 
ATOM     45  N   UNL     1      14.186   1.202  -2.109  1.00  0.00    -0.354 N 
ATOM     46  N   UNL     1      12.825   2.027  -6.178  1.00  0.00    -0.248 NA
ATOM     47  C   UNL     1      13.966  -0.005  -6.223  1.00  0.00     0.031 C 
ATOM     48  C   UNL     1      12.493   2.323  -1.317  1.00  0.00     0.029 A 
ATOM     49  C   UNL     1      13.228   2.108  -2.485  1.00  0.00     0.049 A 
ATOM     50  H   UNL     1      15.103   1.134  -2.461  1.00  0.00     0.167 HD
ATOM     51  C   UNL     1      13.436   1.856  -4.944  1.00  0.00     0.074 A 
ATOM     52  C   UNL     1      14.218   0.629  -5.074  1.00  0.00     0.031 C 
ATOM     53  C   UNL     1      13.026   2.556  -3.844  1.00  0.00     0.031 A 
BRANCH  40  54
ATOM     54  C   UNL     1      15.122  -1.673  -1.313  1.00  0.00    -0.014 A 
ATOM     55  C   UNL     1      16.211  -1.056  -0.678  1.00  0.00     0.009 A 
ATOM     56  C   UNL     1      15.411  -2.739  -2.190  1.00  0.00     0.009 A 
ATOM     57  C   UNL     1      17.524  -1.460  -0.942  1.00  0.00     0.001 A 
ATOM     58  C   UNL     1      16.716  -3.175  -2.418  1.00  0.00     0.001 A 
ATOM     59  C   UNL     1      17.776  -2.518  -1.812  1.00  0.00     0.000 A 
ENDBRANCH  40  54
BRANCH  41  60
ATOM     60  C   UNL     1      12.164  -0.146  -9.033  1.00  0.00    -0.014 A 
ATOM     61  C   UNL     1      13.133   0.506  -9.808  1.00  0.00     0.009 A 
ATOM     62  C   UNL     1      11.630  -1.350  -9.534  1.00  0.00     0.009 A 
ATOM     63  C   UNL     1      13.569  -0.039 -11.023  1.00  0.00     0.001 A 
ATOM     64  C   UNL     1      12.055  -1.888 -10.752  1.00  0.00     0.001 A 
ATOM     65  C   UNL     1      13.037  -1.239 -11.490  1.00  0.00     0.000 A 
ENDBRANCH  41  60
BRANCH  53  66
ATOM     66  C   UNL     1      12.034   3.676  -4.038  1.00  0.00    -0.014 A 
ATOM     67  C   UNL     1      10.764   3.470  -4.607  1.00  0.00     0.009 A 
ATOM     68  C   UNL     1      12.312   4.931  -3.477  1.00  0.00     0.009 A 
ATOM     69  C   UNL     1       9.816   4.496  -4.645  1.00  0.00     0.001 A 
ATOM     70  C   UNL     1      11.356   5.951  -3.495  1.00  0.00     0.001 A 
ATOM     71  C   UNL     1      10.112   5.736  -4.084  1.00  0.00     0.000 A 
ENDBRANCH  53  66
ENDBRANCH  27  28
ENDBRANCH  20  22
ENDBRANCH  19  20
ENDBRANCH  18  19
ENDBRANCH   1  18
TORSDOF 14
