REMARK SMILES O=C(OCCOC(=O)[C@@H]1CCCCC[C@@H]1NS(=O)(=O)c1cccc(F)c1)c1ccc(-c2c3nc(c(-c4ccccc4)c4ccc([nH]4)c(-c4ccccc4)c4nc(c(-c5ccccc5)c5ccc2[nH]5)C=C4)C=C3)cc1
REMARK SMILES IDX 5 1 4 2 3 3 2 4 1 5 27 6 28 7 74 8 29 9 73 10 30 11 31 12
REMARK SMILES IDX 32 13 67 14 33 15 72 16 66 17 68 18 34 19 71 20 65 21 64 22
REMARK SMILES IDX 35 24 57 25 42 26 56 27 43 28 46 29 55 30 69 31 44 32 45 33
REMARK SMILES IDX 54 35 70 36 47 37 36 38 37 39 41 40 38 41 40 42 39 43 58 44
REMARK SMILES IDX 59 45 63 46 60 47 62 48 61 49 48 50 49 51 53 52 50 53 52 54
REMARK SMILES IDX 51 55 6 56 7 57 8 58 9 59 10 60 11 61 15 63 14 64 13 65
REMARK SMILES IDX 12 66 16 68 17 70 18 71 19 72 20 73 21 74 26 75 22 76 24 77
REMARK SMILES IDX 23 78 25 79
REMARK H PARENT 68 23 46 34 16 69
REMARK Flexibility Score: 90.00
ROOT
ATOM      1  C   UNL     1       4.412   0.840  -0.062  1.00  0.00     0.274 C 
ENDROOT
BRANCH   1   2
ATOM      2  C   UNL     1       4.666  -0.194  -1.162  1.00  0.00     0.275 C 
BRANCH   2   3
ATOM      3  O   UNL     1       3.939  -1.421  -1.079  1.00  0.00    -0.458 OA
BRANCH   3   4
ATOM      4  C   UNL     1       4.373  -2.463  -0.325  1.00  0.00     0.338 C 
ATOM      5  O   UNL     1       4.001  -3.612  -0.520  1.00  0.00    -0.246 OA
BRANCH   4   6
ATOM      6  C   UNL     1       5.058  -2.105   0.932  1.00  0.00     0.060 A 
ATOM      7  C   UNL     1       6.288  -1.433   1.004  1.00  0.00     0.016 A 
ATOM      8  C   UNL     1       4.335  -2.371   2.087  1.00  0.00     0.016 A 
ATOM      9  C   UNL     1       6.736  -0.908   2.221  1.00  0.00     0.010 A 
ATOM     10  C   UNL     1       4.775  -1.849   3.294  1.00  0.00     0.010 A 
ATOM     11  C   UNL     1       5.982  -1.123   3.376  1.00  0.00    -0.014 A 
BRANCH  11  12
ATOM     12  C   UNL     1       6.590  -1.029   4.723  1.00  0.00     0.031 A 
ATOM     13  C   UNL     1       6.966  -2.358   5.315  1.00  0.00     0.074 A 
ATOM     14  C   UNL     1       6.658   0.100   5.452  1.00  0.00     0.049 A 
ATOM     15  N   UNL     1       7.254  -2.673   6.545  1.00  0.00    -0.248 NA
ATOM     16  C   UNL     1       6.918  -3.513   4.390  1.00  0.00     0.031 C 
ATOM     17  C   UNL     1       6.309   1.447   5.012  1.00  0.00     0.029 A 
ATOM     18  N   UNL     1       6.969   0.265   6.779  1.00  0.00    -0.354 N 
ATOM     19  C   UNL     1       7.426  -4.049   6.518  1.00  0.00     0.074 A 
ATOM     20  C   UNL     1       6.988  -4.525   5.231  1.00  0.00     0.031 C 
ATOM     21  C   UNL     1       6.284   2.273   6.076  1.00  0.00     0.029 A 
ATOM     22  C   UNL     1       6.691   1.525   7.258  1.00  0.00     0.049 A 
ATOM     23  H   UNL     1       7.355  -0.450   7.335  1.00  0.00     0.167 HD
ATOM     24  C   UNL     1       8.044  -4.836   7.422  1.00  0.00     0.031 A 
ATOM     25  C   UNL     1       6.770   2.003   8.515  1.00  0.00     0.031 A 
ATOM     26  C   UNL     1       8.551  -4.333   8.658  1.00  0.00     0.049 A 
ATOM     27  C   UNL     1       7.382   1.112   9.565  1.00  0.00     0.074 A 
ATOM     28  C   UNL     1       9.312  -4.973   9.613  1.00  0.00     0.029 A 
ATOM     29  N   UNL     1       8.351  -3.030   9.092  1.00  0.00    -0.354 N 
ATOM     30  N   UNL     1       7.709  -0.156   9.484  1.00  0.00    -0.248 NA
ATOM     31  C   UNL     1       7.724   1.742  10.847  1.00  0.00     0.031 C 
ATOM     32  C   UNL     1       9.560  -4.055  10.639  1.00  0.00     0.029 A 
ATOM     33  C   UNL     1       8.979  -2.840  10.303  1.00  0.00     0.049 A 
ATOM     34  H   UNL     1       7.838  -2.345   8.607  1.00  0.00     0.167 HD
ATOM     35  C   UNL     1       8.385  -0.449  10.661  1.00  0.00     0.074 A 
ATOM     36  C   UNL     1       8.382   0.764  11.455  1.00  0.00     0.031 C 
ATOM     37  C   UNL     1       8.987  -1.603  11.039  1.00  0.00     0.031 A 
BRANCH  24  38
ATOM     38  C   UNL     1       8.279  -6.258   7.003  1.00  0.00    -0.014 A 
ATOM     39  C   UNL     1       9.122  -6.542   5.909  1.00  0.00     0.009 A 
ATOM     40  C   UNL     1       7.589  -7.307   7.619  1.00  0.00     0.009 A 
ATOM     41  C   UNL     1       9.201  -7.832   5.388  1.00  0.00     0.001 A 
ATOM     42  C   UNL     1       7.707  -8.607   7.122  1.00  0.00     0.001 A 
ATOM     43  C   UNL     1       8.493  -8.865   5.997  1.00  0.00     0.000 A 
ENDBRANCH  24  38
BRANCH  25  44
ATOM     44  C   UNL     1       6.378   3.399   8.844  1.00  0.00    -0.014 A 
ATOM     45  C   UNL     1       7.356   4.393   9.011  1.00  0.00     0.009 A 
ATOM     46  C   UNL     1       5.032   3.736   9.058  1.00  0.00     0.009 A 
ATOM     47  C   UNL     1       7.001   5.678   9.432  1.00  0.00     0.001 A 
ATOM     48  C   UNL     1       4.678   5.029   9.462  1.00  0.00     0.001 A 
ATOM     49  C   UNL     1       5.664   5.995   9.661  1.00  0.00     0.000 A 
ENDBRANCH  25  44
BRANCH  37  50
ATOM     50  C   UNL     1       9.781  -1.579  12.308  1.00  0.00    -0.014 A 
ATOM     51  C   UNL     1       9.158  -1.583  13.562  1.00  0.00     0.009 A 
ATOM     52  C   UNL     1      11.183  -1.635  12.233  1.00  0.00     0.009 A 
ATOM     53  C   UNL     1       9.929  -1.622  14.724  1.00  0.00     0.001 A 
ATOM     54  C   UNL     1      11.948  -1.705  13.394  1.00  0.00     0.001 A 
ATOM     55  C   UNL     1      11.320  -1.693  14.639  1.00  0.00     0.000 A 
ENDBRANCH  37  50
ENDBRANCH  11  12
ENDBRANCH   4   6
ENDBRANCH   3   4
ENDBRANCH   2   3
ENDBRANCH   1   2
BRANCH   1  56
ATOM     56  O   UNL     1       3.694   0.455   1.117  1.00  0.00    -0.462 OA
BRANCH  56  57
ATOM     57  C   UNL     1       3.737   1.406   2.096  1.00  0.00     0.310 C 
ATOM     58  O   UNL     1       4.648   2.226   2.188  1.00  0.00    -0.252 OA
BRANCH  57  59
ATOM     59  C   UNL     1       2.521   1.477   3.027  1.00  0.00     0.117 C 
BRANCH  59  60
ATOM     60  C   UNL     1       3.023   1.349   4.468  1.00  0.00     0.017 C 
BRANCH  60  61
ATOM     61  C   UNL     1       2.068   0.860   5.540  1.00  0.00     0.001 CG0
ATOM     62  G   UNL     1       1.987  -0.653   5.535  1.00  0.00     0.000 G0
ENDBRANCH  60  61
ENDBRANCH  59  60
BRANCH  59  63
ATOM     63  C   UNL     1       1.268   0.706   2.603  1.00  0.00     0.084 C 
BRANCH  63  64
ATOM     64  C   UNL     1       1.272  -0.793   2.978  1.00  0.00     0.021 C 
BRANCH  64  65
ATOM     65  C   UNL     1       1.089  -1.223   4.445  1.00  0.00     0.002 C 
BRANCH  65  66
ATOM     66  C   UNL     1       1.987  -0.653   5.535  1.00  0.00     0.000 CG0
ATOM     67  G   UNL     1       2.068   0.860   5.540  1.00  0.00     0.000 G0
ENDBRANCH  65  66
ENDBRANCH  64  65
ENDBRANCH  63  64
BRANCH  63  68
ATOM     68  N   UNL     1       1.056   0.841   1.115  1.00  0.00    -0.207 NA
ATOM     69  H   UNL     1       0.410   0.097   0.855  1.00  0.00     0.141 HD
BRANCH  68  70
ATOM     70  S   UNL     1       0.459   2.252   0.389  1.00  0.00     0.240 S 
ATOM     71  O   UNL     1      -0.297   1.773  -0.758  1.00  0.00    -0.207 OA
ATOM     72  O   UNL     1      -0.136   3.075   1.405  1.00  0.00    -0.207 OA
BRANCH  70  73
ATOM     73  C   UNL     1       1.871   3.134  -0.283  1.00  0.00     0.085 A 
ATOM     74  C   UNL     1       2.220   3.009  -1.642  1.00  0.00     0.022 A 
ATOM     75  C   UNL     1       2.631   3.967   0.543  1.00  0.00     0.061 A 
ATOM     76  C   UNL     1       3.401   3.601  -2.125  1.00  0.00     0.004 A 
ATOM     77  C   UNL     1       3.811   4.528   0.055  1.00  0.00     0.124 A 
ATOM     78  C   UNL     1       4.216   4.333  -1.261  1.00  0.00     0.039 A 
ATOM     79  F   UNL     1       4.595   5.234   0.881  1.00  0.00    -0.207 F 
ENDBRANCH  70  73
ENDBRANCH  68  70
ENDBRANCH  63  68
ENDBRANCH  59  63
ENDBRANCH  57  59
ENDBRANCH  56  57
ENDBRANCH   1  56
TORSDOF 14
