REMARK SMILES CCN(CC)c1ccc([C@@H]2[NH2+][C@@H](C(=O)OCCOC(=O)c3ccc(-c4c5nc(c(-c6ccccc6)c6ccc([nH]6)c(-c6ccccc6)c6nc(c(-c7ccccc7)c7ccc4[nH]7)C=C6)C=C5)cc3)Cc3c2[nH]c2ccccc32)cc1
REMARK SMILES IDX 16 1 15 2 13 3 14 4 12 5 10 6 11 7 71 8 70 11 72 12 69 13
REMARK SMILES IDX 78 14 73 15 77 17 74 18 76 19 75 20 9 21 6 22 7 23 80 24
REMARK SMILES IDX 8 25 79 26 3 27 2 28 1 29 4 30 5 31 17 32 18 33 19 34 20 35
REMARK SMILES IDX 21 36 22 37 68 38 23 39 67 40 24 41 25 42 26 43 61 44 27 45
REMARK SMILES IDX 66 46 60 47 62 48 28 49 65 50 59 51 58 52 29 54 51 55 36 56
REMARK SMILES IDX 50 57 37 58 40 59 49 60 63 61 38 62 39 63 48 65 64 66 41 67
REMARK SMILES IDX 30 68 31 69 35 70 32 71 34 72 33 73 52 74 53 75 57 76 54 77
REMARK SMILES IDX 56 78 55 79 42 80 43 81 47 82 44 83 46 84 45 85
REMARK H PARENT 11 9 11 10 72 16 62 53 40 64
REMARK Flexibility Score: inf
ROOT
ATOM      1  C   UNL     1       9.406  -0.537   1.374  1.00  0.00     0.274 C 
ENDROOT
BRANCH   1   2
ATOM      2  O   UNL     1       8.840  -0.666   0.051  1.00  0.00    -0.458 OA
BRANCH   2   3
ATOM      3  C   UNL     1       7.657  -0.016  -0.084  1.00  0.00     0.365 C 
ATOM      4  O   UNL     1       7.197   0.738   0.775  1.00  0.00    -0.245 OA
BRANCH   3   5
ATOM      5  C   UNL     1       6.835  -0.367  -1.327  1.00  0.00     0.298 C 
ATOM      6  C   UNL     1       6.031  -2.767  -1.066  1.00  0.00     0.262 C 
ATOM      7  N   UNL     1       5.796  -1.307  -0.902  1.00  0.00    -0.323 N 
ATOM      8  C   UNL     1       6.743  -2.977  -2.367  1.00  0.00     0.083 A 
ATOM      9  H   UNL     1       5.631  -1.140   0.090  1.00  0.00     0.347 HD
ATOM     10  H   UNL     1       5.019  -1.113  -1.534  1.00  0.00     0.347 HD
ATOM     11  C   UNL     1       7.122  -1.970  -3.234  1.00  0.00    -0.006 A 
ATOM     12  N   UNL     1       6.941  -4.144  -3.065  1.00  0.00    -0.353 N 
ATOM     13  C   UNL     1       7.475  -0.617  -2.708  1.00  0.00     0.115 C 
ATOM     14  C   UNL     1       6.566  -2.449  -4.458  1.00  0.00     0.003 A 
ATOM     15  C   UNL     1       6.633  -3.847  -4.386  1.00  0.00     0.046 A 
ATOM     16  H   UNL     1       7.239  -5.010  -2.704  1.00  0.00     0.166 HD
ATOM     17  C   UNL     1       5.899  -1.876  -5.561  1.00  0.00     0.010 A 
ATOM     18  C   UNL     1       6.261  -4.691  -5.436  1.00  0.00     0.026 A 
ATOM     19  C   UNL     1       5.356  -2.723  -6.540  1.00  0.00     0.001 A 
ATOM     20  C   UNL     1       5.582  -4.100  -6.505  1.00  0.00     0.002 A 
BRANCH   6  21
ATOM     21  C   UNL     1       4.556  -3.274  -1.027  1.00  0.00     0.016 A 
ATOM     22  C   UNL     1       1.815  -2.558  -1.259  1.00  0.00     0.037 A 
ATOM     23  C   UNL     1       2.491  -3.177  -2.310  1.00  0.00     0.026 A 
ATOM     24  C   UNL     1       2.473  -2.514  -0.025  1.00  0.00     0.026 A 
ATOM     25  C   UNL     1       3.838  -3.539  -2.201  1.00  0.00     0.012 A 
ATOM     26  C   UNL     1       3.810  -2.907   0.110  1.00  0.00     0.012 A 
BRANCH  22  27
ATOM     27  N   UNL     1       0.585  -1.937  -1.434  1.00  0.00    -0.372 N 
BRANCH  27  28
ATOM     28  C   UNL     1       0.527  -0.466  -1.399  1.00  0.00     0.113 C 
ATOM     29  C   UNL     1       0.500   0.101   0.011  1.00  0.00     0.027 C 
ENDBRANCH  27  28
BRANCH  27  30
ATOM     30  C   UNL     1      -0.515  -2.654  -2.081  1.00  0.00     0.113 C 
ATOM     31  C   UNL     1      -0.585  -2.442  -3.589  1.00  0.00     0.027 C 
ENDBRANCH  27  30
ENDBRANCH  22  27
ENDBRANCH   6  21
ENDBRANCH   3   5
ENDBRANCH   2   3
ENDBRANCH   1   2
BRANCH   1  32
ATOM     32  C   UNL     1      10.329   0.677   1.575  1.00  0.00     0.275 C 
BRANCH  32  33
ATOM     33  O   UNL     1       9.716   1.938   1.249  1.00  0.00    -0.458 OA
BRANCH  33  34
ATOM     34  C   UNL     1       9.887   2.340  -0.025  1.00  0.00     0.338 C 
ATOM     35  O   UNL     1      10.550   1.773  -0.900  1.00  0.00    -0.246 OA
BRANCH  34  36
ATOM     36  C   UNL     1       9.021   3.482  -0.330  1.00  0.00     0.060 A 
ATOM     37  C   UNL     1       7.924   3.250  -1.164  1.00  0.00     0.016 A 
ATOM     38  C   UNL     1       9.319   4.776   0.096  1.00  0.00     0.016 A 
ATOM     39  C   UNL     1       7.097   4.293  -1.554  1.00  0.00     0.010 A 
ATOM     40  C   UNL     1       8.501   5.836  -0.318  1.00  0.00     0.010 A 
ATOM     41  C   UNL     1       7.389   5.596  -1.146  1.00  0.00    -0.014 A 
BRANCH  41  42
ATOM     42  C   UNL     1       6.550   6.701  -1.658  1.00  0.00     0.031 A 
ATOM     43  C   UNL     1       7.039   7.535  -2.804  1.00  0.00     0.074 A 
ATOM     44  C   UNL     1       5.324   6.900  -1.142  1.00  0.00     0.049 A 
ATOM     45  N   UNL     1       6.477   8.574  -3.367  1.00  0.00    -0.248 NA
ATOM     46  C   UNL     1       8.324   7.143  -3.404  1.00  0.00     0.031 C 
ATOM     47  C   UNL     1       4.710   6.091  -0.088  1.00  0.00     0.029 A 
ATOM     48  N   UNL     1       4.372   7.838  -1.445  1.00  0.00    -0.354 N 
ATOM     49  C   UNL     1       7.348   8.972  -4.372  1.00  0.00     0.074 A 
ATOM     50  C   UNL     1       8.477   8.068  -4.340  1.00  0.00     0.031 C 
ATOM     51  C   UNL     1       3.482   6.570   0.169  1.00  0.00     0.029 A 
ATOM     52  C   UNL     1       3.246   7.745  -0.665  1.00  0.00     0.049 A 
ATOM     53  H   UNL     1       4.484   8.513  -2.153  1.00  0.00     0.167 HD
ATOM     54  C   UNL     1       7.217  10.005  -5.239  1.00  0.00     0.031 A 
ATOM     55  C   UNL     1       2.162   8.541  -0.606  1.00  0.00     0.031 A 
ATOM     56  C   UNL     1       6.093  10.902  -5.260  1.00  0.00     0.049 A 
ATOM     57  C   UNL     1       2.088   9.738  -1.511  1.00  0.00     0.074 A 
ATOM     58  C   UNL     1       5.867  11.984  -6.093  1.00  0.00     0.029 A 
ATOM     59  N   UNL     1       5.006  10.822  -4.404  1.00  0.00    -0.354 N 
ATOM     60  N   UNL     1       2.929  10.124  -2.441  1.00  0.00    -0.248 NA
ATOM     61  C   UNL     1       0.920  10.616  -1.351  1.00  0.00     0.031 C 
ATOM     62  C   UNL     1       4.665  12.588  -5.707  1.00  0.00     0.029 A 
ATOM     63  C   UNL     1       4.120  11.852  -4.667  1.00  0.00     0.049 A 
ATOM     64  H   UNL     1       4.882  10.134  -3.711  1.00  0.00     0.167 HD
ATOM     65  C   UNL     1       2.389  11.282  -2.982  1.00  0.00     0.074 A 
ATOM     66  C   UNL     1       1.138  11.524  -2.293  1.00  0.00     0.031 C 
ATOM     67  C   UNL     1       2.887  12.079  -3.959  1.00  0.00     0.031 A 
BRANCH  54  68
ATOM     68  C   UNL     1       8.346  10.249  -6.197  1.00  0.00    -0.014 A 
ATOM     69  C   UNL     1       8.554   9.422  -7.312  1.00  0.00     0.009 A 
ATOM     70  C   UNL     1       9.200  11.344  -5.994  1.00  0.00     0.009 A 
ATOM     71  C   UNL     1       9.612   9.673  -8.188  1.00  0.00     0.001 A 
ATOM     72  C   UNL     1      10.243  11.605  -6.883  1.00  0.00     0.001 A 
ATOM     73  C   UNL     1      10.453  10.766  -7.976  1.00  0.00     0.000 A 
ENDBRANCH  54  68
BRANCH  55  74
ATOM     74  C   UNL     1       1.091   8.266   0.387  1.00  0.00    -0.014 A 
ATOM     75  C   UNL     1      -0.178   7.835  -0.025  1.00  0.00     0.009 A 
ATOM     76  C   UNL     1       1.337   8.442   1.758  1.00  0.00     0.009 A 
ATOM     77  C   UNL     1      -1.183   7.601   0.916  1.00  0.00     0.001 A 
ATOM     78  C   UNL     1       0.339   8.180   2.698  1.00  0.00     0.001 A 
ATOM     79  C   UNL     1      -0.923   7.768   2.276  1.00  0.00     0.000 A 
ENDBRANCH  55  74
BRANCH  67  80
ATOM     80  C   UNL     1       2.066  13.275  -4.343  1.00  0.00    -0.014 A 
ATOM     81  C   UNL     1       2.005  14.406  -3.514  1.00  0.00     0.009 A 
ATOM     82  C   UNL     1       1.371  13.283  -5.562  1.00  0.00     0.009 A 
ATOM     83  C   UNL     1       1.237  15.511  -3.886  1.00  0.00     0.001 A 
ATOM     84  C   UNL     1       0.625  14.399  -5.943  1.00  0.00     0.001 A 
ATOM     85  C   UNL     1       0.552  15.508  -5.101  1.00  0.00     0.000 A 
ENDBRANCH  67  80
ENDBRANCH  41  42
ENDBRANCH  34  36
ENDBRANCH  33  34
ENDBRANCH  32  33
ENDBRANCH   1  32
TORSDOF 15
