REMARK SMILES COc1ccc(-n2ccnc2C[N@@H+]2Cc3[nH]cnc3C[C@@H]2C(=O)OCCOC(=O)c2ccc(-c3c4nc(c(-c5ccccc5)c5ccc([nH]5)c(-c5ccccc5)c5nc(c(-c6ccccc6)c6ccc3[nH]6)C=C5)C=C4)cc2)cc1
REMARK SMILES IDX 25 1 24 2 22 3 23 4 21 5 13 6 14 7 15 9 20 10 16 11 19 12
REMARK SMILES IDX 17 13 18 15 12 16 11 17 7 18 8 19 9 20 10 21 6 22 3 23 4 24
REMARK SMILES IDX 79 25 5 26 78 27 2 28 1 29 26 30 27 31 28 32 29 33 30 34
REMARK SMILES IDX 31 35 77 36 32 37 76 38 33 39 34 40 35 41 70 42 36 43 75 44
REMARK SMILES IDX 69 45 71 46 37 47 74 48 68 49 67 50 38 52 60 53 45 54 59 55
REMARK SMILES IDX 46 56 49 57 58 58 72 59 47 60 48 61 57 63 73 64 50 65 39 66
REMARK SMILES IDX 40 67 44 68 41 69 43 70 42 71 61 72 62 73 66 74 63 75 65 76
REMARK SMILES IDX 64 77 51 78 52 79 56 80 53 81 55 82 54 83
REMARK H PARENT 13 8 16 14 71 51 49 62
REMARK Flexibility Score: inf
ROOT
ATOM      1  C   UNL     1      -3.866  -9.089   0.923  1.00  0.00     0.274 C 
ENDROOT
BRANCH   1   2
ATOM      2  O   UNL     1      -2.515  -8.972   0.427  1.00  0.00    -0.458 OA
BRANCH   2   3
ATOM      3  C   UNL     1      -1.866  -7.792   0.672  1.00  0.00     0.365 C 
ATOM      4  O   UNL     1      -2.373  -6.845   1.266  1.00  0.00    -0.245 OA
BRANCH   3   5
ATOM      5  C   UNL     1      -0.480  -7.764  -0.003  1.00  0.00     0.301 C 
ATOM      6  N   UNL     1       0.685  -7.542   0.960  1.00  0.00    -0.312 N 
ATOM      7  C   UNL     1       1.929  -7.268   0.200  1.00  0.00     0.320 C 
ATOM      8  H   UNL     1       0.783  -8.403   1.498  1.00  0.00     0.349 HD
ATOM      9  C   UNL     1       1.684  -6.078  -0.643  1.00  0.00     0.093 A 
ATOM     10  C   UNL     1      -0.616  -6.816  -1.248  1.00  0.00     0.136 C 
ATOM     11  N   UNL     1       2.373  -4.904  -0.700  1.00  0.00    -0.344 N 
ATOM     12  C   UNL     1       0.505  -5.850  -1.305  1.00  0.00     0.074 A 
ATOM     13  C   UNL     1       1.575  -4.019  -1.381  1.00  0.00     0.197 A 
ATOM     14  H   UNL     1       3.266  -4.726  -0.327  1.00  0.00     0.167 HD
ATOM     15  N   UNL     1       0.447  -4.572  -1.780  1.00  0.00    -0.241 NA
BRANCH   6  16
ATOM     16  C   UNL     1       0.441  -6.458   1.942  1.00  0.00     0.340 C 
BRANCH  16  17
ATOM     17  C   UNL     1       1.562  -6.287   2.955  1.00  0.00     0.168 A 
ATOM     18  N   UNL     1       2.106  -5.064   3.327  1.00  0.00    -0.299 N 
ATOM     19  C   UNL     1       3.192  -5.342   4.128  1.00  0.00     0.113 A 
ATOM     20  C   UNL     1       3.207  -6.704   4.286  1.00  0.00     0.132 A 
ATOM     21  N   UNL     1       2.214  -7.278   3.550  1.00  0.00    -0.236 NA
BRANCH  18  22
ATOM     22  C   UNL     1       1.701  -3.771   2.927  1.00  0.00     0.047 A 
ATOM     23  C   UNL     1       0.923  -1.294   1.939  1.00  0.00     0.119 A 
ATOM     24  C   UNL     1      -0.043  -2.193   2.383  1.00  0.00     0.048 A 
ATOM     25  C   UNL     1       2.281  -1.596   2.056  1.00  0.00     0.048 A 
ATOM     26  C   UNL     1       0.342  -3.441   2.869  1.00  0.00     0.030 A 
ATOM     27  C   UNL     1       2.675  -2.833   2.565  1.00  0.00     0.030 A 
BRANCH  23  28
ATOM     28  O   UNL     1       0.489  -0.092   1.453  1.00  0.00    -0.497 OA
ATOM     29  C   UNL     1       0.888   0.097   0.096  1.00  0.00     0.278 C 
ENDBRANCH  23  28
ENDBRANCH  18  22
ENDBRANCH  16  17
ENDBRANCH   6  16
ENDBRANCH   3   5
ENDBRANCH   2   3
ENDBRANCH   1   2
BRANCH   1  30
ATOM     30  C   UNL     1      -3.965  -9.888   2.226  1.00  0.00     0.275 C 
BRANCH  30  31
ATOM     31  O   UNL     1      -3.609  -9.123   3.386  1.00  0.00    -0.458 OA
BRANCH  31  32
ATOM     32  C   UNL     1      -2.280  -9.120   3.614  1.00  0.00     0.338 C 
ATOM     33  O   UNL     1      -1.414  -9.559   2.876  1.00  0.00    -0.246 OA
BRANCH  32  34
ATOM     34  C   UNL     1      -1.954  -8.624   4.952  1.00  0.00     0.060 A 
ATOM     35  C   UNL     1      -0.704  -8.026   5.083  1.00  0.00     0.016 A 
ATOM     36  C   UNL     1      -2.683  -9.021   6.072  1.00  0.00     0.016 A 
ATOM     37  C   UNL     1      -0.095  -7.937   6.310  1.00  0.00     0.010 A 
ATOM     38  C   UNL     1      -2.071  -8.941   7.317  1.00  0.00     0.010 A 
ATOM     39  C   UNL     1      -0.746  -8.482   7.408  1.00  0.00    -0.014 A 
BRANCH  39  40
ATOM     40  C   UNL     1       0.054  -8.600   8.622  1.00  0.00     0.031 A 
ATOM     41  C   UNL     1       0.519  -7.326   9.242  1.00  0.00     0.074 A 
ATOM     42  C   UNL     1       0.275  -9.808   9.177  1.00  0.00     0.049 A 
ATOM     43  N   UNL     1       1.666  -7.056   9.784  1.00  0.00    -0.248 NA
ATOM     44  C   UNL     1      -0.412  -6.184   9.204  1.00  0.00     0.031 C 
ATOM     45  C   UNL     1      -0.303 -11.090   8.760  1.00  0.00     0.029 A 
ATOM     46  N   UNL     1       0.893 -10.110  10.355  1.00  0.00    -0.354 N 
ATOM     47  C   UNL     1       1.554  -5.761  10.282  1.00  0.00     0.074 A 
ATOM     48  C   UNL     1       0.296  -5.238   9.813  1.00  0.00     0.031 C 
ATOM     49  C   UNL     1      -0.301 -11.922   9.819  1.00  0.00     0.029 A 
ATOM     50  C   UNL     1       0.362 -11.257  10.928  1.00  0.00     0.049 A 
ATOM     51  H   UNL     1       1.624  -9.581  10.749  1.00  0.00     0.167 HD
ATOM     52  C   UNL     1       2.401  -5.240  11.210  1.00  0.00     0.031 A 
ATOM     53  C   UNL     1       0.302 -11.546  12.250  1.00  0.00     0.031 A 
ATOM     54  C   UNL     1       3.669  -5.904  11.261  1.00  0.00     0.049 A 
ATOM     55  C   UNL     1       1.281 -10.693  12.962  1.00  0.00     0.074 A 
ATOM     56  C   UNL     1       4.686  -6.120  10.352  1.00  0.00     0.029 A 
ATOM     57  N   UNL     1       3.938  -6.730  12.324  1.00  0.00    -0.354 N 
ATOM     58  N   UNL     1       2.573 -10.831  12.867  1.00  0.00    -0.248 NA
ATOM     59  C   UNL     1       0.831  -9.409  13.482  1.00  0.00     0.031 C 
ATOM     60  C   UNL     1       5.227  -7.391  10.696  1.00  0.00     0.029 A 
ATOM     61  C   UNL     1       4.509  -7.859  11.796  1.00  0.00     0.049 A 
ATOM     62  H   UNL     1       3.757  -6.548  13.274  1.00  0.00     0.167 HD
ATOM     63  C   UNL     1       3.073  -9.538  12.906  1.00  0.00     0.074 A 
ATOM     64  C   UNL     1       1.972  -8.719  13.405  1.00  0.00     0.031 C 
ATOM     65  C   UNL     1       4.230  -9.198  12.261  1.00  0.00     0.031 A 
BRANCH  52  66
ATOM     66  C   UNL     1       1.918  -4.324  12.301  1.00  0.00    -0.014 A 
ATOM     67  C   UNL     1       2.849  -3.663  13.119  1.00  0.00     0.009 A 
ATOM     68  C   UNL     1       0.571  -4.302  12.718  1.00  0.00     0.009 A 
ATOM     69  C   UNL     1       2.451  -3.044  14.310  1.00  0.00     0.001 A 
ATOM     70  C   UNL     1       0.166  -3.648  13.881  1.00  0.00     0.001 A 
ATOM     71  C   UNL     1       1.112  -3.037  14.691  1.00  0.00     0.000 A 
ENDBRANCH  52  66
BRANCH  53  72
ATOM     72  C   UNL     1      -0.799 -12.265  12.929  1.00  0.00    -0.014 A 
ATOM     73  C   UNL     1      -0.627 -12.804  14.210  1.00  0.00     0.009 A 
ATOM     74  C   UNL     1      -2.104 -12.263  12.393  1.00  0.00     0.009 A 
ATOM     75  C   UNL     1      -1.718 -13.330  14.918  1.00  0.00     0.001 A 
ATOM     76  C   UNL     1      -3.188 -12.803  13.089  1.00  0.00     0.001 A 
ATOM     77  C   UNL     1      -2.994 -13.331  14.357  1.00  0.00     0.000 A 
ENDBRANCH  53  72
BRANCH  65  78
ATOM     78  C   UNL     1       5.089 -10.297  11.687  1.00  0.00    -0.014 A 
ATOM     79  C   UNL     1       4.597 -11.226  10.754  1.00  0.00     0.009 A 
ATOM     80  C   UNL     1       6.468 -10.288  11.949  1.00  0.00     0.009 A 
ATOM     81  C   UNL     1       5.450 -12.142  10.132  1.00  0.00     0.001 A 
ATOM     82  C   UNL     1       7.325 -11.188  11.309  1.00  0.00     0.001 A 
ATOM     83  C   UNL     1       6.815 -12.119  10.406  1.00  0.00     0.000 A 
ENDBRANCH  65  78
ENDBRANCH  39  40
ENDBRANCH  32  34
ENDBRANCH  31  32
ENDBRANCH  30  31
ENDBRANCH   1  30
TORSDOF 15
