REMARK SMILES O=C(OCCOC(=O)[C@@H]1C[C@@H](O)CN1C(=O)c1ccccc1)c1ccc(-c2c3nc(c(-c4ccccc4)c4ccc([nH]4)c(-c4ccccc4)c4nc(c(-c5ccccc5)c5ccc2[nH]5)C=C4)C=C3)cc1
REMARK SMILES IDX 4 1 3 2 2 3 1 4 23 5 24 6 70 7 25 8 69 9 26 10 27 11 28 12
REMARK SMILES IDX 63 13 29 14 68 15 62 16 64 17 30 18 67 19 61 20 60 21 31 23
REMARK SMILES IDX 53 24 38 25 52 26 39 27 42 28 51 29 65 30 40 31 41 32 50 34
REMARK SMILES IDX 66 35 43 36 32 37 33 38 37 39 34 40 36 41 35 42 54 43 55 44
REMARK SMILES IDX 59 45 56 46 58 47 57 48 44 49 45 50 49 51 46 52 48 53 47 54
REMARK SMILES IDX 5 55 6 56 7 57 8 58 9 59 10 60 14 61 11 62 13 63 15 64 16 65
REMARK SMILES IDX 17 66 18 67 22 68 19 69 21 70 20 71 12 72
REMARK H PARENT 64 22 42 33 12 73
REMARK Flexibility Score: inf
ROOT
ATOM      1  C   UNL     1       3.116  -4.618   4.684  1.00  0.00     0.275 C 
ENDROOT
BRANCH   1   2
ATOM      2  O   UNL     1       4.369  -4.218   4.134  1.00  0.00    -0.458 OA
BRANCH   2   3
ATOM      3  C   UNL     1       4.590  -4.163   2.806  1.00  0.00     0.338 C 
ATOM      4  O   UNL     1       5.671  -3.808   2.349  1.00  0.00    -0.246 OA
BRANCH   3   5
ATOM      5  C   UNL     1       3.519  -4.481   1.839  1.00  0.00     0.060 A 
ATOM      6  C   UNL     1       1.710  -4.349   2.161  1.00  0.00     0.016 A 
ATOM      7  C   UNL     1       4.072  -4.854   0.140  1.00  0.00     0.016 A 
ATOM      8  C   UNL     1       0.512  -4.702   0.883  1.00  0.00     0.010 A 
ATOM      9  C   UNL     1       2.804  -5.266  -1.154  1.00  0.00     0.010 A 
ATOM     10  C   UNL     1       1.027  -5.156  -0.749  1.00  0.00    -0.014 A 
BRANCH  10  11
ATOM     11  C   UNL     1      -0.063  -5.153  -1.767  1.00  0.00     0.031 A 
ATOM     12  C   UNL     1      -0.198  -6.317  -2.676  1.00  0.00     0.074 A 
ATOM     13  C   UNL     1      -0.903  -4.093  -1.879  1.00  0.00     0.049 A 
ATOM     14  N   UNL     1      -1.011  -6.478  -3.682  1.00  0.00    -0.248 NA
ATOM     15  C   UNL     1       0.678  -7.462  -2.410  1.00  0.00     0.031 C 
ATOM     16  C   UNL     1      -0.949  -2.928  -0.993  1.00  0.00     0.029 A 
ATOM     17  N   UNL     1      -1.870  -3.787  -2.808  1.00  0.00    -0.354 N 
ATOM     18  C   UNL     1      -0.757  -7.755  -4.149  1.00  0.00     0.074 A 
ATOM     19  C   UNL     1       0.350  -8.286  -3.390  1.00  0.00     0.031 C 
ATOM     20  C   UNL     1      -1.812  -2.012  -1.447  1.00  0.00     0.029 A 
ATOM     21  C   UNL     1      -2.407  -2.521  -2.661  1.00  0.00     0.049 A 
ATOM     22  H   UNL     1      -2.153  -4.411  -3.514  1.00  0.00     0.167 HD
ATOM     23  C   UNL     1      -1.435  -8.444  -5.090  1.00  0.00     0.031 A 
ATOM     24  C   UNL     1      -3.288  -1.836  -3.412  1.00  0.00     0.031 A 
ATOM     25  C   UNL     1      -2.529  -7.894  -5.836  1.00  0.00     0.049 A 
ATOM     26  C   UNL     1      -3.903  -2.565  -4.564  1.00  0.00     0.074 A 
ATOM     27  C   UNL     1      -3.284  -8.495  -6.823  1.00  0.00     0.029 A 
ATOM     28  N   UNL     1      -3.014  -6.602  -5.680  1.00  0.00    -0.354 N 
ATOM     29  N   UNL     1      -3.685  -3.795  -4.960  1.00  0.00    -0.248 NA
ATOM     30  C   UNL     1      -4.922  -1.846  -5.336  1.00  0.00     0.031 C 
ATOM     31  C   UNL     1      -4.171  -7.540  -7.323  1.00  0.00     0.029 A 
ATOM     32  C   UNL     1      -4.030  -6.372  -6.588  1.00  0.00     0.049 A 
ATOM     33  H   UNL     1      -2.683  -5.949  -5.022  1.00  0.00     0.167 HD
ATOM     34  C   UNL     1      -4.588  -4.023  -5.984  1.00  0.00     0.074 A 
ATOM     35  C   UNL     1      -5.356  -2.803  -6.142  1.00  0.00     0.031 C 
ATOM     36  C   UNL     1      -4.775  -5.146  -6.716  1.00  0.00     0.031 A 
BRANCH  23  37
ATOM     37  C   UNL     1      -0.969  -9.841  -5.361  1.00  0.00    -0.014 A 
ATOM     38  C   UNL     1      -1.124 -10.859  -4.405  1.00  0.00     0.009 A 
ATOM     39  C   UNL     1      -0.325 -10.130  -6.571  1.00  0.00     0.009 A 
ATOM     40  C   UNL     1      -0.598 -12.130  -4.639  1.00  0.00     0.001 A 
ATOM     41  C   UNL     1       0.168 -11.410  -6.816  1.00  0.00     0.001 A 
ATOM     42  C   UNL     1       0.042 -12.405  -5.847  1.00  0.00     0.000 A 
ENDBRANCH  23  37
BRANCH  24  43
ATOM     43  C   UNL     1      -3.669  -0.428  -3.096  1.00  0.00    -0.014 A 
ATOM     44  C   UNL     1      -4.975  -0.108  -2.693  1.00  0.00     0.009 A 
ATOM     45  C   UNL     1      -2.746   0.619  -3.262  1.00  0.00     0.009 A 
ATOM     46  C   UNL     1      -5.369   1.225  -2.536  1.00  0.00     0.001 A 
ATOM     47  C   UNL     1      -3.134   1.950  -3.073  1.00  0.00     0.001 A 
ATOM     48  C   UNL     1      -4.450   2.253  -2.731  1.00  0.00     0.000 A 
ENDBRANCH  24  43
BRANCH  36  49
ATOM     49  C   UNL     1      -5.886  -5.117  -7.722  1.00  0.00    -0.014 A 
ATOM     50  C   UNL     1      -5.810  -4.320  -8.873  1.00  0.00     0.009 A 
ATOM     51  C   UNL     1      -6.999  -5.951  -7.534  1.00  0.00     0.009 A 
ATOM     52  C   UNL     1      -6.848  -4.336  -9.804  1.00  0.00     0.001 A 
ATOM     53  C   UNL     1      -8.011  -5.999  -8.489  1.00  0.00     0.001 A 
ATOM     54  C   UNL     1      -7.939  -5.183  -9.617  1.00  0.00     0.000 A 
ENDBRANCH  36  49
ENDBRANCH  10  11
ENDBRANCH   3   5
ENDBRANCH   2   3
ENDBRANCH   1   2
BRANCH   1  55
ATOM     55  C   UNL     1       2.196  -3.411   4.867  1.00  0.00     0.274 C 
BRANCH  55  56
ATOM     56  O   UNL     1       2.290  -2.296   3.887  1.00  0.00    -0.461 OA
BRANCH  56  57
ATOM     57  C   UNL     1       2.396  -1.708   2.698  1.00  0.00     0.329 C 
ATOM     58  O   UNL     1       2.492  -0.473   2.771  1.00  0.00    -0.250 OA
BRANCH  57  59
ATOM     59  C   UNL     1       2.559  -2.363   1.221  1.00  0.00     0.198 C 
ATOM     60  C   UNL     1       1.896  -1.291   0.303  1.00  0.00     0.071 C 
ATOM     61  N   UNL     1       2.338  -3.845   0.270  1.00  0.00    -0.322 N 
ATOM     62  C   UNL     1       2.332  -1.548  -1.105  1.00  0.00     0.136 C 
ATOM     63  C   UNL     1       2.522  -3.043  -1.251  1.00  0.00     0.152 C 
BRANCH  61  64
ATOM     64  C   UNL     1       2.364  -5.779   0.763  1.00  0.00     0.254 C 
ATOM     65  O   UNL     1       1.853  -6.362   1.787  1.00  0.00    -0.269 OA
BRANCH  64  66
ATOM     66  C   UNL     1       3.181  -7.260   0.209  1.00  0.00     0.040 A 
ATOM     67  C   UNL     1       2.743  -8.461   0.847  1.00  0.00     0.014 A 
ATOM     68  C   UNL     1       4.282  -7.478  -0.669  1.00  0.00     0.014 A 
ATOM     69  C   UNL     1       3.327  -9.723   0.637  1.00  0.00     0.001 A 
ATOM     70  C   UNL     1       4.854  -8.745  -0.905  1.00  0.00     0.001 A 
ATOM     71  C   UNL     1       4.379  -9.866  -0.249  1.00  0.00     0.000 A 
ENDBRANCH  64  66
ENDBRANCH  61  64
BRANCH  62  72
ATOM     72  O   UNL     1       3.534  -0.833  -1.399  1.00  0.00    -0.391 OA
ATOM     73  H   UNL     1       4.234  -1.113  -0.789  1.00  0.00     0.211 HD
ENDBRANCH  62  72
ENDBRANCH  57  59
ENDBRANCH  56  57
ENDBRANCH  55  56
ENDBRANCH   1  55
TORSDOF 14
