REMARK SMILES O=C(OCCOC(=O)c1ccc(-c2c3nc(c(-c4ccccc4)c4ccc([nH]4)c(-c4ccccc4)c4nc(c(-c5ccccc5)c5ccc2[nH]5)C=C4)C=C3)cc1)C1=Cc2cc(Cl)ccc2O[C@@H]1C(F)(F)F
REMARK SMILES IDX 5 1 4 2 3 3 2 4 1 5 57 6 58 7 67 8 59 9 66 10 60 11 65 12
REMARK SMILES IDX 61 13 64 14 62 15 63 16 68 17 69 18 70 19 71 20 6 21 7 22
REMARK SMILES IDX 8 23 9 24 10 25 56 26 11 27 55 28 12 29 13 30 14 31 49 32
REMARK SMILES IDX 15 33 54 34 48 35 50 36 16 37 53 38 47 39 46 40 17 42 39 43
REMARK SMILES IDX 24 44 38 45 25 46 28 47 37 48 51 49 26 50 27 51 36 53 52 54
REMARK SMILES IDX 29 55 18 56 19 57 23 58 20 59 22 60 21 61 40 62 41 63 45 64
REMARK SMILES IDX 42 65 44 66 43 67 30 68 31 69 35 70 32 71 34 72 33 73
REMARK H PARENT 50 41 28 52
REMARK Flexibility Score: inf
ROOT
ATOM      1  C   UNL     1       4.806   0.108   0.938  1.00  0.00     0.275 C 
ENDROOT
BRANCH   1   2
ATOM      2  C   UNL     1       3.966  -0.719  -0.897  1.00  0.00     0.275 C 
BRANCH   2   3
ATOM      3  O   UNL     1       3.095  -1.994  -1.007  1.00  0.00    -0.459 OA
BRANCH   3   4
ATOM      4  C   UNL     1       3.318  -2.876  -0.025  1.00  0.00     0.338 C 
ATOM      5  O   UNL     1       2.700  -3.864   0.279  1.00  0.00    -0.246 OA
BRANCH   4   6
ATOM      6  C   UNL     1       4.185  -2.007   0.737  1.00  0.00     0.087 C 
ATOM      7  C   UNL     1       5.542  -1.925   0.196  1.00  0.00     0.027 C 
ATOM      8  C   UNL     1       2.924  -0.551   0.837  1.00  0.00     0.316 C 
ATOM      9  C   UNL     1       6.173  -0.477  -0.665  1.00  0.00     0.019 A 
ATOM     10  O   UNL     1       3.554   0.994  -0.141  1.00  0.00    -0.475 OA
ATOM     11  C   UNL     1       7.362  -0.595  -1.326  1.00  0.00     0.032 A 
ATOM     12  C   UNL     1       5.204   0.942  -0.930  1.00  0.00     0.128 A 
ATOM     13  C   UNL     1       7.663   0.476  -2.180  1.00  0.00     0.041 A 
ATOM     14  C   UNL     1       5.579   1.945  -1.774  1.00  0.00     0.048 A 
ATOM     15  Cl  UNL     1       9.133   0.336  -3.093  1.00  0.00    -0.084 Cl
ATOM     16  C   UNL     1       6.830   1.663  -2.393  1.00  0.00     0.024 A 
BRANCH   8  17
ATOM     17  C   UNL     1       2.522  -0.825   2.351  1.00  0.00     0.430 C 
ATOM     18  F   UNL     1       1.244  -0.505   2.592  1.00  0.00    -0.167 F 
ATOM     19  F   UNL     1       2.555  -2.176   2.581  1.00  0.00    -0.167 F 
ATOM     20  F   UNL     1       3.331  -0.362   3.317  1.00  0.00    -0.167 F 
ENDBRANCH   8  17
ENDBRANCH   4   6
ENDBRANCH   3   4
ENDBRANCH   2   3
ENDBRANCH   1   2
BRANCH   1  21
ATOM     21  O   UNL     1       4.004   1.258   1.959  1.00  0.00    -0.458 OA
BRANCH  21  22
ATOM     22  C   UNL     1       3.103   2.299   1.962  1.00  0.00     0.338 C 
ATOM     23  O   UNL     1       2.664   2.961   1.040  1.00  0.00    -0.246 OA
BRANCH  22  24
ATOM     24  C   UNL     1       2.405   2.218   3.284  1.00  0.00     0.060 A 
ATOM     25  C   UNL     1       1.040   1.870   3.307  1.00  0.00     0.016 A 
ATOM     26  C   UNL     1       3.167   2.099   4.446  1.00  0.00     0.016 A 
ATOM     27  C   UNL     1       0.508   1.199   4.425  1.00  0.00     0.010 A 
ATOM     28  C   UNL     1       2.635   1.430   5.552  1.00  0.00     0.010 A 
ATOM     29  C   UNL     1       1.325   0.914   5.529  1.00  0.00    -0.014 A 
BRANCH  29  30
ATOM     30  C   UNL     1       0.759   0.347   6.782  1.00  0.00     0.031 A 
ATOM     31  C   UNL     1       0.269   1.364   7.771  1.00  0.00     0.074 A 
ATOM     32  C   UNL     1       0.737  -0.967   7.093  1.00  0.00     0.049 A 
ATOM     33  N   UNL     1      -0.207   1.204   8.975  1.00  0.00    -0.248 NA
ATOM     34  C   UNL     1       0.370   2.769   7.335  1.00  0.00     0.031 C 
ATOM     35  C   UNL     1       1.185  -2.069   6.241  1.00  0.00     0.029 A 
ATOM     36  N   UNL     1       0.318  -1.599   8.246  1.00  0.00    -0.354 N 
ATOM     37  C   UNL     1      -0.458   2.489   9.434  1.00  0.00     0.074 A 
ATOM     38  C   UNL     1      -0.009   3.412   8.421  1.00  0.00     0.031 C 
ATOM     39  C   UNL     1       1.015  -3.236   6.899  1.00  0.00     0.029 A 
ATOM     40  C   UNL     1       0.462  -2.970   8.226  1.00  0.00     0.049 A 
ATOM     41  H   UNL     1      -0.051  -1.112   9.018  1.00  0.00     0.167 HD
ATOM     42  C   UNL     1      -1.042   2.879  10.588  1.00  0.00     0.031 A 
ATOM     43  C   UNL     1       0.172  -3.890   9.173  1.00  0.00     0.031 A 
ATOM     44  C   UNL     1      -1.452   1.975  11.617  1.00  0.00     0.049 A 
ATOM     45  C   UNL     1      -0.410  -3.427  10.494  1.00  0.00     0.074 A 
ATOM     46  C   UNL     1      -2.050   2.260  12.829  1.00  0.00     0.029 A 
ATOM     47  N   UNL     1      -1.287   0.600  11.554  1.00  0.00    -0.354 N 
ATOM     48  N   UNL     1      -0.720  -2.213  10.887  1.00  0.00    -0.248 NA
ATOM     49  C   UNL     1      -0.699  -4.467  11.497  1.00  0.00     0.031 C 
ATOM     50  C   UNL     1      -2.201   1.057  13.525  1.00  0.00     0.029 A 
ATOM     51  C   UNL     1      -1.758   0.020  12.717  1.00  0.00     0.049 A 
ATOM     52  H   UNL     1      -0.894   0.110  10.796  1.00  0.00     0.167 HD
ATOM     53  C   UNL     1      -1.281  -2.350  12.153  1.00  0.00     0.074 A 
ATOM     54  C   UNL     1      -1.278  -3.765  12.461  1.00  0.00     0.031 C 
ATOM     55  C   UNL     1      -1.762  -1.395  12.988  1.00  0.00     0.031 A 
BRANCH  42  56
ATOM     56  C   UNL     1      -1.224   4.358  10.764  1.00  0.00    -0.014 A 
ATOM     57  C   UNL     1      -2.112   5.077   9.942  1.00  0.00     0.009 A 
ATOM     58  C   UNL     1      -0.435   5.054  11.688  1.00  0.00     0.009 A 
ATOM     59  C   UNL     1      -2.154   6.470   9.998  1.00  0.00     0.001 A 
ATOM     60  C   UNL     1      -0.509   6.445  11.768  1.00  0.00     0.001 A 
ATOM     61  C   UNL     1      -1.353   7.152  10.912  1.00  0.00     0.000 A 
ENDBRANCH  42  56
BRANCH  43  62
ATOM     62  C   UNL     1       0.392  -5.353   8.945  1.00  0.00    -0.014 A 
ATOM     63  C   UNL     1      -0.701  -6.237   8.879  1.00  0.00     0.009 A 
ATOM     64  C   UNL     1       1.686  -5.893   8.886  1.00  0.00     0.009 A 
ATOM     65  C   UNL     1      -0.504  -7.620   8.802  1.00  0.00     0.001 A 
ATOM     66  C   UNL     1       1.881  -7.276   8.779  1.00  0.00     0.001 A 
ATOM     67  C   UNL     1       0.787  -8.139   8.751  1.00  0.00     0.000 A 
ENDBRANCH  43  62
BRANCH  55  68
ATOM     68  C   UNL     1      -2.383  -1.840  14.283  1.00  0.00    -0.014 A 
ATOM     69  C   UNL     1      -1.609  -2.345  15.338  1.00  0.00     0.009 A 
ATOM     70  C   UNL     1      -3.764  -1.668  14.475  1.00  0.00     0.009 A 
ATOM     71  C   UNL     1      -2.210  -2.694  16.549  1.00  0.00     0.001 A 
ATOM     72  C   UNL     1      -4.357  -1.984  15.697  1.00  0.00     0.001 A 
ATOM     73  C   UNL     1      -3.580  -2.505  16.730  1.00  0.00     0.000 A 
ENDBRANCH  55  68
ENDBRANCH  29  30
ENDBRANCH  22  24
ENDBRANCH  21  22
ENDBRANCH   1  21
TORSDOF 12
