REMARK SMILES CCCc1cc2c(cc1Cl)C=C(C(=O)OCCOC(=O)c1ccc(-c3c4nc(c(-c5ccccc5)c5ccc([nH]5)c(-c5ccccc5)c5nc(c(-c6ccccc6)c6ccc3[nH]6)C=C5)C=C4)cc1)[C@@H](C(F)(F)F)O2
REMARK SMILES IDX 16 1 15 2 13 3 14 4 12 5 4 6 5 7 9 8 6 9 8 10 10 11 7 12
REMARK SMILES IDX 74 13 11 14 69 15 3 16 2 17 1 18 70 19 71 20 72 21 73 22
REMARK SMILES IDX 17 23 18 24 19 25 20 26 21 27 22 28 68 29 23 30 67 31 24 32
REMARK SMILES IDX 25 33 26 34 61 35 27 36 66 37 60 38 62 39 28 40 65 41 59 42
REMARK SMILES IDX 58 43 29 45 51 46 36 47 50 48 37 49 40 50 49 51 63 52 38 53
REMARK SMILES IDX 39 54 48 56 64 57 41 58 30 59 31 60 35 61 32 62 34 63 33 64
REMARK SMILES IDX 52 65 53 66 57 67 54 68 56 69 55 70 42 71 43 72 47 73 44 74
REMARK SMILES IDX 46 75 45 76
REMARK H PARENT 62 44 40 55
REMARK Flexibility Score: inf
ROOT
ATOM      1  C   UNL     1      -1.158  -2.965  -9.170  1.00  0.00     0.275 C 
ENDROOT
BRANCH   1   2
ATOM      2  O   UNL     1      -0.934  -2.514  -7.816  1.00  0.00    -0.459 OA
BRANCH   2   3
ATOM      3  C   UNL     1      -0.217  -1.375  -7.695  1.00  0.00     0.338 C 
ATOM      4  O   UNL     1       0.248  -0.706  -8.605  1.00  0.00    -0.246 OA
BRANCH   3   5
ATOM      5  C   UNL     1      -0.059  -1.004  -6.278  1.00  0.00     0.087 C 
ATOM      6  C   UNL     1       0.722   1.637  -2.064  1.00  0.00    -0.026 A 
ATOM      7  C   UNL     1       1.001   0.320  -2.483  1.00  0.00     0.052 A 
ATOM      8  C   UNL     1       0.024   2.477  -2.946  1.00  0.00     0.045 A 
ATOM      9  C   UNL     1       0.582  -0.157  -3.722  1.00  0.00     0.128 A 
ATOM     10  C   UNL     1      -0.366   2.011  -4.205  1.00  0.00     0.032 A 
ATOM     11  Cl  UNL     1      -0.370   4.115  -2.563  1.00  0.00    -0.084 Cl
ATOM     12  C   UNL     1      -0.081   0.697  -4.590  1.00  0.00     0.019 A 
ATOM     13  O   UNL     1       0.862  -1.462  -4.002  1.00  0.00    -0.475 OA
ATOM     14  C   UNL     1      -0.405   0.238  -5.921  1.00  0.00     0.027 C 
ATOM     15  C   UNL     1       0.602  -1.974  -5.341  1.00  0.00     0.316 C 
BRANCH   6  16
ATOM     16  C   UNL     1       1.212   2.086  -0.706  1.00  0.00     0.037 C 
BRANCH  16  17
ATOM     17  C   UNL     1       0.473   1.457   0.482  1.00  0.00     0.001 C 
ATOM     18  C   UNL     1       0.828  -0.002   0.739  1.00  0.00     0.004 C 
ENDBRANCH  16  17
ENDBRANCH   6  16
BRANCH  15  19
ATOM     19  C   UNL     1       1.926  -2.519  -5.898  1.00  0.00     0.430 C 
ATOM     20  F   UNL     1       2.494  -3.396  -5.035  1.00  0.00    -0.167 F 
ATOM     21  F   UNL     1       1.747  -3.187  -7.062  1.00  0.00    -0.167 F 
ATOM     22  F   UNL     1       2.824  -1.534  -6.127  1.00  0.00    -0.167 F 
ENDBRANCH  15  19
ENDBRANCH   3   5
ENDBRANCH   2   3
ENDBRANCH   1   2
BRANCH   1  23
ATOM     23  C   UNL     1      -2.572  -2.632  -9.650  1.00  0.00     0.275 C 
BRANCH  23  24
ATOM     24  O   UNL     1      -2.729  -1.214  -9.845  1.00  0.00    -0.458 OA
BRANCH  24  25
ATOM     25  C   UNL     1      -3.370  -0.568  -8.846  1.00  0.00     0.338 C 
ATOM     26  O   UNL     1      -3.836  -1.047  -7.827  1.00  0.00    -0.246 OA
BRANCH  25  27
ATOM     27  C   UNL     1      -3.345   0.880  -9.092  1.00  0.00     0.060 A 
ATOM     28  C   UNL     1      -4.479   1.567  -9.505  1.00  0.00     0.016 A 
ATOM     29  C   UNL     1      -2.207   1.581  -8.712  1.00  0.00     0.016 A 
ATOM     30  C   UNL     1      -4.449   2.968  -9.535  1.00  0.00     0.010 A 
ATOM     31  C   UNL     1      -2.241   2.962  -8.574  1.00  0.00     0.010 A 
ATOM     32  C   UNL     1      -3.346   3.686  -9.024  1.00  0.00    -0.014 A 
BRANCH  32  33
ATOM     33  C   UNL     1      -3.337   5.176  -8.964  1.00  0.00     0.031 A 
ATOM     34  C   UNL     1      -2.216   5.975  -9.592  1.00  0.00     0.074 A 
ATOM     35  C   UNL     1      -4.323   5.822  -8.308  1.00  0.00     0.049 A 
ATOM     36  N   UNL     1      -2.072   7.276  -9.661  1.00  0.00    -0.248 NA
ATOM     37  C   UNL     1      -1.089   5.229 -10.180  1.00  0.00     0.031 C 
ATOM     38  C   UNL     1      -5.410   5.177  -7.567  1.00  0.00     0.029 A 
ATOM     39  N   UNL     1      -4.590   7.164  -8.180  1.00  0.00    -0.354 N 
ATOM     40  C   UNL     1      -0.840   7.492 -10.270  1.00  0.00     0.074 A 
ATOM     41  C   UNL     1      -0.237   6.198 -10.478  1.00  0.00     0.031 C 
ATOM     42  C   UNL     1      -6.273   6.113  -7.146  1.00  0.00     0.029 A 
ATOM     43  C   UNL     1      -5.779   7.428  -7.540  1.00  0.00     0.049 A 
ATOM     44  H   UNL     1      -3.989   7.868  -8.513  1.00  0.00     0.167 HD
ATOM     45  C   UNL     1      -0.278   8.657 -10.668  1.00  0.00     0.031 A 
ATOM     46  C   UNL     1      -6.418   8.593  -7.315  1.00  0.00     0.031 A 
ATOM     47  C   UNL     1      -0.905   9.941 -10.515  1.00  0.00     0.049 A 
ATOM     48  C   UNL     1      -5.808   9.872  -7.817  1.00  0.00     0.074 A 
ATOM     49  C   UNL     1      -0.459  11.171 -10.966  1.00  0.00     0.029 A 
ATOM     50  N   UNL     1      -2.115  10.158  -9.877  1.00  0.00    -0.354 N 
ATOM     51  N   UNL     1      -4.688  10.045  -8.474  1.00  0.00    -0.248 NA
ATOM     52  C   UNL     1      -6.553  11.113  -7.560  1.00  0.00     0.031 C 
ATOM     53  C   UNL     1      -1.375  12.140 -10.554  1.00  0.00     0.029 A 
ATOM     54  C   UNL     1      -2.423  11.505  -9.906  1.00  0.00     0.049 A 
ATOM     55  H   UNL     1      -2.671   9.458  -9.464  1.00  0.00     0.167 HD
ATOM     56  C   UNL     1      -4.600  11.408  -8.724  1.00  0.00     0.074 A 
ATOM     57  C   UNL     1      -5.792  12.014  -8.167  1.00  0.00     0.031 C 
ATOM     58  C   UNL     1      -3.615  12.094  -9.353  1.00  0.00     0.031 A 
BRANCH  45  59
ATOM     59  C   UNL     1       1.064   8.604 -11.351  1.00  0.00    -0.014 A 
ATOM     60  C   UNL     1       2.182   9.208 -10.753  1.00  0.00     0.009 A 
ATOM     61  C   UNL     1       1.204   8.039 -12.629  1.00  0.00     0.009 A 
ATOM     62  C   UNL     1       3.407   9.254 -11.422  1.00  0.00     0.001 A 
ATOM     63  C   UNL     1       2.439   8.055 -13.281  1.00  0.00     0.001 A 
ATOM     64  C   UNL     1       3.536   8.672 -12.683  1.00  0.00     0.000 A 
ENDBRANCH  45  59
BRANCH  46  65
ATOM     65  C   UNL     1      -7.748   8.578  -6.647  1.00  0.00    -0.014 A 
ATOM     66  C   UNL     1      -7.872   8.225  -5.294  1.00  0.00     0.009 A 
ATOM     67  C   UNL     1      -8.913   8.849  -7.383  1.00  0.00     0.009 A 
ATOM     68  C   UNL     1      -9.131   8.114  -4.700  1.00  0.00     0.001 A 
ATOM     69  C   UNL     1     -10.170   8.769  -6.778  1.00  0.00     0.001 A 
ATOM     70  C   UNL     1     -10.279   8.390  -5.441  1.00  0.00     0.000 A 
ENDBRANCH  46  65
BRANCH  58  71
ATOM     71  C   UNL     1      -3.768  13.582  -9.495  1.00  0.00    -0.014 A 
ATOM     72  C   UNL     1      -3.950  14.144 -10.769  1.00  0.00     0.009 A 
ATOM     73  C   UNL     1      -3.599  14.432  -8.393  1.00  0.00     0.009 A 
ATOM     74  C   UNL     1      -3.936  15.528 -10.941  1.00  0.00     0.001 A 
ATOM     75  C   UNL     1      -3.616  15.818  -8.563  1.00  0.00     0.001 A 
ATOM     76  C   UNL     1      -3.772  16.364  -9.837  1.00  0.00     0.000 A 
ENDBRANCH  58  71
ENDBRANCH  32  33
ENDBRANCH  25  27
ENDBRANCH  24  25
ENDBRANCH  23  24
ENDBRANCH   1  23
TORSDOF 14
