REMARK SMILES C[C@@H](C(=O)OCCOC(=O)c1ccc(-c2c3nc(c(-c4ccccc4)c4ccc([nH]4)c(-c4ccccc4)c4nc(c(-c5ccccc5)c5ccc2[nH]5)C=C4)C=C3)cc1)c1cc(/C=C/S(C)(=O)=O)cc(C(=O)c2ccccc2)c1
REMARK SMILES IDX 6 1 5 2 3 3 4 4 2 5 1 6 59 7 60 8 78 9 61 10 69 11 68 12
REMARK SMILES IDX 62 13 63 14 64 15 65 16 66 17 67 18 70 19 71 20 72 21 73 22
REMARK SMILES IDX 77 23 74 24 76 25 75 26 7 27 8 28 9 29 10 30 11 31 12 32
REMARK SMILES IDX 58 33 13 34 57 35 14 36 15 37 16 38 51 39 17 40 56 41 50 42
REMARK SMILES IDX 52 43 18 44 55 45 49 46 48 47 19 49 41 50 26 51 40 52 27 53
REMARK SMILES IDX 30 54 39 55 53 56 28 57 29 58 38 60 54 61 31 62 20 63 21 64
REMARK SMILES IDX 25 65 22 66 24 67 23 68 42 69 43 70 47 71 44 72 46 73 45 74
REMARK SMILES IDX 32 75 33 76 37 77 34 78 36 79 35 80
REMARK H PARENT 52 48 30 59
REMARK Flexibility Score: inf
ROOT
ATOM      1  C   UNL     1       2.581  -0.393  -3.967  1.00  0.00     0.274 C 
ENDROOT
BRANCH   1   2
ATOM      2  O   UNL     1       2.239  -0.129  -2.591  1.00  0.00    -0.462 OA
BRANCH   2   3
ATOM      3  C   UNL     1       1.232   0.756  -2.370  1.00  0.00     0.313 C 
ATOM      4  O   UNL     1       0.598   1.317  -3.258  1.00  0.00    -0.252 OA
BRANCH   3   5
ATOM      5  C   UNL     1       0.990   1.020  -0.881  1.00  0.00     0.126 C 
ATOM      6  C   UNL     1       1.888   0.218   0.065  1.00  0.00     0.025 C 
BRANCH   5   7
ATOM      7  C   UNL     1      -0.484   0.868  -0.524  1.00  0.00    -0.033 A 
ATOM      8  C   UNL     1      -1.324   1.997  -0.533  1.00  0.00     0.012 A 
ATOM      9  C   UNL     1      -1.043  -0.385  -0.238  1.00  0.00     0.016 A 
ATOM     10  C   UNL     1      -2.690   1.907  -0.220  1.00  0.00    -0.024 A 
ATOM     11  C   UNL     1      -2.404  -0.509   0.053  1.00  0.00     0.023 A 
ATOM     12  C   UNL     1      -3.219   0.638   0.067  1.00  0.00     0.020 A 
BRANCH  10  13
ATOM     13  C   UNL     1      -3.582   3.086  -0.186  1.00  0.00     0.020 C 
ATOM     14  C   UNL     1      -3.166   4.361  -0.251  1.00  0.00     0.106 C 
BRANCH  14  15
ATOM     15  S   UNL     1      -4.286   5.679  -0.093  1.00  0.00     0.168 S 
ATOM     16  C   UNL     1      -3.640   6.495   1.349  1.00  0.00     0.163 C 
ATOM     17  O   UNL     1      -4.087   6.580  -1.214  1.00  0.00    -0.225 OA
ATOM     18  O   UNL     1      -5.609   5.195   0.244  1.00  0.00    -0.225 OA
ENDBRANCH  14  15
ENDBRANCH  10  13
BRANCH  11  19
ATOM     19  C   UNL     1      -3.030  -1.845   0.268  1.00  0.00     0.193 C 
ATOM     20  O   UNL     1      -4.243  -1.949   0.426  1.00  0.00    -0.289 OA
BRANCH  19  21
ATOM     21  C   UNL     1      -2.228  -3.085   0.236  1.00  0.00     0.022 A 
ATOM     22  C   UNL     1      -2.287  -3.894  -0.898  1.00  0.00     0.012 A 
ATOM     23  C   UNL     1      -1.454  -3.472   1.327  1.00  0.00     0.012 A 
ATOM     24  C   UNL     1      -1.596  -5.101  -0.952  1.00  0.00     0.001 A 
ATOM     25  C   UNL     1      -0.744  -4.675   1.268  1.00  0.00     0.001 A 
ATOM     26  C   UNL     1      -0.822  -5.491   0.135  1.00  0.00     0.000 A 
ENDBRANCH  19  21
ENDBRANCH  11  19
ENDBRANCH   5   7
ENDBRANCH   3   5
ENDBRANCH   2   3
ENDBRANCH   1   2
BRANCH   1  27
ATOM     27  C   UNL     1       2.020  -1.734  -4.440  1.00  0.00     0.275 C 
BRANCH  27  28
ATOM     28  O   UNL     1       0.597  -1.663  -4.663  1.00  0.00    -0.458 OA
BRANCH  28  29
ATOM     29  C   UNL     1      -0.156  -2.154  -3.656  1.00  0.00     0.338 C 
ATOM     30  O   UNL     1       0.244  -2.635  -2.608  1.00  0.00    -0.246 OA
BRANCH  29  31
ATOM     31  C   UNL     1      -1.591  -1.962  -3.920  1.00  0.00     0.060 A 
ATOM     32  C   UNL     1      -2.186  -0.817  -3.401  1.00  0.00     0.016 A 
ATOM     33  C   UNL     1      -2.385  -3.001  -4.415  1.00  0.00     0.016 A 
ATOM     34  C   UNL     1      -3.570  -0.759  -3.261  1.00  0.00     0.010 A 
ATOM     35  C   UNL     1      -3.787  -2.903  -4.341  1.00  0.00     0.010 A 
ATOM     36  C   UNL     1      -4.396  -1.800  -3.718  1.00  0.00    -0.014 A 
BRANCH  36  37
ATOM     37  C   UNL     1      -5.875  -1.692  -3.538  1.00  0.00     0.031 A 
ATOM     38  C   UNL     1      -6.655  -2.653  -2.671  1.00  0.00     0.074 A 
ATOM     39  C   UNL     1      -6.526  -0.656  -4.100  1.00  0.00     0.049 A 
ATOM     40  N   UNL     1      -7.947  -2.723  -2.451  1.00  0.00    -0.248 NA
ATOM     41  C   UNL     1      -5.884  -3.664  -1.945  1.00  0.00     0.031 C 
ATOM     42  C   UNL     1      -5.906   0.400  -4.904  1.00  0.00     0.029 A 
ATOM     43  N   UNL     1      -7.853  -0.310  -4.062  1.00  0.00    -0.354 N 
ATOM     44  C   UNL     1      -8.126  -3.769  -1.547  1.00  0.00     0.074 A 
ATOM     45  C   UNL     1      -6.820  -4.321  -1.278  1.00  0.00     0.031 C 
ATOM     46  C   UNL     1      -6.843   1.291  -5.253  1.00  0.00     0.029 A 
ATOM     47  C   UNL     1      -8.141   0.822  -4.782  1.00  0.00     0.049 A 
ATOM     48  H   UNL     1      -8.532  -0.824  -3.568  1.00  0.00     0.167 HD
ATOM     49  C   UNL     1      -9.268  -4.236  -0.987  1.00  0.00     0.031 A 
ATOM     50  C   UNL     1      -9.319   1.396  -5.084  1.00  0.00     0.031 A 
ATOM     51  C   UNL     1     -10.578  -3.717  -1.270  1.00  0.00     0.049 A 
ATOM     52  C   UNL     1     -10.589   0.778  -4.583  1.00  0.00     0.074 A 
ATOM     53  C   UNL     1     -11.805  -4.159  -0.806  1.00  0.00     0.029 A 
ATOM     54  N   UNL     1     -10.826  -2.633  -2.094  1.00  0.00    -0.354 N 
ATOM     55  N   UNL     1     -10.747  -0.259  -3.797  1.00  0.00    -0.248 NA
ATOM     56  C   UNL     1     -11.844   1.397  -5.029  1.00  0.00     0.031 C 
ATOM     57  C   UNL     1     -12.801  -3.367  -1.388  1.00  0.00     0.029 A 
ATOM     58  C   UNL     1     -12.188  -2.404  -2.174  1.00  0.00     0.049 A 
ATOM     59  H   UNL     1     -10.136  -2.103  -2.554  1.00  0.00     0.167 HD
ATOM     60  C   UNL     1     -12.118  -0.415  -3.650  1.00  0.00     0.074 A 
ATOM     61  C   UNL     1     -12.746   0.646  -4.412  1.00  0.00     0.031 C 
ATOM     62  C   UNL     1     -12.796  -1.356  -2.949  1.00  0.00     0.031 A 
BRANCH  49  63
ATOM     63  C   UNL     1      -9.152  -5.404  -0.045  1.00  0.00    -0.014 A 
ATOM     64  C   UNL     1      -8.668  -5.238   1.262  1.00  0.00     0.009 A 
ATOM     65  C   UNL     1      -9.554  -6.682  -0.463  1.00  0.00     0.009 A 
ATOM     66  C   UNL     1      -8.566  -6.335   2.122  1.00  0.00     0.001 A 
ATOM     67  C   UNL     1      -9.469  -7.773   0.405  1.00  0.00     0.001 A 
ATOM     68  C   UNL     1      -8.968  -7.600   1.694  1.00  0.00     0.000 A 
ENDBRANCH  49  63
BRANCH  50  69
ATOM     69  C   UNL     1      -9.335   2.574  -5.988  1.00  0.00    -0.014 A 
ATOM     70  C   UNL     1      -9.667   3.848  -5.510  1.00  0.00     0.009 A 
ATOM     71  C   UNL     1      -8.965   2.426  -7.336  1.00  0.00     0.009 A 
ATOM     72  C   UNL     1      -9.630   4.951  -6.367  1.00  0.00     0.001 A 
ATOM     73  C   UNL     1      -8.896   3.533  -8.180  1.00  0.00     0.001 A 
ATOM     74  C   UNL     1      -9.235   4.795  -7.697  1.00  0.00     0.000 A 
ENDBRANCH  50  69
BRANCH  62  75
ATOM     75  C   UNL     1     -14.292  -1.273  -2.968  1.00  0.00    -0.014 A 
ATOM     76  C   UNL     1     -15.023  -1.677  -4.095  1.00  0.00     0.009 A 
ATOM     77  C   UNL     1     -14.980  -0.819  -1.832  1.00  0.00     0.009 A 
ATOM     78  C   UNL     1     -16.416  -1.603  -4.094  1.00  0.00     0.001 A 
ATOM     79  C   UNL     1     -16.374  -0.767  -1.826  1.00  0.00     0.001 A 
ATOM     80  C   UNL     1     -17.090  -1.152  -2.959  1.00  0.00     0.000 A 
ENDBRANCH  62  75
ENDBRANCH  36  37
ENDBRANCH  29  31
ENDBRANCH  28  29
ENDBRANCH  27  28
ENDBRANCH   1  27
TORSDOF 16
