REMARK SMILES CCOc1ccc(CNC(=O)Cc2c(C(=O)OCCOC(=O)c3ccc(-c4c5nc(c(-c6ccccc6)c6ccc([nH]6)c(-c6ccccc6)c6nc(c(-c7ccccc7)c7ccc4[nH]7)C=C6)C=C5)cc3)c(C)cn2C)cc1
REMARK SMILES IDX 15 1 16 2 14 3 13 4 74 5 71 6 73 7 75 8 72 9 12 10 10 11
REMARK SMILES IDX 9 12 11 14 8 15 7 16 4 17 5 18 77 19 6 20 76 21 3 22 2 23
REMARK SMILES IDX 1 24 17 25 18 26 19 27 20 28 21 29 22 30 23 31 24 32 70 33
REMARK SMILES IDX 25 34 69 35 26 36 27 37 28 38 63 39 29 40 68 41 62 42 64 43
REMARK SMILES IDX 30 44 67 45 61 46 60 47 31 49 53 50 38 51 52 52 39 53 42 54
REMARK SMILES IDX 51 55 65 56 40 57 41 58 50 60 66 61 43 62 32 63 33 64 37 65
REMARK SMILES IDX 34 66 36 67 35 68 54 69 55 70 59 71 56 72 58 73 57 74 44 75
REMARK SMILES IDX 45 76 49 77 46 78 48 79 47 80
REMARK H PARENT 9 13 64 48 42 59
REMARK Flexibility Score: inf
ROOT
ATOM      1  C   UNL     1       5.109  -4.173  -5.638  1.00  0.00     0.340 C 
ATOM      2  O   UNL     1       5.697  -5.015  -4.963  1.00  0.00    -0.246 OA
ENDROOT
BRANCH   1   3
ATOM      3  C   UNL     1       5.566  -2.776  -5.777  1.00  0.00     0.084 A 
ATOM      4  C   UNL     1       6.757  -2.212  -5.277  1.00  0.00     0.041 A 
ATOM      5  N   UNL     1       6.720  -0.861  -5.582  1.00  0.00    -0.353 N 
ATOM      6  C   UNL     1       4.814  -1.698  -6.373  1.00  0.00    -0.019 A 
ATOM      7  C   UNL     1       5.561  -0.551  -6.230  1.00  0.00     0.089 A 
ATOM      8  C   UNL     1       7.728   0.130  -5.258  1.00  0.00     0.149 C 
ATOM      9  C   UNL     1       3.463  -1.769  -6.994  1.00  0.00     0.047 C 
BRANCH   4  10
ATOM     10  C   UNL     1       7.962  -2.802  -4.569  1.00  0.00     0.154 C 
BRANCH  10  11
ATOM     11  C   UNL     1       7.672  -3.845  -3.504  1.00  0.00     0.226 C 
ATOM     12  N   UNL     1       6.888  -3.542  -2.427  1.00  0.00    -0.352 N 
ATOM     13  H   UNL     1       6.542  -4.311  -1.919  1.00  0.00     0.163 HD
ATOM     14  O   UNL     1       8.215  -4.953  -3.539  1.00  0.00    -0.275 OA
BRANCH  12  15
ATOM     15  C   UNL     1       6.501  -2.240  -1.936  1.00  0.00     0.151 C 
BRANCH  15  16
ATOM     16  C   UNL     1       5.018  -2.068  -1.738  1.00  0.00    -0.029 A 
ATOM     17  C   UNL     1       2.268  -1.503  -1.486  1.00  0.00     0.119 A 
ATOM     18  C   UNL     1       2.747  -2.076  -2.651  1.00  0.00     0.047 A 
ATOM     19  C   UNL     1       3.142  -1.268  -0.426  1.00  0.00     0.047 A 
ATOM     20  C   UNL     1       4.106  -2.364  -2.755  1.00  0.00     0.009 A 
ATOM     21  C   UNL     1       4.511  -1.520  -0.559  1.00  0.00     0.009 A 
BRANCH  17  22
ATOM     22  O   UNL     1       0.921  -1.310  -1.387  1.00  0.00    -0.494 OA
BRANCH  22  23
ATOM     23  C   UNL     1       0.544   0.064  -1.245  1.00  0.00     0.226 C 
ATOM     24  C   UNL     1       0.525   0.490   0.213  1.00  0.00     0.049 C 
ENDBRANCH  22  23
ENDBRANCH  17  22
ENDBRANCH  15  16
ENDBRANCH  12  15
ENDBRANCH  10  11
ENDBRANCH   4  10
ENDBRANCH   1   3
BRANCH   1  25
ATOM     25  O   UNL     1       3.950  -4.446  -6.310  1.00  0.00    -0.458 OA
BRANCH  25  26
ATOM     26  C   UNL     1       3.493  -5.812  -6.299  1.00  0.00     0.275 C 
BRANCH  26  27
ATOM     27  C   UNL     1       4.093  -6.625  -7.441  1.00  0.00     0.275 C 
BRANCH  27  28
ATOM     28  O   UNL     1       5.494  -6.772  -7.254  1.00  0.00    -0.458 OA
BRANCH  28  29
ATOM     29  C   UNL     1       6.239  -5.758  -7.746  1.00  0.00     0.338 C 
ATOM     30  O   UNL     1       5.845  -4.782  -8.361  1.00  0.00    -0.246 OA
BRANCH  29  31
ATOM     31  C   UNL     1       7.652  -6.046  -7.514  1.00  0.00     0.060 A 
ATOM     32  C   UNL     1       8.560  -5.035  -7.848  1.00  0.00     0.016 A 
ATOM     33  C   UNL     1       8.031  -7.383  -7.350  1.00  0.00     0.016 A 
ATOM     34  C   UNL     1       9.791  -5.414  -8.319  1.00  0.00     0.010 A 
ATOM     35  C   UNL     1       9.252  -7.761  -7.827  1.00  0.00     0.010 A 
ATOM     36  C   UNL     1      10.044  -6.782  -8.421  1.00  0.00    -0.014 A 
BRANCH  36  37
ATOM     37  C   UNL     1      11.134  -7.220  -9.252  1.00  0.00     0.031 A 
ATOM     38  C   UNL     1      12.436  -7.177  -8.562  1.00  0.00     0.074 A 
ATOM     39  C   UNL     1      10.877  -7.733 -10.470  1.00  0.00     0.049 A 
ATOM     40  N   UNL     1      13.448  -6.428  -8.840  1.00  0.00    -0.248 NA
ATOM     41  C   UNL     1      12.558  -7.919  -7.295  1.00  0.00     0.031 C 
ATOM     42  C   UNL     1       9.580  -8.038 -11.089  1.00  0.00     0.029 A 
ATOM     43  N   UNL     1      11.755  -8.214 -11.380  1.00  0.00    -0.354 N 
ATOM     44  C   UNL     1      14.408  -6.744  -7.888  1.00  0.00     0.074 A 
ATOM     45  C   UNL     1      13.738  -7.488  -6.855  1.00  0.00     0.031 C 
ATOM     46  C   UNL     1       9.772  -8.880 -12.133  1.00  0.00     0.029 A 
ATOM     47  C   UNL     1      11.200  -9.064 -12.324  1.00  0.00     0.049 A 
ATOM     48  H   UNL     1      12.711  -7.978 -11.373  1.00  0.00     0.167 HD
ATOM     49  C   UNL     1      15.735  -6.627  -8.156  1.00  0.00     0.031 A 
ATOM     50  C   UNL     1      11.889  -9.920 -13.123  1.00  0.00     0.031 A 
ATOM     51  C   UNL     1      15.975  -5.804  -9.312  1.00  0.00     0.049 A 
ATOM     52  C   UNL     1      13.307  -9.469 -13.119  1.00  0.00     0.074 A 
ATOM     53  C   UNL     1      15.733  -4.480  -9.618  1.00  0.00     0.029 A 
ATOM     54  N   UNL     1      16.149  -6.450 -10.515  1.00  0.00    -0.354 N 
ATOM     55  N   UNL     1      13.688  -8.335 -13.637  1.00  0.00    -0.248 NA
ATOM     56  C   UNL     1      14.190 -10.008 -12.090  1.00  0.00     0.031 C 
ATOM     57  C   UNL     1      15.303  -4.491 -10.977  1.00  0.00     0.029 A 
ATOM     58  C   UNL     1      15.377  -5.804 -11.448  1.00  0.00     0.049 A 
ATOM     59  H   UNL     1      16.723  -7.233 -10.677  1.00  0.00     0.167 HD
ATOM     60  C   UNL     1      14.593  -7.807 -12.724  1.00  0.00     0.074 A 
ATOM     61  C   UNL     1      14.925  -8.920 -11.832  1.00  0.00     0.031 C 
ATOM     62  C   UNL     1      14.748  -6.457 -12.576  1.00  0.00     0.031 A 
BRANCH  49  63
ATOM     63  C   UNL     1      16.750  -7.605  -7.633  1.00  0.00    -0.014 A 
ATOM     64  C   UNL     1      18.110  -7.362  -7.878  1.00  0.00     0.009 A 
ATOM     65  C   UNL     1      16.409  -8.886  -7.152  1.00  0.00     0.009 A 
ATOM     66  C   UNL     1      19.065  -8.371  -7.711  1.00  0.00     0.001 A 
ATOM     67  C   UNL     1      17.363  -9.881  -6.944  1.00  0.00     0.001 A 
ATOM     68  C   UNL     1      18.690  -9.631  -7.252  1.00  0.00     0.000 A 
ENDBRANCH  49  63
BRANCH  50  69
ATOM     69  C   UNL     1      11.470 -11.275 -13.556  1.00  0.00    -0.014 A 
ATOM     70  C   UNL     1      12.095 -11.933 -14.627  1.00  0.00     0.009 A 
ATOM     71  C   UNL     1      10.601 -12.034 -12.747  1.00  0.00     0.009 A 
ATOM     72  C   UNL     1      11.870 -13.300 -14.865  1.00  0.00     0.001 A 
ATOM     73  C   UNL     1      10.377 -13.395 -12.983  1.00  0.00     0.001 A 
ATOM     74  C   UNL     1      11.019 -14.031 -14.037  1.00  0.00     0.000 A 
ENDBRANCH  50  69
BRANCH  62  75
ATOM     75  C   UNL     1      13.988  -5.557 -13.525  1.00  0.00    -0.014 A 
ATOM     76  C   UNL     1      12.582  -5.457 -13.521  1.00  0.00     0.009 A 
ATOM     77  C   UNL     1      14.710  -4.650 -14.310  1.00  0.00     0.009 A 
ATOM     78  C   UNL     1      11.924  -4.495 -14.295  1.00  0.00     0.001 A 
ATOM     79  C   UNL     1      14.054  -3.677 -15.069  1.00  0.00     0.001 A 
ATOM     80  C   UNL     1      12.662  -3.601 -15.065  1.00  0.00     0.000 A 
ENDBRANCH  62  75
ENDBRANCH  36  37
ENDBRANCH  29  31
ENDBRANCH  28  29
ENDBRANCH  27  28
ENDBRANCH  26  27
ENDBRANCH  25  26
ENDBRANCH   1  25
TORSDOF 17
