REMARK SMILES C[C@@H]1CCCC[C@@H]1NC(=O)[C@@H](C)n1cc(C(=O)OCCOC(=O)c2ccc(-c3c4nc(c(-c5ccccc5)c5ccc([nH]5)c(-c5ccccc5)c5nc(c(-c6ccccc6)c6ccc3[nH]6)C=C5)C=C4)cc2)cn1
REMARK SMILES IDX 19 1 18 2 16 3 17 4 15 5 13 6 14 7 73 8 72 9 11 10 12 11
REMARK SMILES IDX 9 12 8 13 10 15 7 16 1 17 2 18 3 19 4 20 6 21 5 22 20 23
REMARK SMILES IDX 21 24 22 25 23 26 24 27 25 28 71 29 26 30 70 31 27 32 28 33
REMARK SMILES IDX 29 34 64 35 30 36 69 37 63 38 65 39 31 40 68 41 62 42 61 43
REMARK SMILES IDX 32 45 54 46 39 47 53 48 40 49 43 50 52 51 66 52 41 53 42 54
REMARK SMILES IDX 51 56 67 57 44 58 33 59 34 60 38 61 35 62 37 63 36 64 55 65
REMARK SMILES IDX 56 66 60 67 57 68 59 69 58 70 45 71 46 72 50 73 47 74 49 75
REMARK SMILES IDX 48 76
REMARK H PARENT 8 14 65 44 43 55
REMARK Flexibility Score: inf
ROOT
ATOM      1  C   UNL     1       4.860   3.931  -4.607  1.00  0.00     0.275 C 
ENDROOT
BRANCH   1   2
ATOM      2  O   UNL     1       4.599   2.591  -4.155  1.00  0.00    -0.458 OA
BRANCH   2   3
ATOM      3  C   UNL     1       4.274   2.496  -2.836  1.00  0.00     0.341 C 
ATOM      4  O   UNL     1       4.465   3.381  -2.007  1.00  0.00    -0.246 OA
BRANCH   3   5
ATOM      5  C   UNL     1       3.457   1.346  -2.549  1.00  0.00     0.098 A 
ATOM      6  N   UNL     1       2.487  -0.615  -2.285  1.00  0.00    -0.260 N 
ATOM      7  C   UNL     1       3.614  -0.008  -2.796  1.00  0.00     0.125 A 
ATOM      8  N   UNL     1       1.550   0.282  -1.954  1.00  0.00    -0.180 NA
ATOM      9  C   UNL     1       2.186   1.444  -1.970  1.00  0.00     0.150 A 
BRANCH   6  10
ATOM     10  C   UNL     1       2.189  -2.040  -2.169  1.00  0.00     0.193 C 
ATOM     11  C   UNL     1       1.022  -2.504  -3.038  1.00  0.00     0.044 C 
BRANCH  10  12
ATOM     12  C   UNL     1       2.071  -2.544  -0.720  1.00  0.00     0.244 C 
ATOM     13  N   UNL     1       1.032  -2.262   0.129  1.00  0.00    -0.351 N 
ATOM     14  H   UNL     1       0.912  -2.901   0.869  1.00  0.00     0.163 HD
ATOM     15  O   UNL     1       2.920  -3.339  -0.291  1.00  0.00    -0.273 OA
BRANCH  13  16
ATOM     16  C   UNL     1       0.075  -1.157   0.103  1.00  0.00     0.084 C 
ATOM     17  C   UNL     1       0.744  -0.209   2.420  1.00  0.00     0.010 C 
ATOM     18  C   UNL     1       0.587   0.060   0.917  1.00  0.00     0.008 C 
ATOM     19  C   UNL     1      -0.345   1.260   0.669  1.00  0.00     0.005 C 
ATOM     20  C   UNL     1      -1.817   0.944   0.937  1.00  0.00     0.000 C 
ATOM     21  C   UNL     1      -1.338  -1.538   0.551  1.00  0.00     0.025 C 
ATOM     22  C   UNL     1      -2.282  -0.358   0.280  1.00  0.00     0.002 C 
ENDBRANCH  13  16
ENDBRANCH  10  12
ENDBRANCH   6  10
ENDBRANCH   3   5
ENDBRANCH   2   3
ENDBRANCH   1   2
BRANCH   1  23
ATOM     23  C   UNL     1       3.592   4.574  -5.162  1.00  0.00     0.275 C 
BRANCH  23  24
ATOM     24  O   UNL     1       2.653   4.935  -4.140  1.00  0.00    -0.458 OA
BRANCH  24  25
ATOM     25  C   UNL     1       1.577   4.119  -4.066  1.00  0.00     0.338 C 
ATOM     26  O   UNL     1       1.528   2.953  -4.418  1.00  0.00    -0.246 OA
BRANCH  25  27
ATOM     27  C   UNL     1       0.369   4.888  -3.722  1.00  0.00     0.060 A 
ATOM     28  C   UNL     1      -0.788   4.182  -3.372  1.00  0.00     0.016 A 
ATOM     29  C   UNL     1       0.319   6.258  -4.015  1.00  0.00     0.016 A 
ATOM     30  C   UNL     1      -2.015   4.825  -3.435  1.00  0.00     0.010 A 
ATOM     31  C   UNL     1      -0.907   6.893  -4.090  1.00  0.00     0.010 A 
ATOM     32  C   UNL     1      -2.071   6.159  -3.858  1.00  0.00    -0.014 A 
BRANCH  32  33
ATOM     33  C   UNL     1      -3.376   6.796  -3.988  1.00  0.00     0.031 A 
ATOM     34  C   UNL     1      -4.063   7.082  -2.707  1.00  0.00     0.074 A 
ATOM     35  C   UNL     1      -3.867   7.243  -5.162  1.00  0.00     0.049 A 
ATOM     36  N   UNL     1      -5.233   6.687  -2.328  1.00  0.00    -0.248 NA
ATOM     37  C   UNL     1      -3.323   7.849  -1.693  1.00  0.00     0.031 C 
ATOM     38  C   UNL     1      -3.164   7.297  -6.448  1.00  0.00     0.029 A 
ATOM     39  N   UNL     1      -5.060   7.856  -5.429  1.00  0.00    -0.354 N 
ATOM     40  C   UNL     1      -5.452   7.290  -1.093  1.00  0.00     0.074 A 
ATOM     41  C   UNL     1      -4.203   7.887  -0.694  1.00  0.00     0.031 C 
ATOM     42  C   UNL     1      -3.847   8.100  -7.293  1.00  0.00     0.029 A 
ATOM     43  C   UNL     1      -5.092   8.501  -6.657  1.00  0.00     0.049 A 
ATOM     44  H   UNL     1      -5.823   7.842  -4.808  1.00  0.00     0.167 HD
ATOM     45  C   UNL     1      -6.705   7.466  -0.600  1.00  0.00     0.031 A 
ATOM     46  C   UNL     1      -6.048   9.339  -7.122  1.00  0.00     0.031 A 
ATOM     47  C   UNL     1      -7.679   6.660  -1.282  1.00  0.00     0.049 A 
ATOM     48  C   UNL     1      -7.291   9.114  -6.359  1.00  0.00     0.074 A 
ATOM     49  C   UNL     1      -8.038   5.332  -1.312  1.00  0.00     0.029 A 
ATOM     50  N   UNL     1      -8.268   7.268  -2.359  1.00  0.00    -0.354 N 
ATOM     51  N   UNL     1      -8.009   8.035  -6.462  1.00  0.00    -0.248 NA
ATOM     52  C   UNL     1      -7.635   9.987  -5.243  1.00  0.00     0.031 C 
ATOM     53  C   UNL     1      -8.663   5.122  -2.577  1.00  0.00     0.029 A 
ATOM     54  C   UNL     1      -8.668   6.331  -3.274  1.00  0.00     0.049 A 
ATOM     55  H   UNL     1      -8.387   8.240  -2.461  1.00  0.00     0.167 HD
ATOM     56  C   UNL     1      -8.572   7.879  -5.210  1.00  0.00     0.074 A 
ATOM     57  C   UNL     1      -8.476   9.188  -4.582  1.00  0.00     0.031 C 
ATOM     58  C   UNL     1      -8.760   6.635  -4.685  1.00  0.00     0.031 A 
BRANCH  45  59
ATOM     59  C   UNL     1      -7.125   8.701   0.163  1.00  0.00    -0.014 A 
ATOM     60  C   UNL     1      -8.438   8.767   0.665  1.00  0.00     0.009 A 
ATOM     61  C   UNL     1      -6.398   9.907   0.133  1.00  0.00     0.009 A 
ATOM     62  C   UNL     1      -9.009   9.985   1.057  1.00  0.00     0.001 A 
ATOM     63  C   UNL     1      -6.952  11.117   0.560  1.00  0.00     0.001 A 
ATOM     64  C   UNL     1      -8.268  11.160   0.998  1.00  0.00     0.000 A 
ENDBRANCH  45  59
BRANCH  46  65
ATOM     65  C   UNL     1      -5.934  10.430  -8.108  1.00  0.00    -0.014 A 
ATOM     66  C   UNL     1      -7.062  10.889  -8.806  1.00  0.00     0.009 A 
ATOM     67  C   UNL     1      -4.758  11.197  -8.178  1.00  0.00     0.009 A 
ATOM     68  C   UNL     1      -7.025  12.096  -9.514  1.00  0.00     0.001 A 
ATOM     69  C   UNL     1      -4.720  12.400  -8.889  1.00  0.00     0.001 A 
ATOM     70  C   UNL     1      -5.859  12.858  -9.543  1.00  0.00     0.000 A 
ENDBRANCH  46  65
BRANCH  58  71
ATOM     71  C   UNL     1      -8.810   5.485  -5.651  1.00  0.00    -0.014 A 
ATOM     72  C   UNL     1      -7.717   5.108  -6.450  1.00  0.00     0.009 A 
ATOM     73  C   UNL     1      -9.982   4.718  -5.712  1.00  0.00     0.009 A 
ATOM     74  C   UNL     1      -7.813   4.017  -7.318  1.00  0.00     0.001 A 
ATOM     75  C   UNL     1     -10.068   3.614  -6.561  1.00  0.00     0.001 A 
ATOM     76  C   UNL     1      -8.988   3.270  -7.371  1.00  0.00     0.000 A 
ENDBRANCH  58  71
ENDBRANCH  32  33
ENDBRANCH  25  27
ENDBRANCH  24  25
ENDBRANCH  23  24
ENDBRANCH   1  23
TORSDOF 14
