REMARK SMILES O=C(OCCOC(=O)c1nccnc1C(=O)Nc1ccc2c(c1)OCO2)c1ccc(-c2c3nc(c(-c4ccccc4)c4ccc([nH]4)c(-c4ccccc4)c4nc(c(-c5ccccc5)c5ccc2[nH]5)C=C4)C=C3)cc1
REMARK SMILES IDX 4 1 3 2 2 3 1 4 27 5 28 6 74 7 29 8 73 9 30 10 31 11 32 12
REMARK SMILES IDX 67 13 33 14 72 15 66 16 68 17 34 18 71 19 65 20 64 21 35 23
REMARK SMILES IDX 57 24 42 25 56 26 43 27 46 28 55 29 69 30 44 31 45 32 54 34
REMARK SMILES IDX 70 35 47 36 36 37 37 38 41 39 38 40 40 41 39 42 58 43 59 44
REMARK SMILES IDX 63 45 60 46 62 47 61 48 48 49 49 50 53 51 50 52 52 53 51 54
REMARK SMILES IDX 5 55 6 56 7 57 8 58 9 59 10 60 14 61 11 62 13 63 12 64 15 65
REMARK SMILES IDX 16 66 17 67 18 69 19 70 23 71 20 72 22 73 21 74 24 75 26 76
REMARK SMILES IDX 25 77
REMARK H PARENT 68 22 46 33 17 68
REMARK Flexibility Score: inf
ROOT
ATOM      1  C   UNL     1       4.883  -0.531  -0.538  1.00  0.00     0.275 C 
ENDROOT
BRANCH   1   2
ATOM      2  O   UNL     1       3.617  -0.956   0.022  1.00  0.00    -0.458 OA
BRANCH   2   3
ATOM      3  C   UNL     1       3.376  -1.112   1.353  1.00  0.00     0.338 C 
ATOM      4  O   UNL     1       2.612  -1.966   1.787  1.00  0.00    -0.246 OA
BRANCH   3   5
ATOM      5  C   UNL     1       3.886  -0.043   2.234  1.00  0.00     0.060 A 
ATOM      6  C   UNL     1       5.253   0.172   2.381  1.00  0.00     0.016 A 
ATOM      7  C   UNL     1       2.965   0.837   2.821  1.00  0.00     0.016 A 
ATOM      8  C   UNL     1       5.695   1.363   2.939  1.00  0.00     0.010 A 
ATOM      9  C   UNL     1       3.403   2.024   3.407  1.00  0.00     0.010 A 
ATOM     10  C   UNL     1       4.774   2.296   3.444  1.00  0.00    -0.014 A 
BRANCH  10  11
ATOM     11  C   UNL     1       5.337   3.361   4.291  1.00  0.00     0.031 A 
ATOM     12  C   UNL     1       5.737   2.926   5.661  1.00  0.00     0.074 A 
ATOM     13  C   UNL     1       5.685   4.565   3.808  1.00  0.00     0.049 A 
ATOM     14  N   UNL     1       6.639   3.442   6.446  1.00  0.00    -0.248 NA
ATOM     15  C   UNL     1       5.134   1.673   6.151  1.00  0.00     0.031 C 
ATOM     16  C   UNL     1       5.448   5.033   2.450  1.00  0.00     0.029 A 
ATOM     17  N   UNL     1       6.357   5.601   4.400  1.00  0.00    -0.354 N 
ATOM     18  C   UNL     1       6.802   2.509   7.455  1.00  0.00     0.074 A 
ATOM     19  C   UNL     1       5.865   1.435   7.226  1.00  0.00     0.031 C 
ATOM     20  C   UNL     1       5.922   6.283   2.314  1.00  0.00     0.029 A 
ATOM     21  C   UNL     1       6.554   6.677   3.566  1.00  0.00     0.049 A 
ATOM     22  H   UNL     1       6.669   5.579   5.333  1.00  0.00     0.167 HD
ATOM     23  C   UNL     1       7.689   2.538   8.472  1.00  0.00     0.031 A 
ATOM     24  C   UNL     1       7.214   7.829   3.787  1.00  0.00     0.031 A 
ATOM     25  C   UNL     1       8.496   3.682   8.766  1.00  0.00     0.049 A 
ATOM     26  C   UNL     1       7.988   7.953   5.071  1.00  0.00     0.074 A 
ATOM     27  C   UNL     1       9.319   3.907   9.850  1.00  0.00     0.029 A 
ATOM     28  N   UNL     1       8.528   4.828   7.981  1.00  0.00    -0.354 N 
ATOM     29  N   UNL     1       8.181   7.050   6.004  1.00  0.00    -0.248 NA
ATOM     30  C   UNL     1       8.669   9.230   5.313  1.00  0.00     0.031 C 
ATOM     31  C   UNL     1       9.799   5.219   9.754  1.00  0.00     0.029 A 
ATOM     32  C   UNL     1       9.322   5.786   8.579  1.00  0.00     0.049 A 
ATOM     33  H   UNL     1       8.054   4.941   7.125  1.00  0.00     0.167 HD
ATOM     34  C   UNL     1       9.048   7.629   6.919  1.00  0.00     0.074 A 
ATOM     35  C   UNL     1       9.336   8.964   6.428  1.00  0.00     0.031 C 
ATOM     36  C   UNL     1       9.577   7.103   8.052  1.00  0.00     0.031 A 
BRANCH  23  37
ATOM     37  C   UNL     1       7.715   1.321   9.339  1.00  0.00    -0.014 A 
ATOM     38  C   UNL     1       8.324   0.136   8.890  1.00  0.00     0.009 A 
ATOM     39  C   UNL     1       7.009   1.313  10.548  1.00  0.00     0.009 A 
ATOM     40  C   UNL     1       8.187  -1.046   9.621  1.00  0.00     0.001 A 
ATOM     41  C   UNL     1       6.886   0.134  11.283  1.00  0.00     0.001 A 
ATOM     42  C   UNL     1       7.464  -1.046  10.813  1.00  0.00     0.000 A 
ENDBRANCH  23  37
BRANCH  24  43
ATOM     43  C   UNL     1       7.198   8.926   2.782  1.00  0.00    -0.014 A 
ATOM     44  C   UNL     1       8.357   9.306   2.089  1.00  0.00     0.009 A 
ATOM     45  C   UNL     1       6.009   9.636   2.544  1.00  0.00     0.009 A 
ATOM     46  C   UNL     1       8.334  10.393   1.208  1.00  0.00     0.001 A 
ATOM     47  C   UNL     1       5.983  10.709   1.649  1.00  0.00     0.001 A 
ATOM     48  C   UNL     1       7.148  11.094   0.990  1.00  0.00     0.000 A 
ENDBRANCH  24  43
BRANCH  36  49
ATOM     49  C   UNL     1      10.544   7.962   8.809  1.00  0.00    -0.014 A 
ATOM     50  C   UNL     1      10.106   9.055   9.569  1.00  0.00     0.009 A 
ATOM     51  C   UNL     1      11.906   7.625   8.807  1.00  0.00     0.009 A 
ATOM     52  C   UNL     1      11.023   9.815  10.294  1.00  0.00     0.001 A 
ATOM     53  C   UNL     1      12.816   8.369   9.556  1.00  0.00     0.001 A 
ATOM     54  C   UNL     1      12.374   9.467  10.293  1.00  0.00     0.000 A 
ENDBRANCH  36  49
ENDBRANCH  10  11
ENDBRANCH   3   5
ENDBRANCH   2   3
ENDBRANCH   1   2
BRANCH   1  55
ATOM     55  C   UNL     1       5.124   0.983  -0.586  1.00  0.00     0.275 C 
BRANCH  55  56
ATOM     56  O   UNL     1       4.007   1.682  -0.017  1.00  0.00    -0.457 OA
BRANCH  56  57
ATOM     57  C   UNL     1       3.902   2.981  -0.354  1.00  0.00     0.359 C 
ATOM     58  O   UNL     1       4.705   3.596  -1.040  1.00  0.00    -0.244 OA
BRANCH  57  59
ATOM     59  C   UNL     1       2.640   3.564   0.170  1.00  0.00     0.179 A 
ATOM     60  N   UNL     1       2.857   4.869   0.556  1.00  0.00    -0.245 NA
ATOM     61  C   UNL     1       1.423   2.924   0.389  1.00  0.00     0.161 A 
ATOM     62  C   UNL     1       1.921   5.458   1.317  1.00  0.00     0.132 A 
ATOM     63  N   UNL     1       0.476   3.576   1.158  1.00  0.00    -0.247 NA
ATOM     64  C   UNL     1       0.761   4.805   1.642  1.00  0.00     0.132 A 
BRANCH  61  65
ATOM     65  C   UNL     1       0.939   1.522   0.108  1.00  0.00     0.276 C 
ATOM     66  O   UNL     1       0.444   0.925   1.078  1.00  0.00    -0.267 OA
ATOM     67  N   UNL     1       0.704   0.891  -1.103  1.00  0.00    -0.320 N 
ATOM     68  H   UNL     1      -0.075   0.291  -1.044  1.00  0.00     0.170 HD
BRANCH  67  69
ATOM     69  C   UNL     1       1.265   0.867  -2.387  1.00  0.00     0.045 A 
ATOM     70  C   UNL     1       2.447   1.521  -2.692  1.00  0.00     0.030 A 
ATOM     71  C   UNL     1       0.711   0.035  -3.371  1.00  0.00     0.076 A 
ATOM     72  C   UNL     1       3.172   1.318  -3.860  1.00  0.00     0.053 A 
ATOM     73  C   UNL     1       1.407  -0.120  -4.564  1.00  0.00     0.167 A 
ATOM     74  C   UNL     1       2.618   0.489  -4.786  1.00  0.00     0.165 A 
ATOM     75  O   UNL     1       1.035  -0.885  -5.627  1.00  0.00    -0.454 OA
ATOM     76  O   UNL     1       3.171   0.182  -5.982  1.00  0.00    -0.454 OA
ATOM     77  C   UNL     1       2.177  -0.718  -6.501  1.00  0.00     0.468 C 
ENDBRANCH  67  69
ENDBRANCH  61  65
ENDBRANCH  57  59
ENDBRANCH  56  57
ENDBRANCH  55  56
ENDBRANCH   1  55
TORSDOF 13
