REMARK SMILES CN(c1ccccc1)c1nc(OCC(=O)OCCOC(=O)c2ccc(-c3c4nc(c(-c5ccccc5)c5ccc([nH]5)c(-c5ccccc5)c5nc(c(-c6ccccc6)c6ccc3[nH]6)C=C5)C=C4)cc2)cc(-c2ccncc2)n1
REMARK SMILES IDX 17 1 16 2 14 3 15 4 13 5 12 6 11 7 9 8 10 9 78 10 71 11
REMARK SMILES IDX 70 12 2 13 1 14 3 15 4 16 8 17 5 18 7 19 6 20 72 21 73 22
REMARK SMILES IDX 77 23 74 24 76 25 75 26 18 27 19 28 20 29 21 30 22 31 23 32
REMARK SMILES IDX 69 33 24 34 68 35 25 36 26 37 27 38 62 39 28 40 67 41 61 42
REMARK SMILES IDX 63 43 29 44 66 45 60 46 59 47 30 49 52 50 37 51 51 52 38 53
REMARK SMILES IDX 41 54 50 55 64 56 39 57 40 58 49 60 65 61 42 62 31 63 32 64
REMARK SMILES IDX 36 65 33 66 35 67 34 68 53 69 54 70 58 71 55 72 57 73 56 74
REMARK SMILES IDX 43 75 44 76 48 77 45 78 47 79 46 80
REMARK H PARENT 63 48 41 59
REMARK Flexibility Score: inf
ROOT
ATOM      1  C   UNL     1      -0.723   7.833  -1.655  1.00  0.00     0.274 C 
ENDROOT
BRANCH   1   2
ATOM      2  O   UNL     1      -0.704   6.479  -2.147  1.00  0.00    -0.460 OA
BRANCH   2   3
ATOM      3  C   UNL     1      -0.788   6.345  -3.499  1.00  0.00     0.344 C 
ATOM      4  O   UNL     1      -0.825   7.279  -4.293  1.00  0.00    -0.248 OA
BRANCH   3   5
ATOM      5  C   UNL     1      -0.773   4.892  -3.956  1.00  0.00     0.353 C 
BRANCH   5   6
ATOM      6  O   UNL     1      -0.970   3.927  -2.944  1.00  0.00    -0.466 OA
BRANCH   6   7
ATOM      7  C   UNL     1       0.095   3.160  -2.575  1.00  0.00     0.219 A 
ATOM      8  C   UNL     1       0.658   1.118  -1.675  1.00  0.00     0.233 A 
ATOM      9  N   UNL     1      -0.269   1.930  -2.206  1.00  0.00    -0.177 NA
ATOM     10  N   UNL     1       1.938   1.482  -1.521  1.00  0.00    -0.212 NA
ATOM     11  C   UNL     1       2.294   2.707  -1.943  1.00  0.00     0.080 A 
ATOM     12  C   UNL     1       1.389   3.599  -2.483  1.00  0.00     0.097 A 
BRANCH   8  13
ATOM     13  N   UNL     1       0.258  -0.160  -1.268  1.00  0.00    -0.314 N 
ATOM     14  C   UNL     1       0.882  -0.619  -0.038  1.00  0.00     0.153 C 
BRANCH  13  15
ATOM     15  C   UNL     1      -0.644  -0.978  -1.959  1.00  0.00     0.043 A 
ATOM     16  C   UNL     1      -0.604  -1.031  -3.365  1.00  0.00     0.026 A 
ATOM     17  C   UNL     1      -1.611  -1.753  -1.308  1.00  0.00     0.026 A 
ATOM     18  C   UNL     1      -1.478  -1.841  -4.092  1.00  0.00     0.002 A 
ATOM     19  C   UNL     1      -2.500  -2.554  -2.033  1.00  0.00     0.002 A 
ATOM     20  C   UNL     1      -2.428  -2.603  -3.423  1.00  0.00     0.000 A 
ENDBRANCH  13  15
ENDBRANCH   8  13
BRANCH  11  21
ATOM     21  C   UNL     1       3.707   3.036  -1.749  1.00  0.00     0.004 A 
ATOM     22  C   UNL     1       4.098   3.966  -0.783  1.00  0.00     0.030 A 
ATOM     23  C   UNL     1       4.711   2.409  -2.494  1.00  0.00     0.030 A 
ATOM     24  C   UNL     1       5.441   4.272  -0.645  1.00  0.00     0.111 A 
ATOM     25  C   UNL     1       6.032   2.773  -2.277  1.00  0.00     0.111 A 
ATOM     26  N   UNL     1       6.417   3.708  -1.385  1.00  0.00    -0.265 NA
ENDBRANCH  11  21
ENDBRANCH   6   7
ENDBRANCH   5   6
ENDBRANCH   3   5
ENDBRANCH   2   3
ENDBRANCH   1   2
BRANCH   1  27
ATOM     27  C   UNL     1       0.686   8.340  -1.357  1.00  0.00     0.275 C 
BRANCH  27  28
ATOM     28  O   UNL     1       1.557   8.104  -2.481  1.00  0.00    -0.458 OA
BRANCH  28  29
ATOM     29  C   UNL     1       2.523   7.190  -2.254  1.00  0.00     0.338 C 
ATOM     30  O   UNL     1       2.744   6.615  -1.194  1.00  0.00    -0.246 OA
BRANCH  29  31
ATOM     31  C   UNL     1       3.311   6.896  -3.464  1.00  0.00     0.060 A 
ATOM     32  C   UNL     1       2.703   6.627  -4.694  1.00  0.00     0.016 A 
ATOM     33  C   UNL     1       4.692   6.744  -3.320  1.00  0.00     0.016 A 
ATOM     34  C   UNL     1       3.475   6.172  -5.767  1.00  0.00     0.010 A 
ATOM     35  C   UNL     1       5.470   6.346  -4.407  1.00  0.00     0.010 A 
ATOM     36  C   UNL     1       4.868   6.051  -5.639  1.00  0.00    -0.014 A 
BRANCH  36  37
ATOM     37  C   UNL     1       5.725   5.722  -6.804  1.00  0.00     0.031 A 
ATOM     38  C   UNL     1       6.494   4.436  -6.874  1.00  0.00     0.074 A 
ATOM     39  C   UNL     1       5.872   6.641  -7.774  1.00  0.00     0.049 A 
ATOM     40  N   UNL     1       7.446   4.082  -7.700  1.00  0.00    -0.248 NA
ATOM     41  C   UNL     1       6.147   3.412  -5.881  1.00  0.00     0.031 C 
ATOM     42  C   UNL     1       5.167   7.923  -7.839  1.00  0.00     0.029 A 
ATOM     43  N   UNL     1       6.678   6.643  -8.882  1.00  0.00    -0.354 N 
ATOM     44  C   UNL     1       7.845   2.813  -7.298  1.00  0.00     0.074 A 
ATOM     45  C   UNL     1       7.023   2.455  -6.160  1.00  0.00     0.031 C 
ATOM     46  C   UNL     1       5.565   8.584  -8.935  1.00  0.00     0.029 A 
ATOM     47  C   UNL     1       6.595   7.803  -9.609  1.00  0.00     0.049 A 
ATOM     48  H   UNL     1       7.257   5.887  -9.132  1.00  0.00     0.167 HD
ATOM     49  C   UNL     1       8.811   2.025  -7.828  1.00  0.00     0.031 A 
ATOM     50  C   UNL     1       7.299   8.216 -10.677  1.00  0.00     0.031 A 
ATOM     51  C   UNL     1       9.602   2.372  -8.980  1.00  0.00     0.049 A 
ATOM     52  C   UNL     1       8.381   7.343 -11.230  1.00  0.00     0.074 A 
ATOM     53  C   UNL     1      10.581   1.625  -9.614  1.00  0.00     0.029 A 
ATOM     54  N   UNL     1       9.498   3.565  -9.677  1.00  0.00    -0.354 N 
ATOM     55  N   UNL     1       8.777   6.164 -10.818  1.00  0.00    -0.248 NA
ATOM     56  C   UNL     1       9.120   7.864 -12.388  1.00  0.00     0.031 C 
ATOM     57  C   UNL     1      11.087   2.379 -10.681  1.00  0.00     0.029 A 
ATOM     58  C   UNL     1      10.399   3.580 -10.728  1.00  0.00     0.049 A 
ATOM     59  H   UNL     1       8.874   4.295  -9.457  1.00  0.00     0.167 HD
ATOM     60  C   UNL     1       9.807   5.795 -11.671  1.00  0.00     0.074 A 
ATOM     61  C   UNL     1       9.966   6.872 -12.629  1.00  0.00     0.031 C 
ATOM     62  C   UNL     1      10.553   4.664 -11.661  1.00  0.00     0.031 A 
BRANCH  49  63
ATOM     63  C   UNL     1       9.093   0.714  -7.151  1.00  0.00    -0.014 A 
ATOM     64  C   UNL     1       8.244  -0.391  -7.314  1.00  0.00     0.009 A 
ATOM     65  C   UNL     1      10.261   0.567  -6.386  1.00  0.00     0.009 A 
ATOM     66  C   UNL     1       8.550  -1.612  -6.706  1.00  0.00     0.001 A 
ATOM     67  C   UNL     1      10.574  -0.659  -5.795  1.00  0.00     0.001 A 
ATOM     68  C   UNL     1       9.716  -1.746  -5.951  1.00  0.00     0.000 A 
ENDBRANCH  49  63
BRANCH  50  69
ATOM     69  C   UNL     1       6.997   9.541 -11.266  1.00  0.00    -0.014 A 
ATOM     70  C   UNL     1       6.234   9.634 -12.437  1.00  0.00     0.009 A 
ATOM     71  C   UNL     1       7.407  10.717 -10.618  1.00  0.00     0.009 A 
ATOM     72  C   UNL     1       5.884  10.884 -12.950  1.00  0.00     0.001 A 
ATOM     73  C   UNL     1       7.039  11.964 -11.123  1.00  0.00     0.001 A 
ATOM     74  C   UNL     1       6.279  12.046 -12.289  1.00  0.00     0.000 A 
ENDBRANCH  50  69
BRANCH  62  75
ATOM     75  C   UNL     1      11.589   4.536 -12.735  1.00  0.00    -0.014 A 
ATOM     76  C   UNL     1      12.818   5.206 -12.634  1.00  0.00     0.009 A 
ATOM     77  C   UNL     1      11.335   3.733 -13.857  1.00  0.00     0.009 A 
ATOM     78  C   UNL     1      13.762   5.097 -13.656  1.00  0.00     0.001 A 
ATOM     79  C   UNL     1      12.288   3.615 -14.869  1.00  0.00     0.001 A 
ATOM     80  C   UNL     1      13.497   4.303 -14.771  1.00  0.00     0.000 A 
ENDBRANCH  62  75
ENDBRANCH  36  37
ENDBRANCH  29  31
ENDBRANCH  28  29
ENDBRANCH  27  28
ENDBRANCH   1  27
TORSDOF 16
