REMARK SMILES COc1ccc(N2C(=O)/C(=C/c3c(C(=O)OCCOC(=O)c4ccc(-c5c6nc(c(-c7ccccc7)c7ccc([nH]7)c(-c7ccccc7)c7nc(c(-c8ccccc8)c8ccc5[nH]8)C=C7)C=C6)cc4)[nH]c4cc(OC)ccc34)SC2=S)cc1
REMARK SMILES IDX 17 1 16 2 14 3 15 4 13 5 12 6 78 7 70 8 71 9 77 10 72 12
REMARK SMILES IDX 76 13 73 14 11 15 7 16 8 17 80 18 9 19 10 20 79 21 81 22
REMARK SMILES IDX 6 23 3 24 4 25 83 26 5 27 82 28 2 29 1 30 74 31 75 32 18 33
REMARK SMILES IDX 19 34 20 35 21 36 22 37 23 38 69 39 24 40 68 41 25 42 26 43
REMARK SMILES IDX 27 44 62 45 28 46 67 47 61 48 63 49 29 50 66 51 60 52 59 53
REMARK SMILES IDX 30 55 52 56 37 57 51 58 38 59 41 60 50 61 64 62 39 63 40 64
REMARK SMILES IDX 49 66 65 67 42 68 31 69 32 70 36 71 33 72 35 73 34 74 53 75
REMARK SMILES IDX 54 76 58 77 55 78 57 79 56 80 43 81 44 82 48 83 45 84 47 85
REMARK SMILES IDX 46 86
REMARK H PARENT 70 11 63 54 41 65
REMARK Flexibility Score: inf
ROOT
ATOM      1  C   UNL     1       3.398  -8.113   2.496  1.00  0.00     0.275 C 
ENDROOT
BRANCH   1   2
ATOM      2  O   UNL     1       2.768  -9.056   1.603  1.00  0.00    -0.457 OA
BRANCH   2   3
ATOM      3  C   UNL     1       3.623  -9.949   1.036  1.00  0.00     0.355 C 
ATOM      4  O   UNL     1       4.838  -9.936   1.186  1.00  0.00    -0.244 OA
BRANCH   3   5
ATOM      5  C   UNL     1       2.927 -10.964   0.287  1.00  0.00     0.133 A 
ATOM      6  C   UNL     1       2.126 -10.932  -0.850  1.00  0.00     0.016 A 
ATOM      7  C   UNL     1       1.974 -12.289  -1.310  1.00  0.00     0.008 A 
ATOM      8  N   UNL     1       2.989 -12.280   0.659  1.00  0.00    -0.348 N 
ATOM      9  C   UNL     1       2.547 -13.101  -0.334  1.00  0.00     0.050 A 
ATOM     10  C   UNL     1       1.417 -12.947  -2.430  1.00  0.00     0.015 A 
ATOM     11  H   UNL     1       3.313 -12.594   1.534  1.00  0.00     0.167 HD
ATOM     12  C   UNL     1       2.595 -14.494  -0.393  1.00  0.00     0.073 A 
ATOM     13  C   UNL     1       1.488 -14.360  -2.527  1.00  0.00     0.047 A 
ATOM     14  C   UNL     1       2.066 -15.125  -1.515  1.00  0.00     0.120 A 
BRANCH   6  15
ATOM     15  C   UNL     1       1.512  -9.726  -1.329  1.00  0.00     0.032 C 
ATOM     16  N   UNL     1       2.252  -6.265  -0.940  1.00  0.00    -0.261 N 
ATOM     17  C   UNL     1       1.364  -7.275  -1.340  1.00  0.00     0.270 C 
ATOM     18  C   UNL     1       3.603  -6.611  -1.001  1.00  0.00     0.152 C 
ATOM     19  O   UNL     1       0.148  -7.211  -1.473  1.00  0.00    -0.268 OA
ATOM     20  C   UNL     1       2.114  -8.546  -1.554  1.00  0.00     0.081 C 
ATOM     21  S   UNL     1       3.780  -8.208  -1.730  1.00  0.00    -0.054 SA
ATOM     22  S   UNL     1       4.967  -5.848  -0.395  1.00  0.00    -0.051 S 
BRANCH  16  23
ATOM     23  C   UNL     1       1.748  -5.000  -0.463  1.00  0.00     0.051 A 
ATOM     24  C   UNL     1       0.744  -2.509   0.483  1.00  0.00     0.119 A 
ATOM     25  C   UNL     1       0.038  -3.689   0.701  1.00  0.00     0.048 A 
ATOM     26  C   UNL     1       1.961  -2.572  -0.186  1.00  0.00     0.048 A 
ATOM     27  C   UNL     1       0.528  -4.917   0.229  1.00  0.00     0.030 A 
ATOM     28  C   UNL     1       2.444  -3.799  -0.665  1.00  0.00     0.030 A 
BRANCH  24  29
ATOM     29  O   UNL     1       0.162  -1.372   0.967  1.00  0.00    -0.497 OA
ATOM     30  C   UNL     1       0.617  -0.148   0.397  1.00  0.00     0.278 C 
ENDBRANCH  24  29
ENDBRANCH  16  23
ENDBRANCH   6  15
BRANCH  14  31
ATOM     31  O   UNL     1       2.179 -16.487  -1.462  1.00  0.00    -0.497 OA
ATOM     32  C   UNL     1       1.776 -17.233  -2.598  1.00  0.00     0.278 C 
ENDBRANCH  14  31
ENDBRANCH   3   5
ENDBRANCH   2   3
ENDBRANCH   1   2
BRANCH   1  33
ATOM     33  C   UNL     1       3.345  -8.576   3.956  1.00  0.00     0.275 C 
BRANCH  33  34
ATOM     34  O   UNL     1       4.269  -9.653   4.217  1.00  0.00    -0.458 OA
BRANCH  34  35
ATOM     35  C   UNL     1       3.746 -10.889   4.090  1.00  0.00     0.338 C 
ATOM     36  O   UNL     1       2.600 -11.184   3.788  1.00  0.00    -0.246 OA
BRANCH  35  37
ATOM     37  C   UNL     1       4.777 -11.925   4.219  1.00  0.00     0.060 A 
ATOM     38  C   UNL     1       5.279 -12.475   3.043  1.00  0.00     0.016 A 
ATOM     39  C   UNL     1       5.032 -12.536   5.443  1.00  0.00     0.016 A 
ATOM     40  C   UNL     1       5.887 -13.716   3.054  1.00  0.00     0.010 A 
ATOM     41  C   UNL     1       5.774 -13.722   5.467  1.00  0.00     0.010 A 
ATOM     42  C   UNL     1       6.164 -14.347   4.268  1.00  0.00    -0.014 A 
BRANCH  42  43
ATOM     43  C   UNL     1       6.822 -15.675   4.256  1.00  0.00     0.031 A 
ATOM     44  C   UNL     1       6.138 -16.855   4.886  1.00  0.00     0.074 A 
ATOM     45  C   UNL     1       8.008 -15.832   3.636  1.00  0.00     0.049 A 
ATOM     46  N   UNL     1       6.624 -18.036   5.165  1.00  0.00    -0.248 NA
ATOM     47  C   UNL     1       4.728 -16.677   5.272  1.00  0.00     0.031 C 
ATOM     48  C   UNL     1       8.738 -14.785   2.914  1.00  0.00     0.029 A 
ATOM     49  N   UNL     1       8.802 -16.941   3.496  1.00  0.00    -0.354 N 
ATOM     50  C   UNL     1       5.610 -18.711   5.833  1.00  0.00     0.074 A 
ATOM     51  C   UNL     1       4.475 -17.817   5.899  1.00  0.00     0.031 C 
ATOM     52  C   UNL     1       9.839 -15.313   2.364  1.00  0.00     0.029 A 
ATOM     53  C   UNL     1       9.953 -16.701   2.786  1.00  0.00     0.049 A 
ATOM     54  H   UNL     1       8.570 -17.822   3.868  1.00  0.00     0.167 HD
ATOM     55  C   UNL     1       5.639 -19.958   6.359  1.00  0.00     0.031 A 
ATOM     56  C   UNL     1      11.013 -17.493   2.548  1.00  0.00     0.031 A 
ATOM     57  C   UNL     1       6.759 -20.852   6.234  1.00  0.00     0.049 A 
ATOM     58  C   UNL     1      11.028 -18.867   3.145  1.00  0.00     0.074 A 
ATOM     59  C   UNL     1       6.907 -22.134   6.734  1.00  0.00     0.029 A 
ATOM     60  N   UNL     1       7.920 -20.559   5.532  1.00  0.00    -0.354 N 
ATOM     61  N   UNL     1      10.108 -19.459   3.869  1.00  0.00    -0.248 NA
ATOM     62  C   UNL     1      12.235 -19.670   2.919  1.00  0.00     0.031 C 
ATOM     63  C   UNL     1       8.170 -22.605   6.356  1.00  0.00     0.029 A 
ATOM     64  C   UNL     1       8.791 -21.632   5.588  1.00  0.00     0.049 A 
ATOM     65  H   UNL     1       8.097 -19.712   5.062  1.00  0.00     0.167 HD
ATOM     66  C   UNL     1      10.627 -20.703   4.192  1.00  0.00     0.074 A 
ATOM     67  C   UNL     1      11.929 -20.791   3.559  1.00  0.00     0.031 C 
ATOM     68  C   UNL     1      10.082 -21.682   4.954  1.00  0.00     0.031 A 
BRANCH  55  69
ATOM     69  C   UNL     1       4.452 -20.391   7.173  1.00  0.00    -0.014 A 
ATOM     70  C   UNL     1       3.227 -20.729   6.579  1.00  0.00     0.009 A 
ATOM     71  C   UNL     1       4.571 -20.461   8.571  1.00  0.00     0.009 A 
ATOM     72  C   UNL     1       2.134 -21.091   7.372  1.00  0.00     0.001 A 
ATOM     73  C   UNL     1       3.486 -20.848   9.359  1.00  0.00     0.001 A 
ATOM     74  C   UNL     1       2.265 -21.152   8.760  1.00  0.00     0.000 A 
ENDBRANCH  55  69
BRANCH  56  75
ATOM     75  C   UNL     1      12.164 -16.967   1.771  1.00  0.00    -0.014 A 
ATOM     76  C   UNL     1      12.422 -17.429   0.473  1.00  0.00     0.009 A 
ATOM     77  C   UNL     1      12.984 -15.961   2.309  1.00  0.00     0.009 A 
ATOM     78  C   UNL     1      13.479 -16.896  -0.269  1.00  0.00     0.001 A 
ATOM     79  C   UNL     1      14.021 -15.410   1.555  1.00  0.00     0.001 A 
ATOM     80  C   UNL     1      14.271 -15.882   0.268  1.00  0.00     0.000 A 
ENDBRANCH  56  75
BRANCH  68  81
ATOM     81  C   UNL     1      10.896 -22.928   5.123  1.00  0.00    -0.014 A 
ATOM     82  C   UNL     1      11.990 -22.960   6.001  1.00  0.00     0.009 A 
ATOM     83  C   UNL     1      10.551 -24.087   4.411  1.00  0.00     0.009 A 
ATOM     84  C   UNL     1      12.743 -24.126   6.141  1.00  0.00     0.001 A 
ATOM     85  C   UNL     1      11.294 -25.256   4.570  1.00  0.00     0.001 A 
ATOM     86  C   UNL     1      12.393 -25.273   5.428  1.00  0.00     0.000 A 
ENDBRANCH  68  81
ENDBRANCH  42  43
ENDBRANCH  35  37
ENDBRANCH  34  35
ENDBRANCH  33  34
ENDBRANCH   1  33
TORSDOF 15
