REMARK SMILES CCC([NH3+])(CC)C(=O)N1CCC[N@@H+](CC(=O)OCCOC(=O)c2ccc(-c3c4nc(c(-c5ccccc5)c5ccc([nH]5)c(-c5ccccc5)c5nc(c(-c6ccccc6)c6ccc3[nH]6)C=C5)C=C4)cc2)CC1
REMARK SMILES IDX 15 1 16 2 14 3 13 4 71 6 72 7 9 8 7 9 8 10 3 11 2 12 1 13
REMARK SMILES IDX 4 14 5 18 6 19 10 20 11 21 12 23 17 25 18 26 19 27 20 28
REMARK SMILES IDX 21 29 22 30 23 31 24 32 70 33 25 34 69 35 26 36 27 37 28 38
REMARK SMILES IDX 63 39 29 40 68 41 62 42 64 43 30 44 67 45 61 46 60 47 31 49
REMARK SMILES IDX 53 50 38 51 52 52 39 53 42 54 51 55 65 56 40 57 41 58 50 60
REMARK SMILES IDX 66 61 43 62 32 63 33 64 37 65 34 66 36 67 35 68 54 69 55 70
REMARK SMILES IDX 59 71 56 72 58 73 57 74 44 75 45 76 49 77 46 78 48 79 47 80
REMARK H PARENT 13 5 4 15 4 16 4 17 64 48 42 59
REMARK Flexibility Score: 90.00
ROOT
ATOM      1  C   UNL     1       4.272  -3.317   5.478  1.00  0.00     0.361 C 
ATOM      2  O   UNL     1       4.112  -3.886   6.552  1.00  0.00    -0.245 OA
ENDROOT
BRANCH   1   3
ATOM      3  C   UNL     1       5.593  -3.353   4.704  1.00  0.00     0.386 C 
BRANCH   3   4
ATOM      4  N   UNL     1       5.355  -3.461   3.273  1.00  0.00    -0.324 N 
ATOM      5  H   UNL     1       4.364  -3.221   3.318  1.00  0.00     0.348 HD
BRANCH   4   6
ATOM      6  C   UNL     1       5.783  -2.387   2.394  1.00  0.00     0.284 C 
BRANCH   6   7
ATOM      7  C   UNL     1       4.583  -1.686   1.724  1.00  0.00     0.181 C 
BRANCH   7   8
ATOM      8  N   UNL     1       3.593  -2.497   0.989  1.00  0.00    -0.331 N 
BRANCH   8   9
ATOM      9  C   UNL     1       2.771  -1.796   0.100  1.00  0.00     0.284 C 
ATOM     10  O   UNL     1       3.284  -0.969  -0.664  1.00  0.00    -0.268 OA
BRANCH   9  11
ATOM     11  C   UNL     1       1.184  -1.823   0.309  1.00  0.00     0.173 C 
BRANCH  11  12
ATOM     12  C   UNL     1       0.486  -0.944  -0.776  1.00  0.00     0.075 C 
ATOM     13  C   UNL     1       0.612   0.570  -0.632  1.00  0.00     0.011 C 
ENDBRANCH  11  12
BRANCH  11  14
ATOM     14  N   UNL     1       0.929  -1.246   1.665  1.00  0.00    -0.345 N 
ATOM     15  H   UNL     1      -0.074  -1.241   1.849  1.00  0.00     0.345 HD
ATOM     16  H   UNL     1       1.286  -0.291   1.701  1.00  0.00     0.345 HD
ATOM     17  H   UNL     1       1.401  -1.813   2.370  1.00  0.00     0.345 HD
ENDBRANCH  11  14
BRANCH  11  18
ATOM     18  C   UNL     1       0.479  -3.200   0.298  1.00  0.00     0.075 C 
ATOM     19  C   UNL     1       0.660  -4.008  -0.983  1.00  0.00     0.011 C 
ENDBRANCH  11  18
ENDBRANCH   9  11
ENDBRANCH   8   9
BRANCH   8  20
ATOM     20  C   UNL     1       3.341  -3.879   1.389  1.00  0.00     0.126 C 
BRANCH  20  21
ATOM     21  C   UNL     1       4.574  -4.784   1.363  1.00  0.00     0.083 CG0
ATOM     22  G   UNL     1       5.311  -4.786   2.699  1.00  0.00     0.000 G0
ENDBRANCH  20  21
ENDBRANCH   8  20
ENDBRANCH   7   8
ENDBRANCH   6   7
ENDBRANCH   4   6
BRANCH   4  23
ATOM     23  C   UNL     1       5.311  -4.786   2.699  1.00  0.00     0.264 CG0
ATOM     24  G   UNL     1       4.574  -4.784   1.363  1.00  0.00     0.000 G0
ENDBRANCH   4  23
ENDBRANCH   3   4
ENDBRANCH   1   3
BRANCH   1  25
ATOM     25  O   UNL     1       3.338  -2.531   4.863  1.00  0.00    -0.458 OA
BRANCH  25  26
ATOM     26  C   UNL     1       2.071  -2.392   5.534  1.00  0.00     0.274 C 
BRANCH  26  27
ATOM     27  C   UNL     1       1.054  -3.397   5.005  1.00  0.00     0.275 C 
BRANCH  27  28
ATOM     28  O   UNL     1       1.512  -4.735   5.261  1.00  0.00    -0.458 OA
BRANCH  28  29
ATOM     29  C   UNL     1       1.481  -5.568   4.204  1.00  0.00     0.338 C 
ATOM     30  O   UNL     1       1.083  -5.330   3.071  1.00  0.00    -0.246 OA
BRANCH  29  31
ATOM     31  C   UNL     1       1.910  -6.911   4.591  1.00  0.00     0.060 A 
ATOM     32  C   UNL     1       3.142  -7.149   5.207  1.00  0.00     0.016 A 
ATOM     33  C   UNL     1       1.050  -7.961   4.260  1.00  0.00     0.016 A 
ATOM     34  C   UNL     1       3.514  -8.461   5.493  1.00  0.00     0.010 A 
ATOM     35  C   UNL     1       1.401  -9.262   4.588  1.00  0.00     0.010 A 
ATOM     36  C   UNL     1       2.629  -9.516   5.213  1.00  0.00    -0.014 A 
BRANCH  36  37
ATOM     37  C   UNL     1       2.884 -10.877   5.724  1.00  0.00     0.031 A 
ATOM     38  C   UNL     1       3.232 -11.999   4.798  1.00  0.00     0.074 A 
ATOM     39  C   UNL     1       2.676 -11.082   7.037  1.00  0.00     0.049 A 
ATOM     40  N   UNL     1       3.366 -13.271   5.068  1.00  0.00    -0.248 NA
ATOM     41  C   UNL     1       3.444 -11.654   3.384  1.00  0.00     0.031 C 
ATOM     42  C   UNL     1       2.297 -10.042   8.000  1.00  0.00     0.029 A 
ATOM     43  N   UNL     1       2.731 -12.225   7.786  1.00  0.00    -0.354 N 
ATOM     44  C   UNL     1       3.672 -13.883   3.860  1.00  0.00     0.074 A 
ATOM     45  C   UNL     1       3.688 -12.845   2.851  1.00  0.00     0.031 C 
ATOM     46  C   UNL     1       2.164 -10.594   9.214  1.00  0.00     0.029 A 
ATOM     47  C   UNL     1       2.403 -12.026   9.105  1.00  0.00     0.049 A 
ATOM     48  H   UNL     1       2.980 -13.103   7.417  1.00  0.00     0.167 HD
ATOM     49  C   UNL     1       3.910 -15.196   3.626  1.00  0.00     0.031 A 
ATOM     50  C   UNL     1       2.289 -12.908  10.111  1.00  0.00     0.031 A 
ATOM     51  C   UNL     1       3.851 -16.212   4.644  1.00  0.00     0.049 A 
ATOM     52  C   UNL     1       2.562 -14.351   9.822  1.00  0.00     0.074 A 
ATOM     53  C   UNL     1       4.060 -17.575   4.524  1.00  0.00     0.029 A 
ATOM     54  N   UNL     1       3.555 -15.969   5.979  1.00  0.00    -0.354 N 
ATOM     55  N   UNL     1       2.871 -14.914   8.678  1.00  0.00    -0.248 NA
ATOM     56  C   UNL     1       2.479 -15.278  10.955  1.00  0.00     0.031 C 
ATOM     57  C   UNL     1       3.863 -18.159   5.782  1.00  0.00     0.029 A 
ATOM     58  C   UNL     1       3.573 -17.155   6.692  1.00  0.00     0.049 A 
ATOM     59  H   UNL     1       3.362 -15.083   6.362  1.00  0.00     0.167 HD
ATOM     60  C   UNL     1       3.034 -16.262   8.953  1.00  0.00     0.074 A 
ATOM     61  C   UNL     1       2.810 -16.425  10.378  1.00  0.00     0.031 C 
ATOM     62  C   UNL     1       3.337 -17.276   8.108  1.00  0.00     0.031 A 
BRANCH  49  63
ATOM     63  C   UNL     1       4.233 -15.605   2.216  1.00  0.00    -0.014 A 
ATOM     64  C   UNL     1       5.486 -15.321   1.649  1.00  0.00     0.009 A 
ATOM     65  C   UNL     1       3.293 -16.320   1.457  1.00  0.00     0.009 A 
ATOM     66  C   UNL     1       5.782 -15.725   0.345  1.00  0.00     0.001 A 
ATOM     67  C   UNL     1       3.599 -16.739   0.159  1.00  0.00     0.001 A 
ATOM     68  C   UNL     1       4.841 -16.436  -0.398  1.00  0.00     0.000 A 
ENDBRANCH  49  63
BRANCH  50  69
ATOM     69  C   UNL     1       1.917 -12.432  11.466  1.00  0.00    -0.014 A 
ATOM     70  C   UNL     1       2.876 -12.378  12.488  1.00  0.00     0.009 A 
ATOM     71  C   UNL     1       0.617 -11.970  11.729  1.00  0.00     0.009 A 
ATOM     72  C   UNL     1       2.537 -11.884  13.750  1.00  0.00     0.001 A 
ATOM     73  C   UNL     1       0.289 -11.451  12.983  1.00  0.00     0.001 A 
ATOM     74  C   UNL     1       1.247 -11.415  13.994  1.00  0.00     0.000 A 
ENDBRANCH  50  69
BRANCH  62  75
ATOM     75  C   UNL     1       3.461 -18.636   8.725  1.00  0.00    -0.014 A 
ATOM     76  C   UNL     1       2.322 -19.364   9.100  1.00  0.00     0.009 A 
ATOM     77  C   UNL     1       4.732 -19.192   8.928  1.00  0.00     0.009 A 
ATOM     78  C   UNL     1       2.457 -20.614   9.703  1.00  0.00     0.001 A 
ATOM     79  C   UNL     1       4.862 -20.451   9.512  1.00  0.00     0.001 A 
ATOM     80  C   UNL     1       3.726 -21.157   9.908  1.00  0.00     0.000 A 
ENDBRANCH  62  75
ENDBRANCH  36  37
ENDBRANCH  29  31
ENDBRANCH  28  29
ENDBRANCH  27  28
ENDBRANCH  26  27
ENDBRANCH  25  26
ENDBRANCH   1  25
TORSDOF 17
