REMARK SMILES O=C(OCCOC(=O)[C@H]1C[C@@H]2CCCC[C@@H]2N1C(=O)[C@@H]1CCS(=O)(=O)C1)c1ccc(-c2c3nc(c(-c4ccccc4)c4ccc([nH]4)c(-c4ccccc4)c4nc(c(-c5ccccc5)c5ccc2[nH]5)C=C4)C=C3)cc1
REMARK SMILES IDX 4 1 3 2 2 3 1 4 27 5 28 6 74 7 29 8 73 9 30 10 31 11 32 12
REMARK SMILES IDX 67 13 33 14 72 15 66 16 68 17 34 18 71 19 65 20 64 21 35 23
REMARK SMILES IDX 57 24 42 25 56 26 43 27 46 28 55 29 69 30 44 31 45 32 54 34
REMARK SMILES IDX 70 35 47 36 36 37 37 38 41 39 38 40 40 41 39 42 58 43 59 44
REMARK SMILES IDX 63 45 60 46 62 47 61 48 48 49 49 50 53 51 50 52 52 53 51 54
REMARK SMILES IDX 5 55 6 56 7 57 8 58 9 59 10 60 17 61 11 62 16 63 12 64 15 65
REMARK SMILES IDX 13 66 14 67 18 68 19 69 20 70 21 71 26 72 22 73 23 74 24 75
REMARK SMILES IDX 25 76
REMARK H PARENT 68 22 46 33
REMARK Flexibility Score: inf
ROOT
ATOM      1  C   UNL     1       4.383  -1.515   0.567  1.00  0.00     0.275 C 
ENDROOT
BRANCH   1   2
ATOM      2  O   UNL     1       3.094  -1.071   1.040  1.00  0.00    -0.458 OA
BRANCH   2   3
ATOM      3  C   UNL     1       2.554   0.171   0.996  1.00  0.00     0.338 C 
ATOM      4  O   UNL     1       1.501   0.415   1.580  1.00  0.00    -0.246 OA
BRANCH   3   5
ATOM      5  C   UNL     1       3.104   1.265   0.161  1.00  0.00     0.060 A 
ATOM      6  C   UNL     1       4.465   1.031  -1.004  1.00  0.00     0.016 A 
ATOM      7  C   UNL     1       2.180   2.835   0.121  1.00  0.00     0.016 A 
ATOM      8  C   UNL     1       4.914   2.262  -2.198  1.00  0.00     0.010 A 
ATOM      9  C   UNL     1       2.667   4.134  -1.159  1.00  0.00     0.010 A 
ATOM     10  C   UNL     1       4.073   3.807  -2.279  1.00  0.00    -0.014 A 
BRANCH  10  11
ATOM     11  C   UNL     1       4.868   4.803  -3.024  1.00  0.00     0.031 A 
ATOM     12  C   UNL     1       5.868   5.698  -2.346  1.00  0.00     0.074 A 
ATOM     13  C   UNL     1       4.926   4.725  -4.355  1.00  0.00     0.049 A 
ATOM     14  N   UNL     1       6.165   6.938  -2.620  1.00  0.00    -0.248 NA
ATOM     15  C   UNL     1       6.539   5.191  -1.145  1.00  0.00     0.031 C 
ATOM     16  C   UNL     1       4.327   3.678  -5.174  1.00  0.00     0.029 A 
ATOM     17  N   UNL     1       5.538   5.562  -5.238  1.00  0.00    -0.354 N 
ATOM     18  C   UNL     1       6.830   7.423  -1.493  1.00  0.00     0.074 A 
ATOM     19  C   UNL     1       6.960   6.316  -0.579  1.00  0.00     0.031 C 
ATOM     20  C   UNL     1       4.567   3.959  -6.463  1.00  0.00     0.029 A 
ATOM     21  C   UNL     1       5.231   5.256  -6.534  1.00  0.00     0.049 A 
ATOM     22  H   UNL     1       6.132   6.302  -4.974  1.00  0.00     0.167 HD
ATOM     23  C   UNL     1       7.215   8.706  -1.277  1.00  0.00     0.031 A 
ATOM     24  C   UNL     1       5.387   6.011  -7.632  1.00  0.00     0.031 A 
ATOM     25  C   UNL     1       7.352   9.617  -2.388  1.00  0.00     0.049 A 
ATOM     26  C   UNL     1       5.975   7.382  -7.463  1.00  0.00     0.074 A 
ATOM     27  C   UNL     1       7.888  10.890  -2.419  1.00  0.00     0.029 A 
ATOM     28  N   UNL     1       7.044   9.277  -3.701  1.00  0.00    -0.354 N 
ATOM     29  N   UNL     1       6.321   8.002  -6.356  1.00  0.00    -0.248 NA
ATOM     30  C   UNL     1       6.194   8.156  -8.685  1.00  0.00     0.031 C 
ATOM     31  C   UNL     1       7.892  11.319  -3.752  1.00  0.00     0.029 A 
ATOM     32  C   UNL     1       7.420  10.289  -4.556  1.00  0.00     0.049 A 
ATOM     33  H   UNL     1       6.619   8.434  -3.980  1.00  0.00     0.167 HD
ATOM     34  C   UNL     1       6.839   9.228  -6.750  1.00  0.00     0.074 A 
ATOM     35  C   UNL     1       6.758   9.255  -8.200  1.00  0.00     0.031 C 
ATOM     36  C   UNL     1       7.342  10.239  -5.997  1.00  0.00     0.031 A 
BRANCH  23  37
ATOM     37  C   UNL     1       7.448   9.203   0.136  1.00  0.00    -0.014 A 
ATOM     38  C   UNL     1       8.355   8.630   1.038  1.00  0.00     0.009 A 
ATOM     39  C   UNL     1       6.700  10.310   0.588  1.00  0.00     0.009 A 
ATOM     40  C   UNL     1       8.438   9.079   2.364  1.00  0.00     0.001 A 
ATOM     41  C   UNL     1       6.825  10.799   1.893  1.00  0.00     0.001 A 
ATOM     42  C   UNL     1       7.675  10.164   2.791  1.00  0.00     0.000 A 
ENDBRANCH  23  37
BRANCH  24  43
ATOM     43  C   UNL     1       4.933   5.469  -8.931  1.00  0.00    -0.014 A 
ATOM     44  C   UNL     1       5.871   5.062  -9.888  1.00  0.00     0.009 A 
ATOM     45  C   UNL     1       3.567   5.237  -9.171  1.00  0.00     0.009 A 
ATOM     46  C   UNL     1       5.450   4.437 -11.062  1.00  0.00     0.001 A 
ATOM     47  C   UNL     1       3.153   4.580 -10.329  1.00  0.00     0.001 A 
ATOM     48  C   UNL     1       4.095   4.186 -11.276  1.00  0.00     0.000 A 
ENDBRANCH  24  43
BRANCH  36  49
ATOM     49  C   UNL     1       7.933  11.405  -6.731  1.00  0.00    -0.014 A 
ATOM     50  C   UNL     1       7.127  12.350  -7.379  1.00  0.00     0.009 A 
ATOM     51  C   UNL     1       9.323  11.600  -6.682  1.00  0.00     0.009 A 
ATOM     52  C   UNL     1       7.709  13.462  -7.987  1.00  0.00     0.001 A 
ATOM     53  C   UNL     1       9.896  12.732  -7.257  1.00  0.00     0.001 A 
ATOM     54  C   UNL     1       9.089  13.657  -7.915  1.00  0.00     0.000 A 
ENDBRANCH  36  49
ENDBRANCH  10  11
ENDBRANCH   3   5
ENDBRANCH   2   3
ENDBRANCH   1   2
BRANCH   1  55
ATOM     55  C   UNL     1       4.354  -2.161  -0.848  1.00  0.00     0.274 C 
BRANCH  55  56
ATOM     56  O   UNL     1       3.978  -1.281  -1.940  1.00  0.00    -0.461 OA
BRANCH  56  57
ATOM     57  C   UNL     1       2.706  -0.779  -1.929  1.00  0.00     0.328 C 
ATOM     58  O   UNL     1       1.771  -1.361  -1.395  1.00  0.00    -0.250 OA
BRANCH  57  59
ATOM     59  C   UNL     1       2.656   0.695  -2.554  1.00  0.00     0.195 C 
ATOM     60  C   UNL     1       1.138   0.708  -3.134  1.00  0.00     0.043 C 
ATOM     61  N   UNL     1       2.805   2.218  -1.668  1.00  0.00    -0.325 N 
ATOM     62  C   UNL     1       0.341   1.537  -2.149  1.00  0.00     0.014 C 
ATOM     63  C   UNL     1       1.192   2.773  -2.089  1.00  0.00     0.089 C 
ATOM     64  C   UNL     1      -1.131   1.968  -2.323  1.00  0.00     0.006 C 
ATOM     65  C   UNL     1       1.017   3.663  -3.359  1.00  0.00     0.025 C 
ATOM     66  C   UNL     1      -1.438   3.176  -3.230  1.00  0.00     0.000 C 
ATOM     67  C   UNL     1      -0.379   4.279  -3.227  1.00  0.00     0.002 C 
BRANCH  61  68
ATOM     68  C   UNL     1       4.097   3.029  -0.366  1.00  0.00     0.227 C 
ATOM     69  O   UNL     1       5.189   2.616   0.158  1.00  0.00    -0.275 OA
BRANCH  68  70
ATOM     70  C   UNL     1       3.904   4.682   0.576  1.00  0.00     0.094 C 
ATOM     71  C   UNL     1       3.064   4.772   1.881  1.00  0.00     0.030 C 
ATOM     72  C   UNL     1       3.793   6.163   0.001  1.00  0.00     0.150 C 
ATOM     73  C   UNL     1       1.772   5.552   1.601  1.00  0.00     0.138 C 
ATOM     74  S   UNL     1       2.232   6.882   0.522  1.00  0.00     0.151 S 
ATOM     75  O   UNL     1       1.302   6.915  -0.591  1.00  0.00    -0.229 OA
ATOM     76  O   UNL     1       2.492   8.062   1.316  1.00  0.00    -0.229 OA
ENDBRANCH  68  70
ENDBRANCH  61  68
ENDBRANCH  57  59
ENDBRANCH  56  57
ENDBRANCH  55  56
ENDBRANCH   1  55
TORSDOF 13
