REMARK SMILES O=C(OCCOC(=O)[C@H]1Cc2[nH]cnc2CN1C(=O)c1ccncc1Cl)c1ccc(-c2c3nc(c(-c4ccccc4)c4ccc([nH]4)c(-c4ccccc4)c4nc(c(-c5ccccc5)c5ccc2[nH]5)C=C4)C=C3)cc1
REMARK SMILES IDX 4 1 3 2 2 3 1 4 27 5 28 6 74 7 29 8 73 9 30 10 31 11 32 12
REMARK SMILES IDX 67 13 33 14 72 15 66 16 68 17 34 18 71 19 65 20 64 21 35 23
REMARK SMILES IDX 57 24 42 25 56 26 43 27 46 28 55 29 69 30 44 31 45 32 54 34
REMARK SMILES IDX 70 35 47 36 36 37 37 38 41 39 38 40 40 41 39 42 58 43 59 44
REMARK SMILES IDX 63 45 60 46 62 47 61 48 48 49 49 50 53 51 50 52 52 53 51 54
REMARK SMILES IDX 5 55 6 56 7 57 8 58 9 59 10 60 17 61 11 62 16 63 12 64 15 65
REMARK SMILES IDX 13 66 14 68 18 69 19 70 20 71 21 72 25 73 22 74 24 75 26 76
REMARK SMILES IDX 23 77
REMARK H PARENT 68 22 46 33 12 67
REMARK Flexibility Score: inf
ROOT
ATOM      1  C   UNL     1       5.820   1.132  -0.707  1.00  0.00     0.275 C 
ENDROOT
BRANCH   1   2
ATOM      2  O   UNL     1       5.693  -0.192  -0.221  1.00  0.00    -0.458 OA
BRANCH   2   3
ATOM      3  C   UNL     1       4.449  -0.658  -0.278  1.00  0.00     0.338 C 
ATOM      4  O   UNL     1       3.501  -0.179  -0.911  1.00  0.00    -0.246 OA
BRANCH   3   5
ATOM      5  C   UNL     1       4.317  -1.631   0.793  1.00  0.00     0.060 A 
ATOM      6  C   UNL     1       5.295  -2.523   1.204  1.00  0.00     0.016 A 
ATOM      7  C   UNL     1       3.145  -1.564   1.503  1.00  0.00     0.016 A 
ATOM      8  C   UNL     1       4.905  -3.595   2.002  1.00  0.00     0.010 A 
ATOM      9  C   UNL     1       2.858  -2.488   2.451  1.00  0.00     0.010 A 
ATOM     10  C   UNL     1       3.590  -3.649   2.449  1.00  0.00    -0.014 A 
BRANCH  10  11
ATOM     11  C   UNL     1       2.932  -4.756   3.112  1.00  0.00     0.031 A 
ATOM     12  C   UNL     1       3.037  -4.635   4.572  1.00  0.00     0.074 A 
ATOM     13  C   UNL     1       1.984  -5.559   2.584  1.00  0.00     0.049 A 
ATOM     14  N   UNL     1       4.079  -4.960   5.260  1.00  0.00    -0.248 NA
ATOM     15  C   UNL     1       2.062  -3.794   5.293  1.00  0.00     0.031 C 
ATOM     16  C   UNL     1       1.371  -5.601   1.260  1.00  0.00     0.029 A 
ATOM     17  N   UNL     1       1.304  -6.536   3.240  1.00  0.00    -0.354 N 
ATOM     18  C   UNL     1       3.747  -4.606   6.550  1.00  0.00     0.074 A 
ATOM     19  C   UNL     1       2.739  -3.585   6.424  1.00  0.00     0.031 C 
ATOM     20  C   UNL     1       0.281  -6.411   1.272  1.00  0.00     0.029 A 
ATOM     21  C   UNL     1       0.242  -7.097   2.549  1.00  0.00     0.049 A 
ATOM     22  H   UNL     1       1.550  -6.826   4.149  1.00  0.00     0.167 HD
ATOM     23  C   UNL     1       3.990  -5.447   7.592  1.00  0.00     0.031 A 
ATOM     24  C   UNL     1      -0.577  -8.074   3.013  1.00  0.00     0.031 A 
ATOM     25  C   UNL     1       4.725  -6.619   7.158  1.00  0.00     0.049 A 
ATOM     26  C   UNL     1       0.153  -8.751   4.118  1.00  0.00     0.074 A 
ATOM     27  C   UNL     1       5.923  -6.831   6.501  1.00  0.00     0.029 A 
ATOM     28  N   UNL     1       3.985  -7.768   6.962  1.00  0.00    -0.354 N 
ATOM     29  N   UNL     1       1.255  -9.425   3.937  1.00  0.00    -0.248 NA
ATOM     30  C   UNL     1      -0.061  -8.273   5.476  1.00  0.00     0.031 C 
ATOM     31  C   UNL     1       5.653  -7.876   5.563  1.00  0.00     0.029 A 
ATOM     32  C   UNL     1       4.336  -8.305   5.746  1.00  0.00     0.049 A 
ATOM     33  H   UNL     1       3.320  -8.139   7.585  1.00  0.00     0.167 HD
ATOM     34  C   UNL     1       2.071  -9.074   5.006  1.00  0.00     0.074 A 
ATOM     35  C   UNL     1       1.167  -8.455   5.976  1.00  0.00     0.031 C 
ATOM     36  C   UNL     1       3.433  -9.040   4.878  1.00  0.00     0.031 A 
BRANCH  23  37
ATOM     37  C   UNL     1       3.200  -5.433   8.872  1.00  0.00    -0.014 A 
ATOM     38  C   UNL     1       3.669  -6.208   9.941  1.00  0.00     0.009 A 
ATOM     39  C   UNL     1       1.921  -4.860   9.017  1.00  0.00     0.009 A 
ATOM     40  C   UNL     1       2.877  -6.436  11.072  1.00  0.00     0.001 A 
ATOM     41  C   UNL     1       1.146  -5.047  10.160  1.00  0.00     0.001 A 
ATOM     42  C   UNL     1       1.616  -5.858  11.179  1.00  0.00     0.000 A 
ENDBRANCH  23  37
BRANCH  24  43
ATOM     43  C   UNL     1      -2.014  -8.301   2.749  1.00  0.00    -0.014 A 
ATOM     44  C   UNL     1      -2.617  -9.540   3.024  1.00  0.00     0.009 A 
ATOM     45  C   UNL     1      -2.858  -7.206   2.493  1.00  0.00     0.009 A 
ATOM     46  C   UNL     1      -4.014  -9.665   3.084  1.00  0.00     0.001 A 
ATOM     47  C   UNL     1      -4.252  -7.330   2.556  1.00  0.00     0.001 A 
ATOM     48  C   UNL     1      -4.829  -8.557   2.867  1.00  0.00     0.000 A 
ENDBRANCH  24  43
BRANCH  36  49
ATOM     49  C   UNL     1       4.031  -9.594   3.598  1.00  0.00    -0.014 A 
ATOM     50  C   UNL     1       3.789  -9.033   2.329  1.00  0.00     0.009 A 
ATOM     51  C   UNL     1       4.991 -10.612   3.689  1.00  0.00     0.009 A 
ATOM     52  C   UNL     1       4.469  -9.485   1.192  1.00  0.00     0.001 A 
ATOM     53  C   UNL     1       5.682 -11.055   2.556  1.00  0.00     0.001 A 
ATOM     54  C   UNL     1       5.420 -10.494   1.307  1.00  0.00     0.000 A 
ENDBRANCH  36  49
ENDBRANCH  10  11
ENDBRANCH   3   5
ENDBRANCH   2   3
ENDBRANCH   1   2
BRANCH   1  55
ATOM     55  C   UNL     1       4.940   2.201   0.001  1.00  0.00     0.274 C 
BRANCH  55  56
ATOM     56  O   UNL     1       3.963   1.719   0.968  1.00  0.00    -0.461 OA
BRANCH  56  57
ATOM     57  C   UNL     1       2.626   2.015   0.771  1.00  0.00     0.329 C 
ATOM     58  O   UNL     1       2.191   2.705  -0.141  1.00  0.00    -0.250 OA
BRANCH  57  59
ATOM     59  C   UNL     1       1.759   1.468   1.942  1.00  0.00     0.201 C 
ATOM     60  C   UNL     1       1.248   2.745   2.715  1.00  0.00     0.093 C 
ATOM     61  N   UNL     1       0.626   0.405   1.914  1.00  0.00    -0.318 N 
ATOM     62  C   UNL     1       0.625   2.316   3.994  1.00  0.00     0.042 A 
ATOM     63  C   UNL     1       0.269  -0.079   3.288  1.00  0.00     0.179 C 
ATOM     64  N   UNL     1       0.388   3.025   5.135  1.00  0.00    -0.348 N 
ATOM     65  C   UNL     1       0.174   1.046   4.250  1.00  0.00     0.081 A 
ATOM     66  C   UNL     1      -0.121   2.139   6.052  1.00  0.00     0.197 A 
ATOM     67  H   UNL     1       0.550   3.986   5.273  1.00  0.00     0.167 HD
ATOM     68  N   UNL     1      -0.247   0.930   5.548  1.00  0.00    -0.240 NA
BRANCH  61  69
ATOM     69  C   UNL     1       0.053  -0.398   0.889  1.00  0.00     0.256 C 
ATOM     70  O   UNL     1      -0.757  -1.290   1.165  1.00  0.00    -0.269 OA
BRANCH  69  71
ATOM     71  C   UNL     1       0.317  -0.290  -0.567  1.00  0.00     0.061 A 
ATOM     72  C   UNL     1      -0.407   0.659  -1.282  1.00  0.00     0.035 A 
ATOM     73  C   UNL     1       0.924  -1.312  -1.318  1.00  0.00     0.072 A 
ATOM     74  C   UNL     1      -0.348   0.638  -2.674  1.00  0.00     0.112 A 
ATOM     75  C   UNL     1       1.033  -1.175  -2.697  1.00  0.00     0.132 A 
ATOM     76  Cl  UNL     1       1.398  -2.838  -0.715  1.00  0.00    -0.082 Cl
ATOM     77  N   UNL     1       0.408  -0.213  -3.397  1.00  0.00    -0.263 NA
ENDBRANCH  69  71
ENDBRANCH  61  69
ENDBRANCH  57  59
ENDBRANCH  56  57
ENDBRANCH  55  56
ENDBRANCH   1  55
TORSDOF 13
