REMARK SMILES CCc1ccc(Nc2nc(OCC(=O)OCCOC(=O)c3ccc(-c4c5nc(c(-c6ccccc6)c6ccc([nH]6)c(-c6ccccc6)c6nc(c(-c7ccccc7)c7ccc4[nH]7)C=C6)C=C5)cc3)cc(-c3cccnc3)n2)cc1
REMARK SMILES IDX 15 1 13 2 14 3 12 4 11 5 10 6 8 7 9 8 77 9 70 10 69 11 7 12
REMARK SMILES IDX 6 14 3 15 4 16 79 17 5 18 78 19 2 20 1 21 71 22 72 23 76 24
REMARK SMILES IDX 73 25 75 26 74 27 16 28 17 29 18 30 19 31 20 32 21 33 22 34
REMARK SMILES IDX 68 35 23 36 67 37 24 38 25 39 26 40 61 41 27 42 66 43 60 44
REMARK SMILES IDX 62 45 28 46 65 47 59 48 58 49 29 51 51 52 36 53 50 54 37 55
REMARK SMILES IDX 40 56 49 57 63 58 38 59 39 60 48 62 64 63 41 64 30 65 31 66
REMARK SMILES IDX 35 67 32 68 34 69 33 70 52 71 53 72 57 73 54 74 56 75 55 76
REMARK SMILES IDX 42 77 43 78 47 79 44 80 46 81 45 82
REMARK H PARENT 7 13 62 50 40 61
REMARK Flexibility Score: inf
ROOT
ATOM      1  O   UNL     1      -0.054  -3.462   9.826  1.00  0.00    -0.460 OA
ENDROOT
BRANCH   1   2
ATOM      2  C   UNL     1       0.399  -2.960  11.005  1.00  0.00     0.344 C 
ATOM      3  O   UNL     1       0.526  -3.613  12.037  1.00  0.00    -0.248 OA
BRANCH   2   4
ATOM      4  C   UNL     1       0.780  -1.482  10.942  1.00  0.00     0.353 C 
BRANCH   4   5
ATOM      5  O   UNL     1       0.454  -0.747   9.784  1.00  0.00    -0.466 OA
BRANCH   5   6
ATOM      6  C   UNL     1       1.397  -0.531   8.826  1.00  0.00     0.219 A 
ATOM      7  C   UNL     1       1.740   0.568   6.851  1.00  0.00     0.231 A 
ATOM      8  N   UNL     1       0.993   0.394   7.943  1.00  0.00    -0.177 NA
ATOM      9  N   UNL     1       2.916  -0.035   6.649  1.00  0.00    -0.212 NA
ATOM     10  C   UNL     1       3.316  -0.939   7.549  1.00  0.00     0.081 A 
ATOM     11  C   UNL     1       2.576  -1.224   8.680  1.00  0.00     0.097 A 
BRANCH   7  12
ATOM     12  N   UNL     1       1.164   1.279   5.802  1.00  0.00    -0.324 N 
ATOM     13  H   UNL     1       0.838   2.187   5.997  1.00  0.00     0.170 HD
BRANCH  12  14
ATOM     14  C   UNL     1       1.011   0.805   4.486  1.00  0.00     0.041 A 
ATOM     15  C   UNL     1       0.619  -0.128   1.842  1.00  0.00    -0.048 A 
ATOM     16  C   UNL     1       1.019  -1.005   2.851  1.00  0.00     0.006 A 
ATOM     17  C   UNL     1       0.428   1.223   2.165  1.00  0.00     0.006 A 
ATOM     18  C   UNL     1       1.220  -0.541   4.149  1.00  0.00     0.026 A 
ATOM     19  C   UNL     1       0.628   1.684   3.472  1.00  0.00     0.026 A 
BRANCH  15  20
ATOM     20  C   UNL     1       0.349  -0.665   0.460  1.00  0.00     0.032 C 
ATOM     21  C   UNL     1       1.068   0.091  -0.646  1.00  0.00     0.009 C 
ENDBRANCH  15  20
ENDBRANCH  12  14
ENDBRANCH   7  12
BRANCH  10  22
ATOM     22  C   UNL     1       4.500  -1.690   7.142  1.00  0.00     0.019 A 
ATOM     23  C   UNL     1       4.389  -2.929   6.501  1.00  0.00     0.013 A 
ATOM     24  C   UNL     1       5.786  -1.186   7.282  1.00  0.00     0.121 A 
ATOM     25  C   UNL     1       5.524  -3.634   6.109  1.00  0.00     0.021 A 
ATOM     26  N   UNL     1       6.917  -1.847   6.919  1.00  0.00    -0.264 NA
ATOM     27  C   UNL     1       6.758  -3.059   6.345  1.00  0.00     0.111 A 
ENDBRANCH  10  22
ENDBRANCH   5   6
ENDBRANCH   4   5
ENDBRANCH   2   4
ENDBRANCH   1   2
BRANCH   1  28
ATOM     28  C   UNL     1      -0.489  -4.838   9.867  1.00  0.00     0.274 C 
BRANCH  28  29
ATOM     29  C   UNL     1       0.584  -5.812   9.380  1.00  0.00     0.275 C 
BRANCH  29  30
ATOM     30  O   UNL     1       1.832  -5.614  10.072  1.00  0.00    -0.458 OA
BRANCH  30  31
ATOM     31  C   UNL     1       2.730  -4.903   9.364  1.00  0.00     0.338 C 
ATOM     32  O   UNL     1       2.568  -4.458   8.233  1.00  0.00    -0.246 OA
BRANCH  31  33
ATOM     33  C   UNL     1       3.974  -4.651  10.104  1.00  0.00     0.060 A 
ATOM     34  C   UNL     1       3.971  -3.838  11.240  1.00  0.00     0.016 A 
ATOM     35  C   UNL     1       5.181  -5.063   9.535  1.00  0.00     0.016 A 
ATOM     36  C   UNL     1       5.181  -3.396  11.779  1.00  0.00     0.010 A 
ATOM     37  C   UNL     1       6.390  -4.667  10.110  1.00  0.00     0.010 A 
ATOM     38  C   UNL     1       6.401  -3.818  11.227  1.00  0.00    -0.014 A 
BRANCH  38  39
ATOM     39  C   UNL     1       7.689  -3.457  11.869  1.00  0.00     0.031 A 
ATOM     40  C   UNL     1       8.664  -2.521  11.215  1.00  0.00     0.074 A 
ATOM     41  C   UNL     1       8.004  -4.040  13.039  1.00  0.00     0.049 A 
ATOM     42  N   UNL     1       9.887  -2.216  11.569  1.00  0.00    -0.248 NA
ATOM     43  C   UNL     1       8.205  -1.841  10.001  1.00  0.00     0.031 C 
ATOM     44  C   UNL     1       7.146  -4.967  13.779  1.00  0.00     0.029 A 
ATOM     45  N   UNL     1       9.144  -3.957  13.795  1.00  0.00    -0.354 N 
ATOM     46  C   UNL     1      10.351  -1.330  10.602  1.00  0.00     0.074 A 
ATOM     47  C   UNL     1       9.280  -1.148   9.648  1.00  0.00     0.031 C 
ATOM     48  C   UNL     1       7.796  -5.380  14.876  1.00  0.00     0.029 A 
ATOM     49  C   UNL     1       9.128  -4.785  14.888  1.00  0.00     0.049 A 
ATOM     50  H   UNL     1       9.898  -3.364  13.575  1.00  0.00     0.167 HD
ATOM     51  C   UNL     1      11.562  -0.729  10.519  1.00  0.00     0.031 A 
ATOM     52  C   UNL     1      10.091  -5.070  15.780  1.00  0.00     0.031 A 
ATOM     53  C   UNL     1      12.623  -0.902  11.476  1.00  0.00     0.049 A 
ATOM     54  C   UNL     1      11.431  -4.415  15.656  1.00  0.00     0.074 A 
ATOM     55  C   UNL     1      13.870  -0.300  11.502  1.00  0.00     0.029 A 
ATOM     56  N   UNL     1      12.561  -1.743  12.575  1.00  0.00    -0.354 N 
ATOM     57  N   UNL     1      11.851  -3.569  14.748  1.00  0.00    -0.248 NA
ATOM     58  C   UNL     1      12.428  -4.754  16.679  1.00  0.00     0.031 C 
ATOM     59  C   UNL     1      14.575  -0.802  12.603  1.00  0.00     0.029 A 
ATOM     60  C   UNL     1      13.754  -1.691  13.276  1.00  0.00     0.049 A 
ATOM     61  H   UNL     1      11.784  -2.295  12.821  1.00  0.00     0.167 HD
ATOM     62  C   UNL     1      13.160  -3.267  15.094  1.00  0.00     0.074 A 
ATOM     63  C   UNL     1      13.459  -4.010  16.301  1.00  0.00     0.031 C 
ATOM     64  C   UNL     1      14.035  -2.445  14.467  1.00  0.00     0.031 A 
BRANCH  51  65
ATOM     65  C   UNL     1      11.827   0.165   9.342  1.00  0.00    -0.014 A 
ATOM     66  C   UNL     1      11.344   1.481   9.308  1.00  0.00     0.009 A 
ATOM     67  C   UNL     1      12.647  -0.288   8.296  1.00  0.00     0.009 A 
ATOM     68  C   UNL     1      11.670   2.324   8.242  1.00  0.00     0.001 A 
ATOM     69  C   UNL     1      12.982   0.561   7.239  1.00  0.00     0.001 A 
ATOM     70  C   UNL     1      12.492   1.865   7.213  1.00  0.00     0.000 A 
ENDBRANCH  51  65
BRANCH  52  71
ATOM     71  C   UNL     1       9.816  -6.064  16.843  1.00  0.00    -0.014 A 
ATOM     72  C   UNL     1       9.543  -5.651  18.153  1.00  0.00     0.009 A 
ATOM     73  C   UNL     1       9.769  -7.432  16.530  1.00  0.00     0.009 A 
ATOM     74  C   UNL     1       9.236  -6.593  19.136  1.00  0.00     0.001 A 
ATOM     75  C   UNL     1       9.441  -8.369  17.509  1.00  0.00     0.001 A 
ATOM     76  C   UNL     1       9.179  -7.949  18.812  1.00  0.00     0.000 A 
ENDBRANCH  52  71
BRANCH  64  77
ATOM     77  C   UNL     1      15.389  -2.302  15.091  1.00  0.00    -0.014 A 
ATOM     78  C   UNL     1      16.371  -3.286  14.909  1.00  0.00     0.009 A 
ATOM     79  C   UNL     1      15.687  -1.165  15.857  1.00  0.00     0.009 A 
ATOM     80  C   UNL     1      17.623  -3.147  15.510  1.00  0.00     0.001 A 
ATOM     81  C   UNL     1      16.944  -1.023  16.444  1.00  0.00     0.001 A 
ATOM     82  C   UNL     1      17.908  -2.016  16.276  1.00  0.00     0.000 A 
ENDBRANCH  64  77
ENDBRANCH  38  39
ENDBRANCH  31  33
ENDBRANCH  30  31
ENDBRANCH  29  30
ENDBRANCH  28  29
ENDBRANCH   1  28
TORSDOF 17
