REMARK SMILES COc1cc([N+](=O)[O-])cc([C@H]2[NH2+][C@H](C(=O)OCCOC(=O)c3ccc(-c4c5nc(c(-c6ccccc6)c6ccc([nH]6)c(-c6ccccc6)c6nc(c(-c7ccccc7)c7ccc4[nH]7)C=C6)C=C5)cc3)CS2)c1O
REMARK SMILES IDX 17 1 16 2 14 3 15 4 13 5 11 6 12 7 71 8 70 11 10 12 3 13
REMARK SMILES IDX 4 14 72 15 5 16 9 17 2 18 1 19 73 20 6 22 7 23 8 24 18 25
REMARK SMILES IDX 19 26 20 27 21 28 22 29 23 30 69 31 24 32 68 33 25 34 26 35
REMARK SMILES IDX 27 36 62 37 28 38 67 39 61 40 63 41 29 42 66 43 60 44 59 45
REMARK SMILES IDX 30 47 52 48 37 49 51 50 38 51 41 52 50 53 64 54 39 55 40 56
REMARK SMILES IDX 49 58 65 59 42 60 31 61 32 62 36 63 33 64 35 65 34 66 53 67
REMARK SMILES IDX 54 68 58 69 55 70 57 71 56 72 43 73 44 74 48 75 45 76 47 77
REMARK SMILES IDX 46 78
REMARK H PARENT 12 9 12 10 73 21 63 46 41 57
REMARK Flexibility Score: inf
ROOT
ATOM      1  C   UNL     1      -0.732  -1.119   1.603  1.00  0.00     0.274 C 
ENDROOT
BRANCH   1   2
ATOM      2  O   UNL     1       0.465  -1.789   2.044  1.00  0.00    -0.458 OA
BRANCH   2   3
ATOM      3  C   UNL     1       1.367  -1.048   2.743  1.00  0.00     0.365 C 
ATOM      4  O   UNL     1       1.293   0.167   2.904  1.00  0.00    -0.245 OA
BRANCH   3   5
ATOM      5  C   UNL     1       2.535  -1.870   3.305  1.00  0.00     0.304 C 
ATOM      6  C   UNL     1       2.561  -4.062   2.374  1.00  0.00     0.278 C 
ATOM      7  N   UNL     1       2.190  -3.290   3.562  1.00  0.00    -0.319 N 
ATOM      8  S   UNL     1       4.171  -3.444   1.889  1.00  0.00    -0.087 SA
ATOM      9  H   UNL     1       2.707  -3.631   4.373  1.00  0.00     0.348 HD
ATOM     10  H   UNL     1       1.193  -3.386   3.753  1.00  0.00     0.348 HD
ATOM     11  C   UNL     1       3.773  -1.753   2.416  1.00  0.00     0.153 C 
BRANCH   6  12
ATOM     12  C   UNL     1       2.320  -5.537   2.630  1.00  0.00     0.073 A 
ATOM     13  C   UNL     1       2.854  -7.814   3.381  1.00  0.00     0.167 A 
ATOM     14  C   UNL     1       1.515  -8.189   3.228  1.00  0.00     0.136 A 
ATOM     15  C   UNL     1       3.251  -6.496   3.074  1.00  0.00     0.168 A 
ATOM     16  C   UNL     1       0.583  -7.253   2.784  1.00  0.00     0.273 A 
ATOM     17  C   UNL     1       0.974  -5.948   2.490  1.00  0.00     0.100 A 
BRANCH  13  18
ATOM     18  O   UNL     1       3.654  -8.848   3.792  1.00  0.00    -0.493 OA
ATOM     19  C   UNL     1       4.813  -8.547   4.559  1.00  0.00     0.278 C 
ENDBRANCH  13  18
BRANCH  15  20
ATOM     20  O   UNL     1       4.561  -6.135   3.186  1.00  0.00    -0.504 OA
ATOM     21  H   UNL     1       5.196  -6.759   3.480  1.00  0.00     0.293 HD
ENDBRANCH  15  20
BRANCH  16  22
ATOM     22  N   UNL     1      -0.819  -7.636   2.624  1.00  0.00     0.062 N 
ATOM     23  O   UNL     1      -1.236  -8.583   3.305  1.00  0.00    -0.258 OA
ATOM     24  O   UNL     1      -1.494  -7.005   1.797  1.00  0.00    -0.258 OA
ENDBRANCH  16  22
ENDBRANCH   6  12
ENDBRANCH   3   5
ENDBRANCH   2   3
ENDBRANCH   1   2
BRANCH   1  25
ATOM     25  C   UNL     1      -1.957  -1.722   2.290  1.00  0.00     0.275 C 
BRANCH  25  26
ATOM     26  O   UNL     1      -1.889  -1.513   3.713  1.00  0.00    -0.458 OA
BRANCH  26  27
ATOM     27  C   UNL     1      -1.475  -2.584   4.432  1.00  0.00     0.338 C 
ATOM     28  O   UNL     1      -1.223  -3.704   4.027  1.00  0.00    -0.246 OA
BRANCH  27  29
ATOM     29  C   UNL     1      -1.268  -2.168   5.829  1.00  0.00     0.060 A 
ATOM     30  C   UNL     1       0.033  -2.188   6.336  1.00  0.00     0.016 A 
ATOM     31  C   UNL     1      -2.347  -1.845   6.654  1.00  0.00     0.016 A 
ATOM     32  C   UNL     1       0.263  -1.899   7.679  1.00  0.00     0.010 A 
ATOM     33  C   UNL     1      -2.115  -1.556   8.004  1.00  0.00     0.010 A 
ATOM     34  C   UNL     1      -0.811  -1.600   8.528  1.00  0.00    -0.014 A 
BRANCH  34  35
ATOM     35  C   UNL     1      -0.564  -1.407   9.978  1.00  0.00     0.031 A 
ATOM     36  C   UNL     1      -0.901  -2.504  10.948  1.00  0.00     0.074 A 
ATOM     37  C   UNL     1       0.000  -0.269  10.421  1.00  0.00     0.049 A 
ATOM     38  N   UNL     1      -0.762  -2.528  12.250  1.00  0.00    -0.248 NA
ATOM     39  C   UNL     1      -1.469  -3.736  10.379  1.00  0.00     0.031 C 
ATOM     40  C   UNL     1       0.407   0.857   9.580  1.00  0.00     0.029 A 
ATOM     41  N   UNL     1       0.333   0.123  11.694  1.00  0.00    -0.354 N 
ATOM     42  C   UNL     1      -1.236  -3.768  12.657  1.00  0.00     0.074 A 
ATOM     43  C   UNL     1      -1.685  -4.460  11.467  1.00  0.00     0.031 C 
ATOM     44  C   UNL     1       0.945   1.811  10.360  1.00  0.00     0.029 A 
ATOM     45  C   UNL     1       0.888   1.378  11.754  1.00  0.00     0.049 A 
ATOM     46  H   UNL     1       0.189  -0.441  12.487  1.00  0.00     0.167 HD
ATOM     47  C   UNL     1      -1.291  -4.287  13.907  1.00  0.00     0.031 A 
ATOM     48  C   UNL     1       1.290   2.104  12.814  1.00  0.00     0.031 A 
ATOM     49  C   UNL     1      -0.848  -3.603  15.094  1.00  0.00     0.049 A 
ATOM     50  C   UNL     1       1.171   1.527  14.197  1.00  0.00     0.074 A 
ATOM     51  C   UNL     1      -0.850  -4.056  16.402  1.00  0.00     0.029 A 
ATOM     52  N   UNL     1      -0.328  -2.319  15.116  1.00  0.00    -0.354 N 
ATOM     53  N   UNL     1       0.736   0.346  14.564  1.00  0.00    -0.248 NA
ATOM     54  C   UNL     1       1.603   2.384  15.311  1.00  0.00     0.031 C 
ATOM     55  C   UNL     1      -0.372  -3.028  17.222  1.00  0.00     0.029 A 
ATOM     56  C   UNL     1      -0.028  -1.954  16.417  1.00  0.00     0.049 A 
ATOM     57  H   UNL     1      -0.193  -1.750  14.323  1.00  0.00     0.167 HD
ATOM     58  C   UNL     1       0.858   0.311  15.947  1.00  0.00     0.074 A 
ATOM     59  C   UNL     1       1.424   1.582  16.351  1.00  0.00     0.031 C 
ATOM     60  C   UNL     1       0.530  -0.685  16.805  1.00  0.00     0.031 A 
BRANCH  47  61
ATOM     61  C   UNL     1      -1.886  -5.658  14.058  1.00  0.00    -0.014 A 
ATOM     62  C   UNL     1      -1.185  -6.806  13.657  1.00  0.00     0.009 A 
ATOM     63  C   UNL     1      -3.157  -5.803  14.636  1.00  0.00     0.009 A 
ATOM     64  C   UNL     1      -1.759  -8.070  13.803  1.00  0.00     0.001 A 
ATOM     65  C   UNL     1      -3.718  -7.070  14.802  1.00  0.00     0.001 A 
ATOM     66  C   UNL     1      -3.023  -8.202  14.378  1.00  0.00     0.000 A 
ENDBRANCH  47  61
BRANCH  48  67
ATOM     67  C   UNL     1       1.829   3.474  12.611  1.00  0.00    -0.014 A 
ATOM     68  C   UNL     1       3.192   3.743  12.805  1.00  0.00     0.009 A 
ATOM     69  C   UNL     1       0.976   4.521  12.229  1.00  0.00     0.009 A 
ATOM     70  C   UNL     1       3.686   5.039  12.639  1.00  0.00     0.001 A 
ATOM     71  C   UNL     1       1.478   5.810  12.039  1.00  0.00     0.001 A 
ATOM     72  C   UNL     1       2.830   6.069  12.252  1.00  0.00     0.000 A 
ENDBRANCH  48  67
BRANCH  60  73
ATOM     73  C   UNL     1       0.799  -0.448  18.264  1.00  0.00    -0.014 A 
ATOM     74  C   UNL     1      -0.010   0.413  19.022  1.00  0.00     0.009 A 
ATOM     75  C   UNL     1       1.858  -1.119  18.895  1.00  0.00     0.009 A 
ATOM     76  C   UNL     1       0.256   0.620  20.377  1.00  0.00     0.001 A 
ATOM     77  C   UNL     1       2.106  -0.929  20.255  1.00  0.00     0.001 A 
ATOM     78  C   UNL     1       1.311  -0.053  20.992  1.00  0.00     0.000 A 
ENDBRANCH  60  73
ENDBRANCH  34  35
ENDBRANCH  27  29
ENDBRANCH  26  27
ENDBRANCH  25  26
ENDBRANCH   1  25
TORSDOF 15
