REMARK SMILES CC[C@H]1CC[C@](Cc2cccnc2)(C(=O)OCCOC(=O)c2ccc(-c3c4nc(c(-c5ccccc5)c5ccc([nH]5)c(-c5ccccc5)c5nc(c(-c6ccccc6)c6ccc3[nH]6)C=C5)C=C4)cc2)C1
REMARK SMILES IDX 17 1 16 2 14 3 15 4 6 5 3 6 4 7 70 8 5 9 2 10 1 11 7 12 8 13
REMARK SMILES IDX 9 14 13 15 10 16 12 17 11 18 18 19 19 20 20 21 21 22 22 23
REMARK SMILES IDX 23 24 69 25 24 26 68 27 25 28 26 29 27 30 62 31 28 32 67 33
REMARK SMILES IDX 61 34 63 35 29 36 66 37 60 38 59 39 30 41 52 42 37 43 51 44
REMARK SMILES IDX 38 45 41 46 50 47 64 48 39 49 40 50 49 52 65 53 42 54 31 55
REMARK SMILES IDX 32 56 36 57 33 58 35 59 34 60 53 61 54 62 58 63 55 64 57 65
REMARK SMILES IDX 56 66 43 67 44 68 48 69 45 70 47 71 46 72
REMARK H PARENT 63 40 41 51
REMARK Flexibility Score: inf
ROOT
ATOM      1  C   UNL     1      -2.813   3.710  -4.295  1.00  0.00     0.274 C 
ENDROOT
BRANCH   1   2
ATOM      2  O   UNL     1      -1.740   3.240  -3.449  1.00  0.00    -0.462 OA
BRANCH   2   3
ATOM      3  C   UNL     1      -0.556   3.884  -3.599  1.00  0.00     0.312 C 
ATOM      4  O   UNL     1      -0.404   4.857  -4.335  1.00  0.00    -0.252 OA
BRANCH   3   5
ATOM      5  C   UNL     1       0.619   3.277  -2.802  1.00  0.00     0.072 C 
ATOM      6  C   UNL     1       0.538   2.271  -0.515  1.00  0.00    -0.010 C 
ATOM      7  C   UNL     1       0.386   3.783  -0.425  1.00  0.00     0.005 C 
ATOM      8  C   UNL     1       0.288   1.984  -2.012  1.00  0.00     0.022 C 
ATOM      9  C   UNL     1       1.014   4.297  -1.714  1.00  0.00     0.019 C 
BRANCH   6  10
ATOM     10  C   UNL     1       1.849   1.660   0.036  1.00  0.00     0.000 C 
ATOM     11  C   UNL     1       3.045   2.574   0.264  1.00  0.00     0.004 C 
ENDBRANCH   6  10
BRANCH   5  12
ATOM     12  C   UNL     1       1.704   3.074  -3.902  1.00  0.00     0.056 C 
BRANCH  12  13
ATOM     13  C   UNL     1       3.080   2.610  -3.510  1.00  0.00    -0.029 A 
ATOM     14  C   UNL     1       3.391   1.256  -3.369  1.00  0.00     0.007 A 
ATOM     15  C   UNL     1       4.118   3.522  -3.330  1.00  0.00     0.114 A 
ATOM     16  C   UNL     1       4.683   0.876  -3.021  1.00  0.00     0.020 A 
ATOM     17  N   UNL     1       5.382   3.182  -2.997  1.00  0.00    -0.264 NA
ATOM     18  C   UNL     1       5.634   1.865  -2.846  1.00  0.00     0.111 A 
ENDBRANCH  12  13
ENDBRANCH   5  12
ENDBRANCH   3   5
ENDBRANCH   2   3
ENDBRANCH   1   2
BRANCH   1  19
ATOM     19  C   UNL     1      -3.688   4.735  -3.576  1.00  0.00     0.275 C 
BRANCH  19  20
ATOM     20  O   UNL     1      -2.901   5.880  -3.204  1.00  0.00    -0.458 OA
BRANCH  20  21
ATOM     21  C   UNL     1      -3.215   6.440  -2.012  1.00  0.00     0.338 C 
ATOM     22  O   UNL     1      -4.138   6.119  -1.282  1.00  0.00    -0.246 OA
BRANCH  21  23
ATOM     23  C   UNL     1      -2.245   7.502  -1.650  1.00  0.00     0.060 A 
ATOM     24  C   UNL     1      -0.914   7.444  -2.056  1.00  0.00     0.016 A 
ATOM     25  C   UNL     1      -2.642   8.507  -0.767  1.00  0.00     0.016 A 
ATOM     26  C   UNL     1       0.043   8.267  -1.456  1.00  0.00     0.010 A 
ATOM     27  C   UNL     1      -1.702   9.414  -0.264  1.00  0.00     0.010 A 
ATOM     28  C   UNL     1      -0.332   9.264  -0.543  1.00  0.00    -0.014 A 
BRANCH  28  29
ATOM     29  C   UNL     1       0.688  10.091   0.176  1.00  0.00     0.031 A 
ATOM     30  C   UNL     1       0.669  10.176   1.687  1.00  0.00     0.074 A 
ATOM     31  C   UNL     1       1.650  10.762  -0.489  1.00  0.00     0.049 A 
ATOM     32  N   UNL     1       1.311  11.000   2.480  1.00  0.00    -0.248 NA
ATOM     33  C   UNL     1      -0.206   9.229   2.398  1.00  0.00     0.031 C 
ATOM     34  C   UNL     1       1.850  10.763  -1.939  1.00  0.00     0.029 A 
ATOM     35  N   UNL     1       2.660  11.568  -0.019  1.00  0.00    -0.354 N 
ATOM     36  C   UNL     1       0.845  10.735   3.763  1.00  0.00     0.074 A 
ATOM     37  C   UNL     1      -0.121   9.664   3.647  1.00  0.00     0.031 C 
ATOM     38  C   UNL     1       2.951  11.471  -2.232  1.00  0.00     0.029 A 
ATOM     39  C   UNL     1       3.482  12.056  -1.006  1.00  0.00     0.049 A 
ATOM     40  H   UNL     1       2.784  11.776   0.936  1.00  0.00     0.167 HD
ATOM     41  C   UNL     1       1.179  11.333   4.933  1.00  0.00     0.031 A 
ATOM     42  C   UNL     1       4.524  12.907  -0.949  1.00  0.00     0.031 A 
ATOM     43  C   UNL     1       2.202  12.334   5.077  1.00  0.00     0.049 A 
ATOM     44  C   UNL     1       4.913  13.523   0.362  1.00  0.00     0.074 A 
ATOM     45  C   UNL     1       2.615  12.990   6.225  1.00  0.00     0.029 A 
ATOM     46  N   UNL     1       3.003  12.795   4.045  1.00  0.00    -0.354 N 
ATOM     47  N   UNL     1       4.386  13.342   1.547  1.00  0.00    -0.248 NA
ATOM     48  C   UNL     1       6.029  14.480   0.336  1.00  0.00     0.031 C 
ATOM     49  C   UNL     1       3.657  13.860   5.884  1.00  0.00     0.029 A 
ATOM     50  C   UNL     1       3.913  13.720   4.530  1.00  0.00     0.049 A 
ATOM     51  H   UNL     1       2.935  12.508   3.106  1.00  0.00     0.167 HD
ATOM     52  C   UNL     1       5.098  14.168   2.406  1.00  0.00     0.074 A 
ATOM     53  C   UNL     1       6.117  14.825   1.613  1.00  0.00     0.031 C 
ATOM     54  C   UNL     1       4.915  14.373   3.733  1.00  0.00     0.031 A 
BRANCH  41  55
ATOM     55  C   UNL     1       0.392  10.950   6.154  1.00  0.00    -0.014 A 
ATOM     56  C   UNL     1       0.599   9.731   6.816  1.00  0.00     0.009 A 
ATOM     57  C   UNL     1      -0.556  11.850   6.668  1.00  0.00     0.009 A 
ATOM     58  C   UNL     1      -0.153   9.408   7.949  1.00  0.00     0.001 A 
ATOM     59  C   UNL     1      -1.288  11.536   7.813  1.00  0.00     0.001 A 
ATOM     60  C   UNL     1      -1.093  10.310   8.448  1.00  0.00     0.000 A 
ENDBRANCH  41  55
BRANCH  42  61
ATOM     61  C   UNL     1       5.251  13.261  -2.194  1.00  0.00    -0.014 A 
ATOM     62  C   UNL     1       6.537  12.753  -2.433  1.00  0.00     0.009 A 
ATOM     63  C   UNL     1       4.655  14.089  -3.157  1.00  0.00     0.009 A 
ATOM     64  C   UNL     1       7.213  13.074  -3.612  1.00  0.00     0.001 A 
ATOM     65  C   UNL     1       5.323  14.386  -4.346  1.00  0.00     0.001 A 
ATOM     66  C   UNL     1       6.603  13.883  -4.570  1.00  0.00     0.000 A 
ENDBRANCH  42  61
BRANCH  54  67
ATOM     67  C   UNL     1       5.847  15.336   4.405  1.00  0.00    -0.014 A 
ATOM     68  C   UNL     1       5.690  16.722   4.245  1.00  0.00     0.009 A 
ATOM     69  C   UNL     1       6.887  14.854   5.213  1.00  0.00     0.009 A 
ATOM     70  C   UNL     1       6.582  17.606   4.854  1.00  0.00     0.001 A 
ATOM     71  C   UNL     1       7.766  15.742   5.835  1.00  0.00     0.001 A 
ATOM     72  C   UNL     1       7.618  17.116   5.649  1.00  0.00     0.000 A 
ENDBRANCH  54  67
ENDBRANCH  28  29
ENDBRANCH  21  23
ENDBRANCH  20  21
ENDBRANCH  19  20
ENDBRANCH   1  19
TORSDOF 14
