REMARK SMILES CC[C@@](C)(NC(=O)[C@H]1Cc2[nH]cnc2C[NH2+]1)C(=O)OCCOC(=O)c1ccc(-c2c3nc(c(-c4ccccc4)c4ccc([nH]4)c(-c4ccccc4)c4nc(c(-c5ccccc5)c5ccc2[nH]5)C=C4)C=C3)cc1
REMARK SMILES IDX 20 1 19 2 17 3 18 4 3 5 4 6 2 7 1 8 5 9 6 10 7 12 8 13 9 14
REMARK SMILES IDX 16 15 10 16 15 17 11 20 14 21 12 22 13 24 21 25 22 26 23 27
REMARK SMILES IDX 24 28 25 29 26 30 72 31 27 32 71 33 28 34 29 35 30 36 65 37
REMARK SMILES IDX 31 38 70 39 64 40 66 41 32 42 69 43 63 44 62 45 33 47 55 48
REMARK SMILES IDX 40 49 54 50 41 51 44 52 53 53 67 54 42 55 43 56 52 58 68 59
REMARK SMILES IDX 45 60 34 61 35 62 39 63 36 64 38 65 37 66 56 67 57 68 61 69
REMARK SMILES IDX 58 70 60 71 59 72 46 73 47 74 51 75 48 76 50 77 49 78
REMARK H PARENT 5 11 16 18 16 19 11 23 66 46 44 57
REMARK Flexibility Score: inf
ROOT
ATOM      1  C   UNL     1       4.392   1.407   1.719  1.00  0.00     0.274 C 
ENDROOT
BRANCH   1   2
ATOM      2  O   UNL     1       3.170   1.402   2.485  1.00  0.00    -0.460 OA
BRANCH   2   3
ATOM      3  C   UNL     1       2.023   1.419   1.765  1.00  0.00     0.331 C 
ATOM      4  O   UNL     1       1.990   1.779   0.592  1.00  0.00    -0.249 OA
BRANCH   3   5
ATOM      5  C   UNL     1       0.773   0.951   2.587  1.00  0.00     0.135 C 
ATOM      6  C   UNL     1      -0.111   2.224   2.607  1.00  0.00     0.047 C 
BRANCH   5   7
ATOM      7  C   UNL     1      -0.058  -0.156   1.820  1.00  0.00     0.037 C 
ATOM      8  C   UNL     1       0.043  -0.173   0.286  1.00  0.00     0.007 C 
ENDBRANCH   5   7
BRANCH   5   9
ATOM      9  N   UNL     1       0.974   0.590   4.071  1.00  0.00    -0.335 N 
ATOM     10  C   UNL     1       1.565  -0.526   4.633  1.00  0.00     0.279 C 
ATOM     11  H   UNL     1       0.632   1.252   4.715  1.00  0.00     0.164 HD
ATOM     12  O   UNL     1       0.834  -1.503   4.846  1.00  0.00    -0.268 OA
BRANCH  10  13
ATOM     13  C   UNL     1       2.987  -0.469   5.326  1.00  0.00     0.278 C 
ATOM     14  C   UNL     1       3.737  -1.835   5.096  1.00  0.00     0.131 C 
ATOM     15  N   UNL     1       3.704   0.816   5.077  1.00  0.00    -0.331 N 
ATOM     16  C   UNL     1       5.186  -1.619   4.862  1.00  0.00     0.050 A 
ATOM     17  C   UNL     1       5.148   0.834   5.397  1.00  0.00     0.320 C 
ATOM     18  H   UNL     1       3.252   1.537   5.639  1.00  0.00     0.347 HD
ATOM     19  H   UNL     1       3.647   0.968   4.070  1.00  0.00     0.347 HD
ATOM     20  N   UNL     1       6.129  -2.503   4.426  1.00  0.00    -0.348 N 
ATOM     21  C   UNL     1       5.822  -0.407   4.934  1.00  0.00     0.116 A 
ATOM     22  C   UNL     1       7.232  -1.765   4.079  1.00  0.00     0.197 A 
ATOM     23  H   UNL     1       6.036  -3.481   4.371  1.00  0.00     0.167 HD
ATOM     24  N   UNL     1       7.081  -0.494   4.391  1.00  0.00    -0.236 NA
ENDBRANCH  10  13
ENDBRANCH   5   9
ENDBRANCH   3   5
ENDBRANCH   2   3
ENDBRANCH   1   2
BRANCH   1  25
ATOM     25  C   UNL     1       4.940  -0.014   1.675  1.00  0.00     0.275 C 
BRANCH  25  26
ATOM     26  O   UNL     1       4.318  -0.922   0.748  1.00  0.00    -0.458 OA
BRANCH  26  27
ATOM     27  C   UNL     1       3.325  -1.629   1.335  1.00  0.00     0.338 C 
ATOM     28  O   UNL     1       2.457  -1.168   2.048  1.00  0.00    -0.246 OA
BRANCH  27  29
ATOM     29  C   UNL     1       3.562  -3.066   1.420  1.00  0.00     0.060 A 
ATOM     30  C   UNL     1       2.464  -3.902   1.673  1.00  0.00     0.016 A 
ATOM     31  C   UNL     1       4.870  -3.493   1.645  1.00  0.00     0.016 A 
ATOM     32  C   UNL     1       2.686  -5.167   2.192  1.00  0.00     0.010 A 
ATOM     33  C   UNL     1       5.086  -4.734   2.212  1.00  0.00     0.010 A 
ATOM     34  C   UNL     1       3.997  -5.564   2.488  1.00  0.00    -0.014 A 
BRANCH  34  35
ATOM     35  C   UNL     1       4.255  -6.984   2.680  1.00  0.00     0.031 A 
ATOM     36  C   UNL     1       4.141  -7.711   1.384  1.00  0.00     0.074 A 
ATOM     37  C   UNL     1       4.758  -7.576   3.778  1.00  0.00     0.049 A 
ATOM     38  N   UNL     1       3.241  -8.568   1.038  1.00  0.00    -0.248 NA
ATOM     39  C   UNL     1       5.013  -7.269   0.278  1.00  0.00     0.031 C 
ATOM     40  C   UNL     1       5.239  -6.962   5.014  1.00  0.00     0.029 A 
ATOM     41  N   UNL     1       5.059  -8.894   3.953  1.00  0.00    -0.354 N 
ATOM     42  C   UNL     1       3.537  -8.900  -0.280  1.00  0.00     0.074 A 
ATOM     43  C   UNL     1       4.476  -7.918  -0.751  1.00  0.00     0.031 C 
ATOM     44  C   UNL     1       5.981  -7.868   5.698  1.00  0.00     0.029 A 
ATOM     45  C   UNL     1       5.924  -9.149   5.008  1.00  0.00     0.049 A 
ATOM     46  H   UNL     1       4.693  -9.605   3.378  1.00  0.00     0.167 HD
ATOM     47  C   UNL     1       3.215 -10.112  -0.803  1.00  0.00     0.031 A 
ATOM     48  C   UNL     1       6.591 -10.310   5.240  1.00  0.00     0.031 A 
ATOM     49  C   UNL     1       2.253 -10.806   0.011  1.00  0.00     0.049 A 
ATOM     50  C   UNL     1       5.932 -11.378   4.451  1.00  0.00     0.074 A 
ATOM     51  C   UNL     1       0.968 -10.542   0.440  1.00  0.00     0.029 A 
ATOM     52  N   UNL     1       2.737 -11.791   0.838  1.00  0.00    -0.354 N 
ATOM     53  N   UNL     1       4.746 -11.841   4.717  1.00  0.00    -0.248 NA
ATOM     54  C   UNL     1       6.412 -11.632   3.101  1.00  0.00     0.031 C 
ATOM     55  C   UNL     1       0.919 -11.035   1.777  1.00  0.00     0.029 A 
ATOM     56  C   UNL     1       2.151 -11.625   2.064  1.00  0.00     0.049 A 
ATOM     57  H   UNL     1       3.388 -12.488   0.593  1.00  0.00     0.167 HD
ATOM     58  C   UNL     1       4.158 -12.034   3.476  1.00  0.00     0.074 A 
ATOM     59  C   UNL     1       5.263 -11.988   2.520  1.00  0.00     0.031 C 
ATOM     60  C   UNL     1       2.807 -11.925   3.317  1.00  0.00     0.031 A 
BRANCH  47  61
ATOM     61  C   UNL     1       4.103 -10.835  -1.785  1.00  0.00    -0.014 A 
ATOM     62  C   UNL     1       3.673 -12.073  -2.290  1.00  0.00     0.009 A 
ATOM     63  C   UNL     1       5.453 -10.496  -2.009  1.00  0.00     0.009 A 
ATOM     64  C   UNL     1       4.567 -12.954  -2.909  1.00  0.00     0.001 A 
ATOM     65  C   UNL     1       6.337 -11.352  -2.668  1.00  0.00     0.001 A 
ATOM     66  C   UNL     1       5.900 -12.596  -3.090  1.00  0.00     0.000 A 
ENDBRANCH  47  61
BRANCH  48  67
ATOM     67  C   UNL     1       7.912 -10.533   5.871  1.00  0.00    -0.014 A 
ATOM     68  C   UNL     1       8.301 -11.816   6.295  1.00  0.00     0.009 A 
ATOM     69  C   UNL     1       8.907  -9.542   5.800  1.00  0.00     0.009 A 
ATOM     70  C   UNL     1       9.640 -12.105   6.594  1.00  0.00     0.001 A 
ATOM     71  C   UNL     1      10.244  -9.829   6.102  1.00  0.00     0.001 A 
ATOM     72  C   UNL     1      10.613 -11.115   6.483  1.00  0.00     0.000 A 
ENDBRANCH  48  67
BRANCH  60  73
ATOM     73  C   UNL     1       1.951 -11.855   4.556  1.00  0.00    -0.014 A 
ATOM     74  C   UNL     1       2.073 -10.844   5.525  1.00  0.00     0.009 A 
ATOM     75  C   UNL     1       0.887 -12.762   4.671  1.00  0.00     0.009 A 
ATOM     76  C   UNL     1       1.174 -10.765   6.594  1.00  0.00     0.001 A 
ATOM     77  C   UNL     1      -0.024 -12.669   5.724  1.00  0.00     0.001 A 
ATOM     78  C   UNL     1       0.123 -11.676   6.689  1.00  0.00     0.000 A 
ENDBRANCH  60  73
ENDBRANCH  34  35
ENDBRANCH  27  29
ENDBRANCH  26  27
ENDBRANCH  25  26
ENDBRANCH   1  25
TORSDOF 14
