REMARK SMILES CC(C)[C@H](NC(=O)CCNC(=O)c1ccoc1)C(=O)OCCOC(=O)c1ccc(-c2c3nc(c(-c4ccccc4)c4ccc([nH]4)c(-c4ccccc4)c4nc(c(-c5ccccc5)c5ccc2[nH]5)C=C4)C=C3)cc1
REMARK SMILES IDX 20 1 18 2 19 3 4 4 2 5 1 6 3 7 5 8 6 9 7 11 8 12 9 13 10 14
REMARK SMILES IDX 11 15 12 17 13 18 14 19 17 20 15 21 16 22 21 23 22 24 23 25
REMARK SMILES IDX 24 26 25 27 26 28 27 29 73 30 28 31 72 32 29 33 30 34 31 35
REMARK SMILES IDX 66 36 32 37 71 38 65 39 67 40 33 41 70 42 64 43 63 44 34 46
REMARK SMILES IDX 56 47 41 48 55 49 42 50 45 51 54 52 68 53 43 54 44 55 53 57
REMARK SMILES IDX 69 58 46 59 35 60 36 61 40 62 37 63 39 64 38 65 57 66 58 67
REMARK SMILES IDX 62 68 59 69 61 70 60 71 47 72 48 73 52 74 49 75 51 76 50 77
REMARK H PARENT 5 10 10 16 67 45 45 56
REMARK Flexibility Score: inf
ROOT
ATOM      1  O   UNL     1      -1.074  -2.845  -2.354  1.00  0.00    -0.461 OA
ENDROOT
BRANCH   1   2
ATOM      2  C   UNL     1      -1.848  -2.155  -1.462  1.00  0.00     0.329 C 
ATOM      3  O   UNL     1      -2.945  -2.532  -1.066  1.00  0.00    -0.250 OA
BRANCH   2   4
ATOM      4  C   UNL     1      -1.153  -0.863  -0.945  1.00  0.00     0.194 C 
BRANCH   4   5
ATOM      5  C   UNL     1      -1.970   0.446  -1.082  1.00  0.00     0.017 C 
ATOM      6  C   UNL     1      -3.478   0.293  -0.852  1.00  0.00     0.010 C 
ATOM      7  C   UNL     1      -1.448   1.498  -0.090  1.00  0.00     0.010 C 
ENDBRANCH   4   5
BRANCH   4   8
ATOM      8  N   UNL     1       0.280  -0.818  -1.317  1.00  0.00    -0.342 N 
ATOM      9  C   UNL     1       1.007  -0.294  -2.331  1.00  0.00     0.222 C 
ATOM     10  H   UNL     1       0.846  -1.287  -0.661  1.00  0.00     0.164 HD
ATOM     11  O   UNL     1       2.165  -0.696  -2.474  1.00  0.00    -0.275 OA
BRANCH   9  12
ATOM     12  C   UNL     1       0.467   0.769  -3.250  1.00  0.00     0.121 C 
BRANCH  12  13
ATOM     13  C   UNL     1      -0.172   0.221  -4.521  1.00  0.00     0.126 C 
BRANCH  13  14
ATOM     14  N   UNL     1      -1.217  -0.764  -4.305  1.00  0.00    -0.351 N 
ATOM     15  C   UNL     1      -2.575  -0.726  -4.476  1.00  0.00     0.254 C 
ATOM     16  H   UNL     1      -0.884  -1.628  -3.971  1.00  0.00     0.163 HD
ATOM     17  O   UNL     1      -3.239  -1.691  -4.104  1.00  0.00    -0.269 OA
BRANCH  15  18
ATOM     18  C   UNL     1      -3.210   0.434  -5.048  1.00  0.00     0.077 A 
ATOM     19  C   UNL     1      -2.924   1.153  -6.240  1.00  0.00     0.056 A 
ATOM     20  C   UNL     1      -4.370   0.996  -4.552  1.00  0.00     0.208 A 
ATOM     21  C   UNL     1      -3.908   2.104  -6.368  1.00  0.00     0.195 A 
ATOM     22  O   UNL     1      -4.784   2.024  -5.335  1.00  0.00    -0.472 OA
ENDBRANCH  15  18
ENDBRANCH  13  14
ENDBRANCH  12  13
ENDBRANCH   9  12
ENDBRANCH   4   8
ENDBRANCH   2   4
ENDBRANCH   1   2
BRANCH   1  23
ATOM     23  C   UNL     1      -1.621  -4.084  -2.858  1.00  0.00     0.274 C 
BRANCH  23  24
ATOM     24  C   UNL     1      -1.008  -5.304  -2.164  1.00  0.00     0.275 C 
BRANCH  24  25
ATOM     25  O   UNL     1      -1.453  -5.427  -0.802  1.00  0.00    -0.458 OA
BRANCH  25  26
ATOM     26  C   UNL     1      -0.742  -4.702   0.092  1.00  0.00     0.338 C 
ATOM     27  O   UNL     1       0.255  -4.033  -0.117  1.00  0.00    -0.246 OA
BRANCH  26  28
ATOM     28  C   UNL     1      -1.472  -4.643   1.365  1.00  0.00     0.060 A 
ATOM     29  C   UNL     1      -1.776  -3.371   1.851  1.00  0.00     0.016 A 
ATOM     30  C   UNL     1      -1.794  -5.777   2.107  1.00  0.00     0.016 A 
ATOM     31  C   UNL     1      -2.383  -3.202   3.078  1.00  0.00     0.010 A 
ATOM     32  C   UNL     1      -2.408  -5.613   3.352  1.00  0.00     0.010 A 
ATOM     33  C   UNL     1      -2.687  -4.324   3.844  1.00  0.00    -0.014 A 
BRANCH  33  34
ATOM     34  C   UNL     1      -3.194  -4.112   5.211  1.00  0.00     0.031 A 
ATOM     35  C   UNL     1      -2.271  -4.347   6.367  1.00  0.00     0.074 A 
ATOM     36  C   UNL     1      -4.436  -3.632   5.395  1.00  0.00     0.049 A 
ATOM     37  N   UNL     1      -2.527  -4.315   7.647  1.00  0.00    -0.248 NA
ATOM     38  C   UNL     1      -0.870  -4.659   6.035  1.00  0.00     0.031 C 
ATOM     39  C   UNL     1      -5.369  -3.263   4.328  1.00  0.00     0.029 A 
ATOM     40  N   UNL     1      -5.121  -3.363   6.549  1.00  0.00    -0.354 N 
ATOM     41  C   UNL     1      -1.331  -4.641   8.273  1.00  0.00     0.074 A 
ATOM     42  C   UNL     1      -0.352  -4.875   7.235  1.00  0.00     0.031 C 
ATOM     43  C   UNL     1      -6.508  -2.814   4.881  1.00  0.00     0.029 A 
ATOM     44  C   UNL     1      -6.404  -2.929   6.331  1.00  0.00     0.049 A 
ATOM     45  H   UNL     1      -4.732  -3.471   7.447  1.00  0.00     0.167 HD
ATOM     46  C   UNL     1      -1.083  -4.743   9.599  1.00  0.00     0.031 A 
ATOM     47  C   UNL     1      -7.396  -2.694   7.209  1.00  0.00     0.031 A 
ATOM     48  C   UNL     1      -2.075  -4.505  10.612  1.00  0.00     0.049 A 
ATOM     49  C   UNL     1      -7.122  -2.909   8.671  1.00  0.00     0.074 A 
ATOM     50  C   UNL     1      -1.946  -4.594  11.986  1.00  0.00     0.029 A 
ATOM     51  N   UNL     1      -3.385  -4.127  10.354  1.00  0.00    -0.354 N 
ATOM     52  N   UNL     1      -6.003  -3.262   9.259  1.00  0.00    -0.248 NA
ATOM     53  C   UNL     1      -8.248  -2.701   9.589  1.00  0.00     0.031 C 
ATOM     54  C   UNL     1      -3.195  -4.323  12.556  1.00  0.00     0.029 A 
ATOM     55  C   UNL     1      -4.084  -4.002  11.541  1.00  0.00     0.049 A 
ATOM     56  H   UNL     1      -3.762  -3.971   9.457  1.00  0.00     0.167 HD
ATOM     57  C   UNL     1      -6.283  -3.295  10.618  1.00  0.00     0.074 A 
ATOM     58  C   UNL     1      -7.673  -2.908  10.766  1.00  0.00     0.031 C 
ATOM     59  C   UNL     1      -5.467  -3.615  11.653  1.00  0.00     0.031 A 
BRANCH  46  60
ATOM     60  C   UNL     1       0.291  -5.191  10.011  1.00  0.00    -0.014 A 
ATOM     61  C   UNL     1       1.415  -4.364   9.860  1.00  0.00     0.009 A 
ATOM     62  C   UNL     1       0.460  -6.472  10.561  1.00  0.00     0.009 A 
ATOM     63  C   UNL     1       2.684  -4.825  10.217  1.00  0.00     0.001 A 
ATOM     64  C   UNL     1       1.726  -6.918  10.945  1.00  0.00     0.001 A 
ATOM     65  C   UNL     1       2.838  -6.099  10.763  1.00  0.00     0.000 A 
ENDBRANCH  46  60
BRANCH  47  66
ATOM     66  C   UNL     1      -8.740  -2.284   6.726  1.00  0.00    -0.014 A 
ATOM     67  C   UNL     1      -9.244  -1.005   7.004  1.00  0.00     0.009 A 
ATOM     68  C   UNL     1      -9.530  -3.176   5.981  1.00  0.00     0.009 A 
ATOM     69  C   UNL     1     -10.518  -0.636   6.566  1.00  0.00     0.001 A 
ATOM     70  C   UNL     1     -10.791  -2.794   5.518  1.00  0.00     0.001 A 
ATOM     71  C   UNL     1     -11.288  -1.528   5.819  1.00  0.00     0.000 A 
ENDBRANCH  47  66
BRANCH  59  72
ATOM     72  C   UNL     1      -6.052  -3.517  13.033  1.00  0.00    -0.014 A 
ATOM     73  C   UNL     1      -6.989  -4.451  13.498  1.00  0.00     0.009 A 
ATOM     74  C   UNL     1      -5.624  -2.492  13.891  1.00  0.00     0.009 A 
ATOM     75  C   UNL     1      -7.514  -4.339  14.787  1.00  0.00     0.001 A 
ATOM     76  C   UNL     1      -6.126  -2.401  15.189  1.00  0.00     0.001 A 
ATOM     77  C   UNL     1      -7.078  -3.318  15.632  1.00  0.00     0.000 A 
ENDBRANCH  59  72
ENDBRANCH  33  34
ENDBRANCH  26  28
ENDBRANCH  25  26
ENDBRANCH  24  25
ENDBRANCH  23  24
ENDBRANCH   1  23
TORSDOF 17
