REMARK SMILES O=C(OCCOC(=O)c1ccc(-c2c3nc(c(-c4ccccc4)c4ccc([nH]4)c(-c4ccccc4)c4nc(c(-c5ccccc5)c5ccc2[nH]5)C=C4)C=C3)cc1)c1ccc(/C=C/c2ccnc(-c3cccc([N+](=O)[O-])c3)[n+]2[O-])cc1
REMARK SMILES IDX 4 1 3 2 2 3 1 4 57 5 58 6 80 7 59 8 79 9 60 10 61 11 62 12
REMARK SMILES IDX 63 13 64 14 77 15 65 16 67 17 78 18 66 19 68 20 69 21 76 22
REMARK SMILES IDX 70 23 72 24 71 25 73 26 74 27 75 28 5 29 6 30 7 31 8 32 9 33
REMARK SMILES IDX 10 34 56 35 11 36 55 37 12 38 13 39 14 40 49 41 15 42 54 43
REMARK SMILES IDX 48 44 50 45 16 46 53 47 47 48 46 49 17 51 39 52 24 53 38 54
REMARK SMILES IDX 25 55 28 56 37 57 51 58 26 59 27 60 36 62 52 63 29 64 18 65
REMARK SMILES IDX 19 66 23 67 20 68 22 69 21 70 40 71 41 72 45 73 42 74 44 75
REMARK SMILES IDX 43 76 30 77 31 78 35 79 32 80 34 81 33 82
REMARK H PARENT 50 50 28 61
REMARK Flexibility Score: inf
ROOT
ATOM      1  C   UNL     1       4.153  -0.479  -1.507  1.00  0.00     0.275 C 
ENDROOT
BRANCH   1   2
ATOM      2  O   UNL     1       2.993  -0.864  -0.748  1.00  0.00    -0.458 OA
BRANCH   2   3
ATOM      3  C   UNL     1       2.795  -0.916   0.590  1.00  0.00     0.338 C 
ATOM      4  O   UNL     1       1.817  -1.536   1.008  1.00  0.00    -0.246 OA
BRANCH   3   5
ATOM      5  C   UNL     1       3.611  -0.158   1.598  1.00  0.00     0.060 A 
ATOM      6  C   UNL     1       4.903   0.336   1.421  1.00  0.00     0.016 A 
ATOM      7  C   UNL     1       3.000   0.080   2.844  1.00  0.00     0.016 A 
ATOM      8  C   UNL     1       5.525   1.119   2.401  1.00  0.00     0.009 A 
ATOM      9  C   UNL     1       3.635   0.835   3.838  1.00  0.00     0.009 A 
ATOM     10  C   UNL     1       4.885   1.406   3.606  1.00  0.00    -0.025 A 
BRANCH  10  11
ATOM     11  C   UNL     1       5.535   2.192   4.659  1.00  0.00     0.012 C 
ATOM     12  C   UNL     1       6.471   3.131   4.440  1.00  0.00     0.053 C 
BRANCH  12  13
ATOM     13  C   UNL     1       7.213   3.806   5.520  1.00  0.00     0.134 A 
ATOM     14  C   UNL     1       7.468   5.174   5.418  1.00  0.00     0.100 A 
ATOM     15  N   UNL     1       7.718   3.073   6.610  1.00  0.00    -0.228 N 
ATOM     16  C   UNL     1       8.177   5.776   6.430  1.00  0.00     0.259 A 
ATOM     17  C   UNL     1       8.441   3.764   7.583  1.00  0.00     0.333 A 
ATOM     18  O   UNL     1       7.540   1.805   6.699  1.00  0.00    -0.710 OA
ATOM     19  N   UNL     1       8.651   5.114   7.501  1.00  0.00    -0.049 NA
BRANCH  17  20
ATOM     20  C   UNL     1       9.032   3.051   8.717  1.00  0.00     0.076 A 
ATOM     21  C   UNL     1       8.732   3.426  10.038  1.00  0.00     0.017 A 
ATOM     22  C   UNL     1       9.914   1.974   8.514  1.00  0.00     0.102 A 
ATOM     23  C   UNL     1       9.271   2.734  11.127  1.00  0.00     0.008 A 
ATOM     24  C   UNL     1      10.463   1.290   9.606  1.00  0.00     0.270 A 
ATOM     25  C   UNL     1      10.140   1.664  10.915  1.00  0.00     0.085 A 
BRANCH  24  26
ATOM     26  N   UNL     1      11.395   0.179   9.372  1.00  0.00     0.062 N 
ATOM     27  O   UNL     1      11.846  -0.412  10.364  1.00  0.00    -0.258 OA
ATOM     28  O   UNL     1      11.691  -0.091   8.200  1.00  0.00    -0.258 OA
ENDBRANCH  24  26
ENDBRANCH  17  20
ENDBRANCH  12  13
ENDBRANCH  10  11
ENDBRANCH   3   5
ENDBRANCH   2   3
ENDBRANCH   1   2
BRANCH   1  29
ATOM     29  C   UNL     1       4.169   1.000  -1.910  1.00  0.00     0.275 C 
BRANCH  29  30
ATOM     30  O   UNL     1       3.796   1.878  -0.833  1.00  0.00    -0.458 OA
BRANCH  30  31
ATOM     31  C   UNL     1       2.480   2.210  -0.808  1.00  0.00     0.338 C 
ATOM     32  O   UNL     1       1.651   1.928  -1.659  1.00  0.00    -0.246 OA
BRANCH  31  33
ATOM     33  C   UNL     1       2.120   2.886   0.461  1.00  0.00     0.060 A 
ATOM     34  C   UNL     1       0.843   2.638   0.978  1.00  0.00     0.016 A 
ATOM     35  C   UNL     1       2.976   3.771   1.126  1.00  0.00     0.016 A 
ATOM     36  C   UNL     1       0.403   3.303   2.123  1.00  0.00     0.010 A 
ATOM     37  C   UNL     1       2.535   4.430   2.286  1.00  0.00     0.010 A 
ATOM     38  C   UNL     1       1.233   4.226   2.775  1.00  0.00    -0.014 A 
BRANCH  38  39
ATOM     39  C   UNL     1       0.680   5.014   3.911  1.00  0.00     0.031 A 
ATOM     40  C   UNL     1       0.248   6.441   3.703  1.00  0.00     0.074 A 
ATOM     41  C   UNL     1       0.480   4.444   5.115  1.00  0.00     0.049 A 
ATOM     42  N   UNL     1      -0.409   7.231   4.516  1.00  0.00    -0.248 NA
ATOM     43  C   UNL     1       0.594   7.057   2.413  1.00  0.00     0.031 C 
ATOM     44  C   UNL     1       0.837   3.074   5.468  1.00  0.00     0.029 A 
ATOM     45  N   UNL     1      -0.092   4.946   6.259  1.00  0.00    -0.354 N 
ATOM     46  C   UNL     1      -0.588   8.422   3.825  1.00  0.00     0.074 A 
ATOM     47  C   UNL     1       0.091   8.275   2.554  1.00  0.00     0.031 C 
ATOM     48  C   UNL     1       0.479   2.840   6.742  1.00  0.00     0.029 A 
ATOM     49  C   UNL     1      -0.145   4.041   7.291  1.00  0.00     0.049 A 
ATOM     50  H   UNL     1      -0.432   5.867   6.332  1.00  0.00     0.167 HD
ATOM     51  C   UNL     1      -1.278   9.528   4.195  1.00  0.00     0.031 A 
ATOM     52  C   UNL     1      -0.657   4.154   8.532  1.00  0.00     0.031 A 
ATOM     53  C   UNL     1      -1.937   9.704   5.463  1.00  0.00     0.049 A 
ATOM     54  C   UNL     1      -1.367   5.415   8.942  1.00  0.00     0.074 A 
ATOM     55  C   UNL     1      -2.674  10.790   5.907  1.00  0.00     0.029 A 
ATOM     56  N   UNL     1      -1.932   8.779   6.493  1.00  0.00    -0.354 N 
ATOM     57  N   UNL     1      -1.595   6.501   8.246  1.00  0.00    -0.248 NA
ATOM     58  C   UNL     1      -1.920   5.449  10.306  1.00  0.00     0.031 C 
ATOM     59  C   UNL     1      -3.071  10.542   7.226  1.00  0.00     0.029 A 
ATOM     60  C   UNL     1      -2.629   9.280   7.582  1.00  0.00     0.049 A 
ATOM     61  H   UNL     1      -1.498   7.896   6.457  1.00  0.00     0.167 HD
ATOM     62  C   UNL     1      -2.343   7.331   9.073  1.00  0.00     0.074 A 
ATOM     63  C   UNL     1      -2.546   6.617  10.315  1.00  0.00     0.031 C 
ATOM     64  C   UNL     1      -2.822   8.574   8.821  1.00  0.00     0.031 A 
BRANCH  51  65
ATOM     65  C   UNL     1      -1.359  10.649   3.197  1.00  0.00    -0.014 A 
ATOM     66  C   UNL     1      -2.162  10.532   2.052  1.00  0.00     0.009 A 
ATOM     67  C   UNL     1      -0.667  11.847   3.426  1.00  0.00     0.009 A 
ATOM     68  C   UNL     1      -2.247  11.585   1.139  1.00  0.00     0.001 A 
ATOM     69  C   UNL     1      -0.774  12.907   2.524  1.00  0.00     0.001 A 
ATOM     70  C   UNL     1      -1.557  12.772   1.378  1.00  0.00     0.000 A 
ENDBRANCH  51  65
BRANCH  52  71
ATOM     71  C   UNL     1      -0.538   3.025   9.492  1.00  0.00    -0.014 A 
ATOM     72  C   UNL     1      -1.666   2.281   9.872  1.00  0.00     0.009 A 
ATOM     73  C   UNL     1       0.704   2.720  10.069  1.00  0.00     0.009 A 
ATOM     74  C   UNL     1      -1.558   1.280  10.840  1.00  0.00     0.001 A 
ATOM     75  C   UNL     1       0.814   1.699  11.015  1.00  0.00     0.001 A 
ATOM     76  C   UNL     1      -0.319   0.989  11.409  1.00  0.00     0.000 A 
ENDBRANCH  52  71
BRANCH  64  77
ATOM     77  C   UNL     1      -3.632   9.234   9.904  1.00  0.00    -0.014 A 
ATOM     78  C   UNL     1      -3.034   9.686  11.091  1.00  0.00     0.009 A 
ATOM     79  C   UNL     1      -5.012   9.422   9.727  1.00  0.00     0.009 A 
ATOM     80  C   UNL     1      -3.808  10.273  12.095  1.00  0.00     0.001 A 
ATOM     81  C   UNL     1      -5.778  10.036  10.720  1.00  0.00     0.001 A 
ATOM     82  C   UNL     1      -5.178  10.450  11.908  1.00  0.00     0.000 A 
ENDBRANCH  64  77
ENDBRANCH  38  39
ENDBRANCH  31  33
ENDBRANCH  30  31
ENDBRANCH  29  30
ENDBRANCH   1  29
TORSDOF 15
