REMARK SMILES CCOc1cnc(C(=O)c2[nH]c3cc(Cl)ccc3c2CC(=O)OCCOC(=O)c2ccc(-c3c4nc(c(-c5ccccc5)c5ccc([nH]5)c(-c5ccccc5)c5nc(c(-c6ccccc6)c6ccc3[nH]6)C=C5)C=C4)cc2)cc1CC
REMARK SMILES IDX 23 1 21 2 22 3 20 4 19 5 10 6 11 7 12 8 18 10 13 11 17 12
REMARK SMILES IDX 14 13 16 14 15 15 8 16 9 17 7 18 4 19 5 20 78 21 6 22 77 23
REMARK SMILES IDX 3 24 2 25 1 26 79 27 80 28 24 29 25 30 26 31 27 32 28 33
REMARK SMILES IDX 29 34 30 35 76 36 31 37 75 38 32 39 33 40 34 41 69 42 35 43
REMARK SMILES IDX 74 44 68 45 70 46 36 47 73 48 67 49 66 50 37 52 59 53 44 54
REMARK SMILES IDX 58 55 45 56 48 57 57 58 71 59 46 60 47 61 56 63 72 64 49 65
REMARK SMILES IDX 38 66 39 67 43 68 40 69 42 70 41 71 60 72 61 73 65 74 62 75
REMARK SMILES IDX 64 76 63 77 50 78 51 79 55 80 52 81 54 82 53 83
REMARK H PARENT 11 9 70 51 48 62
REMARK Flexibility Score: inf
ROOT
ATOM      1  O   UNL     1       9.888  -1.061  -4.165  1.00  0.00    -0.462 OA
ENDROOT
BRANCH   1   2
ATOM      2  C   UNL     1       9.642   0.121  -3.548  1.00  0.00     0.310 C 
ATOM      3  O   UNL     1      10.045   1.208  -3.960  1.00  0.00    -0.252 OA
BRANCH   2   4
ATOM      4  C   UNL     1       8.695   0.044  -2.369  1.00  0.00     0.161 C 
BRANCH   4   5
ATOM      5  C   UNL     1       8.524  -1.267  -1.666  1.00  0.00     0.000 A 
ATOM      6  C   UNL     1       7.571  -2.258  -1.903  1.00  0.00     0.093 A 
ATOM      7  N   UNL     1       7.827  -3.282  -1.021  1.00  0.00    -0.351 N 
ATOM      8  C   UNL     1       8.711  -2.875  -0.057  1.00  0.00     0.048 A 
ATOM      9  H   UNL     1       7.431  -4.181  -1.075  1.00  0.00     0.167 HD
ATOM     10  C   UNL     1       9.233  -1.655  -0.476  1.00  0.00     0.004 A 
ATOM     11  C   UNL     1       9.080  -3.496   1.142  1.00  0.00     0.047 A 
ATOM     12  C   UNL     1      10.229  -1.045   0.318  1.00  0.00     0.012 A 
ATOM     13  C   UNL     1      10.034  -2.848   1.928  1.00  0.00     0.043 A 
ATOM     14  C   UNL     1      10.616  -1.651   1.522  1.00  0.00     0.021 A 
ATOM     15  Cl  UNL     1      10.487  -3.543   3.438  1.00  0.00    -0.084 Cl
BRANCH   6  16
ATOM     16  C   UNL     1       6.447  -2.376  -2.825  1.00  0.00     0.227 C 
ATOM     17  O   UNL     1       6.412  -3.272  -3.667  1.00  0.00    -0.285 OA
BRANCH  16  18
ATOM     18  C   UNL     1       5.173  -1.625  -2.498  1.00  0.00     0.113 A 
ATOM     19  C   UNL     1       2.571  -1.071  -1.791  1.00  0.00     0.140 A 
ATOM     20  C   UNL     1       2.978  -1.223  -3.112  1.00  0.00     0.158 A 
ATOM     21  C   UNL     1       3.527  -1.186  -0.783  1.00  0.00    -0.002 A 
ATOM     22  N   UNL     1       4.248  -1.506  -3.489  1.00  0.00    -0.249 NA
ATOM     23  C   UNL     1       4.863  -1.396  -1.157  1.00  0.00     0.040 A 
BRANCH  19  24
ATOM     24  O   UNL     1       1.245  -1.002  -1.478  1.00  0.00    -0.492 OA
BRANCH  24  25
ATOM     25  C   UNL     1       0.714   0.322  -1.593  1.00  0.00     0.226 C 
ATOM     26  C   UNL     1       0.206   0.770  -0.234  1.00  0.00     0.049 C 
ENDBRANCH  24  25
ENDBRANCH  19  24
BRANCH  21  27
ATOM     27  C   UNL     1       3.159  -1.235   0.680  1.00  0.00     0.036 C 
ATOM     28  C   UNL     1       3.474  -2.597   1.292  1.00  0.00     0.009 C 
ENDBRANCH  21  27
ENDBRANCH  16  18
ENDBRANCH   6  16
ENDBRANCH   4   5
ENDBRANCH   2   4
ENDBRANCH   1   2
BRANCH   1  29
ATOM     29  C   UNL     1      10.493  -0.989  -5.475  1.00  0.00     0.274 C 
BRANCH  29  30
ATOM     30  C   UNL     1       9.460  -1.209  -6.592  1.00  0.00     0.275 C 
BRANCH  30  31
ATOM     31  O   UNL     1       8.546  -0.100  -6.745  1.00  0.00    -0.458 OA
BRANCH  31  32
ATOM     32  C   UNL     1       7.496  -0.158  -5.902  1.00  0.00     0.338 C 
ATOM     33  O   UNL     1       7.302  -0.992  -5.034  1.00  0.00    -0.246 OA
BRANCH  32  34
ATOM     34  C   UNL     1       6.588   0.978  -6.010  1.00  0.00     0.060 A 
ATOM     35  C   UNL     1       6.596   1.904  -4.964  1.00  0.00     0.016 A 
ATOM     36  C   UNL     1       5.565   0.973  -6.958  1.00  0.00     0.016 A 
ATOM     37  C   UNL     1       5.545   2.799  -4.830  1.00  0.00     0.010 A 
ATOM     38  C   UNL     1       4.540   1.916  -6.856  1.00  0.00     0.010 A 
ATOM     39  C   UNL     1       4.514   2.820  -5.780  1.00  0.00    -0.014 A 
BRANCH  39  40
ATOM     40  C   UNL     1       3.454   3.845  -5.667  1.00  0.00     0.031 A 
ATOM     41  C   UNL     1       2.045   3.483  -5.306  1.00  0.00     0.074 A 
ATOM     42  C   UNL     1       3.792   5.130  -5.884  1.00  0.00     0.049 A 
ATOM     43  N   UNL     1       1.005   4.268  -5.180  1.00  0.00    -0.248 NA
ATOM     44  C   UNL     1       1.763   2.062  -5.049  1.00  0.00     0.031 C 
ATOM     45  C   UNL     1       5.136   5.601  -6.226  1.00  0.00     0.029 A 
ATOM     46  N   UNL     1       3.034   6.270  -5.851  1.00  0.00    -0.354 N 
ATOM     47  C   UNL     1      -0.054   3.442  -4.831  1.00  0.00     0.074 A 
ATOM     48  C   UNL     1       0.461   2.090  -4.789  1.00  0.00     0.031 C 
ATOM     49  C   UNL     1       5.110   6.934  -6.364  1.00  0.00     0.029 A 
ATOM     50  C   UNL     1       3.741   7.399  -6.175  1.00  0.00     0.049 A 
ATOM     51  H   UNL     1       2.078   6.278  -5.617  1.00  0.00     0.167 HD
ATOM     52  C   UNL     1      -1.337   3.784  -4.565  1.00  0.00     0.031 A 
ATOM     53  C   UNL     1       3.330   8.668  -6.340  1.00  0.00     0.031 A 
ATOM     54  C   UNL     1      -1.854   5.123  -4.632  1.00  0.00     0.049 A 
ATOM     55  C   UNL     1       1.885   9.001  -6.137  1.00  0.00     0.074 A 
ATOM     56  C   UNL     1      -3.138   5.566  -4.364  1.00  0.00     0.029 A 
ATOM     57  N   UNL     1      -1.118   6.233  -5.014  1.00  0.00    -0.354 N 
ATOM     58  N   UNL     1       0.905   8.214  -5.764  1.00  0.00    -0.248 NA
ATOM     59  C   UNL     1       1.488  10.392  -6.384  1.00  0.00     0.031 C 
ATOM     60  C   UNL     1      -3.189   6.941  -4.625  1.00  0.00     0.029 A 
ATOM     61  C   UNL     1      -1.929   7.355  -5.025  1.00  0.00     0.049 A 
ATOM     62  H   UNL     1      -0.161   6.224  -5.245  1.00  0.00     0.167 HD
ATOM     63  C   UNL     1      -0.225   9.015  -5.724  1.00  0.00     0.074 A 
ATOM     64  C   UNL     1       0.193  10.352  -6.096  1.00  0.00     0.031 C 
ATOM     65  C   UNL     1      -1.497   8.672  -5.409  1.00  0.00     0.031 A 
BRANCH  52  66
ATOM     66  C   UNL     1      -2.281   2.685  -4.184  1.00  0.00    -0.014 A 
ATOM     67  C   UNL     1      -2.375   2.256  -2.852  1.00  0.00     0.009 A 
ATOM     68  C   UNL     1      -3.124   2.114  -5.148  1.00  0.00     0.009 A 
ATOM     69  C   UNL     1      -3.280   1.254  -2.496  1.00  0.00     0.001 A 
ATOM     70  C   UNL     1      -4.037   1.122  -4.787  1.00  0.00     0.001 A 
ATOM     71  C   UNL     1      -4.110   0.689  -3.463  1.00  0.00     0.000 A 
ENDBRANCH  52  66
BRANCH  53  72
ATOM     72  C   UNL     1       4.309   9.694  -6.770  1.00  0.00    -0.014 A 
ATOM     73  C   UNL     1       4.788  10.650  -5.866  1.00  0.00     0.009 A 
ATOM     74  C   UNL     1       4.808   9.681  -8.083  1.00  0.00     0.009 A 
ATOM     75  C   UNL     1       5.747  11.581  -6.272  1.00  0.00     0.001 A 
ATOM     76  C   UNL     1       5.783  10.597  -8.478  1.00  0.00     0.001 A 
ATOM     77  C   UNL     1       6.248  11.549  -7.573  1.00  0.00     0.000 A 
ENDBRANCH  53  72
BRANCH  65  78
ATOM     78  C   UNL     1      -2.520   9.766  -5.448  1.00  0.00    -0.014 A 
ATOM     79  C   UNL     1      -3.045  10.213  -6.670  1.00  0.00     0.009 A 
ATOM     80  C   UNL     1      -2.980  10.337  -4.252  1.00  0.00     0.009 A 
ATOM     81  C   UNL     1      -3.996  11.234  -6.694  1.00  0.00     0.001 A 
ATOM     82  C   UNL     1      -3.945  11.344  -4.279  1.00  0.00     0.001 A 
ATOM     83  C   UNL     1      -4.447  11.796  -5.500  1.00  0.00     0.000 A 
ENDBRANCH  65  78
ENDBRANCH  39  40
ENDBRANCH  32  34
ENDBRANCH  31  32
ENDBRANCH  30  31
ENDBRANCH  29  30
ENDBRANCH   1  29
TORSDOF 17
