REMARK SMILES O=C(CNC(=O)N1CC(OCCOC(=O)c2ccc(-c3c4nc(c(-c5ccccc5)c5ccc([nH]5)c(-c5ccccc5)c5nc(c(-c6ccccc6)c6ccc3[nH]6)C=C5)C=C4)cc2)=Nc2ccccc21)N[C@H](C(=O)[O-])c1ccccc1
REMARK SMILES IDX 11 1 10 2 9 3 7 4 8 5 70 6 65 7 69 8 64 9 66 10 68 11 67 12
REMARK SMILES IDX 5 13 4 14 6 16 3 17 2 18 1 19 71 20 72 22 76 23 77 24 81 25
REMARK SMILES IDX 78 26 80 27 79 28 73 29 74 30 75 31 12 32 13 33 14 34 15 35
REMARK SMILES IDX 16 36 17 37 63 38 18 39 62 40 19 41 20 42 21 43 56 44 22 45
REMARK SMILES IDX 61 46 55 47 57 48 23 49 60 50 54 51 53 52 24 54 46 55 31 56
REMARK SMILES IDX 45 57 32 58 35 59 44 60 58 61 33 62 34 63 43 65 59 66 36 67
REMARK SMILES IDX 25 68 26 69 30 70 27 71 29 72 28 73 47 74 48 75 52 76 49 77
REMARK SMILES IDX 51 78 50 79 37 80 38 81 42 82 39 83 41 84 40 85
REMARK H PARENT 4 15 71 21 57 53 35 64
REMARK Flexibility Score: inf
ROOT
ATOM      1  C   UNL     1      -0.117   3.866  -3.442  1.00  0.00     0.272 C 
ENDROOT
BRANCH   1   2
ATOM      2  O   UNL     1      -0.171   2.849  -4.471  1.00  0.00    -0.476 OA
BRANCH   2   3
ATOM      3  C   UNL     1       0.579   3.034  -5.584  1.00  0.00     0.209 C 
ATOM      4  N   UNL     1       1.897   1.713  -7.154  1.00  0.00    -0.283 N 
ATOM      5  C   UNL     1       0.598   1.838  -6.504  1.00  0.00     0.224 C 
ATOM      6  C   UNL     1       2.479   2.951  -7.592  1.00  0.00     0.072 A 
ATOM      7  C   UNL     1       2.092   4.143  -6.912  1.00  0.00     0.091 A 
ATOM      8  C   UNL     1       3.568   2.998  -8.471  1.00  0.00     0.029 A 
ATOM      9  N   UNL     1       1.202   4.141  -5.820  1.00  0.00    -0.214 NA
ATOM     10  C   UNL     1       2.814   5.327  -7.104  1.00  0.00     0.030 A 
ATOM     11  C   UNL     1       4.287   4.192  -8.636  1.00  0.00     0.002 A 
ATOM     12  C   UNL     1       3.919   5.349  -7.948  1.00  0.00     0.002 A 
BRANCH   4  13
ATOM     13  C   UNL     1       2.216   0.468  -7.651  1.00  0.00     0.322 C 
ATOM     14  N   UNL     1       2.822  -0.415  -6.787  1.00  0.00    -0.329 N 
ATOM     15  H   UNL     1       2.572  -1.364  -6.871  1.00  0.00     0.165 HD
ATOM     16  O   UNL     1       1.858   0.082  -8.761  1.00  0.00    -0.248 OA
BRANCH  14  17
ATOM     17  C   UNL     1       3.799  -0.080  -5.760  1.00  0.00     0.218 C 
BRANCH  17  18
ATOM     18  C   UNL     1       3.865  -0.824  -4.412  1.00  0.00     0.240 C 
ATOM     19  O   UNL     1       4.943  -1.197  -3.951  1.00  0.00    -0.273 OA
ATOM     20  N   UNL     1       2.697  -0.828  -3.688  1.00  0.00    -0.342 N 
ATOM     21  H   UNL     1       1.903  -0.419  -4.103  1.00  0.00     0.164 HD
BRANCH  20  22
ATOM     22  C   UNL     1       2.545  -1.395  -2.344  1.00  0.00     0.158 C 
BRANCH  22  23
ATOM     23  C   UNL     1       2.825  -2.889  -2.297  1.00  0.00    -0.020 A 
ATOM     24  C   UNL     1       1.780  -3.807  -2.482  1.00  0.00     0.006 A 
ATOM     25  C   UNL     1       4.123  -3.383  -2.088  1.00  0.00     0.006 A 
ATOM     26  C   UNL     1       2.030  -5.179  -2.463  1.00  0.00     0.000 A 
ATOM     27  C   UNL     1       4.373  -4.755  -2.081  1.00  0.00     0.000 A 
ATOM     28  C   UNL     1       3.326  -5.652  -2.269  1.00  0.00     0.000 A 
ENDBRANCH  22  23
BRANCH  22  29
ATOM     29  C   UNL     1       3.145  -0.630  -1.139  1.00  0.00     0.068 C 
ATOM     30  O   UNL     1       3.219  -1.036   0.016  1.00  0.00    -0.548 OA
ATOM     31  O   UNL     1       3.467   0.658  -1.370  1.00  0.00    -0.548 OA
ENDBRANCH  22  29
ENDBRANCH  20  22
ENDBRANCH  17  18
ENDBRANCH  14  17
ENDBRANCH   4  13
ENDBRANCH   2   3
ENDBRANCH   1   2
BRANCH   1  32
ATOM     32  C   UNL     1       0.895   3.545  -2.323  1.00  0.00     0.274 C 
BRANCH  32  33
ATOM     33  O   UNL     1       2.275   3.898  -2.614  1.00  0.00    -0.458 OA
BRANCH  33  34
ATOM     34  C   UNL     1       2.954   2.923  -3.260  1.00  0.00     0.338 C 
ATOM     35  O   UNL     1       2.443   1.878  -3.650  1.00  0.00    -0.246 OA
BRANCH  34  36
ATOM     36  C   UNL     1       4.351   3.277  -3.651  1.00  0.00     0.060 A 
ATOM     37  C   UNL     1       4.599   3.087  -4.999  1.00  0.00     0.016 A 
ATOM     38  C   UNL     1       5.441   3.586  -2.842  1.00  0.00     0.016 A 
ATOM     39  C   UNL     1       5.856   3.115  -5.569  1.00  0.00     0.010 A 
ATOM     40  C   UNL     1       6.744   3.680  -3.419  1.00  0.00     0.010 A 
ATOM     41  C   UNL     1       6.956   3.437  -4.792  1.00  0.00    -0.014 A 
BRANCH  41  42
ATOM     42  C   UNL     1       8.243   3.478  -5.539  1.00  0.00     0.031 A 
ATOM     43  C   UNL     1       9.115   2.256  -5.624  1.00  0.00     0.074 A 
ATOM     44  C   UNL     1       8.454   4.482  -6.418  1.00  0.00     0.049 A 
ATOM     45  N   UNL     1      10.222   2.078  -6.303  1.00  0.00    -0.248 NA
ATOM     46  C   UNL     1       8.662   1.069  -4.885  1.00  0.00     0.031 C 
ATOM     47  C   UNL     1       7.546   5.612  -6.628  1.00  0.00     0.029 A 
ATOM     48  N   UNL     1       9.436   4.669  -7.362  1.00  0.00    -0.354 N 
ATOM     49  C   UNL     1      10.624   0.775  -6.037  1.00  0.00     0.074 A 
ATOM     50  C   UNL     1       9.619   0.196  -5.169  1.00  0.00     0.031 C 
ATOM     51  C   UNL     1       7.979   6.335  -7.673  1.00  0.00     0.029 A 
ATOM     52  C   UNL     1       9.243   5.782  -8.149  1.00  0.00     0.049 A 
ATOM     53  H   UNL     1      10.206   4.064  -7.465  1.00  0.00     0.167 HD
ATOM     54  C   UNL     1      11.749   0.138  -6.447  1.00  0.00     0.031 A 
ATOM     55  C   UNL     1      10.013   6.319  -9.118  1.00  0.00     0.031 A 
ATOM     56  C   UNL     1      12.753   0.722  -7.300  1.00  0.00     0.049 A 
ATOM     57  C   UNL     1      11.331   5.667  -9.440  1.00  0.00     0.074 A 
ATOM     58  C   UNL     1      13.991   0.213  -7.657  1.00  0.00     0.029 A 
ATOM     59  N   UNL     1      12.629   1.946  -7.938  1.00  0.00    -0.354 N 
ATOM     60  N   UNL     1      11.801   4.511  -9.040  1.00  0.00    -0.248 NA
ATOM     61  C   UNL     1      12.245   6.417 -10.315  1.00  0.00     0.031 C 
ATOM     62  C   UNL     1      14.640   1.160  -8.459  1.00  0.00     0.029 A 
ATOM     63  C   UNL     1      13.778   2.225  -8.661  1.00  0.00     0.049 A 
ATOM     64  H   UNL     1      11.840   2.533  -7.885  1.00  0.00     0.167 HD
ATOM     65  C   UNL     1      13.065   4.398  -9.606  1.00  0.00     0.074 A 
ATOM     66  C   UNL     1      13.269   5.581 -10.415  1.00  0.00     0.031 C 
ATOM     67  C   UNL     1      13.982   3.412  -9.451  1.00  0.00     0.031 A 
BRANCH  54  68
ATOM     68  C   UNL     1      12.018  -1.214  -5.848  1.00  0.00    -0.014 A 
ATOM     69  C   UNL     1      11.331  -2.368  -6.250  1.00  0.00     0.009 A 
ATOM     70  C   UNL     1      12.990  -1.318  -4.838  1.00  0.00     0.009 A 
ATOM     71  C   UNL     1      11.585  -3.592  -5.623  1.00  0.00     0.001 A 
ATOM     72  C   UNL     1      13.260  -2.545  -4.232  1.00  0.00     0.001 A 
ATOM     73  C   UNL     1      12.549  -3.679  -4.617  1.00  0.00     0.000 A 
ENDBRANCH  54  68
BRANCH  55  74
ATOM     74  C   UNL     1       9.630   7.603  -9.775  1.00  0.00    -0.014 A 
ATOM     75  C   UNL     1       9.446   7.688 -11.165  1.00  0.00     0.009 A 
ATOM     76  C   UNL     1       9.512   8.777  -9.012  1.00  0.00     0.009 A 
ATOM     77  C   UNL     1       9.175   8.919 -11.772  1.00  0.00     0.001 A 
ATOM     78  C   UNL     1       9.200   9.997  -9.615  1.00  0.00     0.001 A 
ATOM     79  C   UNL     1       9.045  10.070 -10.996  1.00  0.00     0.000 A 
ENDBRANCH  55  74
BRANCH  67  80
ATOM     80  C   UNL     1      15.287   3.568 -10.184  1.00  0.00    -0.014 A 
ATOM     81  C   UNL     1      16.230   4.533  -9.796  1.00  0.00     0.009 A 
ATOM     82  C   UNL     1      15.585   2.726 -11.267  1.00  0.00     0.009 A 
ATOM     83  C   UNL     1      17.427   4.678 -10.502  1.00  0.00     0.001 A 
ATOM     84  C   UNL     1      16.795   2.853 -11.952  1.00  0.00     0.001 A 
ATOM     85  C   UNL     1      17.709   3.836 -11.577  1.00  0.00     0.000 A 
ENDBRANCH  67  80
ENDBRANCH  41  42
ENDBRANCH  34  36
ENDBRANCH  33  34
ENDBRANCH  32  33
ENDBRANCH   1  32
TORSDOF 16
