REMARK SMILES O=C(Cn1cnc(-c2ccccc2)c1-c1ccccc1)OCCOC(=O)c1ccc(-c2c3nc(c(-c4ccccc4)c4ccc([nH]4)c(-c4ccccc4)c4nc(c(-c5ccccc5)c5ccc2[nH]5)C=C4)C=C3)cc1
REMARK SMILES IDX 22 1 21 2 2 3 1 4 3 5 4 6 5 7 14 8 6 9 7 10 15 11 16 12
REMARK SMILES IDX 20 13 17 14 19 15 18 16 8 17 9 18 13 19 10 20 12 21 11 22
REMARK SMILES IDX 23 23 24 24 25 25 26 26 27 27 28 28 74 29 29 30 73 31 30 32
REMARK SMILES IDX 31 33 32 34 67 35 33 36 72 37 66 38 68 39 34 40 71 41 65 42
REMARK SMILES IDX 64 43 35 45 57 46 42 47 56 48 43 49 46 50 55 51 69 52 44 53
REMARK SMILES IDX 45 54 54 56 70 57 47 58 36 59 37 60 41 61 38 62 40 63 39 64
REMARK SMILES IDX 58 65 59 66 63 67 60 68 62 69 61 70 48 71 49 72 53 73 50 74
REMARK SMILES IDX 52 75 51 76
REMARK H PARENT 68 44 46 55
REMARK Flexibility Score: inf
ROOT
ATOM      1  C   UNL     1       4.217   0.827  -1.565  1.00  0.00     0.274 C 
ENDROOT
BRANCH   1   2
ATOM      2  O   UNL     1       2.836   0.411  -1.508  1.00  0.00    -0.461 OA
BRANCH   2   3
ATOM      3  C   UNL     1       2.273  -0.508  -0.688  1.00  0.00     0.326 C 
ATOM      4  O   UNL     1       1.114  -0.859  -0.905  1.00  0.00    -0.250 OA
BRANCH   3   5
ATOM      5  C   UNL     1       3.032  -1.039   0.504  1.00  0.00     0.246 C 
BRANCH   5   6
ATOM      6  N   UNL     1       3.760  -2.269   0.275  1.00  0.00    -0.319 N 
ATOM      7  C   UNL     1       5.110  -2.307   0.041  1.00  0.00     0.201 A 
ATOM      8  C   UNL     1       3.346  -3.563   0.507  1.00  0.00     0.076 A 
ATOM      9  N   UNL     1       5.539  -3.528  -0.134  1.00  0.00    -0.236 NA
ATOM     10  C   UNL     1       4.444  -4.318   0.107  1.00  0.00     0.096 A 
BRANCH   8  11
ATOM     11  C   UNL     1       2.097  -3.966   1.158  1.00  0.00     0.000 A 
ATOM     12  C   UNL     1       2.155  -4.713   2.345  1.00  0.00     0.010 A 
ATOM     13  C   UNL     1       0.844  -3.638   0.636  1.00  0.00     0.010 A 
ATOM     14  C   UNL     1       0.988  -5.108   3.001  1.00  0.00     0.001 A 
ATOM     15  C   UNL     1      -0.325  -4.013   1.304  1.00  0.00     0.001 A 
ATOM     16  C   UNL     1      -0.254  -4.750   2.484  1.00  0.00     0.000 A 
ENDBRANCH   8  11
BRANCH  10  17
ATOM     17  C   UNL     1       4.498  -5.759   0.021  1.00  0.00     0.002 A 
ATOM     18  C   UNL     1       5.586  -6.450   0.564  1.00  0.00     0.010 A 
ATOM     19  C   UNL     1       3.477  -6.466  -0.625  1.00  0.00     0.010 A 
ATOM     20  C   UNL     1       5.634  -7.842   0.488  1.00  0.00     0.001 A 
ATOM     21  C   UNL     1       3.530  -7.855  -0.705  1.00  0.00     0.001 A 
ATOM     22  C   UNL     1       4.606  -8.542  -0.144  1.00  0.00     0.000 A 
ENDBRANCH  10  17
ENDBRANCH   5   6
ENDBRANCH   3   5
ENDBRANCH   2   3
ENDBRANCH   1   2
BRANCH   1  23
ATOM     23  C   UNL     1       4.476   2.130  -0.820  1.00  0.00     0.275 C 
BRANCH  23  24
ATOM     24  O   UNL     1       4.341   1.923   0.581  1.00  0.00    -0.458 OA
BRANCH  24  25
ATOM     25  C   UNL     1       3.093   2.070   1.098  1.00  0.00     0.338 C 
ATOM     26  O   UNL     1       2.089   2.392   0.525  1.00  0.00    -0.246 OA
BRANCH  25  27
ATOM     27  C   UNL     1       3.205   1.770   2.538  1.00  0.00     0.060 A 
ATOM     28  C   UNL     1       2.186   2.245   3.360  1.00  0.00     0.016 A 
ATOM     29  C   UNL     1       4.401   1.241   3.055  1.00  0.00     0.016 A 
ATOM     30  C   UNL     1       2.495   2.481   4.679  1.00  0.00     0.010 A 
ATOM     31  C   UNL     1       4.710   1.478   4.365  1.00  0.00     0.010 A 
ATOM     32  C   UNL     1       3.798   2.215   5.108  1.00  0.00    -0.014 A 
BRANCH  32  33
ATOM     33  C   UNL     1       4.249   2.830   6.329  1.00  0.00     0.031 A 
ATOM     34  C   UNL     1       3.850   2.111   7.545  1.00  0.00     0.074 A 
ATOM     35  C   UNL     1       5.043   3.916   6.301  1.00  0.00     0.049 A 
ATOM     36  N   UNL     1       2.983   2.485   8.423  1.00  0.00    -0.248 NA
ATOM     37  C   UNL     1       4.358   0.743   7.724  1.00  0.00     0.031 C 
ATOM     38  C   UNL     1       5.729   4.518   5.151  1.00  0.00     0.029 A 
ATOM     39  N   UNL     1       5.500   4.649   7.346  1.00  0.00    -0.354 N 
ATOM     40  C   UNL     1       2.983   1.483   9.382  1.00  0.00     0.074 A 
ATOM     41  C   UNL     1       3.682   0.361   8.805  1.00  0.00     0.031 C 
ATOM     42  C   UNL     1       6.690   5.359   5.599  1.00  0.00     0.029 A 
ATOM     43  C   UNL     1       6.589   5.452   7.046  1.00  0.00     0.049 A 
ATOM     44  H   UNL     1       5.093   4.614   8.241  1.00  0.00     0.167 HD
ATOM     45  C   UNL     1       2.674   1.752  10.677  1.00  0.00     0.031 A 
ATOM     46  C   UNL     1       7.391   6.071   7.947  1.00  0.00     0.031 A 
ATOM     47  C   UNL     1       1.994   3.014  10.818  1.00  0.00     0.049 A 
ATOM     48  C   UNL     1       6.654   6.130   9.234  1.00  0.00     0.074 A 
ATOM     49  C   UNL     1       0.820   3.546  10.322  1.00  0.00     0.029 A 
ATOM     50  N   UNL     1       2.739   4.086  11.253  1.00  0.00    -0.354 N 
ATOM     51  N   UNL     1       5.589   6.857   9.414  1.00  0.00    -0.248 NA
ATOM     52  C   UNL     1       6.819   5.029  10.172  1.00  0.00     0.031 C 
ATOM     53  C   UNL     1       1.118   4.915  10.053  1.00  0.00     0.029 A 
ATOM     54  C   UNL     1       2.435   5.155  10.451  1.00  0.00     0.049 A 
ATOM     55  H   UNL     1       3.375   4.085  12.005  1.00  0.00     0.167 HD
ATOM     56  C   UNL     1       4.741   6.065  10.177  1.00  0.00     0.074 A 
ATOM     57  C   UNL     1       5.591   4.997  10.700  1.00  0.00     0.031 C 
ATOM     58  C   UNL     1       3.383   6.181  10.073  1.00  0.00     0.031 A 
BRANCH  45  59
ATOM     59  C   UNL     1       3.386   1.088  11.825  1.00  0.00    -0.014 A 
ATOM     60  C   UNL     1       2.950   1.354  13.131  1.00  0.00     0.009 A 
ATOM     61  C   UNL     1       4.632   0.443  11.688  1.00  0.00     0.009 A 
ATOM     62  C   UNL     1       3.753   1.050  14.236  1.00  0.00     0.001 A 
ATOM     63  C   UNL     1       5.415   0.098  12.789  1.00  0.00     0.001 A 
ATOM     64  C   UNL     1       4.987   0.428  14.064  1.00  0.00     0.000 A 
ENDBRANCH  45  59
BRANCH  46  65
ATOM     65  C   UNL     1       8.850   6.297   7.853  1.00  0.00    -0.014 A 
ATOM     66  C   UNL     1       9.496   7.207   8.704  1.00  0.00     0.009 A 
ATOM     67  C   UNL     1       9.655   5.418   7.103  1.00  0.00     0.009 A 
ATOM     68  C   UNL     1      10.893   7.212   8.822  1.00  0.00     0.001 A 
ATOM     69  C   UNL     1      11.048   5.426   7.218  1.00  0.00     0.001 A 
ATOM     70  C   UNL     1      11.667   6.313   8.090  1.00  0.00     0.000 A 
ENDBRANCH  46  65
BRANCH  58  71
ATOM     71  C   UNL     1       2.839   7.337   9.267  1.00  0.00    -0.014 A 
ATOM     72  C   UNL     1       3.090   7.494   7.891  1.00  0.00     0.009 A 
ATOM     73  C   UNL     1       1.925   8.207   9.877  1.00  0.00     0.009 A 
ATOM     74  C   UNL     1       2.470   8.513   7.159  1.00  0.00     0.001 A 
ATOM     75  C   UNL     1       1.290   9.211   9.142  1.00  0.00     0.001 A 
ATOM     76  C   UNL     1       1.567   9.368   7.785  1.00  0.00     0.000 A 
ENDBRANCH  58  71
ENDBRANCH  32  33
ENDBRANCH  25  27
ENDBRANCH  24  25
ENDBRANCH  23  24
ENDBRANCH   1  23
TORSDOF 14
