REMARK SMILES CCC(CC)(NC(=O)c1c(C)noc1C)C(=O)OCCOC(=O)c1ccc(-c2c3nc(c(-c4ccccc4)c4ccc([nH]4)c(-c4ccccc4)c4nc(c(-c5ccccc5)c5ccc2[nH]5)C=C4)C=C3)cc1
REMARK SMILES IDX 19 1 18 2 16 3 17 4 3 5 2 6 1 7 4 8 5 9 6 10 7 11 8 13 9 14
REMARK SMILES IDX 10 15 14 16 11 17 12 18 13 19 15 20 20 21 21 22 22 23 23 24
REMARK SMILES IDX 24 25 25 26 71 27 26 28 70 29 27 30 28 31 29 32 64 33 30 34
REMARK SMILES IDX 69 35 63 36 65 37 31 38 68 39 62 40 61 41 32 43 54 44 39 45
REMARK SMILES IDX 53 46 40 47 43 48 52 49 66 50 41 51 42 52 51 54 67 55 44 56
REMARK SMILES IDX 33 57 34 58 38 59 35 60 37 61 36 62 55 63 56 64 60 65 57 66
REMARK SMILES IDX 59 67 58 68 45 69 46 70 50 71 47 72 49 73 48 74
REMARK H PARENT 6 12 65 42 43 53
REMARK Flexibility Score: inf
ROOT
ATOM      1  C   UNL     1       4.749  -2.346  -0.650  1.00  0.00     0.274 C 
ENDROOT
BRANCH   1   2
ATOM      2  O   UNL     1       3.386  -2.453  -1.126  1.00  0.00    -0.460 OA
BRANCH   2   3
ATOM      3  C   UNL     1       2.435  -2.306  -0.172  1.00  0.00     0.331 C 
ATOM      4  O   UNL     1       2.688  -1.933   0.971  1.00  0.00    -0.249 OA
BRANCH   3   5
ATOM      5  C   UNL     1       0.985  -2.638  -0.649  1.00  0.00     0.137 C 
BRANCH   5   6
ATOM      6  C   UNL     1       0.222  -1.272  -0.801  1.00  0.00     0.037 C 
ATOM      7  C   UNL     1       0.232  -0.304   0.374  1.00  0.00     0.007 C 
ENDBRANCH   5   6
BRANCH   5   8
ATOM      8  C   UNL     1       0.334  -3.521   0.456  1.00  0.00     0.037 C 
ATOM      9  C   UNL     1      -1.188  -3.616   0.438  1.00  0.00     0.007 C 
ENDBRANCH   5   8
BRANCH   5  10
ATOM     10  N   UNL     1       0.784  -3.285  -1.986  1.00  0.00    -0.336 N 
ATOM     11  C   UNL     1       1.282  -4.326  -2.716  1.00  0.00     0.257 C 
ATOM     12  H   UNL     1       0.080  -2.818  -2.490  1.00  0.00     0.165 HD
ATOM     13  O   UNL     1       0.524  -4.780  -3.576  1.00  0.00    -0.269 OA
BRANCH  11  14
ATOM     14  C   UNL     1       2.655  -4.754  -2.669  1.00  0.00     0.105 A 
ATOM     15  C   UNL     1       3.567  -4.712  -3.770  1.00  0.00     0.093 A 
ATOM     16  C   UNL     1       3.361  -5.434  -1.700  1.00  0.00     0.146 A 
ATOM     17  C   UNL     1       3.342  -4.186  -5.141  1.00  0.00     0.071 C 
ATOM     18  N   UNL     1       4.748  -5.254  -3.453  1.00  0.00    -0.084 NA
ATOM     19  O   UNL     1       4.615  -5.699  -2.158  1.00  0.00    -0.361 OA
ATOM     20  C   UNL     1       3.080  -5.961  -0.356  1.00  0.00     0.092 C 
ENDBRANCH  11  14
ENDBRANCH   5  10
ENDBRANCH   3   5
ENDBRANCH   2   3
ENDBRANCH   1   2
BRANCH   1  21
ATOM     21  C   UNL     1       5.681  -1.979  -1.799  1.00  0.00     0.275 C 
BRANCH  21  22
ATOM     22  O   UNL     1       5.330  -0.653  -2.226  1.00  0.00    -0.458 OA
BRANCH  22  23
ATOM     23  C   UNL     1       4.597  -0.586  -3.354  1.00  0.00     0.338 C 
ATOM     24  O   UNL     1       4.403  -1.447  -4.199  1.00  0.00    -0.246 OA
BRANCH  23  25
ATOM     25  C   UNL     1       3.887   0.689  -3.342  1.00  0.00     0.060 A 
ATOM     26  C   UNL     1       2.801   0.819  -2.477  1.00  0.00     0.016 A 
ATOM     27  C   UNL     1       4.233   1.709  -4.221  1.00  0.00     0.016 A 
ATOM     28  C   UNL     1       2.013   1.960  -2.516  1.00  0.00     0.010 A 
ATOM     29  C   UNL     1       3.488   2.888  -4.204  1.00  0.00     0.010 A 
ATOM     30  C   UNL     1       2.367   3.018  -3.362  1.00  0.00    -0.014 A 
BRANCH  30  31
ATOM     31  C   UNL     1       1.578   4.272  -3.369  1.00  0.00     0.031 A 
ATOM     32  C   UNL     1       0.885   4.710  -4.625  1.00  0.00     0.074 A 
ATOM     33  C   UNL     1       1.515   5.030  -2.258  1.00  0.00     0.049 A 
ATOM     34  N   UNL     1       0.371   5.875  -4.920  1.00  0.00    -0.248 NA
ATOM     35  C   UNL     1       0.766   3.707  -5.697  1.00  0.00     0.031 C 
ATOM     36  C   UNL     1       2.092   4.683  -0.956  1.00  0.00     0.029 A 
ATOM     37  N   UNL     1       0.944   6.259  -2.050  1.00  0.00    -0.354 N 
ATOM     38  C   UNL     1      -0.078   5.767  -6.229  1.00  0.00     0.074 A 
ATOM     39  C   UNL     1       0.209   4.418  -6.668  1.00  0.00     0.031 C 
ATOM     40  C   UNL     1       1.830   5.667  -0.083  1.00  0.00     0.029 A 
ATOM     41  C   UNL     1       1.151   6.749  -0.784  1.00  0.00     0.049 A 
ATOM     42  H   UNL     1       0.435   6.742  -2.741  1.00  0.00     0.167 HD
ATOM     43  C   UNL     1      -0.659   6.718  -6.998  1.00  0.00     0.031 A 
ATOM     44  C   UNL     1       0.880   7.958  -0.261  1.00  0.00     0.031 A 
ATOM     45  C   UNL     1      -0.954   8.050  -6.541  1.00  0.00     0.049 A 
ATOM     46  C   UNL     1       0.275   9.009  -1.144  1.00  0.00     0.074 A 
ATOM     47  C   UNL     1      -1.521   9.100  -7.242  1.00  0.00     0.029 A 
ATOM     48  N   UNL     1      -0.715   8.508  -5.254  1.00  0.00    -0.354 N 
ATOM     49  N   UNL     1      -0.074   8.924  -2.405  1.00  0.00    -0.248 NA
ATOM     50  C   UNL     1       0.048  10.328  -0.538  1.00  0.00     0.031 C 
ATOM     51  C   UNL     1      -1.599  10.204  -6.385  1.00  0.00     0.029 A 
ATOM     52  C   UNL     1      -1.117   9.828  -5.141  1.00  0.00     0.049 A 
ATOM     53  H   UNL     1      -0.318   7.974  -4.529  1.00  0.00     0.167 HD
ATOM     54  C   UNL     1      -0.566  10.176  -2.744  1.00  0.00     0.074 A 
ATOM     55  C   UNL     1      -0.491  10.994  -1.550  1.00  0.00     0.031 C 
ATOM     56  C   UNL     1      -1.029  10.615  -3.940  1.00  0.00     0.031 A 
BRANCH  43  57
ATOM     57  C   UNL     1      -0.957   6.365  -8.426  1.00  0.00    -0.014 A 
ATOM     58  C   UNL     1      -2.036   5.536  -8.768  1.00  0.00     0.009 A 
ATOM     59  C   UNL     1      -0.153   6.892  -9.449  1.00  0.00     0.009 A 
ATOM     60  C   UNL     1      -2.285   5.219 -10.106  1.00  0.00     0.001 A 
ATOM     61  C   UNL     1      -0.417   6.591 -10.786  1.00  0.00     0.001 A 
ATOM     62  C   UNL     1      -1.478   5.749 -11.113  1.00  0.00     0.000 A 
ENDBRANCH  43  57
BRANCH  44  63
ATOM     63  C   UNL     1       1.244   8.254   1.148  1.00  0.00    -0.014 A 
ATOM     64  C   UNL     1       0.249   8.400   2.126  1.00  0.00     0.009 A 
ATOM     65  C   UNL     1       2.591   8.371   1.527  1.00  0.00     0.009 A 
ATOM     66  C   UNL     1       0.596   8.670   3.452  1.00  0.00     0.001 A 
ATOM     67  C   UNL     1       2.936   8.612   2.858  1.00  0.00     0.001 A 
ATOM     68  C   UNL     1       1.938   8.768   3.818  1.00  0.00     0.000 A 
ENDBRANCH  44  63
BRANCH  56  69
ATOM     69  C   UNL     1      -1.513  12.032  -3.994  1.00  0.00    -0.014 A 
ATOM     70  C   UNL     1      -0.608  13.103  -4.046  1.00  0.00     0.009 A 
ATOM     71  C   UNL     1      -2.891  12.296  -4.016  1.00  0.00     0.009 A 
ATOM     72  C   UNL     1      -1.077  14.417  -4.090  1.00  0.00     0.001 A 
ATOM     73  C   UNL     1      -3.356  13.609  -4.080  1.00  0.00     0.001 A 
ATOM     74  C   UNL     1      -2.449  14.668  -4.109  1.00  0.00     0.000 A 
ENDBRANCH  56  69
ENDBRANCH  30  31
ENDBRANCH  23  25
ENDBRANCH  22  23
ENDBRANCH  21  22
ENDBRANCH   1  21
TORSDOF 15
