REMARK SMILES COc1ccc([C@H]2CC(c3ccc(S(C)(=O)=O)cc3)=NN2c2ccc(C(=O)OCCOC(=O)c3ccc(-c4c5nc(c(-c6ccccc6)c6ccc([nH]6)c(-c6ccccc6)c6nc(c(-c7ccccc7)c7ccc4[nH]7)C=C6)C=C5)cc3)cc2)cc1OC
REMARK SMILES IDX 29 1 28 2 26 3 27 4 25 5 22 6 23 7 83 8 24 9 82 10 21 11
REMARK SMILES IDX 7 12 8 13 9 14 20 15 6 16 3 17 4 18 85 19 5 20 84 21 2 22
REMARK SMILES IDX 1 23 86 24 87 25 10 26 11 27 19 28 12 29 18 30 13 31 14 32
REMARK SMILES IDX 15 33 16 34 17 35 30 36 31 37 32 38 33 39 34 40 35 41 81 42
REMARK SMILES IDX 36 43 80 44 37 45 38 46 39 47 74 48 40 49 79 50 73 51 75 52
REMARK SMILES IDX 41 53 78 54 72 55 71 56 42 58 64 59 49 60 63 61 50 62 53 63
REMARK SMILES IDX 62 64 76 65 51 66 52 67 61 69 77 70 54 71 43 72 44 73 48 74
REMARK SMILES IDX 45 75 47 76 46 77 65 78 66 79 70 80 67 81 69 82 68 83 55 84
REMARK SMILES IDX 56 85 60 86 57 87 59 88 58 89
REMARK H PARENT 75 57 53 68
REMARK Flexibility Score: inf
ROOT
ATOM      1  C   UNL     1       2.010   7.471   8.114  1.00  0.00     0.275 C 
ENDROOT
BRANCH   1   2
ATOM      2  O   UNL     1       2.083   6.031   8.163  1.00  0.00    -0.458 OA
BRANCH   2   3
ATOM      3  C   UNL     1       2.392   5.431   6.986  1.00  0.00     0.338 C 
ATOM      4  O   UNL     1       2.606   5.981   5.921  1.00  0.00    -0.246 OA
BRANCH   3   5
ATOM      5  C   UNL     1       2.519   3.969   7.160  1.00  0.00     0.060 A 
ATOM      6  C   UNL     1       2.736   1.163   7.216  1.00  0.00     0.060 A 
ATOM      7  C   UNL     1       3.764   1.949   6.689  1.00  0.00     0.029 A 
ATOM      8  C   UNL     1       1.610   1.809   7.749  1.00  0.00     0.029 A 
ATOM      9  C   UNL     1       3.639   3.332   6.623  1.00  0.00     0.018 A 
ATOM     10  C   UNL     1       1.507   3.209   7.747  1.00  0.00     0.018 A 
BRANCH   6  11
ATOM     11  N   UNL     1       2.836  -0.221   7.165  1.00  0.00    -0.257 N 
ATOM     12  C   UNL     1       1.918  -1.060   6.388  1.00  0.00     0.144 C 
ATOM     13  C   UNL     1       2.610  -2.432   6.429  1.00  0.00     0.091 C 
ATOM     14  C   UNL     1       3.917  -2.054   7.067  1.00  0.00     0.071 C 
ATOM     15  N   UNL     1       4.020  -0.824   7.460  1.00  0.00    -0.176 NA
BRANCH  12  16
ATOM     16  C   UNL     1       1.693  -0.558   4.965  1.00  0.00    -0.019 A 
ATOM     17  C   UNL     1       1.235   0.353   2.329  1.00  0.00     0.160 A 
ATOM     18  C   UNL     1       0.195   0.334   3.267  1.00  0.00     0.051 A 
ATOM     19  C   UNL     1       2.520  -0.052   2.706  1.00  0.00     0.161 A 
ATOM     20  C   UNL     1       0.419  -0.126   4.568  1.00  0.00     0.010 A 
ATOM     21  C   UNL     1       2.736  -0.489   4.023  1.00  0.00     0.056 A 
BRANCH  17  22
ATOM     22  O   UNL     1       0.996   0.872   1.084  1.00  0.00    -0.493 OA
ATOM     23  C   UNL     1       0.056   0.096   0.341  1.00  0.00     0.278 C 
ENDBRANCH  17  22
BRANCH  19  24
ATOM     24  O   UNL     1       3.656  -0.072   1.940  1.00  0.00    -0.493 OA
ATOM     25  C   UNL     1       3.505  -0.054   0.528  1.00  0.00     0.278 C 
ENDBRANCH  19  24
ENDBRANCH  12  16
BRANCH  14  26
ATOM     26  C   UNL     1       4.968  -3.051   7.311  1.00  0.00    -0.002 A 
ATOM     27  C   UNL     1       5.500  -3.144   8.602  1.00  0.00     0.011 A 
ATOM     28  C   UNL     1       5.409  -3.902   6.295  1.00  0.00     0.011 A 
ATOM     29  C   UNL     1       6.451  -4.121   8.895  1.00  0.00     0.021 A 
ATOM     30  C   UNL     1       6.383  -4.864   6.578  1.00  0.00     0.021 A 
ATOM     31  C   UNL     1       6.891  -4.974   7.878  1.00  0.00     0.067 A 
BRANCH  31  32
ATOM     32  S   UNL     1       8.064  -6.252   8.272  1.00  0.00     0.175 S 
ATOM     33  C   UNL     1       9.503  -5.380   8.831  1.00  0.00     0.163 C 
ATOM     34  O   UNL     1       7.512  -6.990   9.390  1.00  0.00    -0.224 OA
ATOM     35  O   UNL     1       8.412  -6.923   7.033  1.00  0.00    -0.224 OA
ENDBRANCH  31  32
ENDBRANCH  14  26
ENDBRANCH   6  11
ENDBRANCH   3   5
ENDBRANCH   2   3
ENDBRANCH   1   2
BRANCH   1  36
ATOM     36  C   UNL     1       3.309   8.116   8.598  1.00  0.00     0.275 C 
BRANCH  36  37
ATOM     37  O   UNL     1       4.386   7.795   7.699  1.00  0.00    -0.458 OA
BRANCH  37  38
ATOM     38  C   UNL     1       5.471   7.218   8.260  1.00  0.00     0.338 C 
ATOM     39  O   UNL     1       5.665   6.994   9.446  1.00  0.00    -0.246 OA
BRANCH  38  40
ATOM     40  C   UNL     1       6.450   6.860   7.220  1.00  0.00     0.060 A 
ATOM     41  C   UNL     1       6.068   6.041   6.164  1.00  0.00     0.016 A 
ATOM     42  C   UNL     1       7.789   7.214   7.370  1.00  0.00     0.016 A 
ATOM     43  C   UNL     1       7.030   5.455   5.344  1.00  0.00     0.010 A 
ATOM     44  C   UNL     1       8.739   6.738   6.457  1.00  0.00     0.010 A 
ATOM     45  C   UNL     1       8.381   5.811   5.460  1.00  0.00    -0.014 A 
BRANCH  45  46
ATOM     46  C   UNL     1       9.414   5.208   4.564  1.00  0.00     0.031 A 
ATOM     47  C   UNL     1      10.629   4.524   5.146  1.00  0.00     0.074 A 
ATOM     48  C   UNL     1       9.279   5.263   3.223  1.00  0.00     0.049 A 
ATOM     49  N   UNL     1      11.722   4.122   4.544  1.00  0.00    -0.248 NA
ATOM     50  C   UNL     1      10.622   4.277   6.596  1.00  0.00     0.031 C 
ATOM     51  C   UNL     1       8.142   5.841   2.502  1.00  0.00     0.029 A 
ATOM     52  N   UNL     1      10.105   4.812   2.221  1.00  0.00    -0.354 N 
ATOM     53  C   UNL     1      12.555   3.640   5.548  1.00  0.00     0.074 A 
ATOM     54  C   UNL     1      11.844   3.801   6.797  1.00  0.00     0.031 C 
ATOM     55  C   UNL     1       8.314   5.658   1.185  1.00  0.00     0.029 A 
ATOM     56  C   UNL     1       9.619   5.051   0.958  1.00  0.00     0.049 A 
ATOM     57  H   UNL     1      10.964   4.361   2.392  1.00  0.00     0.167 HD
ATOM     58  C   UNL     1      13.801   3.117   5.440  1.00  0.00     0.031 A 
ATOM     59  C   UNL     1      10.171   4.854  -0.254  1.00  0.00     0.031 A 
ATOM     60  C   UNL     1      14.491   2.906   4.194  1.00  0.00     0.049 A 
ATOM     61  C   UNL     1      11.566   4.313  -0.348  1.00  0.00     0.074 A 
ATOM     62  C   UNL     1      15.749   2.365   3.985  1.00  0.00     0.029 A 
ATOM     63  N   UNL     1      13.975   3.211   2.945  1.00  0.00    -0.354 N 
ATOM     64  N   UNL     1      12.367   3.926   0.614  1.00  0.00    -0.248 NA
ATOM     65  C   UNL     1      12.143   4.205  -1.696  1.00  0.00     0.031 C 
ATOM     66  C   UNL     1      16.010   2.380   2.610  1.00  0.00     0.029 A 
ATOM     67  C   UNL     1      14.895   2.885   1.961  1.00  0.00     0.049 A 
ATOM     68  H   UNL     1      13.086   3.600   2.780  1.00  0.00     0.167 HD
ATOM     69  C   UNL     1      13.540   3.524  -0.011  1.00  0.00     0.074 A 
ATOM     70  C   UNL     1      13.337   3.692  -1.435  1.00  0.00     0.031 C 
ATOM     71  C   UNL     1      14.684   3.064   0.549  1.00  0.00     0.031 A 
BRANCH  58  72
ATOM     72  C   UNL     1      14.523   2.775   6.715  1.00  0.00    -0.014 A 
ATOM     73  C   UNL     1      14.164   1.665   7.494  1.00  0.00     0.009 A 
ATOM     74  C   UNL     1      15.607   3.569   7.125  1.00  0.00     0.009 A 
ATOM     75  C   UNL     1      14.853   1.378   8.676  1.00  0.00     0.001 A 
ATOM     76  C   UNL     1      16.312   3.264   8.291  1.00  0.00     0.001 A 
ATOM     77  C   UNL     1      15.928   2.175   9.071  1.00  0.00     0.000 A 
ENDBRANCH  58  72
BRANCH  59  78
ATOM     78  C   UNL     1       9.416   5.231  -1.478  1.00  0.00    -0.014 A 
ATOM     79  C   UNL     1       8.921   4.244  -2.342  1.00  0.00     0.009 A 
ATOM     80  C   UNL     1       9.168   6.582  -1.774  1.00  0.00     0.009 A 
ATOM     81  C   UNL     1       8.198   4.603  -3.482  1.00  0.00     0.001 A 
ATOM     82  C   UNL     1       8.418   6.935  -2.897  1.00  0.00     0.001 A 
ATOM     83  C   UNL     1       7.940   5.946  -3.754  1.00  0.00     0.000 A 
ENDBRANCH  59  78
BRANCH  71  84
ATOM     84  C   UNL     1      15.794   2.686  -0.387  1.00  0.00    -0.014 A 
ATOM     85  C   UNL     1      16.564   3.666  -1.032  1.00  0.00     0.009 A 
ATOM     86  C   UNL     1      16.088   1.332  -0.608  1.00  0.00     0.009 A 
ATOM     87  C   UNL     1      17.588   3.295  -1.906  1.00  0.00     0.001 A 
ATOM     88  C   UNL     1      17.128   0.965  -1.464  1.00  0.00     0.001 A 
ATOM     89  C   UNL     1      17.871   1.946  -2.118  1.00  0.00     0.000 A 
ENDBRANCH  71  84
ENDBRANCH  45  46
ENDBRANCH  38  40
ENDBRANCH  37  38
ENDBRANCH  36  37
ENDBRANCH   1  36
TORSDOF 17
