REMARK SMILES CC[C@H](C)CN(CC)C(=O)Nc1ccc(C(=O)OCCOC(=O)c2ccc(-c3c4nc(c(-c5ccccc5)c5ccc([nH]5)c(-c5ccccc5)c5nc(c(-c6ccccc6)c6ccc3[nH]6)C=C5)C=C4)cc2)cc1Cl
REMARK SMILES IDX 18 1 16 2 17 3 15 4 12 5 13 6 73 7 14 8 72 9 74 10 11 11
REMARK SMILES IDX 9 12 10 13 6 15 5 16 3 17 4 18 2 19 1 20 7 21 8 22 19 23
REMARK SMILES IDX 20 24 21 25 22 26 23 27 24 28 25 29 71 30 26 31 70 32 27 33
REMARK SMILES IDX 28 34 29 35 64 36 30 37 69 38 63 39 65 40 31 41 68 42 62 43
REMARK SMILES IDX 61 44 32 46 54 47 39 48 53 49 40 50 43 51 52 52 66 53 41 54
REMARK SMILES IDX 42 55 51 57 67 58 44 59 33 60 34 61 38 62 35 63 37 64 36 65
REMARK SMILES IDX 55 66 56 67 60 68 57 69 59 70 58 71 45 72 46 73 50 74 47 75
REMARK SMILES IDX 49 76 48 77
REMARK H PARENT 11 14 65 45 43 56
REMARK Flexibility Score: inf
ROOT
ATOM      1  O   UNL     1       4.149   6.106  -8.010  1.00  0.00    -0.458 OA
ENDROOT
BRANCH   1   2
ATOM      2  C   UNL     1       4.653   5.604  -6.861  1.00  0.00     0.338 C 
ATOM      3  O   UNL     1       5.803   5.235  -6.674  1.00  0.00    -0.246 OA
BRANCH   2   4
ATOM      4  C   UNL     1       3.634   5.588  -5.782  1.00  0.00     0.061 A 
ATOM      5  C   UNL     1       1.779   5.183  -3.764  1.00  0.00     0.061 A 
ATOM      6  C   UNL     1       3.133   5.010  -3.480  1.00  0.00     0.028 A 
ATOM      7  C   UNL     1       1.367   5.749  -4.978  1.00  0.00     0.065 A 
ATOM      8  C   UNL     1       4.057   5.184  -4.503  1.00  0.00     0.018 A 
ATOM      9  C   UNL     1       2.297   5.940  -5.999  1.00  0.00     0.038 A 
ATOM     10  Cl  UNL     1      -0.293   6.111  -5.287  1.00  0.00    -0.082 Cl
BRANCH   5  11
ATOM     11  N   UNL     1       0.857   4.671  -2.858  1.00  0.00    -0.306 N 
ATOM     12  C   UNL     1       0.340   3.420  -2.745  1.00  0.00     0.321 C 
ATOM     13  O   UNL     1      -0.541   3.306  -1.883  1.00  0.00    -0.248 OA
ATOM     14  H   UNL     1       0.527   5.317  -2.193  1.00  0.00     0.171 HD
BRANCH  12  15
ATOM     15  N   UNL     1       0.733   2.345  -3.522  1.00  0.00    -0.325 N 
BRANCH  15  16
ATOM     16  C   UNL     1       0.047   1.075  -3.262  1.00  0.00     0.124 C 
BRANCH  16  17
ATOM     17  C   UNL     1       0.857   0.129  -2.349  1.00  0.00     0.005 C 
ATOM     18  C   UNL     1       1.016   0.688  -0.933  1.00  0.00     0.009 C 
BRANCH  17  19
ATOM     19  C   UNL     1       0.241  -1.283  -2.339  1.00  0.00     0.002 C 
ATOM     20  C   UNL     1      -1.179  -1.360  -1.796  1.00  0.00     0.004 C 
ENDBRANCH  17  19
ENDBRANCH  16  17
ENDBRANCH  15  16
BRANCH  15  21
ATOM     21  C   UNL     1       1.705   2.269  -4.619  1.00  0.00     0.118 C 
ATOM     22  C   UNL     1       1.073   2.459  -5.991  1.00  0.00     0.027 C 
ENDBRANCH  15  21
ENDBRANCH  12  15
ENDBRANCH   5  11
ENDBRANCH   2   4
ENDBRANCH   1   2
BRANCH   1  23
ATOM     23  C   UNL     1       5.106   6.309  -9.064  1.00  0.00     0.275 C 
BRANCH  23  24
ATOM     24  C   UNL     1       5.508   7.782  -9.140  1.00  0.00     0.275 C 
BRANCH  24  25
ATOM     25  O   UNL     1       6.161   8.205  -7.925  1.00  0.00    -0.458 OA
BRANCH  25  26
ATOM     26  C   UNL     1       5.395   8.938  -7.085  1.00  0.00     0.338 C 
ATOM     27  O   UNL     1       4.244   9.304  -7.254  1.00  0.00    -0.246 OA
BRANCH  26  28
ATOM     28  C   UNL     1       6.111   9.180  -5.822  1.00  0.00     0.060 A 
ATOM     29  C   UNL     1       6.001   8.226  -4.815  1.00  0.00     0.016 A 
ATOM     30  C   UNL     1       6.717  10.405  -5.558  1.00  0.00     0.016 A 
ATOM     31  C   UNL     1       6.415   8.508  -3.520  1.00  0.00     0.010 A 
ATOM     32  C   UNL     1       7.204  10.664  -4.268  1.00  0.00     0.010 A 
ATOM     33  C   UNL     1       7.019   9.735  -3.225  1.00  0.00    -0.014 A 
BRANCH  33  34
ATOM     34  C   UNL     1       7.365  10.063  -1.815  1.00  0.00     0.031 A 
ATOM     35  C   UNL     1       6.697  11.226  -1.128  1.00  0.00     0.074 A 
ATOM     36  C   UNL     1       8.226   9.293  -1.119  1.00  0.00     0.049 A 
ATOM     37  N   UNL     1       6.945  11.748   0.048  1.00  0.00    -0.248 NA
ATOM     38  C   UNL     1       5.613  11.897  -1.864  1.00  0.00     0.031 C 
ATOM     39  C   UNL     1       8.899   8.096  -1.627  1.00  0.00     0.029 A 
ATOM     40  N   UNL     1       8.668   9.396   0.177  1.00  0.00    -0.354 N 
ATOM     41  C   UNL     1       6.095  12.841   0.164  1.00  0.00     0.074 A 
ATOM     42  C   UNL     1       5.326  12.910  -1.059  1.00  0.00     0.031 C 
ATOM     43  C   UNL     1       9.631   7.552  -0.642  1.00  0.00     0.029 A 
ATOM     44  C   UNL     1       9.545   8.403   0.540  1.00  0.00     0.049 A 
ATOM     45  H   UNL     1       8.383  10.113   0.788  1.00  0.00     0.167 HD
ATOM     46  C   UNL     1       5.969  13.713   1.193  1.00  0.00     0.031 A 
ATOM     47  C   UNL     1      10.229   8.211   1.683  1.00  0.00     0.031 A 
ATOM     48  C   UNL     1       6.695  13.621   2.432  1.00  0.00     0.049 A 
ATOM     49  C   UNL     1      10.088   9.203   2.803  1.00  0.00     0.074 A 
ATOM     50  C   UNL     1       6.634  14.459   3.533  1.00  0.00     0.029 A 
ATOM     51  N   UNL     1       7.599  12.619   2.743  1.00  0.00    -0.354 N 
ATOM     52  N   UNL     1       9.332  10.271   2.870  1.00  0.00    -0.248 NA
ATOM     53  C   UNL     1      10.907   8.966   4.001  1.00  0.00     0.031 C 
ATOM     54  C   UNL     1       7.527  13.980   4.498  1.00  0.00     0.029 A 
ATOM     55  C   UNL     1       8.107  12.819   4.015  1.00  0.00     0.049 A 
ATOM     56  H   UNL     1       7.844  11.874   2.147  1.00  0.00     0.167 HD
ATOM     57  C   UNL     1       9.573  10.826   4.120  1.00  0.00     0.074 A 
ATOM     58  C   UNL     1      10.527   9.963   4.787  1.00  0.00     0.031 C 
ATOM     59  C   UNL     1       9.055  11.954   4.665  1.00  0.00     0.031 A 
BRANCH  46  60
ATOM     60  C   UNL     1       5.036  14.876   1.000  1.00  0.00    -0.014 A 
ATOM     61  C   UNL     1       3.643  14.717   1.022  1.00  0.00     0.009 A 
ATOM     62  C   UNL     1       5.571  16.162   0.816  1.00  0.00     0.009 A 
ATOM     63  C   UNL     1       2.804  15.817   0.828  1.00  0.00     0.001 A 
ATOM     64  C   UNL     1       4.730  17.263   0.649  1.00  0.00     0.001 A 
ATOM     65  C   UNL     1       3.347  17.088   0.645  1.00  0.00     0.000 A 
ENDBRANCH  46  60
BRANCH  47  66
ATOM     66  C   UNL     1      11.149   7.051   1.815  1.00  0.00    -0.014 A 
ATOM     67  C   UNL     1      10.846   5.994   2.687  1.00  0.00     0.009 A 
ATOM     68  C   UNL     1      12.339   6.999   1.073  1.00  0.00     0.009 A 
ATOM     69  C   UNL     1      11.728   4.919   2.827  1.00  0.00     0.001 A 
ATOM     70  C   UNL     1      13.203   5.910   1.192  1.00  0.00     0.001 A 
ATOM     71  C   UNL     1      12.902   4.875   2.076  1.00  0.00     0.000 A 
ENDBRANCH  47  66
BRANCH  59  72
ATOM     72  C   UNL     1       9.486  12.294   6.063  1.00  0.00    -0.014 A 
ATOM     73  C   UNL     1      10.769  12.795   6.328  1.00  0.00     0.009 A 
ATOM     74  C   UNL     1       8.585  12.127   7.126  1.00  0.00     0.009 A 
ATOM     75  C   UNL     1      11.156  13.086   7.638  1.00  0.00     0.001 A 
ATOM     76  C   UNL     1       8.966  12.442   8.431  1.00  0.00     0.001 A 
ATOM     77  C   UNL     1      10.254  12.911   8.687  1.00  0.00     0.000 A 
ENDBRANCH  59  72
ENDBRANCH  33  34
ENDBRANCH  26  28
ENDBRANCH  25  26
ENDBRANCH  24  25
ENDBRANCH  23  24
ENDBRANCH   1  23
TORSDOF 17
