REMARK SMILES C[C@H](NC(=O)c1ccn(CC(=O)OCCOC(=O)c2ccc(-c3c4nc(c(-c5ccccc5)c5ccc([nH]5)c(-c5ccccc5)c5nc(c(-c6ccccc6)c6ccc3[nH]6)C=C5)C=C4)cc2)n1)c1ccccc1
REMARK SMILES IDX 14 1 13 2 11 3 12 4 10 5 9 6 6 7 7 8 67 9 8 10 4 11 3 12
REMARK SMILES IDX 5 14 2 15 1 16 68 17 69 18 73 19 70 20 72 21 71 22 15 23
REMARK SMILES IDX 16 24 17 25 18 26 19 27 20 28 66 29 21 30 65 31 22 32 23 33
REMARK SMILES IDX 24 34 59 35 25 36 64 37 58 38 60 39 26 40 63 41 57 42 56 43
REMARK SMILES IDX 27 45 49 46 34 47 48 48 35 49 38 50 47 51 61 52 36 53 37 54
REMARK SMILES IDX 46 56 62 57 39 58 28 59 29 60 33 61 30 62 32 63 31 64 50 65
REMARK SMILES IDX 51 66 55 67 52 68 54 69 53 70 40 71 41 72 45 73 42 74 44 75
REMARK SMILES IDX 43 76
REMARK H PARENT 3 13 60 44 38 55
REMARK Flexibility Score: inf
ROOT
ATOM      1  C   UNL     1       5.447  -3.313   4.790  1.00  0.00     0.274 C 
ENDROOT
BRANCH   1   2
ATOM      2  O   UNL     1       5.414  -2.755   3.460  1.00  0.00    -0.461 OA
BRANCH   2   3
ATOM      3  C   UNL     1       6.284  -3.287   2.559  1.00  0.00     0.327 C 
ATOM      4  O   UNL     1       7.104  -4.162   2.833  1.00  0.00    -0.250 OA
BRANCH   3   5
ATOM      5  C   UNL     1       6.234  -2.645   1.203  1.00  0.00     0.266 C 
BRANCH   5   6
ATOM      6  N   UNL     1       4.905  -2.405   0.667  1.00  0.00    -0.261 N 
ATOM      7  C   UNL     1       3.267  -1.251  -0.059  1.00  0.00     0.150 A 
ATOM      8  C   UNL     1       3.085  -2.571  -0.547  1.00  0.00     0.056 A 
ATOM      9  N   UNL     1       4.397  -1.155   0.668  1.00  0.00    -0.167 NA
ATOM     10  C   UNL     1       4.179  -3.271  -0.105  1.00  0.00     0.110 A 
BRANCH   7  11
ATOM     11  C   UNL     1       2.406  -0.094  -0.327  1.00  0.00     0.272 C 
ATOM     12  N   UNL     1       1.121  -0.108   0.162  1.00  0.00    -0.344 N 
ATOM     13  H   UNL     1       0.511   0.575  -0.202  1.00  0.00     0.164 HD
ATOM     14  O   UNL     1       2.776   0.869  -0.999  1.00  0.00    -0.267 OA
BRANCH  12  15
ATOM     15  C   UNL     1       0.552  -1.010   1.154  1.00  0.00     0.109 C 
ATOM     16  C   UNL     1       1.045  -0.661   2.561  1.00  0.00     0.036 C 
BRANCH  15  17
ATOM     17  C   UNL     1      -0.968  -0.993   1.115  1.00  0.00    -0.026 A 
ATOM     18  C   UNL     1      -1.701   0.204   1.178  1.00  0.00     0.006 A 
ATOM     19  C   UNL     1      -1.674  -2.207   1.074  1.00  0.00     0.006 A 
ATOM     20  C   UNL     1      -3.098   0.186   1.192  1.00  0.00     0.000 A 
ATOM     21  C   UNL     1      -3.070  -2.223   1.098  1.00  0.00     0.000 A 
ATOM     22  C   UNL     1      -3.781  -1.027   1.156  1.00  0.00     0.000 A 
ENDBRANCH  15  17
ENDBRANCH  12  15
ENDBRANCH   7  11
ENDBRANCH   5   6
ENDBRANCH   3   5
ENDBRANCH   2   3
ENDBRANCH   1   2
BRANCH   1  23
ATOM     23  C   UNL     1       4.449  -4.451   4.981  1.00  0.00     0.275 C 
BRANCH  23  24
ATOM     24  O   UNL     1       4.819  -5.642   4.280  1.00  0.00    -0.458 OA
BRANCH  24  25
ATOM     25  C   UNL     1       4.334  -5.697   3.021  1.00  0.00     0.338 C 
ATOM     26  O   UNL     1       3.877  -4.770   2.377  1.00  0.00    -0.246 OA
BRANCH  25  27
ATOM     27  C   UNL     1       4.198  -7.082   2.565  1.00  0.00     0.060 A 
ATOM     28  C   UNL     1       3.797  -7.267   1.237  1.00  0.00     0.016 A 
ATOM     29  C   UNL     1       4.172  -8.128   3.494  1.00  0.00     0.016 A 
ATOM     30  C   UNL     1       3.217  -8.464   0.878  1.00  0.00     0.010 A 
ATOM     31  C   UNL     1       3.587  -9.324   3.134  1.00  0.00     0.010 A 
ATOM     32  C   UNL     1       3.053  -9.453   1.852  1.00  0.00    -0.014 A 
BRANCH  32  33
ATOM     33  C   UNL     1       2.354 -10.659   1.460  1.00  0.00     0.031 A 
ATOM     34  C   UNL     1       3.098 -11.519   0.511  1.00  0.00     0.074 A 
ATOM     35  C   UNL     1       1.178 -11.032   1.994  1.00  0.00     0.049 A 
ATOM     36  N   UNL     1       2.750 -11.873  -0.681  1.00  0.00    -0.248 NA
ATOM     37  C   UNL     1       4.444 -11.954   0.910  1.00  0.00     0.031 C 
ATOM     38  C   UNL     1       0.476 -10.445   3.138  1.00  0.00     0.029 A 
ATOM     39  N   UNL     1       0.421 -12.120   1.685  1.00  0.00    -0.354 N 
ATOM     40  C   UNL     1       3.761 -12.714  -1.132  1.00  0.00     0.074 A 
ATOM     41  C   UNL     1       4.834 -12.622  -0.174  1.00  0.00     0.031 C 
ATOM     42  C   UNL     1      -0.457 -11.321   3.574  1.00  0.00     0.029 A 
ATOM     43  C   UNL     1      -0.501 -12.454   2.663  1.00  0.00     0.049 A 
ATOM     44  H   UNL     1       0.520 -12.623   0.845  1.00  0.00     0.167 HD
ATOM     45  C   UNL     1       3.562 -13.600  -2.144  1.00  0.00     0.031 A 
ATOM     46  C   UNL     1      -1.183 -13.621   2.755  1.00  0.00     0.031 A 
ATOM     47  C   UNL     1       2.409 -13.276  -2.938  1.00  0.00     0.049 A 
ATOM     48  C   UNL     1      -1.142 -14.281   1.430  1.00  0.00     0.074 A 
ATOM     49  C   UNL     1       2.024 -12.190  -3.698  1.00  0.00     0.029 A 
ATOM     50  N   UNL     1       1.268 -14.015  -2.737  1.00  0.00    -0.354 N 
ATOM     51  N   UNL     1      -1.773 -13.837   0.382  1.00  0.00    -0.248 NA
ATOM     52  C   UNL     1      -0.066 -15.222   1.155  1.00  0.00     0.031 C 
ATOM     53  C   UNL     1       0.616 -12.082  -3.502  1.00  0.00     0.029 A 
ATOM     54  C   UNL     1       0.223 -13.131  -2.670  1.00  0.00     0.049 A 
ATOM     55  H   UNL     1       1.212 -14.995  -2.657  1.00  0.00     0.167 HD
ATOM     56  C   UNL     1      -0.918 -14.088  -0.680  1.00  0.00     0.074 A 
ATOM     57  C   UNL     1       0.056 -15.046  -0.164  1.00  0.00     0.031 C 
ATOM     58  C   UNL     1      -0.910 -13.284  -1.785  1.00  0.00     0.031 A 
BRANCH  45  59
ATOM     59  C   UNL     1       4.190 -14.968  -2.155  1.00  0.00    -0.014 A 
ATOM     60  C   UNL     1       4.006 -15.793  -3.278  1.00  0.00     0.009 A 
ATOM     61  C   UNL     1       4.710 -15.579  -0.996  1.00  0.00     0.009 A 
ATOM     62  C   UNL     1       4.267 -17.167  -3.218  1.00  0.00     0.001 A 
ATOM     63  C   UNL     1       5.014 -16.940  -0.948  1.00  0.00     0.001 A 
ATOM     64  C   UNL     1       4.765 -17.740  -2.052  1.00  0.00     0.000 A 
ENDBRANCH  45  59
BRANCH  46  65
ATOM     65  C   UNL     1      -1.630 -14.326   3.973  1.00  0.00    -0.014 A 
ATOM     66  C   UNL     1      -2.589 -15.347   3.896  1.00  0.00     0.009 A 
ATOM     67  C   UNL     1      -0.924 -14.178   5.181  1.00  0.00     0.009 A 
ATOM     68  C   UNL     1      -2.806 -16.211   4.977  1.00  0.00     0.001 A 
ATOM     69  C   UNL     1      -1.146 -15.035   6.263  1.00  0.00     0.001 A 
ATOM     70  C   UNL     1      -2.075 -16.062   6.154  1.00  0.00     0.000 A 
ENDBRANCH  46  65
BRANCH  58  71
ATOM     71  C   UNL     1      -2.020 -12.272  -1.931  1.00  0.00    -0.014 A 
ATOM     72  C   UNL     1      -2.261 -11.262  -0.982  1.00  0.00     0.009 A 
ATOM     73  C   UNL     1      -2.747 -12.242  -3.130  1.00  0.00     0.009 A 
ATOM     74  C   UNL     1      -3.227 -10.278  -1.209  1.00  0.00     0.001 A 
ATOM     75  C   UNL     1      -3.696 -11.244  -3.368  1.00  0.00     0.001 A 
ATOM     76  C   UNL     1      -3.941 -10.267  -2.405  1.00  0.00     0.000 A 
ENDBRANCH  58  71
ENDBRANCH  32  33
ENDBRANCH  25  27
ENDBRANCH  24  25
ENDBRANCH  23  24
ENDBRANCH   1  23
TORSDOF 15
