REMARK SMILES O=C(OCCOC(=O)c1cc(S(=O)(=O)C/C(Cl)=C/Cl)ccc1Cl)c1ccc(-c2c3nc(c(-c4ccccc4)c4ccc([nH]4)c(-c4ccccc4)c4nc(c(-c5ccccc5)c5ccc2[nH]5)C=C4)C=C3)cc1
REMARK SMILES IDX 5 1 4 2 3 3 2 4 1 5 24 6 25 7 71 8 26 9 70 10 27 11 28 12
REMARK SMILES IDX 29 13 64 14 30 15 69 16 63 17 65 18 31 19 68 20 62 21 61 22
REMARK SMILES IDX 32 24 54 25 39 26 53 27 40 28 43 29 52 30 66 31 41 32 42 33
REMARK SMILES IDX 51 35 67 36 44 37 33 38 34 39 38 40 35 41 37 42 36 43 55 44
REMARK SMILES IDX 56 45 60 46 57 47 59 48 58 49 45 50 46 51 50 52 47 53 49 54
REMARK SMILES IDX 48 55 6 56 7 57 8 58 9 59 10 60 22 61 11 62 21 63 23 64
REMARK SMILES IDX 20 65 12 66 13 67 14 68 15 69 16 70 17 71 18 72 19 73
REMARK H PARENT 65 23 43 34
REMARK Flexibility Score: inf
ROOT
ATOM      1  C   UNL     1       3.752  -1.756  -1.349  1.00  0.00     0.275 C 
ENDROOT
BRANCH   1   2
ATOM      2  C   UNL     1       4.159  -1.507   0.106  1.00  0.00     0.275 C 
BRANCH   2   3
ATOM      3  O   UNL     1       3.201  -0.752   0.860  1.00  0.00    -0.458 OA
BRANCH   3   4
ATOM      4  C   UNL     1       3.020   0.584   0.946  1.00  0.00     0.338 C 
ATOM      5  O   UNL     1       2.173   1.002   1.733  1.00  0.00    -0.246 OA
BRANCH   4   6
ATOM      6  C   UNL     1       3.702   1.592   0.065  1.00  0.00     0.060 A 
ATOM      7  C   UNL     1       4.879   1.427  -0.675  1.00  0.00     0.016 A 
ATOM      8  C   UNL     1       3.050   2.829  -0.040  1.00  0.00     0.016 A 
ATOM      9  C   UNL     1       5.346   2.418  -1.550  1.00  0.00     0.010 A 
ATOM     10  C   UNL     1       3.498   3.813  -0.922  1.00  0.00     0.010 A 
ATOM     11  C   UNL     1       4.655   3.617  -1.680  1.00  0.00    -0.014 A 
BRANCH  11  12
ATOM     12  C   UNL     1       5.229   4.764  -2.414  1.00  0.00     0.031 A 
ATOM     13  C   UNL     1       5.742   5.912  -1.598  1.00  0.00     0.074 A 
ATOM     14  C   UNL     1       5.258   4.810  -3.758  1.00  0.00     0.049 A 
ATOM     15  N   UNL     1       6.187   7.074  -1.988  1.00  0.00    -0.248 NA
ATOM     16  C   UNL     1       5.751   5.714  -0.137  1.00  0.00     0.031 C 
ATOM     17  C   UNL     1       4.886   3.720  -4.654  1.00  0.00     0.029 A 
ATOM     18  N   UNL     1       5.589   5.836  -4.606  1.00  0.00    -0.354 N 
ATOM     19  C   UNL     1       6.515   7.748  -0.820  1.00  0.00     0.074 A 
ATOM     20  C   UNL     1       6.154   6.897   0.289  1.00  0.00     0.031 C 
ATOM     21  C   UNL     1       4.930   4.155  -5.925  1.00  0.00     0.029 A 
ATOM     22  C   UNL     1       5.341   5.555  -5.929  1.00  0.00     0.049 A 
ATOM     23  H   UNL     1       5.967   6.691  -4.298  1.00  0.00     0.167 HD
ATOM     24  C   UNL     1       7.095   8.960  -0.682  1.00  0.00     0.031 A 
ATOM     25  C   UNL     1       5.429   6.345  -7.015  1.00  0.00     0.031 A 
ATOM     26  C   UNL     1       7.418   9.808  -1.793  1.00  0.00     0.049 A 
ATOM     27  C   UNL     1       5.971   7.738  -6.844  1.00  0.00     0.074 A 
ATOM     28  C   UNL     1       8.027  11.047  -1.789  1.00  0.00     0.029 A 
ATOM     29  N   UNL     1       7.132   9.497  -3.115  1.00  0.00    -0.354 N 
ATOM     30  N   UNL     1       6.337   8.347  -5.740  1.00  0.00    -0.248 NA
ATOM     31  C   UNL     1       6.163   8.533  -8.064  1.00  0.00     0.031 C 
ATOM     32  C   UNL     1       8.063  11.510  -3.108  1.00  0.00     0.029 A 
ATOM     33  C   UNL     1       7.537  10.530  -3.939  1.00  0.00     0.049 A 
ATOM     34  H   UNL     1       6.705   8.664  -3.421  1.00  0.00     0.167 HD
ATOM     35  C   UNL     1       6.863   9.569  -6.136  1.00  0.00     0.074 A 
ATOM     36  C   UNL     1       6.748   9.622  -7.581  1.00  0.00     0.031 C 
ATOM     37  C   UNL     1       7.418  10.545  -5.376  1.00  0.00     0.031 A 
BRANCH  24  38
ATOM     38  C   UNL     1       7.363   9.415   0.724  1.00  0.00    -0.014 A 
ATOM     39  C   UNL     1       8.300   8.752   1.538  1.00  0.00     0.009 A 
ATOM     40  C   UNL     1       6.609  10.461   1.272  1.00  0.00     0.009 A 
ATOM     41  C   UNL     1       8.421   9.078   2.889  1.00  0.00     0.001 A 
ATOM     42  C   UNL     1       6.760  10.811   2.615  1.00  0.00     0.001 A 
ATOM     43  C   UNL     1       7.649  10.107   3.427  1.00  0.00     0.000 A 
ENDBRANCH  24  38
BRANCH  25  44
ATOM     44  C   UNL     1       5.028   5.827  -8.350  1.00  0.00    -0.014 A 
ATOM     45  C   UNL     1       5.991   5.503  -9.317  1.00  0.00     0.009 A 
ATOM     46  C   UNL     1       3.671   5.640  -8.660  1.00  0.00     0.009 A 
ATOM     47  C   UNL     1       5.604   5.022 -10.572  1.00  0.00     0.001 A 
ATOM     48  C   UNL     1       3.288   5.139  -9.908  1.00  0.00     0.001 A 
ATOM     49  C   UNL     1       4.254   4.837 -10.865  1.00  0.00     0.000 A 
ENDBRANCH  25  44
BRANCH  37  50
ATOM     50  C   UNL     1       8.013  11.723  -6.091  1.00  0.00    -0.014 A 
ATOM     51  C   UNL     1       7.210  12.714  -6.670  1.00  0.00     0.009 A 
ATOM     52  C   UNL     1       9.409  11.883  -6.094  1.00  0.00     0.009 A 
ATOM     53  C   UNL     1       7.796  13.838  -7.256  1.00  0.00     0.001 A 
ATOM     54  C   UNL     1       9.990  13.020  -6.652  1.00  0.00     0.001 A 
ATOM     55  C   UNL     1       9.183  13.994  -7.237  1.00  0.00     0.000 A 
ENDBRANCH  37  50
ENDBRANCH  11  12
ENDBRANCH   4   6
ENDBRANCH   3   4
ENDBRANCH   2   3
ENDBRANCH   1   2
BRANCH   1  56
ATOM     56  O   UNL     1       3.303  -0.573  -2.034  1.00  0.00    -0.458 OA
BRANCH  56  57
ATOM     57  C   UNL     1       1.956  -0.419  -2.156  1.00  0.00     0.339 C 
ATOM     58  O   UNL     1       1.095  -1.150  -1.716  1.00  0.00    -0.246 OA
BRANCH  57  59
ATOM     59  C   UNL     1       1.660   0.868  -2.828  1.00  0.00     0.080 A 
ATOM     60  C   UNL     1       0.855   1.805  -2.151  1.00  0.00     0.037 A 
ATOM     61  C   UNL     1       2.132   1.162  -4.107  1.00  0.00     0.055 A 
ATOM     62  C   UNL     1       0.592   3.063  -2.725  1.00  0.00     0.068 A 
ATOM     63  C   UNL     1       1.819   2.396  -4.691  1.00  0.00     0.023 A 
ATOM     64  Cl  UNL     1       3.072   0.056  -5.043  1.00  0.00    -0.083 Cl
ATOM     65  C   UNL     1       1.065   3.352  -4.001  1.00  0.00     0.022 A 
BRANCH  62  66
ATOM     66  S   UNL     1      -0.371   4.230  -1.780  1.00  0.00     0.183 S 
ATOM     67  O   UNL     1      -1.723   3.703  -1.816  1.00  0.00    -0.223 OA
ATOM     68  O   UNL     1       0.304   4.400  -0.507  1.00  0.00    -0.223 OA
BRANCH  66  69
ATOM     69  C   UNL     1      -0.426   5.814  -2.583  1.00  0.00     0.191 C 
BRANCH  69  70
ATOM     70  C   UNL     1       0.866   6.582  -2.515  1.00  0.00     0.045 C 
ATOM     71  Cl  UNL     1       1.591   6.921  -4.061  1.00  0.00    -0.087 Cl
ATOM     72  C   UNL     1       1.349   7.141  -1.395  1.00  0.00     0.097 C 
ATOM     73  Cl  UNL     1       2.734   8.148  -1.293  1.00  0.00    -0.092 Cl
ENDBRANCH  69  70
ENDBRANCH  66  69
ENDBRANCH  62  66
ENDBRANCH  57  59
ENDBRANCH  56  57
ENDBRANCH   1  56
TORSDOF 14
