REMARK SMILES CC(C)OCCS(=O)(=O)Nc1nccnc1C(=O)OCCOC(=O)c1ccc(-c2c3nc(c(-c4ccccc4)c4ccc([nH]4)c(-c4ccccc4)c4nc(c(-c5ccccc5)c5ccc2[nH]5)C=C4)C=C3)cc1
REMARK SMILES IDX 17 1 18 2 16 3 11 4 12 5 13 6 15 7 14 8 10 9 7 11 8 12 9 13
REMARK SMILES IDX 6 14 5 15 4 16 2 17 1 18 3 19 19 20 20 21 21 22 22 23 23 24
REMARK SMILES IDX 24 25 25 26 26 27 72 28 27 29 71 30 28 31 29 32 30 33 65 34
REMARK SMILES IDX 31 35 70 36 64 37 66 38 32 39 69 40 63 41 62 42 33 44 55 45
REMARK SMILES IDX 40 46 54 47 41 48 44 49 53 50 67 51 42 52 43 53 52 55 68 56
REMARK SMILES IDX 45 57 34 58 35 59 39 60 36 61 38 62 37 63 56 64 57 65 61 66
REMARK SMILES IDX 58 67 60 68 59 69 46 70 47 71 51 72 48 73 50 74 49 75
REMARK H PARENT 10 10 66 43 44 54
REMARK Flexibility Score: inf
ROOT
ATOM      1  C   UNL     1       2.771   4.117  -2.123  1.00  0.00     0.360 C 
ATOM      2  O   UNL     1       3.281   5.201  -1.853  1.00  0.00    -0.244 OA
ENDROOT
BRANCH   1   3
ATOM      3  C   UNL     1       1.580   3.621  -1.404  1.00  0.00     0.191 A 
ATOM      4  C   UNL     1       1.341   2.310  -1.043  1.00  0.00     0.173 A 
ATOM      5  N   UNL     1       0.507   2.115   0.004  1.00  0.00    -0.235 NA
ATOM      6  C   UNL     1      -0.180   3.144   0.560  1.00  0.00     0.133 A 
ATOM      7  N   UNL     1       0.848   4.660  -0.864  1.00  0.00    -0.244 NA
ATOM      8  C   UNL     1      -0.065   4.405   0.077  1.00  0.00     0.132 A 
BRANCH   4   9
ATOM      9  N   UNL     1       2.015   1.090  -1.388  1.00  0.00    -0.265 N 
ATOM     10  H   UNL     1       2.794   0.879  -0.824  1.00  0.00     0.181 HD
BRANCH   9  11
ATOM     11  S   UNL     1       1.702  -0.024  -2.579  1.00  0.00     0.236 S 
ATOM     12  O   UNL     1       2.384  -1.221  -2.118  1.00  0.00    -0.207 OA
ATOM     13  O   UNL     1       2.217   0.615  -3.776  1.00  0.00    -0.207 OA
BRANCH  11  14
ATOM     14  C   UNL     1       0.021  -0.550  -3.028  1.00  0.00     0.188 C 
BRANCH  14  15
ATOM     15  C   UNL     1      -0.729  -1.614  -2.222  1.00  0.00     0.178 C 
BRANCH  15  16
ATOM     16  O   UNL     1      -1.789  -1.222  -1.343  1.00  0.00    -0.378 OA
BRANCH  16  17
ATOM     17  C   UNL     1      -1.509  -0.153  -0.443  1.00  0.00     0.112 C 
ATOM     18  C   UNL     1      -0.293  -0.552   0.421  1.00  0.00     0.038 C 
ATOM     19  C   UNL     1      -1.708   1.123  -1.277  1.00  0.00     0.038 C 
ENDBRANCH  16  17
ENDBRANCH  15  16
ENDBRANCH  14  15
ENDBRANCH  11  14
ENDBRANCH   9  11
ENDBRANCH   4   9
ENDBRANCH   1   3
BRANCH   1  20
ATOM     20  O   UNL     1       3.161   3.301  -3.119  1.00  0.00    -0.457 OA
BRANCH  20  21
ATOM     21  C   UNL     1       4.137   3.890  -3.999  1.00  0.00     0.275 C 
BRANCH  21  22
ATOM     22  C   UNL     1       3.472   4.588  -5.194  1.00  0.00     0.275 C 
BRANCH  22  23
ATOM     23  O   UNL     1       2.759   5.796  -4.835  1.00  0.00    -0.458 OA
BRANCH  23  24
ATOM     24  C   UNL     1       1.423   5.641  -4.658  1.00  0.00     0.338 C 
ATOM     25  O   UNL     1       0.798   4.599  -4.720  1.00  0.00    -0.246 OA
BRANCH  24  26
ATOM     26  C   UNL     1       0.775   6.894  -4.219  1.00  0.00     0.060 A 
ATOM     27  C   UNL     1       0.420   6.957  -2.881  1.00  0.00     0.016 A 
ATOM     28  C   UNL     1       0.307   7.874  -5.086  1.00  0.00     0.016 A 
ATOM     29  C   UNL     1      -0.496   7.883  -2.410  1.00  0.00     0.010 A 
ATOM     30  C   UNL     1      -0.511   8.908  -4.582  1.00  0.00     0.010 A 
ATOM     31  C   UNL     1      -0.948   8.907  -3.240  1.00  0.00    -0.014 A 
BRANCH  31  32
ATOM     32  C   UNL     1      -1.864   9.942  -2.672  1.00  0.00     0.031 A 
ATOM     33  C   UNL     1      -3.212  10.204  -3.292  1.00  0.00     0.074 A 
ATOM     34  C   UNL     1      -1.511  10.615  -1.554  1.00  0.00     0.049 A 
ATOM     35  N   UNL     1      -4.085  11.139  -3.006  1.00  0.00    -0.248 NA
ATOM     36  C   UNL     1      -3.633   9.306  -4.378  1.00  0.00     0.031 C 
ATOM     37  C   UNL     1      -0.268  10.423  -0.798  1.00  0.00     0.029 A 
ATOM     38  N   UNL     1      -2.174  11.585  -0.838  1.00  0.00    -0.354 N 
ATOM     39  C   UNL     1      -5.128  10.976  -3.911  1.00  0.00     0.074 A 
ATOM     40  C   UNL     1      -4.776   9.858  -4.760  1.00  0.00     0.031 C 
ATOM     41  C   UNL     1      -0.284  11.200   0.293  1.00  0.00     0.029 A 
ATOM     42  C   UNL     1      -1.476  12.034   0.259  1.00  0.00     0.049 A 
ATOM     43  H   UNL     1      -3.063  11.926  -1.088  1.00  0.00     0.167 HD
ATOM     44  C   UNL     1      -6.271  11.695  -4.028  1.00  0.00     0.031 A 
ATOM     45  C   UNL     1      -1.729  13.040   1.118  1.00  0.00     0.031 A 
ATOM     46  C   UNL     1      -6.630  12.793  -3.166  1.00  0.00     0.049 A 
ATOM     47  C   UNL     1      -2.961  13.872   0.915  1.00  0.00     0.074 A 
ATOM     48  C   UNL     1      -7.768  13.582  -3.202  1.00  0.00     0.029 A 
ATOM     49  N   UNL     1      -5.859  13.255  -2.110  1.00  0.00    -0.354 N 
ATOM     50  N   UNL     1      -3.916  13.730   0.029  1.00  0.00    -0.248 NA
ATOM     51  C   UNL     1      -3.142  15.011   1.825  1.00  0.00     0.031 C 
ATOM     52  C   UNL     1      -7.655  14.560  -2.209  1.00  0.00     0.029 A 
ATOM     53  C   UNL     1      -6.482  14.336  -1.506  1.00  0.00     0.049 A 
ATOM     54  H   UNL     1      -4.997  12.871  -1.830  1.00  0.00     0.167 HD
ATOM     55  C   UNL     1      -4.821  14.751   0.285  1.00  0.00     0.074 A 
ATOM     56  C   UNL     1      -4.315  15.483   1.428  1.00  0.00     0.031 C 
ATOM     57  C   UNL     1      -5.965  15.058  -0.372  1.00  0.00     0.031 A 
BRANCH  44  58
ATOM     58  C   UNL     1      -7.196  11.356  -5.167  1.00  0.00    -0.014 A 
ATOM     59  C   UNL     1      -7.943  10.168  -5.188  1.00  0.00     0.009 A 
ATOM     60  C   UNL     1      -7.345  12.266  -6.227  1.00  0.00     0.009 A 
ATOM     61  C   UNL     1      -8.789   9.883  -6.264  1.00  0.00     0.001 A 
ATOM     62  C   UNL     1      -8.214  11.994  -7.284  1.00  0.00     0.001 A 
ATOM     63  C   UNL     1      -8.928  10.797  -7.308  1.00  0.00     0.000 A 
ENDBRANCH  44  58
BRANCH  45  64
ATOM     64  C   UNL     1      -0.759  13.365   2.201  1.00  0.00    -0.014 A 
ATOM     65  C   UNL     1      -1.112  13.223   3.551  1.00  0.00     0.009 A 
ATOM     66  C   UNL     1       0.525  13.841   1.887  1.00  0.00     0.009 A 
ATOM     67  C   UNL     1      -0.211  13.574   4.560  1.00  0.00     0.001 A 
ATOM     68  C   UNL     1       1.438  14.153   2.896  1.00  0.00     0.001 A 
ATOM     69  C   UNL     1       1.065  14.031   4.232  1.00  0.00     0.000 A 
ENDBRANCH  45  64
BRANCH  57  70
ATOM     70  C   UNL     1      -6.766  16.214   0.160  1.00  0.00    -0.014 A 
ATOM     71  C   UNL     1      -6.311  17.537   0.044  1.00  0.00     0.009 A 
ATOM     72  C   UNL     1      -8.004  15.973   0.777  1.00  0.00     0.009 A 
ATOM     73  C   UNL     1      -7.059  18.590   0.574  1.00  0.00     0.001 A 
ATOM     74  C   UNL     1      -8.767  17.030   1.273  1.00  0.00     0.001 A 
ATOM     75  C   UNL     1      -8.288  18.336   1.183  1.00  0.00     0.000 A 
ENDBRANCH  57  70
ENDBRANCH  31  32
ENDBRANCH  24  26
ENDBRANCH  23  24
ENDBRANCH  22  23
ENDBRANCH  21  22
ENDBRANCH  20  21
ENDBRANCH   1  20
TORSDOF 17
