REMARK SMILES CC[C@@H](C(=O)OCCOC(=O)c1ccc(-c2c3nc(c(-c4ccccc4)c4ccc([nH]4)c(-c4ccccc4)c4nc(c(-c5ccccc5)c5ccc2[nH]5)C=C4)C=C3)cc1)N1CCN(Cc2cccc(C)c2)C(=O)C1=O
REMARK SMILES IDX 7 1 6 2 4 3 5 4 3 5 2 6 1 7 60 8 61 9 74 10 62 11 72 12
REMARK SMILES IDX 75 13 63 14 73 15 64 16 65 17 66 18 71 19 67 20 69 21 68 22
REMARK SMILES IDX 70 23 8 24 9 25 10 26 11 27 12 28 13 29 59 30 14 31 58 32
REMARK SMILES IDX 15 33 16 34 17 35 52 36 18 37 57 38 51 39 53 40 19 41 56 42
REMARK SMILES IDX 50 43 49 44 20 46 42 47 27 48 41 49 28 50 31 51 40 52 54 53
REMARK SMILES IDX 29 54 30 55 39 57 55 58 32 59 21 60 22 61 26 62 23 63 25 64
REMARK SMILES IDX 24 65 43 66 44 67 48 68 45 69 47 70 46 71 33 72 34 73 38 74
REMARK SMILES IDX 35 75 37 76 36 77
REMARK H PARENT 53 45 31 56
REMARK Flexibility Score: inf
ROOT
ATOM      1  C   UNL     1      -0.004  -0.467  -3.882  1.00  0.00     0.274 C 
ENDROOT
BRANCH   1   2
ATOM      2  O   UNL     1       0.215   0.442  -2.793  1.00  0.00    -0.461 OA
BRANCH   2   3
ATOM      3  C   UNL     1       1.513   0.798  -2.587  1.00  0.00     0.328 C 
ATOM      4  O   UNL     1       2.469   0.370  -3.223  1.00  0.00    -0.250 OA
BRANCH   3   5
ATOM      5  C   UNL     1       1.632   1.817  -1.428  1.00  0.00     0.195 C 
BRANCH   5   6
ATOM      6  C   UNL     1       0.776   1.341  -0.221  1.00  0.00     0.034 C 
ATOM      7  C   UNL     1       1.063  -0.087   0.226  1.00  0.00     0.007 C 
ENDBRANCH   5   6
BRANCH   5   8
ATOM      8  N   UNL     1       1.383   3.259  -1.739  1.00  0.00    -0.319 N 
ATOM      9  C   UNL     1       1.302   4.191  -0.625  1.00  0.00     0.142 C 
ATOM     10  C   UNL     1       1.253   3.730  -3.051  1.00  0.00     0.312 C 
ATOM     11  C   UNL     1       1.639   5.627  -0.990  1.00  0.00     0.142 C 
ATOM     12  C   UNL     1       0.880   5.234  -3.262  1.00  0.00     0.312 C 
ATOM     13  O   UNL     1       1.360   3.015  -4.040  1.00  0.00    -0.263 OA
ATOM     14  N   UNL     1       0.884   6.077  -2.141  1.00  0.00    -0.328 N 
ATOM     15  O   UNL     1       0.580   5.619  -4.386  1.00  0.00    -0.263 OA
BRANCH  14  16
ATOM     16  C   UNL     1       0.575   7.499  -2.364  1.00  0.00     0.155 C 
BRANCH  16  17
ATOM     17  C   UNL     1       0.181   8.310  -1.148  1.00  0.00    -0.028 A 
ATOM     18  C   UNL     1      -1.138   8.750  -0.966  1.00  0.00     0.005 A 
ATOM     19  C   UNL     1       1.141   8.673  -0.188  1.00  0.00     0.009 A 
ATOM     20  C   UNL     1      -1.487   9.502   0.160  1.00  0.00     0.001 A 
ATOM     21  C   UNL     1       0.785   9.351   0.984  1.00  0.00    -0.051 A 
ATOM     22  C   UNL     1      -0.533   9.789   1.138  1.00  0.00     0.003 A 
ATOM     23  C   UNL     1       1.808   9.619   2.047  1.00  0.00     0.044 C 
ENDBRANCH  16  17
ENDBRANCH  14  16
ENDBRANCH   5   8
ENDBRANCH   3   5
ENDBRANCH   2   3
ENDBRANCH   1   2
BRANCH   1  24
ATOM     24  C   UNL     1      -1.497  -0.792  -3.977  1.00  0.00     0.275 C 
BRANCH  24  25
ATOM     25  O   UNL     1      -2.257   0.418  -4.159  1.00  0.00    -0.458 OA
BRANCH  25  26
ATOM     26  C   UNL     1      -2.720   0.972  -3.012  1.00  0.00     0.338 C 
ATOM     27  O   UNL     1      -2.725   0.486  -1.894  1.00  0.00    -0.246 OA
BRANCH  26  28
ATOM     28  C   UNL     1      -3.054   2.381  -3.265  1.00  0.00     0.060 A 
ATOM     29  C   UNL     1      -2.232   3.341  -2.674  1.00  0.00     0.016 A 
ATOM     30  C   UNL     1      -4.174   2.763  -4.005  1.00  0.00     0.016 A 
ATOM     31  C   UNL     1      -2.516   4.694  -2.833  1.00  0.00     0.010 A 
ATOM     32  C   UNL     1      -4.459   4.126  -4.163  1.00  0.00     0.010 A 
ATOM     33  C   UNL     1      -3.628   5.099  -3.581  1.00  0.00    -0.014 A 
BRANCH  33  34
ATOM     34  C   UNL     1      -3.936   6.547  -3.673  1.00  0.00     0.031 A 
ATOM     35  C   UNL     1      -4.943   7.150  -2.741  1.00  0.00     0.074 A 
ATOM     36  C   UNL     1      -3.242   7.341  -4.508  1.00  0.00     0.049 A 
ATOM     37  N   UNL     1      -5.366   8.386  -2.669  1.00  0.00    -0.248 NA
ATOM     38  C   UNL     1      -5.540   6.245  -1.748  1.00  0.00     0.031 C 
ATOM     39  C   UNL     1      -2.157   6.900  -5.379  1.00  0.00     0.029 A 
ATOM     40  N   UNL     1      -3.320   8.695  -4.729  1.00  0.00    -0.354 N 
ATOM     41  C   UNL     1      -6.309   8.401  -1.651  1.00  0.00     0.074 A 
ATOM     42  C   UNL     1      -6.378   7.056  -1.118  1.00  0.00     0.031 C 
ATOM     43  C   UNL     1      -1.635   7.969  -6.003  1.00  0.00     0.029 A 
ATOM     44  C   UNL     1      -2.400   9.157  -5.639  1.00  0.00     0.049 A 
ATOM     45  H   UNL     1      -3.973   9.278  -4.278  1.00  0.00     0.167 HD
ATOM     46  C   UNL     1      -7.070   9.435  -1.220  1.00  0.00     0.031 A 
ATOM     47  C   UNL     1      -2.214  10.393  -6.143  1.00  0.00     0.031 A 
ATOM     48  C   UNL     1      -7.024  10.763  -1.770  1.00  0.00     0.049 A 
ATOM     49  C   UNL     1      -3.139  11.502  -5.715  1.00  0.00     0.074 A 
ATOM     50  C   UNL     1      -7.806  11.859  -1.446  1.00  0.00     0.029 A 
ATOM     51  N   UNL     1      -6.151  11.175  -2.765  1.00  0.00    -0.354 N 
ATOM     52  N   UNL     1      -4.076  11.492  -4.797  1.00  0.00    -0.248 NA
ATOM     53  C   UNL     1      -2.998  12.789  -6.415  1.00  0.00     0.031 C 
ATOM     54  C   UNL     1      -7.440  12.920  -2.283  1.00  0.00     0.029 A 
ATOM     55  C   UNL     1      -6.389  12.502  -3.083  1.00  0.00     0.049 A 
ATOM     56  H   UNL     1      -5.463  10.608  -3.183  1.00  0.00     0.167 HD
ATOM     57  C   UNL     1      -4.630  12.767  -4.807  1.00  0.00     0.074 A 
ATOM     58  C   UNL     1      -3.903  13.534  -5.796  1.00  0.00     0.031 C 
ATOM     59  C   UNL     1      -5.660  13.253  -4.072  1.00  0.00     0.031 A 
BRANCH  46  60
ATOM     60  C   UNL     1      -8.091   9.130  -0.162  1.00  0.00    -0.014 A 
ATOM     61  C   UNL     1      -7.725   8.909   1.175  1.00  0.00     0.009 A 
ATOM     62  C   UNL     1      -9.446   9.055  -0.520  1.00  0.00     0.009 A 
ATOM     63  C   UNL     1      -8.696   8.581   2.124  1.00  0.00     0.001 A 
ATOM     64  C   UNL     1     -10.416   8.753   0.436  1.00  0.00     0.001 A 
ATOM     65  C   UNL     1     -10.040   8.505   1.754  1.00  0.00     0.000 A 
ENDBRANCH  46  60
BRANCH  47  66
ATOM     66  C   UNL     1      -1.156  10.650  -7.159  1.00  0.00    -0.014 A 
ATOM     67  C   UNL     1      -0.089  11.518  -6.881  1.00  0.00     0.009 A 
ATOM     68  C   UNL     1      -1.234  10.064  -8.432  1.00  0.00     0.009 A 
ATOM     69  C   UNL     1       0.861  11.813  -7.864  1.00  0.00     0.001 A 
ATOM     70  C   UNL     1      -0.265  10.332  -9.401  1.00  0.00     0.001 A 
ATOM     71  C   UNL     1       0.775  11.216  -9.121  1.00  0.00     0.000 A 
ENDBRANCH  47  66
BRANCH  59  72
ATOM     72  C   UNL     1      -6.047  14.689  -4.292  1.00  0.00    -0.014 A 
ATOM     73  C   UNL     1      -6.715  15.092  -5.459  1.00  0.00     0.009 A 
ATOM     74  C   UNL     1      -5.783  15.643  -3.296  1.00  0.00     0.009 A 
ATOM     75  C   UNL     1      -7.084  16.428  -5.636  1.00  0.00     0.001 A 
ATOM     76  C   UNL     1      -6.178  16.971  -3.464  1.00  0.00     0.001 A 
ATOM     77  C   UNL     1      -6.821  17.364  -4.637  1.00  0.00     0.000 A 
ENDBRANCH  59  72
ENDBRANCH  33  34
ENDBRANCH  26  28
ENDBRANCH  25  26
ENDBRANCH  24  25
ENDBRANCH   1  24
TORSDOF 15
