REMARK SMILES CC[C@H]1CC[C@](C[C@@H]2CCCc3ccccc32)(C(=O)OCCOC(=O)c2ccc(-c3c4nc(c(-c5ccccc5)c5ccc([nH]5)c(-c5ccccc5)c5nc(c(-c6ccccc6)c6ccc3[nH]6)C=C5)C=C4)cc2)C1
REMARK SMILES IDX 21 1 20 2 18 3 19 4 6 5 3 6 4 7 74 8 5 9 2 10 1 11 7 12 8 13
REMARK SMILES IDX 9 14 17 15 10 16 12 17 16 18 11 19 13 20 15 21 14 22 22 23
REMARK SMILES IDX 23 24 24 25 25 26 26 27 27 28 73 29 28 30 72 31 29 32 30 33
REMARK SMILES IDX 31 34 66 35 32 36 71 37 65 38 67 39 33 40 70 41 64 42 63 43
REMARK SMILES IDX 34 45 56 46 41 47 55 48 42 49 45 50 54 51 68 52 43 53 44 54
REMARK SMILES IDX 53 56 69 57 46 58 35 59 36 60 40 61 37 62 39 63 38 64 57 65
REMARK SMILES IDX 58 66 62 67 59 68 61 69 60 70 47 71 48 72 52 73 49 74 51 75
REMARK SMILES IDX 50 76
REMARK H PARENT 67 44 45 55
REMARK Flexibility Score: inf
ROOT
ATOM      1  C   UNL     1      -3.195   3.410  -3.877  1.00  0.00     0.274 C 
ENDROOT
BRANCH   1   2
ATOM      2  O   UNL     1      -2.072   3.097  -3.022  1.00  0.00    -0.462 OA
BRANCH   2   3
ATOM      3  C   UNL     1      -0.907   3.675  -3.428  1.00  0.00     0.312 C 
ATOM      4  O   UNL     1      -0.860   4.469  -4.364  1.00  0.00    -0.252 OA
BRANCH   3   5
ATOM      5  C   UNL     1       0.353   3.268  -2.595  1.00  0.00     0.069 C 
ATOM      6  C   UNL     1       0.008   1.623  -0.754  1.00  0.00    -0.010 C 
ATOM      7  C   UNL     1       0.505   2.930  -0.149  1.00  0.00     0.005 C 
ATOM      8  C   UNL     1       0.307   1.742  -2.269  1.00  0.00     0.022 C 
ATOM      9  C   UNL     1       0.280   3.974  -1.229  1.00  0.00     0.019 C 
BRANCH   6  10
ATOM     10  C   UNL     1       0.476   0.388   0.051  1.00  0.00     0.000 C 
ATOM     11  C   UNL     1       1.837  -0.226  -0.234  1.00  0.00     0.004 C 
ENDBRANCH   6  10
BRANCH   5  12
ATOM     12  C   UNL     1       1.532   3.773  -3.522  1.00  0.00     0.027 C 
BRANCH  12  13
ATOM     13  C   UNL     1       3.070   3.805  -3.311  1.00  0.00     0.020 C 
ATOM     14  C   UNL     1       3.776   2.458  -3.206  1.00  0.00     0.009 C 
ATOM     15  C   UNL     1       3.603   4.793  -2.293  1.00  0.00    -0.042 A 
ATOM     16  C   UNL     1       3.772   1.940  -1.788  1.00  0.00     0.005 C 
ATOM     17  C   UNL     1       4.117   4.360  -1.060  1.00  0.00    -0.045 A 
ATOM     18  C   UNL     1       3.694   6.158  -2.620  1.00  0.00     0.004 A 
ATOM     19  C   UNL     1       4.305   2.903  -0.739  1.00  0.00     0.036 C 
ATOM     20  C   UNL     1       4.595   5.301  -0.135  1.00  0.00     0.004 A 
ATOM     21  C   UNL     1       4.244   7.075  -1.722  1.00  0.00     0.000 A 
ATOM     22  C   UNL     1       4.663   6.652  -0.466  1.00  0.00     0.000 A 
ENDBRANCH  12  13
ENDBRANCH   5  12
ENDBRANCH   3   5
ENDBRANCH   2   3
ENDBRANCH   1   2
BRANCH   1  23
ATOM     23  C   UNL     1      -4.004   4.608  -3.378  1.00  0.00     0.275 C 
BRANCH  23  24
ATOM     24  O   UNL     1      -3.155   5.727  -3.070  1.00  0.00    -0.458 OA
BRANCH  24  25
ATOM     25  C   UNL     1      -3.196   6.138  -1.785  1.00  0.00     0.338 C 
ATOM     26  O   UNL     1      -3.914   5.696  -0.894  1.00  0.00    -0.246 OA
BRANCH  25  27
ATOM     27  C   UNL     1      -2.230   7.218  -1.521  1.00  0.00     0.060 A 
ATOM     28  C   UNL     1      -0.880   7.059  -1.828  1.00  0.00     0.016 A 
ATOM     29  C   UNL     1      -2.643   8.305  -0.748  1.00  0.00     0.016 A 
ATOM     30  C   UNL     1       0.071   7.878  -1.216  1.00  0.00     0.010 A 
ATOM     31  C   UNL     1      -1.696   9.197  -0.240  1.00  0.00     0.010 A 
ATOM     32  C   UNL     1      -0.322   8.952  -0.404  1.00  0.00    -0.014 A 
BRANCH  32  33
ATOM     33  C   UNL     1       0.680   9.773   0.335  1.00  0.00     0.031 A 
ATOM     34  C   UNL     1       0.601   9.895   1.839  1.00  0.00     0.074 A 
ATOM     35  C   UNL     1       1.663  10.419  -0.321  1.00  0.00     0.049 A 
ATOM     36  N   UNL     1       1.239  10.713   2.641  1.00  0.00    -0.248 NA
ATOM     37  C   UNL     1      -0.335   8.992   2.529  1.00  0.00     0.031 C 
ATOM     38  C   UNL     1       1.905  10.368  -1.763  1.00  0.00     0.029 A 
ATOM     39  N   UNL     1       2.647  11.254   0.152  1.00  0.00    -0.354 N 
ATOM     40  C   UNL     1       0.731  10.472   3.913  1.00  0.00     0.074 A 
ATOM     41  C   UNL     1      -0.267   9.432   3.778  1.00  0.00     0.031 C 
ATOM     42  C   UNL     1       2.985  11.109  -2.054  1.00  0.00     0.029 A 
ATOM     43  C   UNL     1       3.461  11.754  -0.835  1.00  0.00     0.049 A 
ATOM     44  H   UNL     1       2.759  11.472   1.105  1.00  0.00     0.167 HD
ATOM     45  C   UNL     1       1.060  11.063   5.088  1.00  0.00     0.031 A 
ATOM     46  C   UNL     1       4.452  12.662  -0.781  1.00  0.00     0.031 A 
ATOM     47  C   UNL     1       2.091  12.057   5.241  1.00  0.00     0.049 A 
ATOM     48  C   UNL     1       4.797  13.309   0.528  1.00  0.00     0.074 A 
ATOM     49  C   UNL     1       2.509  12.699   6.395  1.00  0.00     0.029 A 
ATOM     50  N   UNL     1       2.881  12.538   4.209  1.00  0.00    -0.354 N 
ATOM     51  N   UNL     1       4.267  13.117   1.710  1.00  0.00    -0.248 NA
ATOM     52  C   UNL     1       5.874  14.309   0.503  1.00  0.00     0.031 C 
ATOM     53  C   UNL     1       3.531  13.592   6.055  1.00  0.00     0.029 A 
ATOM     54  C   UNL     1       3.780  13.471   4.698  1.00  0.00     0.049 A 
ATOM     55  H   UNL     1       2.813  12.257   3.268  1.00  0.00     0.167 HD
ATOM     56  C   UNL     1       4.951  13.962   2.573  1.00  0.00     0.074 A 
ATOM     57  C   UNL     1       5.951  14.651   1.782  1.00  0.00     0.031 C 
ATOM     58  C   UNL     1       4.765  14.154   3.901  1.00  0.00     0.031 A 
BRANCH  45  59
ATOM     59  C   UNL     1       0.261  10.680   6.303  1.00  0.00    -0.014 A 
ATOM     60  C   UNL     1       0.420   9.435   6.931  1.00  0.00     0.009 A 
ATOM     61  C   UNL     1      -0.653  11.600   6.844  1.00  0.00     0.009 A 
ATOM     62  C   UNL     1      -0.347   9.106   8.052  1.00  0.00     0.001 A 
ATOM     63  C   UNL     1      -1.398  11.279   7.980  1.00  0.00     0.001 A 
ATOM     64  C   UNL     1      -1.252  10.028   8.577  1.00  0.00     0.000 A 
ENDBRANCH  45  59
BRANCH  46  65
ATOM     65  C   UNL     1       5.165  13.042  -2.026  1.00  0.00    -0.014 A 
ATOM     66  C   UNL     1       6.487  12.628  -2.244  1.00  0.00     0.009 A 
ATOM     67  C   UNL     1       4.520  13.808  -3.010  1.00  0.00     0.009 A 
ATOM     68  C   UNL     1       7.154  12.984  -3.418  1.00  0.00     0.001 A 
ATOM     69  C   UNL     1       5.179  14.138  -4.195  1.00  0.00     0.001 A 
ATOM     70  C   UNL     1       6.497  13.732  -4.395  1.00  0.00     0.000 A 
ENDBRANCH  46  65
BRANCH  58  71
ATOM     71  C   UNL     1       5.687  15.124   4.583  1.00  0.00    -0.014 A 
ATOM     72  C   UNL     1       5.554  16.509   4.397  1.00  0.00     0.009 A 
ATOM     73  C   UNL     1       6.700  14.643   5.426  1.00  0.00     0.009 A 
ATOM     74  C   UNL     1       6.445  17.391   5.012  1.00  0.00     0.001 A 
ATOM     75  C   UNL     1       7.574  15.529   6.059  1.00  0.00     0.001 A 
ATOM     76  C   UNL     1       7.452  16.901   5.843  1.00  0.00     0.000 A 
ENDBRANCH  58  71
ENDBRANCH  32  33
ENDBRANCH  25  27
ENDBRANCH  24  25
ENDBRANCH  23  24
ENDBRANCH   1  23
TORSDOF 14
