REMARK SMILES O=C(CCc1cn(-c2ccc(Br)cc2)nc1-c1ccccc1)OCCOC(=O)c1ccc(-c2c3nc(c(-c4ccccc4)c4ccc([nH]4)c(-c4ccccc4)c4nc(c(-c5ccccc5)c5ccc2[nH]5)C=C4)C=C3)cc1
REMARK SMILES IDX 24 1 23 2 2 3 1 4 3 5 4 6 5 7 6 8 16 9 7 10 15 11 17 12
REMARK SMILES IDX 18 13 22 14 19 15 21 16 20 17 8 18 9 19 14 20 10 21 13 22
REMARK SMILES IDX 11 23 12 24 25 25 26 26 27 27 28 28 29 29 30 30 76 31 31 32
REMARK SMILES IDX 75 33 32 34 33 35 34 36 69 37 35 38 74 39 68 40 70 41 36 42
REMARK SMILES IDX 73 43 67 44 66 45 37 47 59 48 44 49 58 50 45 51 48 52 57 53
REMARK SMILES IDX 71 54 46 55 47 56 56 58 72 59 49 60 38 61 39 62 43 63 40 64
REMARK SMILES IDX 42 65 41 66 60 67 61 68 65 69 62 70 64 71 63 72 50 73 51 74
REMARK SMILES IDX 55 75 52 76 54 77 53 78
REMARK H PARENT 70 46 48 57
REMARK Flexibility Score: inf
ROOT
ATOM      1  C   UNL     1       4.135  -0.878  -1.077  1.00  0.00     0.274 C 
ENDROOT
BRANCH   1   2
ATOM      2  O   UNL     1       2.793  -0.461  -0.702  1.00  0.00    -0.462 OA
BRANCH   2   3
ATOM      3  C   UNL     1       2.409   0.378   0.289  1.00  0.00     0.306 C 
ATOM      4  O   UNL     1       1.218   0.487   0.579  1.00  0.00    -0.252 OA
BRANCH   3   5
ATOM      5  C   UNL     1       3.436   1.198   1.024  1.00  0.00     0.127 C 
BRANCH   5   6
ATOM      6  C   UNL     1       3.855   0.573   2.357  1.00  0.00     0.051 C 
BRANCH   6   7
ATOM      7  C   UNL     1       4.863  -0.506   2.144  1.00  0.00    -0.001 A 
ATOM      8  C   UNL     1       6.215  -0.336   1.916  1.00  0.00     0.119 A 
ATOM      9  C   UNL     1       4.645  -1.909   1.996  1.00  0.00     0.096 A 
ATOM     10  N   UNL     1       6.681  -1.537   1.435  1.00  0.00    -0.240 N 
ATOM     11  N   UNL     1       5.721  -2.494   1.448  1.00  0.00    -0.168 NA
BRANCH   9  12
ATOM     12  C   UNL     1       3.419  -2.647   2.294  1.00  0.00     0.002 A 
ATOM     13  C   UNL     1       3.257  -3.220   3.557  1.00  0.00     0.010 A 
ATOM     14  C   UNL     1       2.355  -2.716   1.392  1.00  0.00     0.010 A 
ATOM     15  C   UNL     1       2.033  -3.792   3.920  1.00  0.00     0.001 A 
ATOM     16  C   UNL     1       1.117  -3.235   1.766  1.00  0.00     0.001 A 
ATOM     17  C   UNL     1       0.954  -3.771   3.035  1.00  0.00     0.000 A 
ENDBRANCH   9  12
BRANCH  10  18
ATOM     18  C   UNL     1       7.951  -1.760   0.848  1.00  0.00     0.065 A 
ATOM     19  C   UNL     1       9.083  -1.089   1.331  1.00  0.00     0.029 A 
ATOM     20  C   UNL     1       8.064  -2.642  -0.236  1.00  0.00     0.029 A 
ATOM     21  C   UNL     1      10.333  -1.342   0.759  1.00  0.00     0.018 A 
ATOM     22  C   UNL     1       9.308  -2.848  -0.838  1.00  0.00     0.018 A 
ATOM     23  C   UNL     1      10.439  -2.215  -0.324  1.00  0.00     0.018 A 
ATOM     24  Br  UNL     1      12.134  -2.557  -1.089  1.00  0.00    -0.051 Br
ENDBRANCH  10  18
ENDBRANCH   6   7
ENDBRANCH   5   6
ENDBRANCH   3   5
ENDBRANCH   2   3
ENDBRANCH   1   2
BRANCH   1  25
ATOM     25  C   UNL     1       4.473  -0.492  -2.506  1.00  0.00     0.275 C 
BRANCH  25  26
ATOM     26  O   UNL     1       4.409   0.921  -2.565  1.00  0.00    -0.458 OA
BRANCH  26  27
ATOM     27  C   UNL     1       3.138   1.395  -2.647  1.00  0.00     0.338 C 
ATOM     28  O   UNL     1       2.159   0.818  -3.045  1.00  0.00    -0.246 OA
BRANCH  27  29
ATOM     29  C   UNL     1       3.195   2.802  -2.225  1.00  0.00     0.060 A 
ATOM     30  C   UNL     1       2.168   3.587  -2.730  1.00  0.00     0.016 A 
ATOM     31  C   UNL     1       4.416   3.332  -1.773  1.00  0.00     0.016 A 
ATOM     32  C   UNL     1       2.525   4.827  -3.182  1.00  0.00     0.010 A 
ATOM     33  C   UNL     1       4.774   4.568  -2.226  1.00  0.00     0.010 A 
ATOM     34  C   UNL     1       3.863   5.217  -3.046  1.00  0.00    -0.014 A 
BRANCH  34  35
ATOM     35  C   UNL     1       4.303   6.332  -3.834  1.00  0.00     0.031 A 
ATOM     36  C   UNL     1       3.857   7.614  -3.280  1.00  0.00     0.074 A 
ATOM     37  C   UNL     1       5.056   6.179  -4.936  1.00  0.00     0.049 A 
ATOM     38  N   UNL     1       2.928   8.376  -3.740  1.00  0.00    -0.248 NA
ATOM     39  C   UNL     1       4.361   7.979  -1.949  1.00  0.00     0.031 C 
ATOM     40  C   UNL     1       5.781   4.998  -5.414  1.00  0.00     0.029 A 
ATOM     41  N   UNL     1       5.405   7.136  -5.826  1.00  0.00    -0.354 N 
ATOM     42  C   UNL     1       2.844   9.426  -2.842  1.00  0.00     0.074 A 
ATOM     43  C   UNL     1       3.599   9.037  -1.678  1.00  0.00     0.031 C 
ATOM     44  C   UNL     1       6.671   5.385  -6.360  1.00  0.00     0.029 A 
ATOM     45  C   UNL     1       6.466   6.796  -6.646  1.00  0.00     0.049 A 
ATOM     46  H   UNL     1       4.943   8.003  -5.886  1.00  0.00     0.167 HD
ATOM     47  C   UNL     1       2.374  10.640  -3.224  1.00  0.00     0.031 A 
ATOM     48  C   UNL     1       7.161   7.662  -7.423  1.00  0.00     0.031 A 
ATOM     49  C   UNL     1       1.656  10.571  -4.470  1.00  0.00     0.049 A 
ATOM     50  C   UNL     1       6.318   8.874  -7.602  1.00  0.00     0.074 A 
ATOM     51  C   UNL     1       0.503   9.934  -4.886  1.00  0.00     0.029 A 
ATOM     52  N   UNL     1       2.350  10.892  -5.614  1.00  0.00    -0.354 N 
ATOM     53  N   UNL     1       5.202   8.876  -8.275  1.00  0.00    -0.248 NA
ATOM     54  C   UNL     1       6.463   9.960  -6.641  1.00  0.00     0.031 C 
ATOM     55  C   UNL     1       0.778   9.503  -6.216  1.00  0.00     0.029 A 
ATOM     56  C   UNL     1       2.059   9.943  -6.560  1.00  0.00     0.049 A 
ATOM     57  H   UNL     1       2.948  11.665  -5.732  1.00  0.00     0.167 HD
ATOM     58  C   UNL     1       4.341   9.684  -7.543  1.00  0.00     0.074 A 
ATOM     59  C   UNL     1       5.201  10.400  -6.603  1.00  0.00     0.031 C 
ATOM     60  C   UNL     1       2.990   9.484  -7.570  1.00  0.00     0.031 A 
BRANCH  47  61
ATOM     61  C   UNL     1       2.934  11.921  -2.678  1.00  0.00    -0.014 A 
ATOM     62  C   UNL     1       2.341  13.133  -3.062  1.00  0.00     0.009 A 
ATOM     63  C   UNL     1       4.180  11.999  -2.023  1.00  0.00     0.009 A 
ATOM     64  C   UNL     1       2.993  14.352  -2.852  1.00  0.00     0.001 A 
ATOM     65  C   UNL     1       4.813  13.216  -1.773  1.00  0.00     0.001 A 
ATOM     66  C   UNL     1       4.229  14.393  -2.214  1.00  0.00     0.000 A 
ENDBRANCH  47  61
BRANCH  48  67
ATOM     67  C   UNL     1       8.612   7.655  -7.704  1.00  0.00    -0.014 A 
ATOM     68  C   UNL     1       9.145   8.412  -8.758  1.00  0.00     0.009 A 
ATOM     69  C   UNL     1       9.511   7.114  -6.765  1.00  0.00     0.009 A 
ATOM     70  C   UNL     1      10.524   8.647  -8.848  1.00  0.00     0.001 A 
ATOM     71  C   UNL     1      10.887   7.347  -6.856  1.00  0.00     0.001 A 
ATOM     72  C   UNL     1      11.392   8.126  -7.890  1.00  0.00     0.000 A 
ENDBRANCH  48  67
BRANCH  60  73
ATOM     73  C   UNL     1       2.445   8.496  -8.575  1.00  0.00    -0.014 A 
ATOM     74  C   UNL     1       2.753   7.124  -8.541  1.00  0.00     0.009 A 
ATOM     75  C   UNL     1       1.458   8.934  -9.470  1.00  0.00     0.009 A 
ATOM     76  C   UNL     1       2.104   6.222  -9.392  1.00  0.00     0.001 A 
ATOM     77  C   UNL     1       0.796   8.031 -10.306  1.00  0.00     0.001 A 
ATOM     78  C   UNL     1       1.121   6.676 -10.269  1.00  0.00     0.000 A 
ENDBRANCH  60  73
ENDBRANCH  34  35
ENDBRANCH  27  29
ENDBRANCH  26  27
ENDBRANCH  25  26
ENDBRANCH   1  25
TORSDOF 15
