REMARK SMILES C[C@@H]([NH2+]C[C@H]1CCC[C@@H]1C(=O)OCCOC(=O)c1ccc(-c2c3nc(c(-c4ccccc4)c4ccc([nH]4)c(-c4ccccc4)c4nc(c(-c5ccccc5)c5ccc2[nH]5)C=C4)C=C3)cc1)c1cc(F)ccc1O
REMARK SMILES IDX 12 1 10 2 11 3 9 4 5 5 6 6 7 7 8 8 4 9 3 10 2 13 1 14 66 15
REMARK SMILES IDX 67 16 72 17 68 18 71 19 69 20 70 21 73 22 13 24 14 25 15 26
REMARK SMILES IDX 16 27 17 28 18 29 19 30 65 31 20 32 64 33 21 34 22 35 23 36
REMARK SMILES IDX 58 37 24 38 63 39 57 40 59 41 25 42 62 43 56 44 55 45 26 47
REMARK SMILES IDX 48 48 33 49 47 50 34 51 37 52 46 53 60 54 35 55 36 56 45 58
REMARK SMILES IDX 61 59 38 60 27 61 28 62 32 63 29 64 31 65 30 66 49 67 50 68
REMARK SMILES IDX 54 69 51 70 53 71 52 72 39 73 40 74 44 75 41 76 43 77 42 78
REMARK H PARENT 3 11 3 12 73 23 59 46 37 57
REMARK Flexibility Score: inf
ROOT
ATOM      1  O   UNL     1      -1.410  -1.073  -5.008  1.00  0.00    -0.462 OA
ENDROOT
BRANCH   1   2
ATOM      2  C   UNL     1      -1.026   0.047  -5.681  1.00  0.00     0.309 C 
ATOM      3  O   UNL     1      -1.802   0.834  -6.211  1.00  0.00    -0.252 OA
BRANCH   2   4
ATOM      4  C   UNL     1       0.494   0.147  -5.783  1.00  0.00     0.108 C 
ATOM      5  C   UNL     1       1.236   0.062  -4.430  1.00  0.00     0.058 C 
ATOM      6  C   UNL     1       1.222   1.514  -3.957  1.00  0.00     0.010 C 
ATOM      7  C   UNL     1       1.499   2.328  -5.207  1.00  0.00     0.001 C 
ATOM      8  C   UNL     1       0.926   1.512  -6.365  1.00  0.00     0.016 C 
BRANCH   5   9
ATOM      9  C   UNL     1       2.662  -0.499  -4.631  1.00  0.00     0.265 C 
BRANCH   9  10
ATOM     10  N   UNL     1       3.634  -0.219  -3.563  1.00  0.00    -0.340 N 
ATOM     11  H   UNL     1       4.537  -0.601  -3.844  1.00  0.00     0.346 HD
ATOM     12  H   UNL     1       3.655   0.794  -3.442  1.00  0.00     0.346 HD
BRANCH  10  13
ATOM     13  C   UNL     1       3.272  -0.797  -2.253  1.00  0.00     0.214 C 
ATOM     14  C   UNL     1       4.119  -0.113  -1.171  1.00  0.00     0.081 C 
BRANCH  13  15
ATOM     15  C   UNL     1       3.489  -2.298  -2.209  1.00  0.00     0.054 A 
ATOM     16  C   UNL     1       2.617  -3.091  -1.447  1.00  0.00     0.053 A 
ATOM     17  C   UNL     1       4.551  -2.939  -2.871  1.00  0.00     0.124 A 
ATOM     18  C   UNL     1       2.807  -4.469  -1.373  1.00  0.00     0.123 A 
ATOM     19  C   UNL     1       4.740  -4.316  -2.790  1.00  0.00     0.050 A 
ATOM     20  F   UNL     1       1.960  -5.209  -0.646  1.00  0.00    -0.207 F 
ATOM     21  C   UNL     1       3.859  -5.088  -2.038  1.00  0.00     0.043 A 
BRANCH  17  22
ATOM     22  O   UNL     1       5.435  -2.243  -3.648  1.00  0.00    -0.507 OA
ATOM     23  H   UNL     1       5.352  -1.314  -3.736  1.00  0.00     0.293 HD
ENDBRANCH  17  22
ENDBRANCH  13  15
ENDBRANCH  10  13
ENDBRANCH   9  10
ENDBRANCH   5   9
ENDBRANCH   2   4
ENDBRANCH   1   2
BRANCH   1  24
ATOM     24  C   UNL     1      -2.835  -1.314  -4.959  1.00  0.00     0.274 C 
BRANCH  24  25
ATOM     25  C   UNL     1      -3.419  -0.868  -3.620  1.00  0.00     0.275 C 
BRANCH  25  26
ATOM     26  O   UNL     1      -3.203   0.543  -3.452  1.00  0.00    -0.458 OA
BRANCH  26  27
ATOM     27  C   UNL     1      -2.815   0.939  -2.218  1.00  0.00     0.338 C 
ATOM     28  O   UNL     1      -2.723   0.240  -1.223  1.00  0.00    -0.246 OA
BRANCH  27  29
ATOM     29  C   UNL     1      -2.442   2.374  -2.229  1.00  0.00     0.060 A 
ATOM     30  C   UNL     1      -1.921   2.978  -3.372  1.00  0.00     0.016 A 
ATOM     31  C   UNL     1      -2.478   3.093  -1.032  1.00  0.00     0.016 A 
ATOM     32  C   UNL     1      -1.305   4.227  -3.283  1.00  0.00     0.010 A 
ATOM     33  C   UNL     1      -1.972   4.398  -0.980  1.00  0.00     0.010 A 
ATOM     34  C   UNL     1      -1.328   4.966  -2.091  1.00  0.00    -0.014 A 
BRANCH  34  35
ATOM     35  C   UNL     1      -0.650   6.295  -1.990  1.00  0.00     0.031 A 
ATOM     36  C   UNL     1       0.341   6.571  -0.882  1.00  0.00     0.074 A 
ATOM     37  C   UNL     1      -0.891   7.271  -2.890  1.00  0.00     0.049 A 
ATOM     38  N   UNL     1       0.844   7.715  -0.487  1.00  0.00    -0.248 NA
ATOM     39  C   UNL     1       0.816   5.413  -0.108  1.00  0.00     0.031 C 
ATOM     40  C   UNL     1      -1.761   7.160  -4.062  1.00  0.00     0.029 A 
ATOM     41  N   UNL     1      -0.400   8.553  -2.968  1.00  0.00    -0.354 N 
ATOM     42  C   UNL     1       1.615   7.426   0.634  1.00  0.00     0.074 A 
ATOM     43  C   UNL     1       1.534   5.996   0.842  1.00  0.00     0.031 C 
ATOM     44  C   UNL     1      -1.677   8.287  -4.783  1.00  0.00     0.029 A 
ATOM     45  C   UNL     1      -0.849   9.248  -4.064  1.00  0.00     0.049 A 
ATOM     46  H   UNL     1       0.215   8.936  -2.301  1.00  0.00     0.167 HD
ATOM     47  C   UNL     1       2.313   8.275   1.427  1.00  0.00     0.031 A 
ATOM     48  C   UNL     1      -0.668  10.529  -4.434  1.00  0.00     0.031 A 
ATOM     49  C   UNL     1       2.459   9.687   1.184  1.00  0.00     0.049 A 
ATOM     50  C   UNL     1       0.083  11.460  -3.532  1.00  0.00     0.074 A 
ATOM     51  C   UNL     1       3.156  10.625   1.928  1.00  0.00     0.029 A 
ATOM     52  N   UNL     1       1.922  10.359   0.098  1.00  0.00    -0.354 N 
ATOM     53  N   UNL     1       0.700  11.198  -2.407  1.00  0.00    -0.248 NA
ATOM     54  C   UNL     1       0.121  12.874  -3.931  1.00  0.00     0.031 C 
ATOM     55  C   UNL     1       3.015  11.871   1.307  1.00  0.00     0.029 A 
ATOM     56  C   UNL     1       2.264  11.700   0.156  1.00  0.00     0.049 A 
ATOM     57  H   UNL     1       1.378   9.945  -0.610  1.00  0.00     0.167 HD
ATOM     58  C   UNL     1       1.193  12.415  -1.957  1.00  0.00     0.074 A 
ATOM     59  C   UNL     1       0.827  13.410  -2.945  1.00  0.00     0.031 C 
ATOM     60  C   UNL     1       1.879  12.684  -0.820  1.00  0.00     0.031 A 
BRANCH  47  61
ATOM     61  C   UNL     1       2.929   7.708   2.675  1.00  0.00    -0.014 A 
ATOM     62  C   UNL     1       4.087   6.919   2.640  1.00  0.00     0.009 A 
ATOM     63  C   UNL     1       2.343   8.002   3.918  1.00  0.00     0.009 A 
ATOM     64  C   UNL     1       4.628   6.408   3.824  1.00  0.00     0.001 A 
ATOM     65  C   UNL     1       2.899   7.511   5.101  1.00  0.00     0.001 A 
ATOM     66  C   UNL     1       4.036   6.707   5.052  1.00  0.00     0.000 A 
ENDBRANCH  47  61
BRANCH  48  67
ATOM     67  C   UNL     1      -1.268  11.017  -5.701  1.00  0.00    -0.014 A 
ATOM     68  C   UNL     1      -0.453  11.292  -6.808  1.00  0.00     0.009 A 
ATOM     69  C   UNL     1      -2.658  11.173  -5.822  1.00  0.00     0.009 A 
ATOM     70  C   UNL     1      -1.019  11.711  -8.014  1.00  0.00     0.001 A 
ATOM     71  C   UNL     1      -3.223  11.565  -7.036  1.00  0.00     0.001 A 
ATOM     72  C   UNL     1      -2.403  11.837  -8.130  1.00  0.00     0.000 A 
ENDBRANCH  48  67
BRANCH  60  73
ATOM     73  C   UNL     1       2.284  14.110  -0.595  1.00  0.00    -0.014 A 
ATOM     74  C   UNL     1       1.351  15.063  -0.159  1.00  0.00     0.009 A 
ATOM     75  C   UNL     1       3.614  14.502  -0.807  1.00  0.00     0.009 A 
ATOM     76  C   UNL     1       1.737  16.391   0.030  1.00  0.00     0.001 A 
ATOM     77  C   UNL     1       4.001  15.826  -0.599  1.00  0.00     0.001 A 
ATOM     78  C   UNL     1       3.062  16.771  -0.188  1.00  0.00     0.000 A 
ENDBRANCH  60  73
ENDBRANCH  34  35
ENDBRANCH  27  29
ENDBRANCH  26  27
ENDBRANCH  25  26
ENDBRANCH  24  25
ENDBRANCH   1  24
TORSDOF 16
