REMARK SMILES Cc1c(C(=O)OCCOC(=O)c2ccc(-c3c4nc(c(-c5ccccc5)c5ccc([nH]5)c(-c5ccccc5)c5nc(c(-c6ccccc6)c6ccc3[nH]6)C=C5)C=C4)cc2)cnn1[C@H]1CCS(=O)(=O)C1
REMARK SMILES IDX 8 1 7 2 6 3 4 4 5 5 3 6 1 7 2 8 62 9 60 10 61 11 63 12 64 13
REMARK SMILES IDX 69 14 65 15 66 16 67 17 68 18 9 19 10 20 11 21 12 22 13 23
REMARK SMILES IDX 59 24 14 25 58 26 15 27 16 28 17 29 52 30 18 31 57 32 51 33
REMARK SMILES IDX 53 34 19 35 56 36 50 37 49 38 20 40 42 41 27 42 41 43 28 44
REMARK SMILES IDX 31 45 40 46 54 47 29 48 30 49 39 51 55 52 32 53 21 54 22 55
REMARK SMILES IDX 26 56 23 57 25 58 24 59 43 60 44 61 48 62 45 63 47 64 46 65
REMARK SMILES IDX 33 66 34 67 38 68 35 69 37 70 36 71
REMARK H PARENT 53 39 31 50
REMARK Flexibility Score: inf
ROOT
ATOM      1  C   UNL     1       0.827   6.616   7.872  1.00  0.00     0.275 C 
ENDROOT
BRANCH   1   2
ATOM      2  C   UNL     1      -0.064   7.336   6.866  1.00  0.00     0.275 C 
BRANCH   2   3
ATOM      3  O   UNL     1      -0.502   6.448   5.824  1.00  0.00    -0.458 OA
BRANCH   3   4
ATOM      4  C   UNL     1       0.325   6.381   4.740  1.00  0.00     0.341 C 
ATOM      5  O   UNL     1       1.248   7.164   4.532  1.00  0.00    -0.246 OA
BRANCH   4   6
ATOM      6  C   UNL     1       0.052   5.239   3.888  1.00  0.00     0.100 A 
ATOM      7  C   UNL     1       2.431   4.816   2.964  1.00  0.00     0.067 C 
ATOM      8  C   UNL     1       0.967   4.579   3.071  1.00  0.00     0.050 A 
ATOM      9  N   UNL     1       0.248   3.610   2.408  1.00  0.00    -0.265 N 
ATOM     10  C   UNL     1      -1.132   4.495   3.759  1.00  0.00     0.151 A 
ATOM     11  N   UNL     1      -1.026   3.520   2.856  1.00  0.00    -0.180 NA
BRANCH   9  12
ATOM     12  C   UNL     1       0.589   2.731   1.298  1.00  0.00     0.123 C 
ATOM     13  C   UNL     1      -0.205   3.110   0.033  1.00  0.00     0.044 C 
ATOM     14  C   UNL     1       2.043   2.679   0.853  1.00  0.00     0.164 C 
ATOM     15  C   UNL     1       0.292   2.218  -1.096  1.00  0.00     0.139 C 
ATOM     16  S   UNL     1       2.005   1.893  -0.736  1.00  0.00     0.152 S 
ATOM     17  O   UNL     1       2.177   0.469  -0.542  1.00  0.00    -0.229 OA
ATOM     18  O   UNL     1       2.835   2.658  -1.642  1.00  0.00    -0.229 OA
ENDBRANCH   9  12
ENDBRANCH   4   6
ENDBRANCH   3   4
ENDBRANCH   2   3
ENDBRANCH   1   2
BRANCH   1  19
ATOM     19  O   UNL     1       2.115   6.285   7.344  1.00  0.00    -0.458 OA
BRANCH  19  20
ATOM     20  C   UNL     1       2.218   5.019   6.878  1.00  0.00     0.338 C 
ATOM     21  O   UNL     1       1.315   4.300   6.489  1.00  0.00    -0.246 OA
BRANCH  20  22
ATOM     22  C   UNL     1       3.574   4.513   7.115  1.00  0.00     0.060 A 
ATOM     23  C   UNL     1       3.978   3.366   6.426  1.00  0.00     0.016 A 
ATOM     24  C   UNL     1       4.314   5.020   8.191  1.00  0.00     0.016 A 
ATOM     25  C   UNL     1       5.080   2.667   6.884  1.00  0.00     0.010 A 
ATOM     26  C   UNL     1       5.410   4.319   8.649  1.00  0.00     0.010 A 
ATOM     27  C   UNL     1       5.751   3.118   8.028  1.00  0.00    -0.014 A 
BRANCH  27  28
ATOM     28  C   UNL     1       6.879   2.339   8.514  1.00  0.00     0.031 A 
ATOM     29  C   UNL     1       8.048   2.293   7.601  1.00  0.00     0.074 A 
ATOM     30  C   UNL     1       6.937   1.819   9.754  1.00  0.00     0.049 A 
ATOM     31  N   UNL     1       8.625   1.250   7.103  1.00  0.00    -0.248 NA
ATOM     32  C   UNL     1       8.589   3.574   7.120  1.00  0.00     0.031 C 
ATOM     33  C   UNL     1       6.000   2.015  10.864  1.00  0.00     0.029 A 
ATOM     34  N   UNL     1       7.942   1.094  10.319  1.00  0.00    -0.354 N 
ATOM     35  C   UNL     1       9.698   1.727   6.356  1.00  0.00     0.074 A 
ATOM     36  C   UNL     1       9.564   3.162   6.311  1.00  0.00     0.031 C 
ATOM     37  C   UNL     1       6.597   1.633  12.016  1.00  0.00     0.029 A 
ATOM     38  C   UNL     1       7.892   1.050  11.704  1.00  0.00     0.049 A 
ATOM     39  H   UNL     1       8.640   0.642   9.792  1.00  0.00     0.167 HD
ATOM     40  C   UNL     1      10.733   0.927   5.984  1.00  0.00     0.031 A 
ATOM     41  C   UNL     1       8.875   0.629  12.534  1.00  0.00     0.031 A 
ATOM     42  C   UNL     1      10.407  -0.469   6.074  1.00  0.00     0.049 A 
ATOM     43  C   UNL     1       9.822  -0.191  11.747  1.00  0.00     0.074 A 
ATOM     44  C   UNL     1       9.466  -1.288   5.482  1.00  0.00     0.029 A 
ATOM     45  N   UNL     1      10.890  -1.171   7.152  1.00  0.00    -0.354 N 
ATOM     46  N   UNL     1       9.540  -1.376  11.291  1.00  0.00    -0.248 NA
ATOM     47  C   UNL     1      10.957   0.465  11.113  1.00  0.00     0.031 C 
ATOM     48  C   UNL     1       9.091  -2.214   6.498  1.00  0.00     0.029 A 
ATOM     49  C   UNL     1       9.853  -1.928   7.632  1.00  0.00     0.049 A 
ATOM     50  H   UNL     1      11.806  -1.136   7.510  1.00  0.00     0.167 HD
ATOM     51  C   UNL     1      10.151  -1.430  10.048  1.00  0.00     0.074 A 
ATOM     52  C   UNL     1      11.109  -0.329  10.049  1.00  0.00     0.031 C 
ATOM     53  C   UNL     1       9.620  -2.179   9.036  1.00  0.00     0.031 A 
BRANCH  40  54
ATOM     54  C   UNL     1      12.155   1.413   5.893  1.00  0.00    -0.014 A 
ATOM     55  C   UNL     1      13.143   0.542   5.402  1.00  0.00     0.009 A 
ATOM     56  C   UNL     1      12.600   2.586   6.534  1.00  0.00     0.009 A 
ATOM     57  C   UNL     1      14.504   0.802   5.604  1.00  0.00     0.001 A 
ATOM     58  C   UNL     1      13.957   2.868   6.699  1.00  0.00     0.001 A 
ATOM     59  C   UNL     1      14.909   1.961   6.259  1.00  0.00     0.000 A 
ENDBRANCH  40  54
BRANCH  41  60
ATOM     60  C   UNL     1       9.167   1.058  13.916  1.00  0.00    -0.014 A 
ATOM     61  C   UNL     1       9.981   0.280  14.752  1.00  0.00     0.009 A 
ATOM     62  C   UNL     1       8.851   2.364  14.336  1.00  0.00     0.009 A 
ATOM     63  C   UNL     1      10.489   0.802  15.948  1.00  0.00     0.001 A 
ATOM     64  C   UNL     1       9.352   2.883  15.533  1.00  0.00     0.001 A 
ATOM     65  C   UNL     1      10.185   2.107  16.332  1.00  0.00     0.000 A 
ENDBRANCH  41  60
BRANCH  53  66
ATOM     66  C   UNL     1       8.490  -3.120   9.377  1.00  0.00    -0.014 A 
ATOM     67  C   UNL     1       7.278  -2.678   9.937  1.00  0.00     0.009 A 
ATOM     68  C   UNL     1       8.591  -4.465   8.994  1.00  0.00     0.009 A 
ATOM     69  C   UNL     1       6.218  -3.564  10.151  1.00  0.00     0.001 A 
ATOM     70  C   UNL     1       7.524  -5.345   9.185  1.00  0.00     0.001 A 
ATOM     71  C   UNL     1       6.341  -4.897   9.771  1.00  0.00     0.000 A 
ENDBRANCH  53  66
ENDBRANCH  27  28
ENDBRANCH  20  22
ENDBRANCH  19  20
ENDBRANCH   1  19
TORSDOF 12
