REMARK SMILES O=C(CC1(C(=O)OCCOC(=O)c2ccc(-c3c4nc(c(-c5ccccc5)c5ccc([nH]5)c(-c5ccccc5)c5nc(c(-c6ccccc6)c6ccc3[nH]6)C=C5)C=C4)cc2)CCCCC1)Nc1ccc(N2CCOC2=O)cc1
REMARK SMILES IDX 8 1 7 2 5 3 6 4 4 5 61 6 65 7 62 8 64 9 63 10 3 11 2 12 1 13
REMARK SMILES IDX 66 14 67 16 68 17 78 18 69 19 77 20 70 21 71 22 72 23 75 24
REMARK SMILES IDX 73 25 74 26 76 27 9 28 10 29 11 30 12 31 13 32 14 33 60 34
REMARK SMILES IDX 15 35 59 36 16 37 17 38 18 39 53 40 19 41 58 42 52 43 54 44
REMARK SMILES IDX 20 45 57 46 51 47 50 48 21 50 43 51 28 52 42 53 29 54 32 55
REMARK SMILES IDX 41 56 55 57 30 58 31 59 40 61 56 62 33 63 22 64 23 65 27 66
REMARK SMILES IDX 24 67 26 68 25 69 44 70 45 71 49 72 46 73 48 74 47 75 34 76
REMARK SMILES IDX 35 77 39 78 36 79 38 80 37 81
REMARK H PARENT 66 15 54 49 32 60
REMARK Flexibility Score: inf
ROOT
ATOM      1  C   UNL     1       3.179  -2.289  -3.656  1.00  0.00     0.274 C 
ENDROOT
BRANCH   1   2
ATOM      2  O   UNL     1       3.536  -2.406  -2.271  1.00  0.00    -0.462 OA
BRANCH   2   3
ATOM      3  C   UNL     1       4.392  -1.489  -1.773  1.00  0.00     0.312 C 
ATOM      4  O   UNL     1       4.946  -0.622  -2.443  1.00  0.00    -0.252 OA
BRANCH   3   5
ATOM      5  C   UNL     1       4.590  -1.607  -0.259  1.00  0.00     0.077 C 
ATOM      6  C   UNL     1       6.113  -1.601   0.017  1.00  0.00     0.019 C 
ATOM      7  C   UNL     1       4.023  -2.937   0.320  1.00  0.00     0.019 C 
ATOM      8  C   UNL     1       6.821  -2.813  -0.579  1.00  0.00     0.001 C 
ATOM      9  C   UNL     1       4.739  -4.201  -0.173  1.00  0.00     0.001 C 
ATOM     10  C   UNL     1       6.253  -4.115  -0.028  1.00  0.00     0.000 C 
BRANCH   5  11
ATOM     11  C   UNL     1       3.975  -0.389   0.492  1.00  0.00     0.119 C 
BRANCH  11  12
ATOM     12  C   UNL     1       3.058   0.610  -0.202  1.00  0.00     0.225 C 
ATOM     13  O   UNL     1       1.955   0.816   0.294  1.00  0.00    -0.275 OA
ATOM     14  N   UNL     1       3.522   1.261  -1.321  1.00  0.00    -0.326 N 
ATOM     15  H   UNL     1       4.447   1.085  -1.607  1.00  0.00     0.169 HD
BRANCH  14  16
ATOM     16  C   UNL     1       2.752   2.169  -2.084  1.00  0.00     0.041 A 
ATOM     17  C   UNL     1       2.922   2.173  -3.467  1.00  0.00     0.028 A 
ATOM     18  C   UNL     1       1.805   3.027  -1.526  1.00  0.00     0.028 A 
ATOM     19  C   UNL     1       2.055   2.914  -4.282  1.00  0.00     0.028 A 
ATOM     20  C   UNL     1       0.982   3.821  -2.331  1.00  0.00     0.028 A 
ATOM     21  C   UNL     1       1.072   3.737  -3.719  1.00  0.00     0.047 A 
BRANCH  21  22
ATOM     22  N   UNL     1       0.164   4.438  -4.531  1.00  0.00    -0.274 N 
ATOM     23  C   UNL     1      -0.400   3.898  -5.725  1.00  0.00     0.171 C 
ATOM     24  C   UNL     1      -0.315   5.713  -4.307  1.00  0.00     0.414 C 
ATOM     25  C   UNL     1      -1.542   4.846  -6.000  1.00  0.00     0.257 C 
ATOM     26  O   UNL     1      -1.222   6.039  -5.282  1.00  0.00    -0.447 OA
ATOM     27  O   UNL     1       0.016   6.499  -3.429  1.00  0.00    -0.224 OA
ENDBRANCH  21  22
ENDBRANCH  14  16
ENDBRANCH  11  12
ENDBRANCH   5  11
ENDBRANCH   3   5
ENDBRANCH   2   3
ENDBRANCH   1   2
BRANCH   1  28
ATOM     28  C   UNL     1       1.707  -2.664  -3.819  1.00  0.00     0.275 C 
BRANCH  28  29
ATOM     29  O   UNL     1       0.889  -1.907  -2.906  1.00  0.00    -0.458 OA
BRANCH  29  30
ATOM     30  C   UNL     1       0.608  -2.525  -1.727  1.00  0.00     0.338 C 
ATOM     31  O   UNL     1       0.913  -3.664  -1.413  1.00  0.00    -0.246 OA
BRANCH  30  32
ATOM     32  C   UNL     1      -0.046  -1.577  -0.795  1.00  0.00     0.060 A 
ATOM     33  C   UNL     1       0.235  -1.681   0.574  1.00  0.00     0.016 A 
ATOM     34  C   UNL     1      -0.921  -0.586  -1.252  1.00  0.00     0.016 A 
ATOM     35  C   UNL     1      -0.304  -0.759   1.475  1.00  0.00     0.010 A 
ATOM     36  C   UNL     1      -1.480   0.322  -0.346  1.00  0.00     0.010 A 
ATOM     37  C   UNL     1      -1.160   0.254   1.020  1.00  0.00    -0.014 A 
BRANCH  37  38
ATOM     38  C   UNL     1      -1.803   1.171   1.994  1.00  0.00     0.031 A 
ATOM     39  C   UNL     1      -3.034   0.710   2.699  1.00  0.00     0.074 A 
ATOM     40  C   UNL     1      -1.293   2.384   2.278  1.00  0.00     0.049 A 
ATOM     41  N   UNL     1      -3.691   1.293   3.665  1.00  0.00    -0.248 NA
ATOM     42  C   UNL     1      -3.576  -0.594   2.287  1.00  0.00     0.031 C 
ATOM     43  C   UNL     1      -0.057   2.907   1.727  1.00  0.00     0.029 A 
ATOM     44  N   UNL     1      -1.737   3.396   3.092  1.00  0.00    -0.354 N 
ATOM     45  C   UNL     1      -4.689   0.403   4.019  1.00  0.00     0.074 A 
ATOM     46  C   UNL     1      -4.590  -0.732   3.126  1.00  0.00     0.031 C 
ATOM     47  C   UNL     1       0.149   4.159   2.163  1.00  0.00     0.029 A 
ATOM     48  C   UNL     1      -0.948   4.524   3.047  1.00  0.00     0.049 A 
ATOM     49  H   UNL     1      -2.542   3.323   3.654  1.00  0.00     0.167 HD
ATOM     50  C   UNL     1      -5.595   0.518   5.017  1.00  0.00     0.031 A 
ATOM     51  C   UNL     1      -1.086   5.715   3.658  1.00  0.00     0.031 A 
ATOM     52  C   UNL     1      -5.745   1.691   5.837  1.00  0.00     0.049 A 
ATOM     53  C   UNL     1      -2.207   5.880   4.643  1.00  0.00     0.074 A 
ATOM     54  C   UNL     1      -6.654   1.920   6.852  1.00  0.00     0.029 A 
ATOM     55  N   UNL     1      -4.987   2.848   5.708  1.00  0.00    -0.354 N 
ATOM     56  N   UNL     1      -3.102   5.001   5.026  1.00  0.00    -0.248 NA
ATOM     57  C   UNL     1      -2.309   7.180   5.318  1.00  0.00     0.031 C 
ATOM     58  C   UNL     1      -6.499   3.242   7.285  1.00  0.00     0.029 A 
ATOM     59  C   UNL     1      -5.441   3.812   6.595  1.00  0.00     0.049 A 
ATOM     60  H   UNL     1      -4.239   2.966   5.080  1.00  0.00     0.167 HD
ATOM     61  C   UNL     1      -3.843   5.623   6.020  1.00  0.00     0.074 A 
ATOM     62  C   UNL     1      -3.280   6.949   6.189  1.00  0.00     0.031 C 
ATOM     63  C   UNL     1      -4.886   5.136   6.736  1.00  0.00     0.031 A 
BRANCH  50  64
ATOM     64  C   UNL     1      -6.518  -0.646   5.216  1.00  0.00    -0.014 A 
ATOM     65  C   UNL     1      -6.045  -1.869   5.723  1.00  0.00     0.009 A 
ATOM     66  C   UNL     1      -7.870  -0.531   4.864  1.00  0.00     0.009 A 
ATOM     67  C   UNL     1      -6.902  -2.965   5.835  1.00  0.00     0.001 A 
ATOM     68  C   UNL     1      -8.730  -1.619   5.005  1.00  0.00     0.001 A 
ATOM     69  C   UNL     1      -8.244  -2.838   5.478  1.00  0.00     0.000 A 
ENDBRANCH  50  64
BRANCH  51  70
ATOM     70  C   UNL     1      -0.140   6.831   3.380  1.00  0.00    -0.014 A 
ATOM     71  C   UNL     1       0.739   7.301   4.369  1.00  0.00     0.009 A 
ATOM     72  C   UNL     1      -0.140   7.464   2.126  1.00  0.00     0.009 A 
ATOM     73  C   UNL     1       1.562   8.404   4.125  1.00  0.00     0.001 A 
ATOM     74  C   UNL     1       0.704   8.549   1.874  1.00  0.00     0.001 A 
ATOM     75  C   UNL     1       1.544   9.027   2.878  1.00  0.00     0.000 A 
ENDBRANCH  51  70
BRANCH  63  76
ATOM     76  C   UNL     1      -5.464   6.041   7.788  1.00  0.00    -0.014 A 
ATOM     77  C   UNL     1      -6.151   7.218   7.449  1.00  0.00     0.009 A 
ATOM     78  C   UNL     1      -5.321   5.706   9.144  1.00  0.00     0.009 A 
ATOM     79  C   UNL     1      -6.633   8.067   8.447  1.00  0.00     0.001 A 
ATOM     80  C   UNL     1      -5.841   6.535  10.138  1.00  0.00     0.001 A 
ATOM     81  C   UNL     1      -6.482   7.722   9.790  1.00  0.00     0.000 A 
ENDBRANCH  63  76
ENDBRANCH  37  38
ENDBRANCH  30  32
ENDBRANCH  29  30
ENDBRANCH  28  29
ENDBRANCH   1  28
TORSDOF 15
