REMARK SMILES CC(C)([NH2+]C[C@@H]1COc2ccccc21)C(=O)OCCOC(=O)c1ccc(-c2c3nc(c(-c4ccccc4)c4ccc([nH]4)c(-c4ccccc4)c4nc(c(-c5ccccc5)c5ccc2[nH]5)C=C4)C=C3)cc1
REMARK SMILES IDX 18 1 17 2 15 3 16 4 2 5 1 6 3 7 4 8 5 11 6 12 7 13 14 14
REMARK SMILES IDX 8 15 9 16 13 17 10 18 12 19 11 20 19 21 20 22 21 23 22 24
REMARK SMILES IDX 23 25 24 26 70 27 25 28 69 29 26 30 27 31 28 32 63 33 29 34
REMARK SMILES IDX 68 35 62 36 64 37 30 38 67 39 61 40 60 41 31 43 53 44 38 45
REMARK SMILES IDX 52 46 39 47 42 48 51 49 65 50 40 51 41 52 50 54 66 55 43 56
REMARK SMILES IDX 32 57 33 58 37 59 34 60 36 61 35 62 54 63 55 64 59 65 56 66
REMARK SMILES IDX 58 67 57 68 44 69 45 70 49 71 46 72 48 73 47 74
REMARK H PARENT 4 9 4 10 64 42 42 53
REMARK Flexibility Score: inf
ROOT
ATOM      1  C   UNL     1      -1.141  -1.427   8.039  1.00  0.00     0.274 C 
ENDROOT
BRANCH   1   2
ATOM      2  O   UNL     1      -0.411  -1.128   6.829  1.00  0.00    -0.457 OA
BRANCH   2   3
ATOM      3  C   UNL     1       0.065   0.138   6.702  1.00  0.00     0.367 C 
ATOM      4  O   UNL     1      -0.005   0.975   7.602  1.00  0.00    -0.245 OA
BRANCH   3   5
ATOM      5  C   UNL     1       0.725   0.466   5.337  1.00  0.00     0.188 C 
ATOM      6  C   UNL     1       2.237   0.677   5.576  1.00  0.00     0.092 C 
ATOM      7  C   UNL     1       0.176   1.825   4.883  1.00  0.00     0.092 C 
BRANCH   5   8
ATOM      8  N   UNL     1       0.709  -0.581   4.290  1.00  0.00    -0.332 N 
ATOM      9  H   UNL     1       1.391  -1.278   4.589  1.00  0.00     0.347 HD
ATOM     10  H   UNL     1       0.860  -0.015   3.455  1.00  0.00     0.347 HD
BRANCH   8  11
ATOM     11  C   UNL     1      -0.474  -1.335   3.895  1.00  0.00     0.273 C 
BRANCH  11  12
ATOM     12  C   UNL     1      -1.651  -0.689   3.148  1.00  0.00     0.116 C 
ATOM     13  C   UNL     1      -1.294   0.381   2.107  1.00  0.00     0.244 C 
ATOM     14  C   UNL     1      -2.627   0.051   3.980  1.00  0.00     0.006 A 
ATOM     15  O   UNL     1      -2.143   1.544   2.283  1.00  0.00    -0.492 OA
ATOM     16  C   UNL     1      -2.853   1.299   3.426  1.00  0.00     0.123 A 
ATOM     17  C   UNL     1      -3.291  -0.351   5.127  1.00  0.00     0.008 A 
ATOM     18  C   UNL     1      -3.691   2.215   4.028  1.00  0.00     0.047 A 
ATOM     19  C   UNL     1      -4.145   0.559   5.751  1.00  0.00     0.001 A 
ATOM     20  C   UNL     1      -4.334   1.841   5.211  1.00  0.00     0.004 A 
ENDBRANCH  11  12
ENDBRANCH   8  11
ENDBRANCH   5   8
ENDBRANCH   3   5
ENDBRANCH   2   3
ENDBRANCH   1   2
BRANCH   1  21
ATOM     21  C   UNL     1      -0.348  -2.376   8.928  1.00  0.00     0.275 C 
BRANCH  21  22
ATOM     22  O   UNL     1       0.860  -1.723   9.344  1.00  0.00    -0.458 OA
BRANCH  22  23
ATOM     23  C   UNL     1       2.007  -2.278   8.899  1.00  0.00     0.338 C 
ATOM     24  O   UNL     1       2.152  -3.326   8.297  1.00  0.00    -0.246 OA
BRANCH  23  25
ATOM     25  C   UNL     1       3.124  -1.387   9.243  1.00  0.00     0.060 A 
ATOM     26  C   UNL     1       3.134  -0.082   8.755  1.00  0.00     0.016 A 
ATOM     27  C   UNL     1       4.216  -1.881   9.949  1.00  0.00     0.016 A 
ATOM     28  C   UNL     1       4.275   0.702   8.870  1.00  0.00     0.010 A 
ATOM     29  C   UNL     1       5.315  -1.050  10.170  1.00  0.00     0.010 A 
ATOM     30  C   UNL     1       5.372   0.238   9.602  1.00  0.00    -0.014 A 
BRANCH  30  31
ATOM     31  C   UNL     1       6.596   1.065   9.761  1.00  0.00     0.031 A 
ATOM     32  C   UNL     1       7.924   0.509   9.332  1.00  0.00     0.074 A 
ATOM     33  C   UNL     1       6.534   2.294  10.311  1.00  0.00     0.049 A 
ATOM     34  N   UNL     1       9.129   0.895   9.662  1.00  0.00    -0.248 NA
ATOM     35  C   UNL     1       7.889  -0.652   8.426  1.00  0.00     0.031 C 
ATOM     36  C   UNL     1       5.311   3.003  10.692  1.00  0.00     0.029 A 
ATOM     37  N   UNL     1       7.540   3.163  10.655  1.00  0.00    -0.354 N 
ATOM     38  C   UNL     1       9.991  -0.021   9.071  1.00  0.00     0.074 A 
ATOM     39  C   UNL     1       9.173  -0.969   8.346  1.00  0.00     0.031 C 
ATOM     40  C   UNL     1       5.635   4.203  11.196  1.00  0.00     0.029 A 
ATOM     41  C   UNL     1       7.086   4.302  11.276  1.00  0.00     0.049 A 
ATOM     42  H   UNL     1       8.492   2.988  10.475  1.00  0.00     0.167 HD
ATOM     43  C   UNL     1      11.341  -0.072   9.149  1.00  0.00     0.031 A 
ATOM     44  C   UNL     1       7.758   5.284  11.905  1.00  0.00     0.031 A 
ATOM     45  C   UNL     1      12.143   0.904   9.837  1.00  0.00     0.049 A 
ATOM     46  C   UNL     1       9.249   5.183  12.027  1.00  0.00     0.074 A 
ATOM     47  C   UNL     1      13.518   0.944   9.986  1.00  0.00     0.029 A 
ATOM     48  N   UNL     1      11.636   2.026  10.473  1.00  0.00    -0.354 N 
ATOM     49  N   UNL     1      10.053   4.260  11.557  1.00  0.00    -0.248 NA
ATOM     50  C   UNL     1       9.923   6.241  12.791  1.00  0.00     0.031 C 
ATOM     51  C   UNL     1      13.841   2.078  10.740  1.00  0.00     0.029 A 
ATOM     52  C   UNL     1      12.669   2.763  11.023  1.00  0.00     0.049 A 
ATOM     53  H   UNL     1      10.682   2.264  10.526  1.00  0.00     0.167 HD
ATOM     54  C   UNL     1      11.328   4.629  11.961  1.00  0.00     0.074 A 
ATOM     55  C   UNL     1      11.193   5.869  12.699  1.00  0.00     0.031 C 
ATOM     56  C   UNL     1      12.507   3.996  11.747  1.00  0.00     0.031 A 
BRANCH  43  57
ATOM     57  C   UNL     1      12.027  -1.253   8.524  1.00  0.00    -0.014 A 
ATOM     58  C   UNL     1      12.167  -1.377   7.134  1.00  0.00     0.009 A 
ATOM     59  C   UNL     1      12.560  -2.253   9.354  1.00  0.00     0.009 A 
ATOM     60  C   UNL     1      12.802  -2.495   6.587  1.00  0.00     0.001 A 
ATOM     61  C   UNL     1      13.214  -3.357   8.805  1.00  0.00     0.001 A 
ATOM     62  C   UNL     1      13.327  -3.482   7.422  1.00  0.00     0.000 A 
ENDBRANCH  43  57
BRANCH  44  63
ATOM     63  C   UNL     1       7.011   6.400  12.541  1.00  0.00    -0.014 A 
ATOM     64  C   UNL     1       7.065   7.693  12.000  1.00  0.00     0.009 A 
ATOM     65  C   UNL     1       6.221   6.173  13.681  1.00  0.00     0.009 A 
ATOM     66  C   UNL     1       6.351   8.737  12.594  1.00  0.00     0.001 A 
ATOM     67  C   UNL     1       5.486   7.212  14.254  1.00  0.00     0.001 A 
ATOM     68  C   UNL     1       5.557   8.494  13.714  1.00  0.00     0.000 A 
ENDBRANCH  44  63
BRANCH  56  69
ATOM     69  C   UNL     1      13.740   4.656  12.285  1.00  0.00    -0.014 A 
ATOM     70  C   UNL     1      14.064   4.583  13.648  1.00  0.00     0.009 A 
ATOM     71  C   UNL     1      14.608   5.322  11.407  1.00  0.00     0.009 A 
ATOM     72  C   UNL     1      15.228   5.187  14.125  1.00  0.00     0.001 A 
ATOM     73  C   UNL     1      15.781   5.907  11.884  1.00  0.00     0.001 A 
ATOM     74  C   UNL     1      16.087   5.844  13.243  1.00  0.00     0.000 A 
ENDBRANCH  56  69
ENDBRANCH  30  31
ENDBRANCH  23  25
ENDBRANCH  22  23
ENDBRANCH  21  22
ENDBRANCH   1  21
TORSDOF 14
