REMARK SMILES Cc1ccc([C@H](C)NC(=O)N[C@](C)(C(=O)OCCOC(=O)c2ccc(-c3c4nc(c(-c5ccccc5)c5ccc([nH]5)c(-c5ccccc5)c5nc(c(-c6ccccc6)c6ccc3[nH]6)C=C5)C=C4)cc2)C(F)(F)F)s1
REMARK SMILES IDX 17 1 16 2 14 3 15 4 12 5 13 6 11 7 8 8 9 9 10 11 6 13 7 14
REMARK SMILES IDX 5 15 1 16 2 17 3 18 74 19 4 20 70 21 71 22 72 23 73 24 18 25
REMARK SMILES IDX 19 26 20 27 21 28 22 29 23 30 69 31 24 32 68 33 25 34 26 35
REMARK SMILES IDX 27 36 62 37 28 38 67 39 61 40 63 41 29 42 66 43 60 44 59 45
REMARK SMILES IDX 30 47 52 48 37 49 51 50 38 51 41 52 50 53 64 54 39 55 40 56
REMARK SMILES IDX 49 58 65 59 42 60 31 61 32 62 36 63 33 64 35 65 34 66 53 67
REMARK SMILES IDX 54 68 58 69 55 70 57 71 56 72 43 73 44 74 48 75 45 76 47 77
REMARK SMILES IDX 46 78
REMARK H PARENT 8 10 11 12 63 46 41 57
REMARK Flexibility Score: inf
ROOT
ATOM      1  C   UNL     1      -5.120  -4.046  -2.019  1.00  0.00     0.274 C 
ENDROOT
BRANCH   1   2
ATOM      2  O   UNL     1      -5.086  -2.634  -1.746  1.00  0.00    -0.460 OA
BRANCH   2   3
ATOM      3  C   UNL     1      -5.991  -2.132  -0.851  1.00  0.00     0.341 C 
ATOM      4  O   UNL     1      -6.927  -2.758  -0.374  1.00  0.00    -0.249 OA
BRANCH   3   5
ATOM      5  C   UNL     1      -5.603  -0.690  -0.487  1.00  0.00     0.232 C 
ATOM      6  C   UNL     1      -5.351   0.000  -1.849  1.00  0.00     0.058 C 
BRANCH   5   7
ATOM      7  N   UNL     1      -6.717   0.009   0.195  1.00  0.00    -0.315 N 
ATOM      8  N   UNL     1      -5.767   2.011   1.067  1.00  0.00    -0.331 N 
ATOM      9  C   UNL     1      -6.757   1.118   0.949  1.00  0.00     0.316 C 
ATOM     10  H   UNL     1      -5.900   2.587   1.855  1.00  0.00     0.166 HD
ATOM     11  O   UNL     1      -7.780   1.309   1.609  1.00  0.00    -0.249 OA
ATOM     12  H   UNL     1      -7.594  -0.422   0.072  1.00  0.00     0.166 HD
BRANCH   8  13
ATOM     13  C   UNL     1      -4.545   2.371   0.352  1.00  0.00     0.121 C 
ATOM     14  C   UNL     1      -4.733   3.703  -0.371  1.00  0.00     0.037 C 
BRANCH  13  15
ATOM     15  C   UNL     1      -3.317   2.387   1.237  1.00  0.00     0.027 A 
ATOM     16  C   UNL     1      -1.059   2.095   4.440  1.00  0.00     0.056 C 
ATOM     17  C   UNL     1      -1.686   2.243   3.096  1.00  0.00     0.002 A 
ATOM     18  C   UNL     1      -1.066   2.244   1.867  1.00  0.00     0.015 A 
ATOM     19  S   UNL     1      -3.380   2.437   2.949  1.00  0.00    -0.144 S 
ATOM     20  C   UNL     1      -2.002   2.324   0.800  1.00  0.00     0.018 A 
ENDBRANCH  13  15
ENDBRANCH   8  13
ENDBRANCH   5   7
BRANCH   5  21
ATOM     21  C   UNL     1      -4.385  -0.925   0.435  1.00  0.00     0.422 C 
ATOM     22  F   UNL     1      -3.256  -0.421  -0.115  1.00  0.00    -0.168 F 
ATOM     23  F   UNL     1      -4.518  -0.357   1.654  1.00  0.00    -0.168 F 
ATOM     24  F   UNL     1      -4.148  -2.233   0.699  1.00  0.00    -0.168 F 
ENDBRANCH   5  21
ENDBRANCH   3   5
ENDBRANCH   2   3
ENDBRANCH   1   2
BRANCH   1  25
ATOM     25  C   UNL     1      -3.897  -4.370  -2.884  1.00  0.00     0.275 C 
BRANCH  25  26
ATOM     26  O   UNL     1      -2.708  -4.020  -2.141  1.00  0.00    -0.458 OA
BRANCH  26  27
ATOM     27  C   UNL     1      -1.833  -3.175  -2.743  1.00  0.00     0.338 C 
ATOM     28  O   UNL     1      -1.863  -2.792  -3.900  1.00  0.00    -0.246 OA
BRANCH  27  29
ATOM     29  C   UNL     1      -0.838  -2.684  -1.758  1.00  0.00     0.060 A 
ATOM     30  C   UNL     1      -1.249  -2.349  -0.473  1.00  0.00     0.016 A 
ATOM     31  C   UNL     1       0.470  -2.397  -2.142  1.00  0.00     0.016 A 
ATOM     32  C   UNL     1      -0.424  -1.602   0.371  1.00  0.00     0.010 A 
ATOM     33  C   UNL     1       1.347  -1.779  -1.232  1.00  0.00     0.010 A 
ATOM     34  C   UNL     1       0.902  -1.318   0.024  1.00  0.00    -0.014 A 
BRANCH  34  35
ATOM     35  C   UNL     1       1.792  -0.502   0.919  1.00  0.00     0.031 A 
ATOM     36  C   UNL     1       2.597   0.646   0.348  1.00  0.00     0.074 A 
ATOM     37  C   UNL     1       1.899  -0.737   2.246  1.00  0.00     0.049 A 
ATOM     38  N   UNL     1       3.631   1.270   0.860  1.00  0.00    -0.248 NA
ATOM     39  C   UNL     1       2.200   1.147  -0.978  1.00  0.00     0.031 C 
ATOM     40  C   UNL     1       1.161  -1.745   3.009  1.00  0.00     0.029 A 
ATOM     41  N   UNL     1       2.683  -0.123   3.201  1.00  0.00    -0.354 N 
ATOM     42  C   UNL     1       4.075   2.145  -0.126  1.00  0.00     0.074 A 
ATOM     43  C   UNL     1       3.177   2.002  -1.251  1.00  0.00     0.031 C 
ATOM     44  C   UNL     1       1.474  -1.638   4.309  1.00  0.00     0.029 A 
ATOM     45  C   UNL     1       2.528  -0.645   4.464  1.00  0.00     0.049 A 
ATOM     46  H   UNL     1       3.296   0.619   2.997  1.00  0.00     0.167 HD
ATOM     47  C   UNL     1       5.143   2.979  -0.104  1.00  0.00     0.031 A 
ATOM     48  C   UNL     1       3.193  -0.411   5.613  1.00  0.00     0.031 A 
ATOM     49  C   UNL     1       5.978   3.216   1.044  1.00  0.00     0.049 A 
ATOM     50  C   UNL     1       4.362   0.532   5.624  1.00  0.00     0.074 A 
ATOM     51  C   UNL     1       7.074   4.056   1.153  1.00  0.00     0.029 A 
ATOM     52  N   UNL     1       5.783   2.650   2.291  1.00  0.00    -0.354 N 
ATOM     53  N   UNL     1       4.849   1.253   4.646  1.00  0.00    -0.248 NA
ATOM     54  C   UNL     1       5.093   0.665   6.894  1.00  0.00     0.031 C 
ATOM     55  C   UNL     1       7.554   3.985   2.465  1.00  0.00     0.029 A 
ATOM     56  C   UNL     1       6.733   3.128   3.177  1.00  0.00     0.049 A 
ATOM     57  H   UNL     1       5.075   2.004   2.514  1.00  0.00     0.167 HD
ATOM     58  C   UNL     1       5.941   1.924   5.182  1.00  0.00     0.074 A 
ATOM     59  C   UNL     1       6.026   1.551   6.577  1.00  0.00     0.031 C 
ATOM     60  C   UNL     1       6.806   2.763   4.565  1.00  0.00     0.031 A 
BRANCH  47  61
ATOM     61  C   UNL     1       5.514   3.677  -1.382  1.00  0.00    -0.014 A 
ATOM     62  C   UNL     1       4.809   4.794  -1.850  1.00  0.00     0.009 A 
ATOM     63  C   UNL     1       6.651   3.243  -2.087  1.00  0.00     0.009 A 
ATOM     64  C   UNL     1       5.225   5.452  -3.011  1.00  0.00     0.001 A 
ATOM     65  C   UNL     1       7.078   3.917  -3.231  1.00  0.00     0.001 A 
ATOM     66  C   UNL     1       6.361   5.018  -3.695  1.00  0.00     0.000 A 
ENDBRANCH  47  61
BRANCH  48  67
ATOM     67  C   UNL     1       2.829  -1.153   6.851  1.00  0.00    -0.014 A 
ATOM     68  C   UNL     1       2.252  -0.483   7.941  1.00  0.00     0.009 A 
ATOM     69  C   UNL     1       3.084  -2.529   6.958  1.00  0.00     0.009 A 
ATOM     70  C   UNL     1       1.956  -1.174   9.118  1.00  0.00     0.001 A 
ATOM     71  C   UNL     1       2.756  -3.224   8.123  1.00  0.00     0.001 A 
ATOM     72  C   UNL     1       2.202  -2.544   9.206  1.00  0.00     0.000 A 
ENDBRANCH  48  67
BRANCH  60  73
ATOM     73  C   UNL     1       7.894   3.366   5.404  1.00  0.00    -0.014 A 
ATOM     74  C   UNL     1       9.013   2.613   5.790  1.00  0.00     0.009 A 
ATOM     75  C   UNL     1       7.808   4.711   5.793  1.00  0.00     0.009 A 
ATOM     76  C   UNL     1      10.011   3.188   6.578  1.00  0.00     0.001 A 
ATOM     77  C   UNL     1       8.818   5.290   6.564  1.00  0.00     0.001 A 
ATOM     78  C   UNL     1       9.914   4.526   6.962  1.00  0.00     0.000 A 
ENDBRANCH  60  73
ENDBRANCH  34  35
ENDBRANCH  27  29
ENDBRANCH  26  27
ENDBRANCH  25  26
ENDBRANCH   1  25
TORSDOF 15
