REMARK SMILES O=C(CCC(=O)OCCOC(=O)c1ccc(-c2c3nc(c(-c4ccccc4)c4ccc([nH]4)c(-c4ccccc4)c4nc(c(-c5ccccc5)c5ccc2[nH]5)C=C4)C=C3)cc1)Nc1cccc2c1C(=O)c1ccccc1C2=O
REMARK SMILES IDX 8 1 7 2 5 3 6 4 4 5 3 6 2 7 1 8 61 9 62 11 63 12 67 13 64 14
REMARK SMILES IDX 66 15 68 16 65 17 76 18 69 19 70 20 75 21 77 22 71 23 74 24
REMARK SMILES IDX 72 25 73 26 9 27 10 28 11 29 12 30 13 31 14 32 60 33 15 34
REMARK SMILES IDX 59 35 16 36 17 37 18 38 53 39 19 40 58 41 52 42 54 43 20 44
REMARK SMILES IDX 57 45 51 46 50 47 21 49 43 50 28 51 42 52 29 53 32 54 41 55
REMARK SMILES IDX 55 56 30 57 31 58 40 60 56 61 33 62 22 63 23 64 27 65 24 66
REMARK SMILES IDX 26 67 25 68 44 69 45 70 49 71 46 72 48 73 47 74 34 75 35 76
REMARK SMILES IDX 39 77 36 78 38 79 37 80
REMARK H PARENT 61 10 54 48 32 59
REMARK Flexibility Score: inf
ROOT
ATOM      1  C   UNL     1       5.607   2.175  -0.592  1.00  0.00     0.274 C 
ENDROOT
BRANCH   1   2
ATOM      2  O   UNL     1       4.317   1.547  -0.773  1.00  0.00    -0.462 OA
BRANCH   2   3
ATOM      3  C   UNL     1       4.228   0.568  -1.711  1.00  0.00     0.306 C 
ATOM      4  O   UNL     1       5.147   0.216  -2.439  1.00  0.00    -0.252 OA
BRANCH   3   5
ATOM      5  C   UNL     1       2.811   0.042  -1.850  1.00  0.00     0.132 C 
BRANCH   5   6
ATOM      6  C   UNL     1       2.086  -0.214  -0.533  1.00  0.00     0.112 C 
BRANCH   6   7
ATOM      7  C   UNL     1       1.171   0.888   0.011  1.00  0.00     0.224 C 
ATOM      8  O   UNL     1       0.220   0.595   0.732  1.00  0.00    -0.275 OA
ATOM      9  N   UNL     1       1.641   2.174  -0.189  1.00  0.00    -0.325 N 
ATOM     10  H   UNL     1       2.053   2.387  -1.057  1.00  0.00     0.169 HD
BRANCH   9  11
ATOM     11  C   UNL     1       1.565   3.204   0.786  1.00  0.00     0.053 A 
ATOM     12  C   UNL     1       2.700   4.025   0.808  1.00  0.00     0.027 A 
ATOM     13  C   UNL     1       0.785   3.125   1.940  1.00  0.00     0.057 A 
ATOM     14  C   UNL     1       3.240   4.427   2.030  1.00  0.00     0.003 A 
ATOM     15  C   UNL     1       1.409   3.366   3.160  1.00  0.00     0.036 A 
ATOM     16  C   UNL     1      -0.646   3.571   1.868  1.00  0.00     0.196 C 
ATOM     17  C   UNL     1       2.649   4.002   3.216  1.00  0.00     0.013 A 
ATOM     18  C   UNL     1       0.626   3.244   4.392  1.00  0.00     0.194 C 
ATOM     19  O   UNL     1      -1.257   3.620   0.807  1.00  0.00    -0.288 OA
ATOM     20  C   UNL     1      -1.254   4.163   3.100  1.00  0.00     0.034 A 
ATOM     21  C   UNL     1      -0.679   3.911   4.348  1.00  0.00     0.034 A 
ATOM     22  O   UNL     1       1.100   2.762   5.408  1.00  0.00    -0.289 OA
ATOM     23  C   UNL     1      -2.314   5.071   3.020  1.00  0.00     0.013 A 
ATOM     24  C   UNL     1      -1.186   4.479   5.519  1.00  0.00     0.013 A 
ATOM     25  C   UNL     1      -2.785   5.698   4.182  1.00  0.00     0.001 A 
ATOM     26  C   UNL     1      -2.237   5.386   5.430  1.00  0.00     0.001 A 
ENDBRANCH   9  11
ENDBRANCH   6   7
ENDBRANCH   5   6
ENDBRANCH   3   5
ENDBRANCH   2   3
ENDBRANCH   1   2
BRANCH   1  27
ATOM     27  C   UNL     1       6.363   1.609   0.613  1.00  0.00     0.275 C 
BRANCH  27  28
ATOM     28  O   UNL     1       7.060   0.402   0.265  1.00  0.00    -0.458 OA
BRANCH  28  29
ATOM     29  C   UNL     1       6.346  -0.740   0.397  1.00  0.00     0.338 C 
ATOM     30  O   UNL     1       5.216  -0.853   0.842  1.00  0.00    -0.246 OA
BRANCH  29  31
ATOM     31  C   UNL     1       7.082  -1.841  -0.243  1.00  0.00     0.060 A 
ATOM     32  C   UNL     1       6.399  -2.627  -1.177  1.00  0.00     0.016 A 
ATOM     33  C   UNL     1       8.422  -2.097   0.061  1.00  0.00     0.016 A 
ATOM     34  C   UNL     1       7.061  -3.663  -1.828  1.00  0.00     0.010 A 
ATOM     35  C   UNL     1       9.083  -3.141  -0.588  1.00  0.00     0.010 A 
ATOM     36  C   UNL     1       8.406  -3.925  -1.537  1.00  0.00    -0.014 A 
BRANCH  36  37
ATOM     37  C   UNL     1       9.113  -5.017  -2.238  1.00  0.00     0.031 A 
ATOM     38  C   UNL     1       9.299  -6.345  -1.571  1.00  0.00     0.074 A 
ATOM     39  C   UNL     1       9.596  -4.802  -3.474  1.00  0.00     0.049 A 
ATOM     40  N   UNL     1       9.926  -7.405  -2.011  1.00  0.00    -0.248 NA
ATOM     41  C   UNL     1       8.703  -6.499  -0.236  1.00  0.00     0.031 C 
ATOM     42  C   UNL     1       9.459  -3.557  -4.230  1.00  0.00     0.029 A 
ATOM     43  N   UNL     1      10.309  -5.626  -4.305  1.00  0.00    -0.354 N 
ATOM     44  C   UNL     1       9.803  -8.355  -1.007  1.00  0.00     0.074 A 
ATOM     45  C   UNL     1       9.061  -7.738   0.073  1.00  0.00     0.031 C 
ATOM     46  C   UNL     1      10.081  -3.696  -5.412  1.00  0.00     0.029 A 
ATOM     47  C   UNL     1      10.680  -5.026  -5.482  1.00  0.00     0.049 A 
ATOM     48  H   UNL     1      10.534  -6.558  -4.080  1.00  0.00     0.167 HD
ATOM     49  C   UNL     1      10.264  -9.628  -0.989  1.00  0.00     0.031 A 
ATOM     50  C   UNL     1      11.439  -5.487  -6.492  1.00  0.00     0.031 A 
ATOM     51  C   UNL     1      11.019 -10.235  -2.053  1.00  0.00     0.049 A 
ATOM     52  C   UNL     1      12.003  -6.876  -6.418  1.00  0.00     0.074 A 
ATOM     53  C   UNL     1      11.503 -11.529  -2.141  1.00  0.00     0.029 A 
ATOM     54  N   UNL     1      11.412  -9.581  -3.210  1.00  0.00    -0.354 N 
ATOM     55  N   UNL     1      11.852  -7.776  -5.477  1.00  0.00    -0.248 NA
ATOM     56  C   UNL     1      12.844  -7.309  -7.542  1.00  0.00     0.031 C 
ATOM     57  C   UNL     1      12.229 -11.643  -3.333  1.00  0.00     0.029 A 
ATOM     58  C   UNL     1      12.163 -10.432  -4.003  1.00  0.00     0.049 A 
ATOM     59  H   UNL     1      11.190  -8.648  -3.435  1.00  0.00     0.167 HD
ATOM     60  C   UNL     1      12.577  -8.883  -5.894  1.00  0.00     0.074 A 
ATOM     61  C   UNL     1      13.152  -8.548  -7.182  1.00  0.00     0.031 C 
ATOM     62  C   UNL     1      12.750 -10.072  -5.267  1.00  0.00     0.031 A 
BRANCH  49  63
ATOM     63  C   UNL     1       9.987 -10.435   0.245  1.00  0.00    -0.014 A 
ATOM     64  C   UNL     1       8.708 -10.956   0.497  1.00  0.00     0.009 A 
ATOM     65  C   UNL     1      11.019 -10.684   1.161  1.00  0.00     0.009 A 
ATOM     66  C   UNL     1       8.461 -11.684   1.663  1.00  0.00     0.001 A 
ATOM     67  C   UNL     1      10.774 -11.428   2.316  1.00  0.00     0.001 A 
ATOM     68  C   UNL     1       9.494 -11.920   2.570  1.00  0.00     0.000 A 
ENDBRANCH  49  63
BRANCH  50  69
ATOM     69  C   UNL     1      11.735  -4.603  -7.645  1.00  0.00    -0.014 A 
ATOM     70  C   UNL     1      11.086  -4.789  -8.873  1.00  0.00     0.009 A 
ATOM     71  C   UNL     1      12.651  -3.548  -7.508  1.00  0.00     0.009 A 
ATOM     72  C   UNL     1      11.356  -3.938  -9.947  1.00  0.00     0.001 A 
ATOM     73  C   UNL     1      12.904  -2.688  -8.578  1.00  0.00     0.001 A 
ATOM     74  C   UNL     1      12.259  -2.886  -9.797  1.00  0.00     0.000 A 
ENDBRANCH  50  69
BRANCH  62  75
ATOM     75  C   UNL     1      13.605 -11.088  -5.963  1.00  0.00    -0.014 A 
ATOM     76  C   UNL     1      15.004 -10.977  -5.953  1.00  0.00     0.009 A 
ATOM     77  C   UNL     1      13.010 -12.182  -6.610  1.00  0.00     0.009 A 
ATOM     78  C   UNL     1      15.791 -11.933  -6.598  1.00  0.00     0.001 A 
ATOM     79  C   UNL     1      13.800 -13.145  -7.238  1.00  0.00     0.001 A 
ATOM     80  C   UNL     1      15.189 -13.017  -7.237  1.00  0.00     0.000 A 
ENDBRANCH  62  75
ENDBRANCH  36  37
ENDBRANCH  29  31
ENDBRANCH  28  29
ENDBRANCH  27  28
ENDBRANCH   1  27
TORSDOF 14
