REMARK SMILES CC(C)C[C@H](NC(=O)[C@@H](NC(=O)[C@H](C)NC(=O)CNC(=O)OCc1ccccc1)C(C)C)C(=O)OCCOC(=O)c1ccc(-c2c3nc(c(-c4ccccc4)c4ccc([nH]4)c(-c4ccccc4)c4nc(c(-c5ccccc5)c5ccc2[nH]5)C=C4)C=C3)cc1
REMARK SMILES IDX 6 1 7 2 8 3 5 5 4 6 2 7 1 8 3 9 33 10 34 11 35 12 36 13
REMARK SMILES IDX 37 14 38 15 39 16 40 17 41 18 42 19 88 20 43 21 87 22 44 23
REMARK SMILES IDX 45 24 46 25 81 26 47 27 86 28 80 29 82 30 48 31 85 32 79 33
REMARK SMILES IDX 78 34 49 36 71 37 56 38 70 39 57 40 60 41 69 42 83 43 58 44
REMARK SMILES IDX 59 45 68 47 84 48 61 49 50 50 51 51 55 52 52 53 54 54 53 55
REMARK SMILES IDX 72 56 73 57 77 58 74 59 76 60 75 61 62 62 63 63 67 64 64 65
REMARK SMILES IDX 66 66 65 67 9 68 10 69 11 70 12 72 13 73 14 74 15 75 16 76
REMARK SMILES IDX 17 78 18 79 19 80 20 81 21 83 22 84 23 85 24 86 25 87 29 88
REMARK SMILES IDX 26 89 28 90 27 91 30 92 31 93 32 94
REMARK H PARENT 6 4 82 35 60 46 10 71 15 77 19 82
REMARK Flexibility Score: inf
ROOT
ATOM      1  N   UNL     1      -3.983  -4.666   0.260  1.00  0.00    -0.341 N 
ATOM      2  C   UNL     1      -4.690  -4.681  -0.920  1.00  0.00     0.243 C 
ATOM      3  O   UNL     1      -4.348  -5.636  -1.650  1.00  0.00    -0.273 OA
ATOM      4  H   UNL     1      -3.195  -5.255   0.220  1.00  0.00     0.164 HD
ENDROOT
BRANCH   1   5
ATOM      5  C   UNL     1      -4.099  -3.996   1.574  1.00  0.00     0.192 C 
BRANCH   5   6
ATOM      6  C   UNL     1      -3.694  -4.887   2.783  1.00  0.00     0.040 C 
BRANCH   6   7
ATOM      7  C   UNL     1      -4.652  -6.026   3.168  1.00  0.00    -0.015 C 
ATOM      8  C   UNL     1      -4.474  -7.233   2.256  1.00  0.00     0.007 C 
ATOM      9  C   UNL     1      -4.386  -6.422   4.630  1.00  0.00     0.007 C 
ENDBRANCH   6   7
ENDBRANCH   5   6
BRANCH   5  10
ATOM     10  C   UNL     1      -3.438  -2.615   1.963  1.00  0.00     0.328 C 
ATOM     11  O   UNL     1      -3.834  -1.990   2.948  1.00  0.00    -0.250 OA
BRANCH  10  12
ATOM     12  O   UNL     1      -2.422  -2.178   1.169  1.00  0.00    -0.461 OA
BRANCH  12  13
ATOM     13  C   UNL     1      -2.184  -0.739   1.203  1.00  0.00     0.274 C 
BRANCH  13  14
ATOM     14  C   UNL     1      -2.917   0.058   0.083  1.00  0.00     0.275 C 
BRANCH  14  15
ATOM     15  O   UNL     1      -4.360   0.011   0.143  1.00  0.00    -0.458 OA
BRANCH  15  16
ATOM     16  C   UNL     1      -4.816  -1.228  -0.078  1.00  0.00     0.338 C 
ATOM     17  O   UNL     1      -4.114  -2.137  -0.464  1.00  0.00    -0.246 OA
BRANCH  16  18
ATOM     18  C   UNL     1      -6.243  -1.436   0.194  1.00  0.00     0.060 A 
ATOM     19  C   UNL     1      -6.834  -2.240   1.725  1.00  0.00     0.016 A 
ATOM     20  C   UNL     1      -7.485  -0.826  -0.970  1.00  0.00     0.016 A 
ATOM     21  C   UNL     1      -8.589  -2.386   2.075  1.00  0.00     0.010 A 
ATOM     22  C   UNL     1      -9.253  -0.998  -0.577  1.00  0.00     0.010 A 
ATOM     23  C   UNL     1      -9.828  -1.706   0.967  1.00  0.00    -0.014 A 
BRANCH  23  24
ATOM     24  C   UNL     1     -11.345  -1.832   1.258  1.00  0.00     0.031 A 
ATOM     25  C   UNL     1     -12.381  -2.244   0.198  1.00  0.00     0.074 A 
ATOM     26  C   UNL     1     -11.879  -1.561   2.478  1.00  0.00     0.049 A 
ATOM     27  N   UNL     1     -13.700  -2.187   0.258  1.00  0.00    -0.248 NA
ATOM     28  C   UNL     1     -11.894  -2.858  -1.043  1.00  0.00     0.031 C 
ATOM     29  C   UNL     1     -11.156  -1.372   3.727  1.00  0.00     0.029 A 
ATOM     30  N   UNL     1     -13.194  -1.298   2.849  1.00  0.00    -0.354 N 
ATOM     31  C   UNL     1     -14.187  -2.792  -0.904  1.00  0.00     0.074 A 
ATOM     32  C   UNL     1     -13.022  -3.143  -1.688  1.00  0.00     0.031 C 
ATOM     33  C   UNL     1     -11.978  -0.856   4.657  1.00  0.00     0.029 A 
ATOM     34  C   UNL     1     -13.293  -0.676   4.080  1.00  0.00     0.049 A 
ATOM     35  H   UNL     1     -13.972  -1.530   2.294  1.00  0.00     0.167 HD
ATOM     36  C   UNL     1     -15.467  -3.076  -1.274  1.00  0.00     0.031 A 
ATOM     37  C   UNL     1     -14.284   0.013   4.681  1.00  0.00     0.031 A 
ATOM     38  C   UNL     1     -16.654  -2.762  -0.509  1.00  0.00     0.049 A 
ATOM     39  C   UNL     1     -15.667  -0.025   4.124  1.00  0.00     0.074 A 
ATOM     40  C   UNL     1     -17.972  -3.115  -0.770  1.00  0.00     0.029 A 
ATOM     41  N   UNL     1     -16.679  -2.004   0.647  1.00  0.00    -0.354 N 
ATOM     42  N   UNL     1     -16.090  -0.611   3.037  1.00  0.00    -0.248 NA
ATOM     43  C   UNL     1     -16.724   0.602   4.933  1.00  0.00     0.031 C 
ATOM     44  C   UNL     1     -18.798  -2.503   0.180  1.00  0.00     0.029 A 
ATOM     45  C   UNL     1     -17.990  -1.822   1.070  1.00  0.00     0.049 A 
ATOM     46  H   UNL     1     -15.884  -1.645   1.103  1.00  0.00     0.167 HD
ATOM     47  C   UNL     1     -17.471  -0.507   3.078  1.00  0.00     0.074 A 
ATOM     48  C   UNL     1     -17.812   0.238   4.271  1.00  0.00     0.031 C 
ATOM     49  C   UNL     1     -18.366  -1.048   2.221  1.00  0.00     0.031 A 
BRANCH  36  50
ATOM     50  C   UNL     1     -15.700  -3.796  -2.585  1.00  0.00    -0.014 A 
ATOM     51  C   UNL     1     -15.404  -5.161  -2.731  1.00  0.00     0.009 A 
ATOM     52  C   UNL     1     -16.366  -3.140  -3.636  1.00  0.00     0.009 A 
ATOM     53  C   UNL     1     -15.746  -5.844  -3.904  1.00  0.00     0.001 A 
ATOM     54  C   UNL     1     -16.730  -3.830  -4.797  1.00  0.00     0.001 A 
ATOM     55  C   UNL     1     -16.414  -5.180  -4.932  1.00  0.00     0.000 A 
ENDBRANCH  36  50
BRANCH  37  56
ATOM     56  C   UNL     1     -14.032   0.836   5.895  1.00  0.00    -0.014 A 
ATOM     57  C   UNL     1     -14.211   0.321   7.185  1.00  0.00     0.009 A 
ATOM     58  C   UNL     1     -13.708   2.193   5.748  1.00  0.00     0.009 A 
ATOM     59  C   UNL     1     -14.060   1.149   8.303  1.00  0.00     0.001 A 
ATOM     60  C   UNL     1     -13.558   3.016   6.867  1.00  0.00     0.001 A 
ATOM     61  C   UNL     1     -13.727   2.493   8.145  1.00  0.00     0.000 A 
ENDBRANCH  37  56
BRANCH  49  62
ATOM     62  C   UNL     1     -19.816  -0.885   2.568  1.00  0.00    -0.014 A 
ATOM     63  C   UNL     1     -20.454   0.361   2.475  1.00  0.00     0.009 A 
ATOM     64  C   UNL     1     -20.546  -1.990   3.035  1.00  0.00     0.009 A 
ATOM     65  C   UNL     1     -21.781   0.507   2.883  1.00  0.00     0.001 A 
ATOM     66  C   UNL     1     -21.882  -1.848   3.413  1.00  0.00     0.001 A 
ATOM     67  C   UNL     1     -22.494  -0.597   3.348  1.00  0.00     0.000 A 
ENDBRANCH  49  62
ENDBRANCH  23  24
ENDBRANCH  16  18
ENDBRANCH  15  16
ENDBRANCH  14  15
ENDBRANCH  13  14
ENDBRANCH  12  13
ENDBRANCH  10  12
ENDBRANCH   5  10
ENDBRANCH   1   5
BRANCH   2  68
ATOM     68  C   UNL     1      -5.801  -3.641  -1.579  1.00  0.00     0.174 C 
BRANCH  68  69
ATOM     69  N   UNL     1      -7.122  -3.316  -0.813  1.00  0.00    -0.342 N 
ATOM     70  C   UNL     1      -7.981  -2.526   0.057  1.00  0.00     0.242 C 
ATOM     71  H   UNL     1      -7.702  -4.074  -1.055  1.00  0.00     0.164 HD
ATOM     72  O   UNL     1      -8.932  -3.383  -0.046  1.00  0.00    -0.273 OA
BRANCH  70  73
ATOM     73  C   UNL     1      -7.901  -0.567   1.059  1.00  0.00     0.168 C 
ATOM     74  C   UNL     1      -8.449   0.985   0.512  1.00  0.00     0.041 C 
BRANCH  73  75
ATOM     75  N   UNL     1      -6.461   0.220   1.750  1.00  0.00    -0.343 N 
ATOM     76  C   UNL     1      -5.761   0.654   2.826  1.00  0.00     0.240 C 
ATOM     77  H   UNL     1      -5.901   0.451   0.973  1.00  0.00     0.164 HD
ATOM     78  O   UNL     1      -4.587   0.991   2.595  1.00  0.00    -0.273 OA
BRANCH  76  79
ATOM     79  C   UNL     1      -6.321   1.078   4.155  1.00  0.00     0.219 C 
BRANCH  79  80
ATOM     80  N   UNL     1      -6.723   2.446   3.860  1.00  0.00    -0.312 N 
ATOM     81  C   UNL     1      -7.938   2.689   3.309  1.00  0.00     0.407 C 
ATOM     82  H   UNL     1      -6.114   3.193   4.060  1.00  0.00     0.167 HD
ATOM     83  O   UNL     1      -8.262   3.742   2.789  1.00  0.00    -0.225 OA
BRANCH  81  84
ATOM     84  O   UNL     1      -8.678   1.571   3.408  1.00  0.00    -0.445 OA
BRANCH  84  85
ATOM     85  C   UNL     1     -10.073   1.643   3.628  1.00  0.00     0.270 C 
BRANCH  85  86
ATOM     86  C   UNL     1     -10.451   2.800   4.478  1.00  0.00    -0.011 A 
ATOM     87  C   UNL     1     -11.074   3.894   3.880  1.00  0.00     0.007 A 
ATOM     88  C   UNL     1     -10.012   2.855   5.809  1.00  0.00     0.007 A 
ATOM     89  C   UNL     1     -11.212   5.069   4.599  1.00  0.00     0.000 A 
ATOM     90  C   UNL     1     -10.151   4.034   6.523  1.00  0.00     0.000 A 
ATOM     91  C   UNL     1     -10.739   5.142   5.911  1.00  0.00     0.000 A 
ENDBRANCH  85  86
ENDBRANCH  84  85
ENDBRANCH  81  84
ENDBRANCH  79  80
ENDBRANCH  76  79
ENDBRANCH  73  75
ENDBRANCH  70  73
ENDBRANCH  68  69
BRANCH  68  92
ATOM     92  C   UNL     1      -5.237  -2.608  -2.712  1.00  0.00     0.015 C 
ATOM     93  C   UNL     1      -3.947  -3.096  -3.404  1.00  0.00     0.010 C 
ATOM     94  C   UNL     1      -6.218  -2.104  -3.782  1.00  0.00     0.010 C 
ENDBRANCH  68  92
ENDBRANCH   2  68
TORSDOF 24
