REMARK SMILES CCOc1ccc(C(=O)NC(=S)Nc2cccc(C(=O)OCCOC(=O)c3ccc(-c4c5nc(c(-c6ccccc6)c6ccc([nH]6)c(-c6ccccc6)c6nc(c(-c7ccccc7)c7ccc4[nH]7)C=C6)C=C5)cc3)c2C)cc1Br
REMARK SMILES IDX 19 1 20 2 18 3 14 4 15 5 75 6 16 7 76 8 17 9 13 10 11 12
REMARK SMILES IDX 12 13 10 14 8 15 9 16 7 18 4 19 5 20 78 21 6 22 77 23 79 24
REMARK SMILES IDX 3 25 2 26 1 27 21 28 22 29 23 30 24 31 25 32 26 33 27 34
REMARK SMILES IDX 28 35 74 36 29 37 73 38 30 39 31 40 32 41 67 42 33 43 72 44
REMARK SMILES IDX 66 45 68 46 34 47 71 48 65 49 64 50 35 52 57 53 42 54 56 55
REMARK SMILES IDX 43 56 46 57 55 58 69 59 44 60 45 61 54 63 70 64 47 65 36 66
REMARK SMILES IDX 37 67 41 68 38 69 40 70 39 71 58 72 59 73 63 74 60 75 62 76
REMARK SMILES IDX 61 77 48 78 49 79 53 80 50 81 52 82 51 83
REMARK H PARENT 13 11 10 17 68 51 46 62
REMARK Flexibility Score: inf
ROOT
ATOM      1  C   UNL     1       1.622  -2.014   1.308  1.00  0.00     0.338 C 
ATOM      2  O   UNL     1       1.086  -1.285   0.485  1.00  0.00    -0.246 OA
ENDROOT
BRANCH   1   3
ATOM      3  C   UNL     1       2.866  -1.392   2.254  1.00  0.00     0.065 A 
ATOM      4  C   UNL     1       4.766   1.020   1.919  1.00  0.00     0.044 A 
ATOM      5  C   UNL     1       4.982   1.224   3.695  1.00  0.00     0.026 A 
ATOM      6  C   UNL     1       3.651  -0.151   1.200  1.00  0.00    -0.013 A 
ATOM      7  C   UNL     1       4.303   0.084   4.874  1.00  0.00     0.003 A 
ATOM      8  C   UNL     1       3.607  -0.163  -0.301  1.00  0.00     0.047 C 
ATOM      9  C   UNL     1       3.296  -1.287   4.256  1.00  0.00     0.016 A 
BRANCH   4  10
ATOM     10  N   UNL     1       6.065   0.827   1.289  1.00  0.00    -0.332 N 
ATOM     11  H   UNL     1       6.343   1.580   0.719  1.00  0.00     0.169 HD
BRANCH  10  12
ATOM     12  C   UNL     1       6.988  -0.206   1.332  1.00  0.00     0.177 C 
ATOM     13  S   UNL     1       8.531   0.194   0.782  1.00  0.00    -0.040 S 
BRANCH  12  14
ATOM     14  N   UNL     1       6.831  -1.554   1.825  1.00  0.00    -0.299 N 
ATOM     15  C   UNL     1       6.045  -2.685   2.471  1.00  0.00     0.257 C 
ATOM     16  O   UNL     1       6.588  -3.765   2.678  1.00  0.00    -0.269 OA
ATOM     17  H   UNL     1       7.708  -1.964   1.645  1.00  0.00     0.172 HD
BRANCH  15  18
ATOM     18  C   UNL     1       4.653  -2.443   2.948  1.00  0.00     0.041 A 
ATOM     19  C   UNL     1       1.383  -0.732   3.640  1.00  0.00     0.133 A 
ATOM     20  C   UNL     1       1.617  -2.513   3.762  1.00  0.00     0.048 A 
ATOM     21  C   UNL     1       2.838   0.272   3.247  1.00  0.00     0.060 A 
ATOM     22  C   UNL     1       3.203  -3.320   3.377  1.00  0.00     0.018 A 
ATOM     23  C   UNL     1       4.542  -0.771   2.975  1.00  0.00     0.033 A 
ATOM     24  Br  UNL     1       2.351   2.197   3.428  1.00  0.00    -0.047 Br
BRANCH  19  25
ATOM     25  O   UNL     1       0.174  -0.125   3.814  1.00  0.00    -0.493 OA
BRANCH  25  26
ATOM     26  C   UNL     1      -0.578  -0.059   2.594  1.00  0.00     0.226 C 
ATOM     27  C   UNL     1      -0.138   0.954   1.535  1.00  0.00     0.049 C 
ENDBRANCH  25  26
ENDBRANCH  19  25
ENDBRANCH  15  18
ENDBRANCH  12  14
ENDBRANCH  10  12
ENDBRANCH   4  10
ENDBRANCH   1   3
BRANCH   1  28
ATOM     28  O   UNL     1       1.099  -3.249   1.529  1.00  0.00    -0.458 OA
BRANCH  28  29
ATOM     29  C   UNL     1      -0.322  -3.590   1.367  1.00  0.00     0.275 C 
BRANCH  29  30
ATOM     30  C   UNL     1      -1.446  -2.878   0.529  1.00  0.00     0.275 C 
BRANCH  30  31
ATOM     31  O   UNL     1      -1.463  -2.413  -0.851  1.00  0.00    -0.458 OA
BRANCH  31  32
ATOM     32  C   UNL     1      -0.461  -2.281  -1.740  1.00  0.00     0.338 C 
ATOM     33  O   UNL     1      -0.421  -1.445  -2.627  1.00  0.00    -0.246 OA
BRANCH  32  34
ATOM     34  C   UNL     1       0.536  -3.322  -1.603  1.00  0.00     0.060 A 
ATOM     35  C   UNL     1       1.891  -2.964  -1.578  1.00  0.00     0.016 A 
ATOM     36  C   UNL     1       0.073  -4.602  -1.315  1.00  0.00     0.016 A 
ATOM     37  C   UNL     1       2.821  -3.876  -1.134  1.00  0.00     0.010 A 
ATOM     38  C   UNL     1       0.959  -5.476  -0.765  1.00  0.00     0.010 A 
ATOM     39  C   UNL     1       2.323  -5.125  -0.770  1.00  0.00    -0.014 A 
BRANCH  39  40
ATOM     40  C   UNL     1       3.104  -6.315  -0.999  1.00  0.00     0.031 A 
ATOM     41  C   UNL     1       3.723  -6.927   0.184  1.00  0.00     0.074 A 
ATOM     42  C   UNL     1       2.855  -6.707  -2.277  1.00  0.00     0.049 A 
ATOM     43  N   UNL     1       4.903  -7.439   0.231  1.00  0.00    -0.248 NA
ATOM     44  C   UNL     1       3.089  -6.881   1.518  1.00  0.00     0.031 C 
ATOM     45  C   UNL     1       2.934  -7.964  -2.985  1.00  0.00     0.029 A 
ATOM     46  N   UNL     1       2.384  -5.875  -3.300  1.00  0.00    -0.354 N 
ATOM     47  C   UNL     1       4.875  -8.241   1.356  1.00  0.00     0.074 A 
ATOM     48  C   UNL     1       3.921  -7.633   2.249  1.00  0.00     0.031 C 
ATOM     49  C   UNL     1       2.900  -7.713  -4.318  1.00  0.00     0.029 A 
ATOM     50  C   UNL     1       2.871  -6.262  -4.519  1.00  0.00     0.049 A 
ATOM     51  H   UNL     1       1.780  -5.110  -3.160  1.00  0.00     0.167 HD
ATOM     52  C   UNL     1       5.215  -9.558   1.231  1.00  0.00     0.031 A 
ATOM     53  C   UNL     1       3.859  -5.490  -5.069  1.00  0.00     0.031 A 
ATOM     54  C   UNL     1       5.440  -9.871  -0.183  1.00  0.00     0.049 A 
ATOM     55  C   UNL     1       5.168  -6.213  -4.855  1.00  0.00     0.074 A 
ATOM     56  C   UNL     1       4.626 -10.487  -1.119  1.00  0.00     0.029 A 
ATOM     57  N   UNL     1       6.404  -9.171  -0.900  1.00  0.00    -0.354 N 
ATOM     58  N   UNL     1       5.474  -6.880  -3.772  1.00  0.00    -0.248 NA
ATOM     59  C   UNL     1       6.154  -6.346  -5.918  1.00  0.00     0.031 C 
ATOM     60  C   UNL     1       5.102 -10.132  -2.410  1.00  0.00     0.029 A 
ATOM     61  C   UNL     1       6.152  -9.243  -2.257  1.00  0.00     0.049 A 
ATOM     62  H   UNL     1       7.162  -8.690  -0.496  1.00  0.00     0.167 HD
ATOM     63  C   UNL     1       6.579  -7.644  -4.033  1.00  0.00     0.074 A 
ATOM     64  C   UNL     1       6.995  -7.237  -5.368  1.00  0.00     0.031 C 
ATOM     65  C   UNL     1       7.061  -8.614  -3.203  1.00  0.00     0.031 A 
BRANCH  52  66
ATOM     66  C   UNL     1       4.936 -10.619   2.272  1.00  0.00    -0.014 A 
ATOM     67  C   UNL     1       4.796 -11.963   1.873  1.00  0.00     0.009 A 
ATOM     68  C   UNL     1       4.847 -10.372   3.654  1.00  0.00     0.009 A 
ATOM     69  C   UNL     1       4.527 -12.992   2.783  1.00  0.00     0.001 A 
ATOM     70  C   UNL     1       4.558 -11.398   4.571  1.00  0.00     0.001 A 
ATOM     71  C   UNL     1       4.396 -12.708   4.134  1.00  0.00     0.000 A 
ENDBRANCH  52  66
BRANCH  53  72
ATOM     72  C   UNL     1       3.684  -3.993  -4.968  1.00  0.00    -0.014 A 
ATOM     73  C   UNL     1       2.482  -3.413  -5.439  1.00  0.00     0.009 A 
ATOM     74  C   UNL     1       4.563  -3.152  -4.266  1.00  0.00     0.009 A 
ATOM     75  C   UNL     1       2.132  -2.087  -5.146  1.00  0.00     0.001 A 
ATOM     76  C   UNL     1       4.222  -1.812  -3.992  1.00  0.00     0.001 A 
ATOM     77  C   UNL     1       2.999  -1.287  -4.413  1.00  0.00     0.000 A 
ENDBRANCH  53  72
BRANCH  65  78
ATOM     78  C   UNL     1       8.463  -9.150  -3.273  1.00  0.00    -0.014 A 
ATOM     79  C   UNL     1       9.508  -8.479  -3.913  1.00  0.00     0.009 A 
ATOM     80  C   UNL     1       8.804 -10.294  -2.516  1.00  0.00     0.009 A 
ATOM     81  C   UNL     1      10.814  -8.969  -3.871  1.00  0.00     0.001 A 
ATOM     82  C   UNL     1      10.117 -10.740  -2.405  1.00  0.00     0.001 A 
ATOM     83  C   UNL     1      11.120 -10.090  -3.106  1.00  0.00     0.000 A 
ENDBRANCH  65  78
ENDBRANCH  39  40
ENDBRANCH  32  34
ENDBRANCH  31  32
ENDBRANCH  30  31
ENDBRANCH  29  30
ENDBRANCH  28  29
ENDBRANCH   1  28
TORSDOF 17
