REMARK SMILES CCn1nc(C(=O)OCCOC(=O)c2ccc(-c3c4nc(c(-c5ccccc5)c5ccc([nH]5)c(-c5ccccc5)c5nc(c(-c6ccccc6)c6ccc3[nH]6)C=C5)C=C4)cc2)c2c1CC[C@H]([NH2+]Cc1nn(CC)c3ccccc13)C2
REMARK SMILES IDX 9 1 8 2 6 3 7 4 5 5 3 6 4 7 63 8 62 9 64 10 80 11 65 12
REMARK SMILES IDX 66 13 2 14 1 15 67 16 68 19 69 20 70 21 79 22 71 23 74 24
REMARK SMILES IDX 78 25 75 26 77 27 76 28 72 29 73 30 10 31 11 32 12 33 13 34
REMARK SMILES IDX 14 35 15 36 61 37 16 38 60 39 17 40 18 41 19 42 54 43 20 44
REMARK SMILES IDX 59 45 53 46 55 47 21 48 58 49 52 50 51 51 22 53 44 54 29 55
REMARK SMILES IDX 43 56 30 57 33 58 42 59 56 60 31 61 32 62 41 64 57 65 34 66
REMARK SMILES IDX 23 67 24 68 28 69 25 70 27 71 26 72 45 73 46 74 50 75 47 76
REMARK SMILES IDX 49 77 48 78 35 79 36 80 40 81 37 82 39 83 38 84
REMARK H PARENT 67 17 67 18 55 52 33 63
REMARK Flexibility Score: inf
ROOT
ATOM      1  C   UNL     1       4.133  -6.997   0.334  1.00  0.00     0.275 C 
ENDROOT
BRANCH   1   2
ATOM      2  O   UNL     1       3.574  -5.835  -0.297  1.00  0.00    -0.457 OA
BRANCH   2   3
ATOM      3  C   UNL     1       3.297  -4.666   0.360  1.00  0.00     0.359 C 
ATOM      4  O   UNL     1       3.790  -4.320   1.424  1.00  0.00    -0.244 OA
BRANCH   3   5
ATOM      5  C   UNL     1       2.208  -3.977  -0.338  1.00  0.00     0.174 A 
ATOM      6  N   UNL     1       0.743  -2.575  -1.018  1.00  0.00    -0.269 N 
ATOM      7  N   UNL     1       1.976  -2.661  -0.433  1.00  0.00    -0.165 NA
ATOM      8  C   UNL     1       0.198  -3.808  -1.290  1.00  0.00     0.043 A 
ATOM      9  C   UNL     1       1.147  -4.702  -0.903  1.00  0.00     0.014 A 
ATOM     10  C   UNL     1      -1.132  -4.243  -1.790  1.00  0.00     0.062 C 
ATOM     11  C   UNL     1       0.990  -6.150  -0.812  1.00  0.00     0.105 C 
ATOM     12  C   UNL     1      -1.493  -5.656  -1.188  1.00  0.00     0.072 C 
ATOM     13  C   UNL     1      -0.352  -6.733  -1.183  1.00  0.00     0.187 C 
BRANCH   6  14
ATOM     14  C   UNL     1       0.168  -1.258  -1.238  1.00  0.00     0.141 C 
ATOM     15  C   UNL     1       0.627  -0.201  -0.235  1.00  0.00     0.029 C 
ENDBRANCH   6  14
BRANCH  13  16
ATOM     16  N   UNL     1      -0.631  -7.901  -0.281  1.00  0.00    -0.338 N 
ATOM     17  H   UNL     1      -1.407  -8.428  -0.682  1.00  0.00     0.346 HD
ATOM     18  H   UNL     1      -0.832  -7.502   0.636  1.00  0.00     0.346 HD
BRANCH  16  19
ATOM     19  C   UNL     1       0.513  -8.851  -0.074  1.00  0.00     0.320 C 
BRANCH  19  20
ATOM     20  C   UNL     1       1.299  -8.690   1.248  1.00  0.00     0.124 A 
ATOM     21  N   UNL     1       1.060  -7.696   2.133  1.00  0.00    -0.171 NA
ATOM     22  C   UNL     1       2.435  -9.470   1.674  1.00  0.00     0.029 A 
ATOM     23  N   UNL     1       2.068  -7.799   3.042  1.00  0.00    -0.265 N 
ATOM     24  C   UNL     1       2.784  -8.965   2.924  1.00  0.00     0.069 A 
ATOM     25  C   UNL     1       3.248 -10.489   1.129  1.00  0.00     0.012 A 
ATOM     26  C   UNL     1       3.774  -9.539   3.736  1.00  0.00     0.028 A 
ATOM     27  C   UNL     1       4.337 -10.975   1.875  1.00  0.00     0.001 A 
ATOM     28  C   UNL     1       4.569 -10.535   3.175  1.00  0.00     0.002 A 
BRANCH  23  29
ATOM     29  C   UNL     1       2.388  -6.690   3.938  1.00  0.00     0.141 C 
ATOM     30  C   UNL     1       3.870  -6.292   4.045  1.00  0.00     0.029 C 
ENDBRANCH  23  29
ENDBRANCH  19  20
ENDBRANCH  16  19
ENDBRANCH  13  16
ENDBRANCH   3   5
ENDBRANCH   2   3
ENDBRANCH   1   2
BRANCH   1  31
ATOM     31  C   UNL     1       5.491  -7.386  -0.221  1.00  0.00     0.275 C 
BRANCH  31  32
ATOM     32  O   UNL     1       6.357  -6.300   0.035  1.00  0.00    -0.458 OA
BRANCH  32  33
ATOM     33  C   UNL     1       6.064  -5.250  -0.771  1.00  0.00     0.338 C 
ATOM     34  O   UNL     1       5.632  -5.319  -1.914  1.00  0.00    -0.246 OA
BRANCH  33  35
ATOM     35  C   UNL     1       6.272  -3.979   0.003  1.00  0.00     0.060 A 
ATOM     36  C   UNL     1       6.306  -2.925  -0.898  1.00  0.00     0.016 A 
ATOM     37  C   UNL     1       7.272  -4.135   0.962  1.00  0.00     0.016 A 
ATOM     38  C   UNL     1       7.558  -2.622  -1.353  1.00  0.00     0.010 A 
ATOM     39  C   UNL     1       8.535  -3.901   0.502  1.00  0.00     0.010 A 
ATOM     40  C   UNL     1       8.646  -3.242  -0.720  1.00  0.00    -0.014 A 
BRANCH  40  41
ATOM     41  C   UNL     1       9.934  -3.040  -1.312  1.00  0.00     0.031 A 
ATOM     42  C   UNL     1      10.470  -1.722  -0.962  1.00  0.00     0.074 A 
ATOM     43  C   UNL     1      10.590  -3.957  -2.033  1.00  0.00     0.049 A 
ATOM     44  N   UNL     1      10.541  -0.681  -1.718  1.00  0.00    -0.248 NA
ATOM     45  C   UNL     1      10.736  -1.483   0.464  1.00  0.00     0.031 C 
ATOM     46  C   UNL     1      10.344  -5.391  -2.169  1.00  0.00     0.029 A 
ATOM     47  N   UNL     1      11.738  -3.762  -2.723  1.00  0.00    -0.354 N 
ATOM     48  C   UNL     1      11.022   0.319  -0.890  1.00  0.00     0.074 A 
ATOM     49  C   UNL     1      10.907  -0.165   0.462  1.00  0.00     0.031 C 
ATOM     50  C   UNL     1      11.452  -5.968  -2.694  1.00  0.00     0.029 A 
ATOM     51  C   UNL     1      12.406  -4.925  -3.046  1.00  0.00     0.049 A 
ATOM     52  H   UNL     1      12.067  -2.869  -2.974  1.00  0.00     0.167 HD
ATOM     53  C   UNL     1      11.739   1.361  -1.379  1.00  0.00     0.031 A 
ATOM     54  C   UNL     1      13.692  -4.986  -3.461  1.00  0.00     0.031 A 
ATOM     55  C   UNL     1      11.592   1.502  -2.803  1.00  0.00     0.049 A 
ATOM     56  C   UNL     1      14.093  -3.627  -3.916  1.00  0.00     0.074 A 
ATOM     57  C   UNL     1      10.526   1.746  -3.647  1.00  0.00     0.029 A 
ATOM     58  N   UNL     1      12.592   0.985  -3.593  1.00  0.00    -0.354 N 
ATOM     59  N   UNL     1      13.611  -3.047  -4.978  1.00  0.00    -0.248 NA
ATOM     60  C   UNL     1      14.708  -2.726  -2.949  1.00  0.00     0.031 C 
ATOM     61  C   UNL     1      10.780   0.958  -4.808  1.00  0.00     0.029 A 
ATOM     62  C   UNL     1      11.998   0.298  -4.622  1.00  0.00     0.049 A 
ATOM     63  H   UNL     1      13.560   1.090  -3.447  1.00  0.00     0.167 HD
ATOM     64  C   UNL     1      13.486  -1.706  -4.637  1.00  0.00     0.074 A 
ATOM     65  C   UNL     1      14.278  -1.551  -3.420  1.00  0.00     0.031 C 
ATOM     66  C   UNL     1      12.530  -0.914  -5.210  1.00  0.00     0.031 A 
BRANCH  53  67
ATOM     67  C   UNL     1      12.876   1.962  -0.604  1.00  0.00    -0.014 A 
ATOM     68  C   UNL     1      13.496   3.115  -1.102  1.00  0.00     0.009 A 
ATOM     69  C   UNL     1      13.521   1.300   0.463  1.00  0.00     0.009 A 
ATOM     70  C   UNL     1      14.719   3.555  -0.583  1.00  0.00     0.001 A 
ATOM     71  C   UNL     1      14.712   1.764   1.017  1.00  0.00     0.001 A 
ATOM     72  C   UNL     1      15.325   2.880   0.475  1.00  0.00     0.000 A 
ENDBRANCH  53  67
BRANCH  54  73
ATOM     73  C   UNL     1      14.674  -6.045  -3.160  1.00  0.00    -0.014 A 
ATOM     74  C   UNL     1      15.839  -6.181  -3.926  1.00  0.00     0.009 A 
ATOM     75  C   UNL     1      14.586  -6.771  -1.957  1.00  0.00     0.009 A 
ATOM     76  C   UNL     1      16.891  -6.997  -3.489  1.00  0.00     0.001 A 
ATOM     77  C   UNL     1      15.632  -7.589  -1.523  1.00  0.00     0.001 A 
ATOM     78  C   UNL     1      16.791  -7.691  -2.284  1.00  0.00     0.000 A 
ENDBRANCH  54  73
BRANCH  66  79
ATOM     79  C   UNL     1      11.772  -1.478  -6.389  1.00  0.00    -0.014 A 
ATOM     80  C   UNL     1      10.973  -2.632  -6.296  1.00  0.00     0.009 A 
ATOM     81  C   UNL     1      11.742  -0.744  -7.584  1.00  0.00     0.009 A 
ATOM     82  C   UNL     1      10.196  -3.056  -7.379  1.00  0.00     0.001 A 
ATOM     83  C   UNL     1      10.949  -1.156  -8.658  1.00  0.00     0.001 A 
ATOM     84  C   UNL     1      10.182  -2.315  -8.558  1.00  0.00     0.000 A 
ENDBRANCH  66  79
ENDBRANCH  40  41
ENDBRANCH  33  35
ENDBRANCH  32  33
ENDBRANCH  31  32
ENDBRANCH   1  31
TORSDOF 16
