REMARK SMILES O=C(Cn1nc(C(=O)OCCOC(=O)c2ccc(-c3c4nc(c(-c5ccccc5)c5ccc([nH]5)c(-c5ccccc5)c5nc(c(-c6ccccc6)c6ccc3[nH]6)C=C5)C=C4)cc2)c2ccccc2c1=O)Nc1ccc2c(c1)C(=O)c1ccccc1C2=O
REMARK SMILES IDX 10 1 9 2 7 3 8 4 6 5 4 6 5 7 69 8 68 9 70 10 63 11 67 12
REMARK SMILES IDX 64 13 66 14 65 15 3 16 2 17 1 18 71 19 72 21 73 22 77 23
REMARK SMILES IDX 74 24 76 25 75 26 78 27 86 28 79 29 80 30 85 31 87 32 81 33
REMARK SMILES IDX 84 34 82 35 83 36 11 37 12 38 13 39 14 40 15 41 16 42 62 43
REMARK SMILES IDX 17 44 61 45 18 46 19 47 20 48 55 49 21 50 60 51 54 52 56 53
REMARK SMILES IDX 22 54 59 55 53 56 52 57 23 59 45 60 30 61 44 62 31 63 34 64
REMARK SMILES IDX 43 65 57 66 32 67 33 68 42 70 58 71 35 72 24 73 25 74 29 75
REMARK SMILES IDX 26 76 28 77 27 78 46 79 47 80 51 81 48 82 50 83 49 84 36 85
REMARK SMILES IDX 37 86 41 87 38 88 40 89 39 90
REMARK H PARENT 71 20 56 58 34 69
REMARK Flexibility Score: inf
ROOT
ATOM      1  C   UNL     1       6.526  -3.140  -4.816  1.00  0.00     0.275 C 
ENDROOT
BRANCH   1   2
ATOM      2  O   UNL     1       5.635  -2.249  -4.113  1.00  0.00    -0.457 OA
BRANCH   2   3
ATOM      3  C   UNL     1       6.179  -1.230  -3.414  1.00  0.00     0.359 C 
ATOM      4  O   UNL     1       7.345  -0.894  -3.341  1.00  0.00    -0.244 OA
BRANCH   3   5
ATOM      5  C   UNL     1       5.047  -0.469  -2.737  1.00  0.00     0.176 A 
ATOM      6  N   UNL     1       3.154  -0.544  -1.419  1.00  0.00    -0.219 N 
ATOM      7  N   UNL     1       4.334  -1.117  -1.859  1.00  0.00    -0.161 NA
ATOM      8  C   UNL     1       2.555   0.515  -2.112  1.00  0.00     0.275 A 
ATOM      9  C   UNL     1       3.477   1.378  -2.875  1.00  0.00     0.051 A 
ATOM     10  O   UNL     1       1.377   0.829  -1.995  1.00  0.00    -0.267 OA
ATOM     11  C   UNL     1       4.758   0.914  -3.144  1.00  0.00     0.022 A 
ATOM     12  C   UNL     1       3.108   2.685  -3.224  1.00  0.00     0.014 A 
ATOM     13  C   UNL     1       5.697   1.770  -3.726  1.00  0.00     0.011 A 
ATOM     14  C   UNL     1       4.036   3.528  -3.836  1.00  0.00     0.001 A 
ATOM     15  C   UNL     1       5.331   3.074  -4.077  1.00  0.00     0.001 A 
BRANCH   6  16
ATOM     16  C   UNL     1       2.357  -1.335  -0.455  1.00  0.00     0.248 C 
BRANCH  16  17
ATOM     17  C   UNL     1       1.847  -0.550   0.780  1.00  0.00     0.246 C 
ATOM     18  O   UNL     1       1.029  -1.017   1.567  1.00  0.00    -0.273 OA
ATOM     19  N   UNL     1       2.436   0.687   0.911  1.00  0.00    -0.324 N 
ATOM     20  H   UNL     1       3.340   0.801   0.537  1.00  0.00     0.169 HD
BRANCH  19  21
ATOM     21  C   UNL     1       1.851   1.796   1.533  1.00  0.00     0.042 A 
ATOM     22  C   UNL     1       1.974   1.993   2.909  1.00  0.00     0.027 A 
ATOM     23  C   UNL     1       1.581   2.867   0.682  1.00  0.00     0.039 A 
ATOM     24  C   UNL     1       2.042   3.304   3.405  1.00  0.00     0.015 A 
ATOM     25  C   UNL     1       1.679   4.158   1.168  1.00  0.00     0.036 A 
ATOM     26  C   UNL     1       2.010   4.375   2.502  1.00  0.00     0.034 A 
ATOM     27  C   UNL     1       1.833   5.234   0.177  1.00  0.00     0.194 C 
ATOM     28  C   UNL     1       2.679   5.653   2.843  1.00  0.00     0.194 C 
ATOM     29  O   UNL     1       1.181   5.270  -0.855  1.00  0.00    -0.289 OA
ATOM     30  C   UNL     1       2.979   6.120   0.416  1.00  0.00     0.034 A 
ATOM     31  C   UNL     1       3.422   6.300   1.728  1.00  0.00     0.034 A 
ATOM     32  O   UNL     1       2.748   6.064   3.990  1.00  0.00    -0.289 OA
ATOM     33  C   UNL     1       3.724   6.574  -0.673  1.00  0.00     0.013 A 
ATOM     34  C   UNL     1       4.646   6.926   1.959  1.00  0.00     0.013 A 
ATOM     35  C   UNL     1       4.962   7.168  -0.441  1.00  0.00     0.001 A 
ATOM     36  C   UNL     1       5.423   7.337   0.869  1.00  0.00     0.001 A 
ENDBRANCH  19  21
ENDBRANCH  16  17
ENDBRANCH   6  16
ENDBRANCH   3   5
ENDBRANCH   2   3
ENDBRANCH   1   2
BRANCH   1  37
ATOM     37  C   UNL     1       6.166  -3.142  -6.301  1.00  0.00     0.275 C 
BRANCH  37  38
ATOM     38  O   UNL     1       6.593  -1.879  -6.834  1.00  0.00    -0.458 OA
BRANCH  38  39
ATOM     39  C   UNL     1       5.754  -1.252  -7.692  1.00  0.00     0.338 C 
ATOM     40  O   UNL     1       4.742  -1.692  -8.192  1.00  0.00    -0.246 OA
BRANCH  39  41
ATOM     41  C   UNL     1       6.272   0.120  -7.903  1.00  0.00     0.060 A 
ATOM     42  C   UNL     1       6.113   0.752  -9.134  1.00  0.00     0.016 A 
ATOM     43  C   UNL     1       6.868   0.809  -6.847  1.00  0.00     0.016 A 
ATOM     44  C   UNL     1       6.581   2.063  -9.306  1.00  0.00     0.010 A 
ATOM     45  C   UNL     1       7.235   2.147  -6.995  1.00  0.00     0.010 A 
ATOM     46  C   UNL     1       7.116   2.798  -8.229  1.00  0.00    -0.014 A 
BRANCH  46  47
ATOM     47  C   UNL     1       7.535   4.229  -8.373  1.00  0.00     0.031 A 
ATOM     48  C   UNL     1       8.892   4.709  -7.899  1.00  0.00     0.074 A 
ATOM     49  C   UNL     1       6.672   5.143  -8.867  1.00  0.00     0.049 A 
ATOM     50  N   UNL     1       9.365   5.932  -7.854  1.00  0.00    -0.248 NA
ATOM     51  C   UNL     1       9.811   3.704  -7.342  1.00  0.00     0.031 C 
ATOM     52  C   UNL     1       5.288   4.883  -9.268  1.00  0.00     0.029 A 
ATOM     53  N   UNL     1       6.844   6.481  -9.139  1.00  0.00    -0.354 N 
ATOM     54  C   UNL     1      10.585   5.848  -7.191  1.00  0.00     0.074 A 
ATOM     55  C   UNL     1      10.761   4.463  -6.817  1.00  0.00     0.031 C 
ATOM     56  C   UNL     1       4.776   5.989  -9.829  1.00  0.00     0.029 A 
ATOM     57  C   UNL     1       5.771   7.054  -9.781  1.00  0.00     0.049 A 
ATOM     58  H   UNL     1       7.657   6.981  -8.897  1.00  0.00     0.167 HD
ATOM     59  C   UNL     1      11.494   6.822  -6.940  1.00  0.00     0.031 A 
ATOM     60  C   UNL     1       5.608   8.286 -10.300  1.00  0.00     0.031 A 
ATOM     61  C   UNL     1      11.398   8.170  -7.431  1.00  0.00     0.049 A 
ATOM     62  C   UNL     1       6.709   9.300 -10.187  1.00  0.00     0.074 A 
ATOM     63  C   UNL     1      12.329   9.191  -7.325  1.00  0.00     0.029 A 
ATOM     64  N   UNL     1      10.337   8.671  -8.164  1.00  0.00    -0.354 N 
ATOM     65  N   UNL     1       7.867   9.191  -9.585  1.00  0.00    -0.248 NA
ATOM     66  C   UNL     1       6.485  10.605 -10.830  1.00  0.00     0.031 C 
ATOM     67  C   UNL     1      11.828  10.312  -7.990  1.00  0.00     0.029 A 
ATOM     68  C   UNL     1      10.600   9.977  -8.536  1.00  0.00     0.049 A 
ATOM     69  H   UNL     1       9.517   8.173  -8.386  1.00  0.00     0.167 HD
ATOM     70  C   UNL     1       8.515  10.401  -9.791  1.00  0.00     0.074 A 
ATOM     71  C   UNL     1       7.632  11.226 -10.587  1.00  0.00     0.031 C 
ATOM     72  C   UNL     1       9.734  10.789  -9.349  1.00  0.00     0.031 A 
BRANCH  59  73
ATOM     73  C   UNL     1      12.709   6.463  -6.127  1.00  0.00    -0.014 A 
ATOM     74  C   UNL     1      12.886   7.027  -4.852  1.00  0.00     0.009 A 
ATOM     75  C   UNL     1      13.714   5.631  -6.644  1.00  0.00     0.009 A 
ATOM     76  C   UNL     1      14.038   6.758  -4.111  1.00  0.00     0.001 A 
ATOM     77  C   UNL     1      14.848   5.335  -5.885  1.00  0.00     0.001 A 
ATOM     78  C   UNL     1      15.013   5.904  -4.623  1.00  0.00     0.000 A 
ENDBRANCH  59  73
BRANCH  60  79
ATOM     79  C   UNL     1       4.372   8.597 -11.063  1.00  0.00    -0.014 A 
ATOM     80  C   UNL     1       3.151   8.816 -10.411  1.00  0.00     0.009 A 
ATOM     81  C   UNL     1       4.413   8.634 -12.466  1.00  0.00     0.009 A 
ATOM     82  C   UNL     1       1.990   9.056 -11.151  1.00  0.00     0.001 A 
ATOM     83  C   UNL     1       3.257   8.898 -13.202  1.00  0.00     0.001 A 
ATOM     84  C   UNL     1       2.046   9.102 -12.544  1.00  0.00     0.000 A 
ENDBRANCH  60  79
BRANCH  72  85
ATOM     85  C   UNL     1      10.227  12.153  -9.731  1.00  0.00    -0.014 A 
ATOM     86  C   UNL     1      11.260  12.279 -10.674  1.00  0.00     0.009 A 
ATOM     87  C   UNL     1       9.753  13.301  -9.081  1.00  0.00     0.009 A 
ATOM     88  C   UNL     1      11.819  13.527 -10.948  1.00  0.00     0.001 A 
ATOM     89  C   UNL     1      10.302  14.552  -9.371  1.00  0.00     0.001 A 
ATOM     90  C   UNL     1      11.339  14.663 -10.297  1.00  0.00     0.000 A 
ENDBRANCH  72  85
ENDBRANCH  46  47
ENDBRANCH  39  41
ENDBRANCH  38  39
ENDBRANCH  37  38
ENDBRANCH   1  37
TORSDOF 14
