REMARK SMILES O=C(OCCOC(=O)c1ccc2c(=O)[nH]c(N3CC[NH2+]CC3)nc2c1)c1ccc(-c2c3nc(c(-c4ccccc4)c4ccc([nH]4)c(-c4ccccc4)c4nc(c(-c5ccccc5)c5ccc2[nH]5)C=C4)C=C3)cc1
REMARK SMILES IDX 4 1 3 2 2 3 1 4 26 5 27 6 73 7 28 8 72 9 29 10 30 11 31 12
REMARK SMILES IDX 66 13 32 14 71 15 65 16 67 17 33 18 70 19 64 20 63 21 34 23
REMARK SMILES IDX 56 24 41 25 55 26 42 27 45 28 54 29 68 30 43 31 44 32 53 34
REMARK SMILES IDX 69 35 46 36 35 37 36 38 40 39 37 40 39 41 38 42 57 43 58 44
REMARK SMILES IDX 62 45 59 46 61 47 60 48 47 49 48 50 52 51 49 52 51 53 50 54
REMARK SMILES IDX 5 55 6 56 7 57 8 58 9 59 10 60 25 61 11 62 24 63 12 64 23 65
REMARK SMILES IDX 13 66 16 67 14 68 15 69 17 71 18 72 22 73 19 74 21 75 20 76
REMARK H PARENT 67 22 45 33 15 70 20 77 20 78
REMARK Flexibility Score: inf
ROOT
ATOM      1  C   UNL     1       3.899   1.011  -1.261  1.00  0.00     0.275 C 
ENDROOT
BRANCH   1   2
ATOM      2  O   UNL     1       2.914  -0.039  -1.246  1.00  0.00    -0.458 OA
BRANCH   2   3
ATOM      3  C   UNL     1       2.861  -1.169  -0.502  1.00  0.00     0.338 C 
ATOM      4  O   UNL     1       2.068  -2.056  -0.813  1.00  0.00    -0.246 OA
BRANCH   3   5
ATOM      5  C   UNL     1       3.616  -1.341   0.774  1.00  0.00     0.060 A 
ATOM      6  C   UNL     1       4.926  -0.920   1.004  1.00  0.00     0.016 A 
ATOM      7  C   UNL     1       2.953  -2.032   1.804  1.00  0.00     0.016 A 
ATOM      8  C   UNL     1       5.527  -1.100   2.253  1.00  0.00     0.010 A 
ATOM      9  C   UNL     1       3.545  -2.210   3.058  1.00  0.00     0.010 A 
ATOM     10  C   UNL     1       4.841  -1.742   3.288  1.00  0.00    -0.014 A 
BRANCH  10  11
ATOM     11  C   UNL     1       5.551  -2.045   4.550  1.00  0.00     0.031 A 
ATOM     12  C   UNL     1       6.083  -3.431   4.761  1.00  0.00     0.074 A 
ATOM     13  C   UNL     1       5.781  -1.080   5.458  1.00  0.00     0.049 A 
ATOM     14  N   UNL     1       6.830  -3.886   5.731  1.00  0.00    -0.248 NA
ATOM     15  C   UNL     1       5.761  -4.426   3.724  1.00  0.00     0.031 C 
ATOM     16  C   UNL     1       5.369   0.315   5.330  1.00  0.00     0.029 A 
ATOM     17  N   UNL     1       6.415  -1.128   6.673  1.00  0.00    -0.354 N 
ATOM     18  C   UNL     1       7.118  -5.199   5.391  1.00  0.00     0.074 A 
ATOM     19  C   UNL     1       6.399  -5.496   4.173  1.00  0.00     0.031 C 
ATOM     20  C   UNL     1       5.704   0.981   6.449  1.00  0.00     0.029 A 
ATOM     21  C   UNL     1       6.378   0.062   7.359  1.00  0.00     0.049 A 
ATOM     22  H   UNL     1       6.855  -1.937   7.020  1.00  0.00     0.167 HD
ATOM     23  C   UNL     1       7.947  -6.068   6.014  1.00  0.00     0.031 A 
ATOM     24  C   UNL     1       6.841   0.372   8.584  1.00  0.00     0.031 A 
ATOM     25  C   UNL     1       8.613  -5.791   7.255  1.00  0.00     0.049 A 
ATOM     26  C   UNL     1       7.626  -0.665   9.340  1.00  0.00     0.074 A 
ATOM     27  C   UNL     1       9.444  -6.611   7.995  1.00  0.00     0.029 A 
ATOM     28  N   UNL     1       8.503  -4.595   7.950  1.00  0.00    -0.354 N 
ATOM     29  N   UNL     1       7.945  -1.885   8.976  1.00  0.00    -0.248 NA
ATOM     30  C   UNL     1       8.156  -0.269  10.651  1.00  0.00     0.031 C 
ATOM     31  C   UNL     1       9.803  -5.926   9.161  1.00  0.00     0.029 A 
ATOM     32  C   UNL     1       9.235  -4.662   9.122  1.00  0.00     0.049 A 
ATOM     33  H   UNL     1       7.981  -3.815   7.653  1.00  0.00     0.167 HD
ATOM     34  C   UNL     1       8.751  -2.384   9.990  1.00  0.00     0.074 A 
ATOM     35  C   UNL     1       8.875  -1.333  10.980  1.00  0.00     0.031 C 
ATOM     36  C   UNL     1       9.346  -3.598  10.087  1.00  0.00     0.031 A 
BRANCH  23  37
ATOM     37  C   UNL     1       8.156  -7.392   5.340  1.00  0.00    -0.014 A 
ATOM     38  C   UNL     1       8.916  -7.479   4.161  1.00  0.00     0.009 A 
ATOM     39  C   UNL     1       7.568  -8.553   5.859  1.00  0.00     0.009 A 
ATOM     40  C   UNL     1       9.047  -8.697   3.492  1.00  0.00     0.001 A 
ATOM     41  C   UNL     1       7.720  -9.775   5.199  1.00  0.00     0.001 A 
ATOM     42  C   UNL     1       8.449  -9.844   4.012  1.00  0.00     0.000 A 
ENDBRANCH  23  37
BRANCH  24  43
ATOM     43  C   UNL     1       6.592   1.717   9.166  1.00  0.00    -0.014 A 
ATOM     44  C   UNL     1       7.637   2.637   9.345  1.00  0.00     0.009 A 
ATOM     45  C   UNL     1       5.298   2.075   9.579  1.00  0.00     0.009 A 
ATOM     46  C   UNL     1       7.398   3.870   9.959  1.00  0.00     0.001 A 
ATOM     47  C   UNL     1       5.058   3.318  10.170  1.00  0.00     0.001 A 
ATOM     48  C   UNL     1       6.110   4.210  10.370  1.00  0.00     0.000 A 
ENDBRANCH  24  43
BRANCH  36  49
ATOM     49  C   UNL     1      10.223  -3.831  11.283  1.00  0.00    -0.014 A 
ATOM     50  C   UNL     1       9.678  -4.022  12.561  1.00  0.00     0.009 A 
ATOM     51  C   UNL     1      11.615  -3.893  11.117  1.00  0.00     0.009 A 
ATOM     52  C   UNL     1      10.515  -4.238  13.657  1.00  0.00     0.001 A 
ATOM     53  C   UNL     1      12.447  -4.139  12.209  1.00  0.00     0.001 A 
ATOM     54  C   UNL     1      11.897  -4.301  13.479  1.00  0.00     0.000 A 
ENDBRANCH  36  49
ENDBRANCH  10  11
ENDBRANCH   3   5
ENDBRANCH   2   3
ENDBRANCH   1   2
BRANCH   1  55
ATOM     55  C   UNL     1       3.630   2.169  -0.299  1.00  0.00     0.275 C 
BRANCH  55  56
ATOM     56  O   UNL     1       3.220   1.746   1.008  1.00  0.00    -0.458 OA
BRANCH  56  57
ATOM     57  C   UNL     1       1.875   1.721   1.208  1.00  0.00     0.338 C 
ATOM     58  O   UNL     1       1.005   2.011   0.405  1.00  0.00    -0.246 OA
BRANCH  57  59
ATOM     59  C   UNL     1       1.604   1.176   2.550  1.00  0.00     0.062 A 
ATOM     60  C   UNL     1       2.265   1.688   3.672  1.00  0.00     0.016 A 
ATOM     61  C   UNL     1       0.708   0.104   2.673  1.00  0.00     0.045 A 
ATOM     62  C   UNL     1       2.048   1.105   4.918  1.00  0.00     0.017 A 
ATOM     63  C   UNL     1       0.535  -0.528   3.908  1.00  0.00     0.081 A 
ATOM     64  C   UNL     1       1.209  -0.009   5.018  1.00  0.00     0.066 A 
ATOM     65  N   UNL     1      -0.270  -1.681   3.985  1.00  0.00    -0.214 NA
ATOM     66  C   UNL     1       1.026  -0.696   6.302  1.00  0.00     0.260 A 
ATOM     67  C   UNL     1      -0.434  -2.243   5.141  1.00  0.00     0.206 A 
ATOM     68  O   UNL     1       1.581  -0.324   7.328  1.00  0.00    -0.269 OA
ATOM     69  N   UNL     1       0.192  -1.778   6.265  1.00  0.00    -0.292 N 
ATOM     70  H   UNL     1       0.029  -2.257   7.109  1.00  0.00     0.173 HD
BRANCH  67  71
ATOM     71  N   UNL     1      -1.223  -3.337   5.358  1.00  0.00    -0.331 N 
ATOM     72  C   UNL     1      -1.197  -4.500   4.466  1.00  0.00     0.181 C 
ATOM     73  C   UNL     1      -2.477  -3.195   6.110  1.00  0.00     0.181 C 
ATOM     74  C   UNL     1      -1.535  -5.778   5.276  1.00  0.00     0.282 C 
ATOM     75  C   UNL     1      -2.779  -4.489   6.889  1.00  0.00     0.282 C 
ATOM     76  N   UNL     1      -2.802  -5.694   6.036  1.00  0.00    -0.343 N 
ATOM     77  H   UNL     1      -2.905  -6.523   6.620  1.00  0.00     0.346 HD
ATOM     78  H   UNL     1      -3.587  -5.639   5.387  1.00  0.00     0.346 HD
ENDBRANCH  67  71
ENDBRANCH  57  59
ENDBRANCH  56  57
ENDBRANCH  55  56
ENDBRANCH   1  55
TORSDOF 12
