REMARK SMILES CCN(CC(C)(C)O)C(=O)NCCCC(=O)OCCOC(=O)c1ccc(-c2c3nc(c(-c4ccccc4)c4ccc([nH]4)c(-c4ccccc4)c4nc(c(-c5ccccc5)c5ccc2[nH]5)C=C4)C=C3)cc1
REMARK SMILES IDX 15 1 16 2 14 3 13 4 12 5 11 6 9 7 10 8 3 10 2 11 1 12 4 13
REMARK SMILES IDX 5 14 6 15 7 16 8 17 17 19 18 20 19 21 20 22 21 23 22 24
REMARK SMILES IDX 23 25 24 26 70 27 25 28 69 29 26 30 27 31 28 32 63 33 29 34
REMARK SMILES IDX 68 35 62 36 64 37 30 38 67 39 61 40 60 41 31 43 53 44 38 45
REMARK SMILES IDX 52 46 39 47 42 48 51 49 65 50 40 51 41 52 50 54 66 55 43 56
REMARK SMILES IDX 32 57 33 58 37 59 34 60 36 61 35 62 54 63 55 64 59 65 56 66
REMARK SMILES IDX 58 67 57 68 44 69 45 70 49 71 46 72 48 73 47 74
REMARK H PARENT 11 9 8 18 64 42 42 53
REMARK Flexibility Score: inf
ROOT
ATOM      1  C   UNL     1       5.126   1.134   7.072  1.00  0.00     0.305 C 
ATOM      2  O   UNL     1       5.722   1.068   8.138  1.00  0.00    -0.252 OA
ENDROOT
BRANCH   1   3
ATOM      3  C   UNL     1       5.024  -0.018   6.100  1.00  0.00     0.124 C 
BRANCH   3   4
ATOM      4  C   UNL     1       3.590  -0.490   5.895  1.00  0.00     0.033 C 
BRANCH   4   5
ATOM      5  C   UNL     1       2.787   0.327   4.884  1.00  0.00     0.118 C 
BRANCH   5   6
ATOM      6  N   UNL     1       3.102  -0.104   3.539  1.00  0.00    -0.338 N 
ATOM      7  C   UNL     1       2.465  -0.600   2.472  1.00  0.00     0.317 C 
ATOM      8  O   UNL     1       3.227  -0.913   1.548  1.00  0.00    -0.249 OA
ATOM      9  H   UNL     1       4.063  -0.002   3.356  1.00  0.00     0.165 HD
BRANCH   7  10
ATOM     10  N   UNL     1       1.112  -0.738   2.366  1.00  0.00    -0.322 N 
BRANCH  10  11
ATOM     11  C   UNL     1       0.628  -1.208   1.060  1.00  0.00     0.118 C 
ATOM     12  C   UNL     1       0.664  -0.097   0.015  1.00  0.00     0.027 C 
ENDBRANCH  10  11
BRANCH  10  13
ATOM     13  C   UNL     1       0.051  -0.422   3.337  1.00  0.00     0.155 C 
BRANCH  13  14
ATOM     14  C   UNL     1      -0.434  -1.628   4.201  1.00  0.00     0.077 C 
ATOM     15  C   UNL     1       0.672  -2.352   4.972  1.00  0.00     0.043 C 
ATOM     16  C   UNL     1      -1.500  -1.142   5.191  1.00  0.00     0.043 C 
BRANCH  14  17
ATOM     17  O   UNL     1      -1.075  -2.582   3.338  1.00  0.00    -0.389 OA
ATOM     18  H   UNL     1      -0.434  -2.917   2.692  1.00  0.00     0.211 HD
ENDBRANCH  14  17
ENDBRANCH  13  14
ENDBRANCH  10  13
ENDBRANCH   7  10
ENDBRANCH   5   6
ENDBRANCH   4   5
ENDBRANCH   3   4
ENDBRANCH   1   3
BRANCH   1  19
ATOM     19  O   UNL     1       4.481   2.231   6.599  1.00  0.00    -0.462 OA
BRANCH  19  20
ATOM     20  C   UNL     1       4.479   3.400   7.439  1.00  0.00     0.274 C 
BRANCH  20  21
ATOM     21  C   UNL     1       3.202   3.481   8.278  1.00  0.00     0.275 C 
BRANCH  21  22
ATOM     22  O   UNL     1       3.219   2.513   9.344  1.00  0.00    -0.458 OA
BRANCH  22  23
ATOM     23  C   UNL     1       2.511   1.383   9.124  1.00  0.00     0.338 C 
ATOM     24  O   UNL     1       1.809   1.133   8.152  1.00  0.00    -0.246 OA
BRANCH  23  25
ATOM     25  C   UNL     1       2.780   0.402  10.192  1.00  0.00     0.060 A 
ATOM     26  C   UNL     1       3.134  -0.902   9.826  1.00  0.00     0.016 A 
ATOM     27  C   UNL     1       2.629   0.734  11.540  1.00  0.00     0.016 A 
ATOM     28  C   UNL     1       3.318  -1.881  10.798  1.00  0.00     0.010 A 
ATOM     29  C   UNL     1       2.820  -0.249  12.518  1.00  0.00     0.010 A 
ATOM     30  C   UNL     1       3.150  -1.565  12.151  1.00  0.00    -0.014 A 
BRANCH  30  31
ATOM     31  C   UNL     1       3.270  -2.635  13.170  1.00  0.00     0.031 A 
ATOM     32  C   UNL     1       2.034  -3.202  13.807  1.00  0.00     0.074 A 
ATOM     33  C   UNL     1       4.481  -3.121  13.496  1.00  0.00     0.049 A 
ATOM     34  N   UNL     1       1.930  -4.124  14.731  1.00  0.00    -0.248 NA
ATOM     35  C   UNL     1       0.746  -2.662  13.345  1.00  0.00     0.031 C 
ATOM     36  C   UNL     1       5.752  -2.686  12.917  1.00  0.00     0.029 A 
ATOM     37  N   UNL     1       4.836  -4.094  14.396  1.00  0.00    -0.354 N 
ATOM     38  C   UNL     1       0.569  -4.264  14.970  1.00  0.00     0.074 A 
ATOM     39  C   UNL     1      -0.112  -3.320  14.111  1.00  0.00     0.031 C 
ATOM     40  C   UNL     1       6.749  -3.395  13.473  1.00  0.00     0.029 A 
ATOM     41  C   UNL     1       6.191  -4.304  14.470  1.00  0.00     0.049 A 
ATOM     42  H   UNL     1       4.182  -4.594  14.936  1.00  0.00     0.167 HD
ATOM     43  C   UNL     1      -0.057  -5.107  15.827  1.00  0.00     0.031 A 
ATOM     44  C   UNL     1       6.904  -5.124  15.265  1.00  0.00     0.031 A 
ATOM     45  C   UNL     1       0.617  -6.044  16.685  1.00  0.00     0.049 A 
ATOM     46  C   UNL     1       6.188  -6.004  16.251  1.00  0.00     0.074 A 
ATOM     47  C   UNL     1       0.065  -6.944  17.581  1.00  0.00     0.029 A 
ATOM     48  N   UNL     1       1.992  -6.200  16.757  1.00  0.00    -0.354 N 
ATOM     49  N   UNL     1       4.900  -6.134  16.460  1.00  0.00    -0.248 NA
ATOM     50  C   UNL     1       7.026  -6.856  17.107  1.00  0.00     0.031 C 
ATOM     51  C   UNL     1       1.110  -7.614  18.227  1.00  0.00     0.029 A 
ATOM     52  C   UNL     1       2.309  -7.167  17.696  1.00  0.00     0.049 A 
ATOM     53  H   UNL     1       2.647  -5.697  16.220  1.00  0.00     0.167 HD
ATOM     54  C   UNL     1       4.773  -7.099  17.451  1.00  0.00     0.074 A 
ATOM     55  C   UNL     1       6.113  -7.529  17.793  1.00  0.00     0.031 C 
ATOM     56  C   UNL     1       3.646  -7.586  18.025  1.00  0.00     0.031 A 
BRANCH  43  57
ATOM     57  C   UNL     1      -1.555  -5.025  15.899  1.00  0.00    -0.014 A 
ATOM     58  C   UNL     1      -2.363  -5.532  14.870  1.00  0.00     0.009 A 
ATOM     59  C   UNL     1      -2.166  -4.461  17.030  1.00  0.00     0.009 A 
ATOM     60  C   UNL     1      -3.754  -5.448  14.958  1.00  0.00     0.001 A 
ATOM     61  C   UNL     1      -3.557  -4.400  17.126  1.00  0.00     0.001 A 
ATOM     62  C   UNL     1      -4.349  -4.885  16.087  1.00  0.00     0.000 A 
ENDBRANCH  43  57
BRANCH  44  63
ATOM     63  C   UNL     1       8.386  -5.141  15.175  1.00  0.00    -0.014 A 
ATOM     64  C   UNL     1       9.056  -6.248  14.634  1.00  0.00     0.009 A 
ATOM     65  C   UNL     1       9.138  -4.051  15.640  1.00  0.00     0.009 A 
ATOM     66  C   UNL     1      10.451  -6.272  14.581  1.00  0.00     0.001 A 
ATOM     67  C   UNL     1      10.532  -4.067  15.562  1.00  0.00     0.001 A 
ATOM     68  C   UNL     1      11.187  -5.181  15.041  1.00  0.00     0.000 A 
ENDBRANCH  44  63
BRANCH  56  69
ATOM     69  C   UNL     1       3.812  -8.669  19.053  1.00  0.00    -0.014 A 
ATOM     70  C   UNL     1       4.289  -8.384  20.341  1.00  0.00     0.009 A 
ATOM     71  C   UNL     1       3.450  -9.987  18.736  1.00  0.00     0.009 A 
ATOM     72  C   UNL     1       4.429  -9.406  21.282  1.00  0.00     0.001 A 
ATOM     73  C   UNL     1       3.567 -11.002  19.687  1.00  0.00     0.001 A 
ATOM     74  C   UNL     1       4.065 -10.712  20.956  1.00  0.00     0.000 A 
ENDBRANCH  56  69
ENDBRANCH  30  31
ENDBRANCH  23  25
ENDBRANCH  22  23
ENDBRANCH  21  22
ENDBRANCH  20  21
ENDBRANCH  19  20
ENDBRANCH   1  19
TORSDOF 19
