REMARK SMILES O=C(OCCOC(=O)[C@@H]1CS[C@H](c2ncc(-c3ccccc3)s2)[NH2+]1)c1ccc(-c2c3nc(c(-c4ccccc4)c4ccc([nH]4)c(-c4ccccc4)c4nc(c(-c5ccccc5)c5ccc2[nH]5)C=C4)C=C3)cc1
REMARK SMILES IDX 4 1 3 2 2 3 1 4 25 5 26 6 72 7 27 8 71 9 28 10 29 11 30 12
REMARK SMILES IDX 65 13 31 14 70 15 64 16 66 17 32 18 69 19 63 20 62 21 33 23
REMARK SMILES IDX 55 24 40 25 54 26 41 27 44 28 53 29 67 30 42 31 43 32 52 34
REMARK SMILES IDX 68 35 45 36 34 37 35 38 39 39 36 40 38 41 37 42 56 43 57 44
REMARK SMILES IDX 61 45 58 46 60 47 59 48 46 49 47 50 51 51 48 52 50 53 49 54
REMARK SMILES IDX 5 55 6 56 7 57 8 58 9 59 10 60 24 61 11 62 12 63 13 66 14 67
REMARK SMILES IDX 23 68 15 69 16 70 17 71 18 72 22 73 19 74 21 75 20 76
REMARK H PARENT 66 22 44 33 24 64 24 65
REMARK Flexibility Score: inf
ROOT
ATOM      1  C   UNL     1      -0.995   0.854   2.731  1.00  0.00     0.275 C 
ENDROOT
BRANCH   1   2
ATOM      2  O   UNL     1      -0.429   1.881   3.557  1.00  0.00    -0.458 OA
BRANCH   2   3
ATOM      3  C   UNL     1       0.747   1.843   4.229  1.00  0.00     0.338 C 
ATOM      4  O   UNL     1       0.887   2.518   5.245  1.00  0.00    -0.246 OA
BRANCH   3   5
ATOM      5  C   UNL     1       1.951   1.185   3.644  1.00  0.00     0.060 A 
ATOM      6  C   UNL     1       1.952  -0.033   2.963  1.00  0.00     0.016 A 
ATOM      7  C   UNL     1       3.173   1.868   3.799  1.00  0.00     0.016 A 
ATOM      8  C   UNL     1       3.119  -0.528   2.388  1.00  0.00     0.010 A 
ATOM      9  C   UNL     1       4.344   1.387   3.206  1.00  0.00     0.010 A 
ATOM     10  C   UNL     1       4.322   0.171   2.514  1.00  0.00    -0.014 A 
BRANCH  10  11
ATOM     11  C   UNL     1       5.565  -0.531   2.135  1.00  0.00     0.031 A 
ATOM     12  C   UNL     1       6.368  -1.143   3.246  1.00  0.00     0.074 A 
ATOM     13  C   UNL     1       5.876  -0.741   0.842  1.00  0.00     0.049 A 
ATOM     14  N   UNL     1       7.392  -1.950   3.182  1.00  0.00    -0.248 NA
ATOM     15  C   UNL     1       5.951  -0.807   4.619  1.00  0.00     0.031 C 
ATOM     16  C   UNL     1       5.130  -0.224  -0.308  1.00  0.00     0.029 A 
ATOM     17  N   UNL     1       6.881  -1.484   0.279  1.00  0.00    -0.354 N 
ATOM     18  C   UNL     1       7.738  -2.209   4.503  1.00  0.00     0.074 A 
ATOM     19  C   UNL     1       6.861  -1.432   5.343  1.00  0.00     0.031 C 
ATOM     20  C   UNL     1       5.682  -0.699  -1.439  1.00  0.00     0.029 A 
ATOM     21  C   UNL     1       6.824  -1.541  -1.094  1.00  0.00     0.049 A 
ATOM     22  H   UNL     1       7.578  -1.936   0.808  1.00  0.00     0.167 HD
ATOM     23  C   UNL     1       8.686  -3.046   4.980  1.00  0.00     0.031 A 
ATOM     24  C   UNL     1       7.599  -2.220  -1.962  1.00  0.00     0.031 A 
ATOM     25  C   UNL     1       9.558  -3.808   4.136  1.00  0.00     0.049 A 
ATOM     26  C   UNL     1       8.690  -3.100  -1.407  1.00  0.00     0.074 A 
ATOM     27  C   UNL     1      10.576  -4.670   4.494  1.00  0.00     0.029 A 
ATOM     28  N   UNL     1       9.505  -3.789   2.750  1.00  0.00    -0.354 N 
ATOM     29  N   UNL     1       8.986  -3.362  -0.155  1.00  0.00    -0.248 NA
ATOM     30  C   UNL     1       9.539  -3.795  -2.384  1.00  0.00     0.031 C 
ATOM     31  C   UNL     1      11.170  -5.140   3.317  1.00  0.00     0.029 A 
ATOM     32  C   UNL     1      10.482  -4.616   2.232  1.00  0.00     0.049 A 
ATOM     33  H   UNL     1       8.866  -3.265   2.215  1.00  0.00     0.167 HD
ATOM     34  C   UNL     1      10.029  -4.279  -0.194  1.00  0.00     0.074 A 
ATOM     35  C   UNL     1      10.301  -4.538  -1.594  1.00  0.00     0.031 C 
ATOM     36  C   UNL     1      10.705  -4.858   0.829  1.00  0.00     0.031 A 
BRANCH  23  37
ATOM     37  C   UNL     1       8.827  -3.113   6.474  1.00  0.00    -0.014 A 
ATOM     38  C   UNL     1       7.831  -3.697   7.276  1.00  0.00     0.009 A 
ATOM     39  C   UNL     1       9.926  -2.501   7.093  1.00  0.00     0.009 A 
ATOM     40  C   UNL     1       7.902  -3.609   8.668  1.00  0.00     0.001 A 
ATOM     41  C   UNL     1      10.010  -2.442   8.486  1.00  0.00     0.001 A 
ATOM     42  C   UNL     1       8.990  -2.980   9.271  1.00  0.00     0.000 A 
ENDBRANCH  23  37
BRANCH  24  43
ATOM     43  C   UNL     1       7.370  -2.127  -3.432  1.00  0.00    -0.014 A 
ATOM     44  C   UNL     1       6.941  -3.245  -4.167  1.00  0.00     0.009 A 
ATOM     45  C   UNL     1       7.627  -0.930  -4.121  1.00  0.00     0.009 A 
ATOM     46  C   UNL     1       6.813  -3.177  -5.558  1.00  0.00     0.001 A 
ATOM     47  C   UNL     1       7.470  -0.858  -5.508  1.00  0.00     0.001 A 
ATOM     48  C   UNL     1       7.077  -1.984  -6.227  1.00  0.00     0.000 A 
ENDBRANCH  24  43
BRANCH  36  49
ATOM     49  C   UNL     1      11.761  -5.864   0.471  1.00  0.00    -0.014 A 
ATOM     50  C   UNL     1      12.984  -5.472  -0.091  1.00  0.00     0.009 A 
ATOM     51  C   UNL     1      11.546  -7.219   0.767  1.00  0.00     0.009 A 
ATOM     52  C   UNL     1      13.962  -6.425  -0.379  1.00  0.00     0.001 A 
ATOM     53  C   UNL     1      12.537  -8.165   0.509  1.00  0.00     0.001 A 
ATOM     54  C   UNL     1      13.740  -7.768  -0.072  1.00  0.00     0.000 A 
ENDBRANCH  36  49
ENDBRANCH  10  11
ENDBRANCH   3   5
ENDBRANCH   2   3
ENDBRANCH   1   2
BRANCH   1  55
ATOM     55  C   UNL     1      -0.755   1.060   1.234  1.00  0.00     0.274 C 
BRANCH  55  56
ATOM     56  O   UNL     1       0.484   1.734   0.935  1.00  0.00    -0.458 OA
BRANCH  56  57
ATOM     57  C   UNL     1       0.361   2.920   0.256  1.00  0.00     0.365 C 
ATOM     58  O   UNL     1      -0.710   3.389  -0.094  1.00  0.00    -0.245 OA
BRANCH  57  59
ATOM     59  C   UNL     1       1.736   3.496  -0.150  1.00  0.00     0.304 C 
ATOM     60  C   UNL     1       2.806   3.339   0.922  1.00  0.00     0.153 C 
ATOM     61  N   UNL     1       1.617   4.940  -0.554  1.00  0.00    -0.317 N 
ATOM     62  S   UNL     1       3.766   4.857   0.849  1.00  0.00    -0.085 SA
ATOM     63  C   UNL     1       2.251   5.790   0.479  1.00  0.00     0.303 C 
ATOM     64  H   UNL     1       0.632   5.189  -0.643  1.00  0.00     0.348 HD
ATOM     65  H   UNL     1       2.083   5.084  -1.449  1.00  0.00     0.348 HD
BRANCH  63  66
ATOM     66  C   UNL     1       1.405   6.026   1.729  1.00  0.00     0.162 A 
ATOM     67  N   UNL     1       1.872   6.074   2.966  1.00  0.00    -0.242 NA
ATOM     68  S   UNL     1      -0.305   6.247   1.612  1.00  0.00    -0.112 S 
ATOM     69  C   UNL     1       0.826   6.122   3.869  1.00  0.00     0.132 A 
ATOM     70  C   UNL     1      -0.437   6.131   3.316  1.00  0.00     0.055 A 
BRANCH  70  71
ATOM     71  C   UNL     1      -1.744   5.993   3.945  1.00  0.00    -0.007 A 
ATOM     72  C   UNL     1      -2.115   4.756   4.489  1.00  0.00     0.009 A 
ATOM     73  C   UNL     1      -2.657   7.051   3.982  1.00  0.00     0.009 A 
ATOM     74  C   UNL     1      -3.389   4.561   5.021  1.00  0.00     0.001 A 
ATOM     75  C   UNL     1      -3.928   6.862   4.532  1.00  0.00     0.001 A 
ATOM     76  C   UNL     1      -4.298   5.615   5.039  1.00  0.00     0.000 A 
ENDBRANCH  70  71
ENDBRANCH  63  66
ENDBRANCH  57  59
ENDBRANCH  56  57
ENDBRANCH  55  56
ENDBRANCH   1  55
TORSDOF 13
