REMARK SMILES Cc1ccc([C@@H](C)Nc2ccc(N)cc2C(=O)OCCOC(=O)c2ccc(-c3c4nc(c(-c5ccccc5)c5ccc([nH]5)c(-c5ccccc5)c5nc(c(-c6ccccc6)c6ccc3[nH]6)C=C5)C=C4)cc2)cc1F
REMARK SMILES IDX 19 1 18 2 16 3 17 4 15 5 9 6 10 7 11 8 14 9 12 10 8 11 6 13
REMARK SMILES IDX 7 14 5 15 1 16 2 17 3 18 73 19 4 20 72 21 74 22 13 23 20 26
REMARK SMILES IDX 21 27 22 28 23 29 24 30 25 31 71 32 26 33 70 34 27 35 28 36
REMARK SMILES IDX 29 37 64 38 30 39 69 40 63 41 65 42 31 43 68 44 62 45 61 46
REMARK SMILES IDX 32 48 54 49 39 50 53 51 40 52 43 53 52 54 66 55 41 56 42 57
REMARK SMILES IDX 51 59 67 60 44 61 33 62 34 63 38 64 35 65 37 66 36 67 55 68
REMARK SMILES IDX 56 69 60 70 57 71 59 72 58 73 45 74 46 75 50 76 47 77 49 78
REMARK SMILES IDX 48 79
REMARK H PARENT 8 12 13 24 13 25 65 47 43 58
REMARK Flexibility Score: inf
ROOT
ATOM      1  C   UNL     1      -2.631  -2.184  -2.555  1.00  0.00     0.275 C 
ENDROOT
BRANCH   1   2
ATOM      2  O   UNL     1      -2.512  -2.966  -1.344  1.00  0.00    -0.458 OA
BRANCH   2   3
ATOM      3  C   UNL     1      -3.600  -3.688  -0.981  1.00  0.00     0.340 C 
ATOM      4  O   UNL     1      -4.609  -3.865  -1.647  1.00  0.00    -0.246 OA
BRANCH   3   5
ATOM      5  C   UNL     1      -3.366  -4.374   0.303  1.00  0.00     0.085 A 
ATOM      6  C   UNL     1      -3.072  -3.752   1.526  1.00  0.00     0.049 A 
ATOM      7  C   UNL     1      -2.843  -4.631   2.613  1.00  0.00     0.029 A 
ATOM      8  C   UNL     1      -2.895  -6.026   2.504  1.00  0.00     0.027 A 
ATOM      9  C   UNL     1      -3.472  -5.786   0.214  1.00  0.00     0.043 A 
ATOM     10  C   UNL     1      -3.192  -6.621   1.291  1.00  0.00     0.032 A 
BRANCH   6  11
ATOM     11  N   UNL     1      -3.058  -2.419   1.867  1.00  0.00    -0.378 N 
ATOM     12  H   UNL     1      -2.765  -2.290   2.798  1.00  0.00     0.161 HD
BRANCH  11  13
ATOM     13  C   UNL     1      -3.361  -1.145   1.224  1.00  0.00     0.106 C 
ATOM     14  C   UNL     1      -4.616  -1.117   0.361  1.00  0.00     0.036 C 
BRANCH  13  15
ATOM     15  C   UNL     1      -2.121  -0.451   0.676  1.00  0.00    -0.023 A 
ATOM     16  C   UNL     1       1.486   1.726  -0.343  1.00  0.00     0.047 C 
ATOM     17  C   UNL     1       0.222   0.981  -0.043  1.00  0.00    -0.015 A 
ATOM     18  C   UNL     1      -1.016   1.628   0.011  1.00  0.00     0.007 A 
ATOM     19  C   UNL     1       0.267  -0.387   0.218  1.00  0.00     0.126 A 
ATOM     20  C   UNL     1      -2.172   0.920   0.364  1.00  0.00     0.006 A 
ATOM     21  C   UNL     1      -0.878  -1.097   0.571  1.00  0.00     0.045 A 
ATOM     22  F   UNL     1       1.440  -1.035   0.166  1.00  0.00    -0.207 F 
ENDBRANCH  13  15
ENDBRANCH  11  13
ENDBRANCH   6  11
BRANCH  10  23
ATOM     23  N   UNL     1      -3.321  -7.993   1.190  1.00  0.00    -0.399 N 
ATOM     24  H   UNL     1      -3.118  -8.565   1.965  1.00  0.00     0.156 HD
ATOM     25  H   UNL     1      -3.616  -8.399   0.343  1.00  0.00     0.156 HD
ENDBRANCH  10  23
ENDBRANCH   3   5
ENDBRANCH   2   3
ENDBRANCH   1   2
BRANCH   1  26
ATOM     26  C   UNL     1      -1.390  -2.358  -3.419  1.00  0.00     0.275 C 
BRANCH  26  27
ATOM     27  O   UNL     1      -1.435  -3.685  -3.960  1.00  0.00    -0.458 OA
BRANCH  27  28
ATOM     28  C   UNL     1      -0.403  -4.491  -3.638  1.00  0.00     0.338 C 
ATOM     29  O   UNL     1       0.663  -4.203  -3.132  1.00  0.00    -0.246 OA
BRANCH  28  30
ATOM     30  C   UNL     1      -0.832  -5.861  -3.932  1.00  0.00     0.060 A 
ATOM     31  C   UNL     1      -1.787  -6.448  -3.100  1.00  0.00     0.016 A 
ATOM     32  C   UNL     1      -0.248  -6.577  -4.972  1.00  0.00     0.016 A 
ATOM     33  C   UNL     1      -2.135  -7.784  -3.270  1.00  0.00     0.010 A 
ATOM     34  C   UNL     1      -0.629  -7.904  -5.170  1.00  0.00     0.010 A 
ATOM     35  C   UNL     1      -1.548  -8.526  -4.301  1.00  0.00    -0.014 A 
BRANCH  35  36
ATOM     36  C   UNL     1      -1.779  -9.986  -4.415  1.00  0.00     0.031 A 
ATOM     37  C   UNL     1      -0.626 -10.918  -4.175  1.00  0.00     0.074 A 
ATOM     38  C   UNL     1      -2.988 -10.483  -4.733  1.00  0.00     0.049 A 
ATOM     39  N   UNL     1      -0.504 -12.182  -4.481  1.00  0.00    -0.248 NA
ATOM     40  C   UNL     1       0.555 -10.337  -3.513  1.00  0.00     0.031 C 
ATOM     41  C   UNL     1      -4.215  -9.705  -4.902  1.00  0.00     0.029 A 
ATOM     42  N   UNL     1      -3.373 -11.777  -4.982  1.00  0.00    -0.354 N 
ATOM     43  C   UNL     1       0.791 -12.530  -4.119  1.00  0.00     0.074 A 
ATOM     44  C   UNL     1       1.407 -11.351  -3.550  1.00  0.00     0.031 C 
ATOM     45  C   UNL     1      -5.219 -10.539  -5.221  1.00  0.00     0.029 A 
ATOM     46  C   UNL     1      -4.689 -11.892  -5.355  1.00  0.00     0.049 A 
ATOM     47  H   UNL     1      -2.764 -12.546  -4.901  1.00  0.00     0.167 HD
ATOM     48  C   UNL     1       1.415 -13.721  -4.268  1.00  0.00     0.031 A 
ATOM     49  C   UNL     1      -5.374 -12.959  -5.807  1.00  0.00     0.031 A 
ATOM     50  C   UNL     1       0.784 -14.898  -4.801  1.00  0.00     0.049 A 
ATOM     51  C   UNL     1      -4.658 -14.267  -5.995  1.00  0.00     0.074 A 
ATOM     52  C   UNL     1       1.329 -16.150  -5.018  1.00  0.00     0.029 A 
ATOM     53  N   UNL     1      -0.548 -14.967  -5.178  1.00  0.00    -0.354 N 
ATOM     54  N   UNL     1      -3.404 -14.565  -5.750  1.00  0.00    -0.248 NA
ATOM     55  C   UNL     1      -5.446 -15.380  -6.544  1.00  0.00     0.031 C 
ATOM     56  C   UNL     1       0.329 -16.974  -5.548  1.00  0.00     0.029 A 
ATOM     57  C   UNL     1      -0.845 -16.241  -5.625  1.00  0.00     0.049 A 
ATOM     58  H   UNL     1      -1.188 -14.220  -5.134  1.00  0.00     0.167 HD
ATOM     59  C   UNL     1      -3.254 -15.897  -6.112  1.00  0.00     0.074 A 
ATOM     60  C   UNL     1      -4.549 -16.356  -6.572  1.00  0.00     0.031 C 
ATOM     61  C   UNL     1      -2.142 -16.671  -6.075  1.00  0.00     0.031 A 
BRANCH  48  62
ATOM     62  C   UNL     1       2.869 -13.784  -3.904  1.00  0.00    -0.014 A 
ATOM     63  C   UNL     1       3.292 -13.815  -2.568  1.00  0.00     0.009 A 
ATOM     64  C   UNL     1       3.831 -13.812  -4.926  1.00  0.00     0.009 A 
ATOM     65  C   UNL     1       4.655 -13.842  -2.262  1.00  0.00     0.001 A 
ATOM     66  C   UNL     1       5.191 -13.861  -4.617  1.00  0.00     0.001 A 
ATOM     67  C   UNL     1       5.602 -13.867  -3.286  1.00  0.00     0.000 A 
ENDBRANCH  48  62
BRANCH  49  68
ATOM     68  C   UNL     1      -6.805 -12.817  -6.178  1.00  0.00    -0.014 A 
ATOM     69  C   UNL     1      -7.808 -13.389  -5.381  1.00  0.00     0.009 A 
ATOM     70  C   UNL     1      -7.175 -12.105  -7.330  1.00  0.00     0.009 A 
ATOM     71  C   UNL     1      -9.152 -13.260  -5.737  1.00  0.00     0.001 A 
ATOM     72  C   UNL     1      -8.521 -11.957  -7.670  1.00  0.00     0.001 A 
ATOM     73  C   UNL     1      -9.508 -12.539  -6.877  1.00  0.00     0.000 A 
ENDBRANCH  49  68
BRANCH  61  74
ATOM     74  C   UNL     1      -2.291 -18.096  -6.517  1.00  0.00    -0.014 A 
ATOM     75  C   UNL     1      -2.341 -18.427  -7.879  1.00  0.00     0.009 A 
ATOM     76  C   UNL     1      -2.341 -19.119  -5.558  1.00  0.00     0.009 A 
ATOM     77  C   UNL     1      -2.463 -19.761  -8.272  1.00  0.00     0.001 A 
ATOM     78  C   UNL     1      -2.446 -20.452  -5.956  1.00  0.00     0.001 A 
ATOM     79  C   UNL     1      -2.513 -20.771  -7.311  1.00  0.00     0.000 A 
ENDBRANCH  61  74
ENDBRANCH  35  36
ENDBRANCH  28  30
ENDBRANCH  27  28
ENDBRANCH  26  27
ENDBRANCH   1  26
TORSDOF 15
