REMARK SMILES O=C(OCCOC(=O)c1cc(=O)[nH]c2ccc(C(F)(F)F)cc12)c1ccc(-c2c3nc(c(-c4ccccc4)c4ccc([nH]4)c(-c4ccccc4)c4nc(c(-c5ccccc5)c5ccc2[nH]5)C=C4)C=C3)cc1
REMARK SMILES IDX 4 1 3 2 2 3 1 4 24 5 25 6 71 7 26 8 70 9 27 10 28 11 29 12
REMARK SMILES IDX 64 13 30 14 69 15 63 16 65 17 31 18 68 19 62 20 61 21 32 23
REMARK SMILES IDX 54 24 39 25 53 26 40 27 43 28 52 29 66 30 41 31 42 32 51 34
REMARK SMILES IDX 67 35 44 36 33 37 34 38 38 39 35 40 37 41 36 42 55 43 56 44
REMARK SMILES IDX 60 45 57 46 59 47 58 48 45 49 46 50 50 51 47 52 49 53 48 54
REMARK SMILES IDX 5 55 6 56 7 57 8 58 9 59 10 60 23 61 11 62 14 63 22 64 12 65
REMARK SMILES IDX 13 66 15 67 17 68 16 70 18 71 19 72 20 73 21 74
REMARK H PARENT 65 22 43 33 13 69
REMARK Flexibility Score: inf
ROOT
ATOM      1  C   UNL     1       4.331  -0.434  -1.584  1.00  0.00     0.275 C 
ENDROOT
BRANCH   1   2
ATOM      2  O   UNL     1       3.297  -1.035  -0.784  1.00  0.00    -0.458 OA
BRANCH   2   3
ATOM      3  C   UNL     1       3.183  -1.102   0.563  1.00  0.00     0.338 C 
ATOM      4  O   UNL     1       2.387  -1.895   1.061  1.00  0.00    -0.246 OA
BRANCH   3   5
ATOM      5  C   UNL     1       3.840  -0.123   1.477  1.00  0.00     0.060 A 
ATOM      6  C   UNL     1       5.144   0.355   1.353  1.00  0.00     0.016 A 
ATOM      7  C   UNL     1       3.082   0.299   2.585  1.00  0.00     0.016 A 
ATOM      8  C   UNL     1       5.653   1.276   2.270  1.00  0.00     0.010 A 
ATOM      9  C   UNL     1       3.573   1.242   3.491  1.00  0.00     0.010 A 
ATOM     10  C   UNL     1       4.878   1.714   3.349  1.00  0.00    -0.014 A 
BRANCH  10  11
ATOM     11  C   UNL     1       5.538   2.488   4.421  1.00  0.00     0.031 A 
ATOM     12  C   UNL     1       6.000   1.753   5.646  1.00  0.00     0.074 A 
ATOM     13  C   UNL     1       5.826   3.790   4.250  1.00  0.00     0.049 A 
ATOM     14  N   UNL     1       6.783   2.165   6.607  1.00  0.00    -0.248 NA
ATOM     15  C   UNL     1       5.538   0.363   5.796  1.00  0.00     0.031 C 
ATOM     16  C   UNL     1       5.454   4.589   3.085  1.00  0.00     0.029 A 
ATOM     17  N   UNL     1       6.522   4.662   5.046  1.00  0.00    -0.354 N 
ATOM     18  C   UNL     1       6.935   1.075   7.453  1.00  0.00     0.074 A 
ATOM     19  C   UNL     1       6.114   0.007   6.932  1.00  0.00     0.031 C 
ATOM     20  C   UNL     1       5.931   5.836   3.236  1.00  0.00     0.029 A 
ATOM     21  C   UNL     1       6.651   5.918   4.503  1.00  0.00     0.049 A 
ATOM     22  H   UNL     1       6.895   4.412   5.923  1.00  0.00     0.167 HD
ATOM     23  C   UNL     1       7.713   0.963   8.553  1.00  0.00     0.031 A 
ATOM     24  C   UNL     1       7.298   7.001   4.971  1.00  0.00     0.031 A 
ATOM     25  C   UNL     1       8.497   2.039   9.090  1.00  0.00     0.049 A 
ATOM     26  C   UNL     1       8.078   6.879   6.252  1.00  0.00     0.074 A 
ATOM     27  C   UNL     1       9.313   2.043  10.205  1.00  0.00     0.029 A 
ATOM     28  N   UNL     1       8.543   3.316   8.549  1.00  0.00    -0.354 N 
ATOM     29  N   UNL     1       8.270   5.823   7.005  1.00  0.00    -0.248 NA
ATOM     30  C   UNL     1       8.756   8.092   6.730  1.00  0.00     0.031 C 
ATOM     31  C   UNL     1       9.814   3.339  10.368  1.00  0.00     0.029 A 
ATOM     32  C   UNL     1       9.352   4.126   9.323  1.00  0.00     0.049 A 
ATOM     33  H   UNL     1       8.070   3.602   7.734  1.00  0.00     0.167 HD
ATOM     34  C   UNL     1       9.123   6.231   8.022  1.00  0.00     0.074 A 
ATOM     35  C   UNL     1       9.415   7.631   7.784  1.00  0.00     0.031 C 
ATOM     36  C   UNL     1       9.628   5.514   9.056  1.00  0.00     0.031 A 
BRANCH  23  37
ATOM     37  C   UNL     1       7.710  -0.368   9.246  1.00  0.00    -0.014 A 
ATOM     38  C   UNL     1       8.336  -1.486   8.671  1.00  0.00     0.009 A 
ATOM     39  C   UNL     1       7.037  -0.518  10.467  1.00  0.00     0.009 A 
ATOM     40  C   UNL     1       8.249  -2.738   9.283  1.00  0.00     0.001 A 
ATOM     41  C   UNL     1       6.973  -1.766  11.089  1.00  0.00     0.001 A 
ATOM     42  C   UNL     1       7.567  -2.877  10.491  1.00  0.00     0.000 A 
ENDBRANCH  23  37
BRANCH  24  43
ATOM     43  C   UNL     1       7.269   8.281   4.213  1.00  0.00    -0.014 A 
ATOM     44  C   UNL     1       8.425   8.780   3.594  1.00  0.00     0.009 A 
ATOM     45  C   UNL     1       6.081   9.025   4.124  1.00  0.00     0.009 A 
ATOM     46  C   UNL     1       8.401  10.009   2.929  1.00  0.00     0.001 A 
ATOM     47  C   UNL     1       6.054  10.241   3.437  1.00  0.00     0.001 A 
ATOM     48  C   UNL     1       7.216  10.738   2.850  1.00  0.00     0.000 A 
ENDBRANCH  24  43
BRANCH  36  49
ATOM     49  C   UNL     1      10.581   6.221   9.977  1.00  0.00    -0.014 A 
ATOM     50  C   UNL     1      10.132   7.183  10.894  1.00  0.00     0.009 A 
ATOM     51  C   UNL     1      11.943   5.883   9.952  1.00  0.00     0.009 A 
ATOM     52  C   UNL     1      11.037   7.817  11.746  1.00  0.00     0.001 A 
ATOM     53  C   UNL     1      12.840   6.498  10.825  1.00  0.00     0.001 A 
ATOM     54  C   UNL     1      12.388   7.471  11.714  1.00  0.00     0.000 A 
ENDBRANCH  36  49
ENDBRANCH  10  11
ENDBRANCH   3   5
ENDBRANCH   2   3
ENDBRANCH   1   2
BRANCH   1  55
ATOM     55  C   UNL     1       4.050   1.009  -2.004  1.00  0.00     0.275 C 
BRANCH  55  56
ATOM     56  O   UNL     1       3.561   1.828  -0.934  1.00  0.00    -0.458 OA
BRANCH  56  57
ATOM     57  C   UNL     1       2.208   1.968  -0.888  1.00  0.00     0.339 C 
ATOM     58  O   UNL     1       1.407   1.463  -1.661  1.00  0.00    -0.246 OA
BRANCH  57  59
ATOM     59  C   UNL     1       1.810   2.772   0.290  1.00  0.00     0.074 A 
ATOM     60  C   UNL     1       2.417   3.959   0.449  1.00  0.00     0.088 A 
ATOM     61  C   UNL     1       0.780   2.333   1.252  1.00  0.00     0.013 A 
ATOM     62  C   UNL     1       2.080   4.849   1.577  1.00  0.00     0.249 A 
ATOM     63  C   UNL     1       0.504   3.160   2.352  1.00  0.00     0.049 A 
ATOM     64  C   UNL     1       0.135   1.088   1.174  1.00  0.00     0.024 A 
ATOM     65  O   UNL     1       2.625   5.941   1.693  1.00  0.00    -0.270 OA
ATOM     66  N   UNL     1       1.158   4.391   2.473  1.00  0.00    -0.322 N 
ATOM     67  C   UNL     1      -0.388   2.763   3.348  1.00  0.00     0.027 A 
ATOM     68  C   UNL     1      -0.741   0.658   2.188  1.00  0.00     0.056 A 
ATOM     69  H   UNL     1       0.940   4.959   3.247  1.00  0.00     0.170 HD
ATOM     70  C   UNL     1      -0.998   1.511   3.272  1.00  0.00     0.015 A 
BRANCH  68  71
ATOM     71  C   UNL     1      -1.317  -0.741   2.159  1.00  0.00     0.416 C 
ATOM     72  F   UNL     1      -1.550  -1.205   0.903  1.00  0.00    -0.166 F 
ATOM     73  F   UNL     1      -0.492  -1.641   2.759  1.00  0.00    -0.166 F 
ATOM     74  F   UNL     1      -2.506  -0.834   2.819  1.00  0.00    -0.166 F 
ENDBRANCH  68  71
ENDBRANCH  57  59
ENDBRANCH  56  57
ENDBRANCH  55  56
ENDBRANCH   1  55
TORSDOF 12
