REMARK SMILES C[C@H](Oc1cc2oc(=O)cc(-c3ccccc3)c2cc1Cl)C(=O)OCCOC(=O)c1ccc(-c2c3nc(c(-c4ccccc4)c4ccc([nH]4)c(-c4ccccc4)c4nc(c(-c5ccccc5)c5ccc2[nH]5)C=C4)C=C3)cc1
REMARK SMILES IDX 25 1 24 2 22 3 23 4 2 5 1 6 3 7 4 8 5 9 20 10 6 11 19 12
REMARK SMILES IDX 21 13 7 14 18 15 8 16 11 17 9 18 10 19 12 20 13 21 17 22
REMARK SMILES IDX 14 23 16 24 15 25 26 26 27 27 28 28 29 29 30 30 31 31 77 32
REMARK SMILES IDX 32 33 76 34 33 35 34 36 35 37 70 38 36 39 75 40 69 41 71 42
REMARK SMILES IDX 37 43 74 44 68 45 67 46 38 48 60 49 45 50 59 51 46 52 49 53
REMARK SMILES IDX 58 54 72 55 47 56 48 57 57 59 73 60 50 61 39 62 40 63 44 64
REMARK SMILES IDX 41 65 43 66 42 67 61 68 62 69 66 70 63 71 65 72 64 73 51 74
REMARK SMILES IDX 52 75 56 76 53 77 55 78 54 79
REMARK H PARENT 71 47 49 58
REMARK Flexibility Score: inf
ROOT
ATOM      1  C   UNL     1      -3.226   0.201   1.227  1.00  0.00     0.274 C 
ENDROOT
BRANCH   1   2
ATOM      2  O   UNL     1      -1.805   0.398   1.336  1.00  0.00    -0.459 OA
BRANCH   2   3
ATOM      3  C   UNL     1      -1.095  -0.590   1.949  1.00  0.00     0.347 C 
ATOM      4  O   UNL     1      -1.581  -1.613   2.421  1.00  0.00    -0.248 OA
BRANCH   3   5
ATOM      5  C   UNL     1       0.389  -0.235   2.084  1.00  0.00     0.279 C 
ATOM      6  C   UNL     1       0.513   0.610   3.355  1.00  0.00     0.066 C 
BRANCH   5   7
ATOM      7  O   UNL     1       0.824   0.396   0.879  1.00  0.00    -0.477 OA
BRANCH   7   8
ATOM      8  C   UNL     1       2.091   0.882   0.731  1.00  0.00     0.142 A 
ATOM      9  C   UNL     1       3.101   0.761   1.678  1.00  0.00     0.096 A 
ATOM     10  C   UNL     1       2.363   1.611  -0.440  1.00  0.00     0.084 A 
ATOM     11  C   UNL     1       4.274   1.508   1.535  1.00  0.00     0.142 A 
ATOM     12  C   UNL     1       3.579   2.292  -0.605  1.00  0.00     0.037 A 
ATOM     13  Cl  UNL     1       1.196   1.742  -1.709  1.00  0.00    -0.080 Cl
ATOM     14  O   UNL     1       5.158   1.469   2.628  1.00  0.00    -0.423 OA
ATOM     15  C   UNL     1       4.529   2.302   0.419  1.00  0.00     0.027 A 
ATOM     16  C   UNL     1       6.222   2.347   2.700  1.00  0.00     0.336 A 
ATOM     17  C   UNL     1       5.749   3.130   0.390  1.00  0.00    -0.000 A 
ATOM     18  O   UNL     1       6.923   2.445   3.701  1.00  0.00    -0.246 OA
ATOM     19  C   UNL     1       6.503   3.151   1.503  1.00  0.00     0.103 A 
BRANCH  17  20
ATOM     20  C   UNL     1       6.201   4.009  -0.712  1.00  0.00    -0.017 A 
ATOM     21  C   UNL     1       7.441   3.787  -1.331  1.00  0.00     0.009 A 
ATOM     22  C   UNL     1       5.411   5.083  -1.144  1.00  0.00     0.009 A 
ATOM     23  C   UNL     1       7.881   4.622  -2.360  1.00  0.00     0.001 A 
ATOM     24  C   UNL     1       5.847   5.909  -2.183  1.00  0.00     0.001 A 
ATOM     25  C   UNL     1       7.081   5.680  -2.788  1.00  0.00     0.000 A 
ENDBRANCH  17  20
ENDBRANCH   7   8
ENDBRANCH   5   7
ENDBRANCH   3   5
ENDBRANCH   2   3
ENDBRANCH   1   2
BRANCH   1  26
ATOM     26  C   UNL     1      -3.626  -0.401  -0.123  1.00  0.00     0.275 C 
BRANCH  26  27
ATOM     27  O   UNL     1      -3.202  -1.771  -0.241  1.00  0.00    -0.458 OA
BRANCH  27  28
ATOM     28  C   UNL     1      -1.982  -1.941  -0.804  1.00  0.00     0.338 C 
ATOM     29  O   UNL     1      -1.258  -1.081  -1.271  1.00  0.00    -0.246 OA
BRANCH  28  30
ATOM     30  C   UNL     1      -1.554  -3.340  -0.652  1.00  0.00     0.060 A 
ATOM     31  C   UNL     1      -0.308  -3.582  -0.062  1.00  0.00     0.016 A 
ATOM     32  C   UNL     1      -2.327  -4.395  -1.140  1.00  0.00     0.016 A 
ATOM     33  C   UNL     1       0.172  -4.883   0.041  1.00  0.00     0.010 A 
ATOM     34  C   UNL     1      -1.839  -5.701  -1.044  1.00  0.00     0.010 A 
ATOM     35  C   UNL     1      -0.582  -5.950  -0.465  1.00  0.00    -0.014 A 
BRANCH  35  36
ATOM     36  C   UNL     1      -0.022  -7.320  -0.446  1.00  0.00     0.031 A 
ATOM     37  C   UNL     1       0.544  -7.908  -1.706  1.00  0.00     0.074 A 
ATOM     38  C   UNL     1      -0.004  -8.024   0.700  1.00  0.00     0.049 A 
ATOM     39  N   UNL     1       1.028  -9.106  -1.913  1.00  0.00    -0.248 NA
ATOM     40  C   UNL     1       0.569  -7.032  -2.888  1.00  0.00     0.031 C 
ATOM     41  C   UNL     1      -0.480  -7.543   1.996  1.00  0.00     0.029 A 
ATOM     42  N   UNL     1       0.433  -9.300   0.953  1.00  0.00    -0.354 N 
ATOM     43  C   UNL     1       1.401  -9.134  -3.251  1.00  0.00     0.074 A 
ATOM     44  C   UNL     1       1.073  -7.840  -3.810  1.00  0.00     0.031 C 
ATOM     45  C   UNL     1      -0.308  -8.512   2.910  1.00  0.00     0.029 A 
ATOM     46  C   UNL     1       0.248  -9.693   2.255  1.00  0.00     0.049 A 
ATOM     47  H   UNL     1       0.839  -9.877   0.267  1.00  0.00     0.167 HD
ATOM     48  C   UNL     1       1.967 -10.147  -3.949  1.00  0.00     0.031 A 
ATOM     49  C   UNL     1       0.480 -10.880   2.846  1.00  0.00     0.031 A 
ATOM     50  C   UNL     1       2.288 -11.435  -3.393  1.00  0.00     0.049 A 
ATOM     51  C   UNL     1       1.043 -12.011   2.031  1.00  0.00     0.074 A 
ATOM     52  C   UNL     1       2.868 -12.524  -4.020  1.00  0.00     0.029 A 
ATOM     53  N   UNL     1       2.051 -11.807  -2.079  1.00  0.00    -0.354 N 
ATOM     54  N   UNL     1       1.395 -12.025   0.768  1.00  0.00    -0.248 NA
ATOM     55  C   UNL     1       1.241 -13.292   2.725  1.00  0.00     0.031 C 
ATOM     56  C   UNL     1       2.941 -13.572  -3.095  1.00  0.00     0.029 A 
ATOM     57  C   UNL     1       2.453 -13.117  -1.881  1.00  0.00     0.049 A 
ATOM     58  H   UNL     1       1.656 -11.226  -1.390  1.00  0.00     0.167 HD
ATOM     59  C   UNL     1       1.878 -13.303   0.523  1.00  0.00     0.074 A 
ATOM     60  C   UNL     1       1.786 -14.033   1.771  1.00  0.00     0.031 C 
ATOM     61  C   UNL     1       2.356 -13.827  -0.632  1.00  0.00     0.031 A 
BRANCH  48  62
ATOM     62  C   UNL     1       2.241  -9.912  -5.407  1.00  0.00    -0.014 A 
ATOM     63  C   UNL     1       3.295  -9.085  -5.827  1.00  0.00     0.009 A 
ATOM     64  C   UNL     1       1.454 -10.555  -6.374  1.00  0.00     0.009 A 
ATOM     65  C   UNL     1       3.534  -8.885  -7.188  1.00  0.00     0.001 A 
ATOM     66  C   UNL     1       1.711 -10.372  -7.733  1.00  0.00     0.001 A 
ATOM     67  C   UNL     1       2.745  -9.531  -8.139  1.00  0.00     0.000 A 
ENDBRANCH  48  62
BRANCH  49  68
ATOM     68  C   UNL     1       0.153 -11.072   4.283  1.00  0.00    -0.014 A 
ATOM     69  C   UNL     1       1.172 -11.223   5.235  1.00  0.00     0.009 A 
ATOM     70  C   UNL     1      -1.185 -11.117   4.706  1.00  0.00     0.009 A 
ATOM     71  C   UNL     1       0.856 -11.437   6.579  1.00  0.00     0.001 A 
ATOM     72  C   UNL     1      -1.497 -11.304   6.053  1.00  0.00     0.001 A 
ATOM     73  C   UNL     1      -0.476 -11.473   6.987  1.00  0.00     0.000 A 
ENDBRANCH  49  68
BRANCH  61  74
ATOM     74  C   UNL     1       2.849 -15.245  -0.590  1.00  0.00    -0.014 A 
ATOM     75  C   UNL     1       1.956 -16.325  -0.523  1.00  0.00     0.009 A 
ATOM     76  C   UNL     1       4.228 -15.501  -0.658  1.00  0.00     0.009 A 
ATOM     77  C   UNL     1       2.438 -17.636  -0.495  1.00  0.00     0.001 A 
ATOM     78  C   UNL     1       4.704 -16.813  -0.656  1.00  0.00     0.001 A 
ATOM     79  C   UNL     1       3.809 -17.878  -0.566  1.00  0.00     0.000 A 
ENDBRANCH  61  74
ENDBRANCH  35  36
ENDBRANCH  28  30
ENDBRANCH  27  28
ENDBRANCH  26  27
ENDBRANCH   1  26
TORSDOF 14
