REMARK SMILES O=C(Cc1cccn(C(F)F)c1=O)OCCOC(=O)c1ccc(-c2c3nc(c(-c4ccccc4)c4ccc([nH]4)c(-c4ccccc4)c4nc(c(-c5ccccc5)c5ccc2[nH]5)C=C4)C=C3)cc1
REMARK SMILES IDX 15 1 14 2 2 3 1 4 3 5 4 6 5 7 12 8 6 9 8 10 13 11 7 12 9 13
REMARK SMILES IDX 10 14 11 15 16 16 17 17 18 18 19 19 20 20 21 21 67 22 22 23
REMARK SMILES IDX 66 24 23 25 24 26 25 27 60 28 26 29 65 30 59 31 61 32 27 33
REMARK SMILES IDX 64 34 58 35 57 36 28 38 50 39 35 40 49 41 36 42 39 43 48 44
REMARK SMILES IDX 62 45 37 46 38 47 47 49 63 50 40 51 29 52 30 53 34 54 31 55
REMARK SMILES IDX 33 56 32 57 51 58 52 59 56 60 53 61 55 62 54 63 41 64 42 65
REMARK SMILES IDX 46 66 43 67 45 68 44 69
REMARK H PARENT 61 37 39 48
REMARK Flexibility Score: inf
ROOT
ATOM      1  C   UNL     1       4.342   1.038   0.491  1.00  0.00     0.274 C 
ENDROOT
BRANCH   1   2
ATOM      2  O   UNL     1       3.027   1.251  -0.072  1.00  0.00    -0.462 OA
BRANCH   2   3
ATOM      3  C   UNL     1       2.385   0.407  -0.912  1.00  0.00     0.310 C 
ATOM      4  O   UNL     1       1.436   0.807  -1.585  1.00  0.00    -0.252 OA
BRANCH   3   5
ATOM      5  C   UNL     1       2.858  -1.026  -1.010  1.00  0.00     0.164 C 
BRANCH   5   6
ATOM      6  C   UNL     1       3.865  -1.333  -2.076  1.00  0.00     0.029 A 
ATOM      7  C   UNL     1       4.521  -0.452  -2.850  1.00  0.00     0.011 A 
ATOM      8  C   UNL     1       4.164  -2.800  -2.236  1.00  0.00     0.258 A 
ATOM      9  C   UNL     1       5.514  -0.888  -3.797  1.00  0.00     0.019 A 
ATOM     10  N   UNL     1       5.114  -3.135  -3.180  1.00  0.00    -0.258 N 
ATOM     11  O   UNL     1       3.581  -3.622  -1.532  1.00  0.00    -0.269 OA
ATOM     12  C   UNL     1       5.778  -2.192  -3.939  1.00  0.00     0.095 A 
BRANCH  10  13
ATOM     13  C   UNL     1       5.380  -4.536  -3.393  1.00  0.00     0.451 C 
ATOM     14  F   UNL     1       4.994  -4.881  -4.650  1.00  0.00    -0.185 F 
ATOM     15  F   UNL     1       6.720  -4.763  -3.332  1.00  0.00    -0.185 F 
ENDBRANCH  10  13
ENDBRANCH   5   6
ENDBRANCH   3   5
ENDBRANCH   2   3
ENDBRANCH   1   2
BRANCH   1  16
ATOM     16  C   UNL     1       4.270   0.799   1.999  1.00  0.00     0.275 C 
BRANCH  16  17
ATOM     17  O   UNL     1       3.918  -0.572   2.255  1.00  0.00    -0.458 OA
BRANCH  17  18
ATOM     18  C   UNL     1       2.607  -0.820   2.497  1.00  0.00     0.338 C 
ATOM     19  O   UNL     1       1.724   0.007   2.633  1.00  0.00    -0.246 OA
BRANCH  18  20
ATOM     20  C   UNL     1       2.364  -2.276   2.356  1.00  0.00     0.060 A 
ATOM     21  C   UNL     1       3.351  -3.224   2.651  1.00  0.00     0.016 A 
ATOM     22  C   UNL     1       1.127  -2.689   1.842  1.00  0.00     0.016 A 
ATOM     23  C   UNL     1       3.097  -4.580   2.434  1.00  0.00     0.010 A 
ATOM     24  C   UNL     1       0.874  -4.046   1.631  1.00  0.00     0.010 A 
ATOM     25  C   UNL     1       1.855  -5.001   1.933  1.00  0.00    -0.014 A 
BRANCH  25  26
ATOM     26  C   UNL     1       1.536  -6.446   1.869  1.00  0.00     0.031 A 
ATOM     27  C   UNL     1       1.586  -7.217   0.586  1.00  0.00     0.074 A 
ATOM     28  C   UNL     1       1.187  -7.065   3.012  1.00  0.00     0.049 A 
ATOM     29  N   UNL     1       1.435  -8.505   0.401  1.00  0.00    -0.248 NA
ATOM     30  C   UNL     1       1.841  -6.457  -0.644  1.00  0.00     0.031 C 
ATOM     31  C   UNL     1       1.087  -6.414   4.320  1.00  0.00     0.029 A 
ATOM     32  N   UNL     1       0.860  -8.373   3.260  1.00  0.00    -0.354 N 
ATOM     33  C   UNL     1       1.606  -8.716  -0.960  1.00  0.00     0.074 A 
ATOM     34  C   UNL     1       1.830  -7.417  -1.562  1.00  0.00     0.031 C 
ATOM     35  C   UNL     1       0.741  -7.330   5.236  1.00  0.00     0.029 A 
ATOM     36  C   UNL     1       0.571  -8.623   4.578  1.00  0.00     0.049 A 
ATOM     37  H   UNL     1       0.834  -9.065   2.561  1.00  0.00     0.167 HD
ATOM     38  C   UNL     1       1.589  -9.888  -1.638  1.00  0.00     0.031 A 
ATOM     39  C   UNL     1       0.212  -9.763   5.196  1.00  0.00     0.031 A 
ATOM     40  C   UNL     1       1.317 -11.171  -1.042  1.00  0.00     0.049 A 
ATOM     41  C   UNL     1       0.121 -11.035   4.405  1.00  0.00     0.074 A 
ATOM     42  C   UNL     1       1.321 -12.417  -1.648  1.00  0.00     0.029 A 
ATOM     43  N   UNL     1       0.965 -11.375   0.283  1.00  0.00    -0.354 N 
ATOM     44  N   UNL     1       0.378 -11.234   3.136  1.00  0.00    -0.248 NA
ATOM     45  C   UNL     1      -0.297 -12.241   5.133  1.00  0.00     0.031 C 
ATOM     46  C   UNL     1       0.903 -13.363  -0.709  1.00  0.00     0.029 A 
ATOM     47  C   UNL     1       0.706 -12.719   0.501  1.00  0.00     0.049 A 
ATOM     48  H   UNL     1       0.908 -10.669   0.968  1.00  0.00     0.167 HD
ATOM     49  C   UNL     1       0.172 -12.589   2.916  1.00  0.00     0.074 A 
ATOM     50  C   UNL     1      -0.216 -13.167   4.186  1.00  0.00     0.031 C 
ATOM     51  C   UNL     1       0.300 -13.287   1.762  1.00  0.00     0.031 A 
BRANCH  38  52
ATOM     52  C   UNL     1       1.875  -9.857  -3.113  1.00  0.00    -0.014 A 
ATOM     53  C   UNL     1       0.858 -10.159  -4.033  1.00  0.00     0.009 A 
ATOM     54  C   UNL     1       3.181  -9.653  -3.585  1.00  0.00     0.009 A 
ATOM     55  C   UNL     1       1.146 -10.274  -5.394  1.00  0.00     0.001 A 
ATOM     56  C   UNL     1       3.461  -9.746  -4.951  1.00  0.00     0.001 A 
ATOM     57  C   UNL     1       2.446 -10.066  -5.852  1.00  0.00     0.000 A 
ENDBRANCH  38  52
BRANCH  39  58
ATOM     58  C   UNL     1      -0.054  -9.740   6.656  1.00  0.00    -0.014 A 
ATOM     59  C   UNL     1      -1.191  -9.089   7.162  1.00  0.00     0.009 A 
ATOM     60  C   UNL     1       0.860 -10.311   7.553  1.00  0.00     0.009 A 
ATOM     61  C   UNL     1      -1.396  -8.991   8.539  1.00  0.00     0.001 A 
ATOM     62  C   UNL     1       0.638 -10.235   8.929  1.00  0.00     0.001 A 
ATOM     63  C   UNL     1      -0.483  -9.567   9.421  1.00  0.00     0.000 A 
ENDBRANCH  39  58
BRANCH  51  64
ATOM     64  C   UNL     1       0.017 -14.763   1.802  1.00  0.00    -0.014 A 
ATOM     65  C   UNL     1       1.066 -15.681   1.634  1.00  0.00     0.009 A 
ATOM     66  C   UNL     1      -1.295 -15.246   1.920  1.00  0.00     0.009 A 
ATOM     67  C   UNL     1       0.807 -17.052   1.570  1.00  0.00     0.001 A 
ATOM     68  C   UNL     1      -1.549 -16.619   1.884  1.00  0.00     0.001 A 
ATOM     69  C   UNL     1      -0.500 -17.519   1.700  1.00  0.00     0.000 A 
ENDBRANCH  51  64
ENDBRANCH  25  26
ENDBRANCH  18  20
ENDBRANCH  17  18
ENDBRANCH  16  17
ENDBRANCH   1  16
TORSDOF 13
