REMARK SMILES O=C(OCCOC(=O)[C@@H]1CCc2[nH]ncc2C1)c1ccc(-c2c3nc(c(-c4ccccc4)c4ccc([nH]4)c(-c4ccccc4)c4nc(c(-c5ccccc5)c5ccc2[nH]5)C=C4)C=C3)cc1
REMARK SMILES IDX 4 1 3 2 2 3 1 4 18 5 19 6 65 7 20 8 64 9 21 10 22 11 23 12
REMARK SMILES IDX 58 13 24 14 63 15 57 16 59 17 25 18 62 19 56 20 55 21 26 23
REMARK SMILES IDX 48 24 33 25 47 26 34 27 37 28 46 29 60 30 35 31 36 32 45 34
REMARK SMILES IDX 61 35 38 36 27 37 28 38 32 39 29 40 31 41 30 42 49 43 50 44
REMARK SMILES IDX 54 45 51 46 53 47 52 48 39 49 40 50 44 51 41 52 43 53 42 54
REMARK SMILES IDX 5 55 6 56 7 57 8 58 9 59 10 60 17 61 11 62 16 63 12 64 15 65
REMARK SMILES IDX 13 66 14 67
REMARK H PARENT 59 22 37 33 13 68
REMARK Flexibility Score: inf
ROOT
ATOM      1  C   UNL     1       3.966   1.629  -0.685  1.00  0.00     0.275 C 
ENDROOT
BRANCH   1   2
ATOM      2  O   UNL     1       3.030   0.679  -1.220  1.00  0.00    -0.458 OA
BRANCH   2   3
ATOM      3  C   UNL     1       3.011  -0.671  -1.150  1.00  0.00     0.338 C 
ATOM      4  O   UNL     1       2.182  -1.275  -1.831  1.00  0.00    -0.246 OA
BRANCH   3   5
ATOM      5  C   UNL     1       3.842  -1.486  -0.202  1.00  0.00     0.060 A 
ATOM      6  C   UNL     1       5.023  -1.098   0.430  1.00  0.00     0.016 A 
ATOM      7  C   UNL     1       3.337  -2.764   0.107  1.00  0.00     0.016 A 
ATOM      8  C   UNL     1       5.620  -1.898   1.411  1.00  0.00     0.010 A 
ATOM      9  C   UNL     1       3.912  -3.552   1.108  1.00  0.00     0.010 A 
ATOM     10  C   UNL     1       5.053  -3.117   1.785  1.00  0.00    -0.014 A 
BRANCH  10  11
ATOM     11  C   UNL     1       5.741  -3.960   2.793  1.00  0.00     0.031 A 
ATOM     12  C   UNL     1       6.363  -5.251   2.345  1.00  0.00     0.074 A 
ATOM     13  C   UNL     1       5.879  -3.540   4.067  1.00  0.00     0.049 A 
ATOM     14  N   UNL     1       7.125  -6.075   3.015  1.00  0.00    -0.248 NA
ATOM     15  C   UNL     1       6.087  -5.677   0.962  1.00  0.00     0.031 C 
ATOM     16  C   UNL     1       5.300  -2.317   4.628  1.00  0.00     0.029 A 
ATOM     17  N   UNL     1       6.578  -4.079   5.120  1.00  0.00    -0.354 N 
ATOM     18  C   UNL     1       7.432  -7.098   2.128  1.00  0.00     0.074 A 
ATOM     19  C   UNL     1       6.696  -6.849   0.911  1.00  0.00     0.031 C 
ATOM     20  C   UNL     1       5.697  -2.179   5.904  1.00  0.00     0.029 A 
ATOM     21  C   UNL     1       6.553  -3.304   6.259  1.00  0.00     0.049 A 
ATOM     22  H   UNL     1       7.053  -4.939   5.065  1.00  0.00     0.167 HD
ATOM     23  C   UNL     1       8.295  -8.126   2.283  1.00  0.00     0.031 A 
ATOM     24  C   UNL     1       7.171  -3.475   7.444  1.00  0.00     0.031 A 
ATOM     25  C   UNL     1       9.022  -8.380   3.491  1.00  0.00     0.049 A 
ATOM     26  C   UNL     1       8.084  -4.664   7.611  1.00  0.00     0.074 A 
ATOM     27  C   UNL     1       9.905  -9.406   3.770  1.00  0.00     0.029 A 
ATOM     28  N   UNL     1       8.946  -7.589   4.627  1.00  0.00    -0.354 N 
ATOM     29  N   UNL     1       8.414  -5.584   6.735  1.00  0.00    -0.248 NA
ATOM     30  C   UNL     1       8.730  -4.824   8.921  1.00  0.00     0.031 C 
ATOM     31  C   UNL     1      10.333  -9.258   5.093  1.00  0.00     0.029 A 
ATOM     32  C   UNL     1       9.759  -8.109   5.617  1.00  0.00     0.049 A 
ATOM     33  H   UNL     1       8.396  -6.777   4.715  1.00  0.00     0.167 HD
ATOM     34  C   UNL     1       9.323  -6.413   7.380  1.00  0.00     0.074 A 
ATOM     35  C   UNL     1       9.518  -5.867   8.707  1.00  0.00     0.031 C 
ATOM     36  C   UNL     1       9.938  -7.533   6.924  1.00  0.00     0.031 A 
BRANCH  23  37
ATOM     37  C   UNL     1       8.477  -9.028   1.097  1.00  0.00    -0.014 A 
ATOM     38  C   UNL     1       9.135  -8.569  -0.058  1.00  0.00     0.009 A 
ATOM     39  C   UNL     1       7.938 -10.322   1.106  1.00  0.00     0.009 A 
ATOM     40  C   UNL     1       9.201  -9.369  -1.199  1.00  0.00     0.001 A 
ATOM     41  C   UNL     1       8.033 -11.131  -0.028  1.00  0.00     0.001 A 
ATOM     42  C   UNL     1       8.650 -10.649  -1.183  1.00  0.00     0.000 A 
ENDBRANCH  23  37
BRANCH  24  43
ATOM     43  C   UNL     1       6.977  -2.511   8.566  1.00  0.00    -0.014 A 
ATOM     44  C   UNL     1       8.048  -1.742   9.054  1.00  0.00     0.009 A 
ATOM     45  C   UNL     1       5.733  -2.407   9.207  1.00  0.00     0.009 A 
ATOM     46  C   UNL     1       7.891  -0.938  10.188  1.00  0.00     0.001 A 
ATOM     47  C   UNL     1       5.570  -1.578  10.321  1.00  0.00     0.001 A 
ATOM     48  C   UNL     1       6.653  -0.858  10.821  1.00  0.00     0.000 A 
ENDBRANCH  24  43
BRANCH  36  49
ATOM     49  C   UNL     1      10.899  -8.214   7.856  1.00  0.00    -0.014 A 
ATOM     50  C   UNL     1      10.447  -8.905   8.990  1.00  0.00     0.009 A 
ATOM     51  C   UNL     1      12.272  -8.204   7.564  1.00  0.00     0.009 A 
ATOM     52  C   UNL     1      11.357  -9.543   9.835  1.00  0.00     0.001 A 
ATOM     53  C   UNL     1      13.175  -8.871   8.391  1.00  0.00     0.001 A 
ATOM     54  C   UNL     1      12.718  -9.530   9.531  1.00  0.00     0.000 A 
ENDBRANCH  36  49
ENDBRANCH  10  11
ENDBRANCH   3   5
ENDBRANCH   2   3
ENDBRANCH   1   2
BRANCH   1  55
ATOM     55  C   UNL     1       3.627   2.094   0.733  1.00  0.00     0.274 C 
BRANCH  55  56
ATOM     56  O   UNL     1       3.342   1.005   1.627  1.00  0.00    -0.462 OA
BRANCH  56  57
ATOM     57  C   UNL     1       2.036   0.819   1.993  1.00  0.00     0.309 C 
ATOM     58  O   UNL     1       1.096   1.503   1.627  1.00  0.00    -0.252 OA
BRANCH  57  59
ATOM     59  C   UNL     1       1.932  -0.363   2.933  1.00  0.00     0.104 C 
ATOM     60  C   UNL     1       1.089  -1.519   2.348  1.00  0.00     0.022 C 
ATOM     61  C   UNL     1       1.356   0.054   4.306  1.00  0.00     0.054 C 
ATOM     62  C   UNL     1       1.259  -2.800   3.199  1.00  0.00     0.057 C 
ATOM     63  C   UNL     1       1.228  -1.163   5.159  1.00  0.00    -0.006 A 
ATOM     64  C   UNL     1       1.187  -2.436   4.633  1.00  0.00     0.038 A 
ATOM     65  C   UNL     1       1.137  -1.360   6.545  1.00  0.00     0.138 A 
ATOM     66  N   UNL     1       1.168  -3.296   5.688  1.00  0.00    -0.282 N 
ATOM     67  N   UNL     1       1.108  -2.658   6.873  1.00  0.00    -0.184 NA
ATOM     68  H   UNL     1       1.195  -4.276   5.596  1.00  0.00     0.190 HD
ENDBRANCH  57  59
ENDBRANCH  56  57
ENDBRANCH  55  56
ENDBRANCH   1  55
TORSDOF 11
