REMARK SMILES NS(=O)(=O)c1ccc(-n2nc(NC(=O)NCCCCCCCCCCC(=O)OCCOC(=O)c3ccc(-c4c5nc(c(-c6ccccc6)c6ccc([nH]6)c(-c6ccccc6)c6nc(c(-c7ccccc7)c7ccc4[nH]7)C=C6)C=C5)cc3)cc2-c2ccccc2)cc1
REMARK SMILES IDX 22 1 21 2 20 3 19 4 18 5 17 6 16 7 15 8 12 9 13 10 14 12
REMARK SMILES IDX 11 14 9 15 10 16 83 17 82 18 8 19 5 20 6 21 91 22 7 23 90 24
REMARK SMILES IDX 2 25 3 26 4 27 1 28 84 31 85 32 89 33 86 34 88 35 87 36
REMARK SMILES IDX 23 37 24 38 25 39 26 40 27 41 28 42 29 43 30 44 31 45 32 46
REMARK SMILES IDX 33 47 34 48 35 49 81 50 36 51 80 52 37 53 38 54 39 55 74 56
REMARK SMILES IDX 40 57 79 58 73 59 75 60 41 61 78 62 72 63 71 64 42 66 64 67
REMARK SMILES IDX 49 68 63 69 50 70 53 71 62 72 76 73 51 74 52 75 61 77 77 78
REMARK SMILES IDX 54 79 43 80 44 81 48 82 45 83 47 84 46 85 65 86 66 87 70 88
REMARK SMILES IDX 67 89 69 90 68 91 55 92 56 93 60 94 57 95 59 96 58 97
REMARK H PARENT 12 11 15 13 1 29 1 30 75 65 53 76
REMARK Flexibility Score: inf
ROOT
ATOM      1  C   UNL     1      -3.441   1.695   5.922  1.00  0.00     0.000 C 
ENDROOT
BRANCH   1   2
ATOM      2  C   UNL     1      -2.493   0.551   5.583  1.00  0.00     0.000 C 
BRANCH   2   3
ATOM      3  C   UNL     1      -1.318   0.435   6.553  1.00  0.00     0.000 C 
BRANCH   3   4
ATOM      4  C   UNL     1      -1.708   0.264   8.025  1.00  0.00     0.000 C 
BRANCH   4   5
ATOM      5  C   UNL     1      -2.609  -0.943   8.313  1.00  0.00     0.002 C 
BRANCH   5   6
ATOM      6  C   UNL     1      -2.122  -2.275   7.740  1.00  0.00     0.021 C 
BRANCH   6   7
ATOM      7  C   UNL     1      -0.672  -2.619   8.049  1.00  0.00     0.117 C 
BRANCH   7   8
ATOM      8  N   UNL     1      -0.411  -2.968   9.426  1.00  0.00    -0.338 N 
ATOM      9  N   UNL     1       1.476  -4.405   9.201  1.00  0.00    -0.291 N 
ATOM     10  C   UNL     1       0.524  -3.795   9.942  1.00  0.00     0.320 C 
ATOM     11  H   UNL     1       1.846  -5.218   9.615  1.00  0.00     0.173 HD
ATOM     12  O   UNL     1       0.430  -4.090  11.138  1.00  0.00    -0.248 OA
ATOM     13  H   UNL     1      -1.002  -2.540  10.087  1.00  0.00     0.165 HD
BRANCH   9  14
ATOM     14  C   UNL     1       2.022  -4.102   7.974  1.00  0.00     0.157 A 
ATOM     15  N   UNL     1       2.311  -3.153   6.104  1.00  0.00    -0.231 N 
ATOM     16  N   UNL     1       2.012  -2.901   7.394  1.00  0.00    -0.149 NA
ATOM     17  C   UNL     1       2.964  -4.371   5.972  1.00  0.00     0.076 A 
ATOM     18  C   UNL     1       2.732  -5.025   7.169  1.00  0.00     0.078 A 
BRANCH  15  19
ATOM     19  C   UNL     1       1.866  -2.270   5.080  1.00  0.00     0.065 A 
ATOM     20  C   UNL     1       0.993  -0.545   3.072  1.00  0.00     0.082 A 
ATOM     21  C   UNL     1       0.961  -1.924   2.856  1.00  0.00     0.024 A 
ATOM     22  C   UNL     1       1.440  -0.023   4.290  1.00  0.00     0.024 A 
ATOM     23  C   UNL     1       1.407  -2.786   3.858  1.00  0.00     0.030 A 
ATOM     24  C   UNL     1       1.852  -0.889   5.308  1.00  0.00     0.030 A 
BRANCH  20  25
ATOM     25  S   UNL     1       0.494   0.551   1.779  1.00  0.00     0.238 S 
ATOM     26  O   UNL     1       1.144   1.826   1.962  1.00  0.00    -0.207 OA
ATOM     27  O   UNL     1      -0.933   0.418   1.591  1.00  0.00    -0.207 OA
BRANCH  25  28
ATOM     28  N   UNL     1       1.215  -0.117   0.414  1.00  0.00    -0.225 NA
ATOM     29  H   UNL     1       0.987   0.449  -0.403  1.00  0.00     0.137 HD
ATOM     30  H   UNL     1       0.870  -1.067   0.277  1.00  0.00     0.137 HD
ENDBRANCH  25  28
ENDBRANCH  20  25
ENDBRANCH  15  19
BRANCH  17  31
ATOM     31  C   UNL     1       3.712  -4.755   4.779  1.00  0.00     0.000 A 
ATOM     32  C   UNL     1       4.657  -3.862   4.248  1.00  0.00     0.010 A 
ATOM     33  C   UNL     1       3.447  -5.951   4.107  1.00  0.00     0.010 A 
ATOM     34  C   UNL     1       5.289  -4.134   3.037  1.00  0.00     0.001 A 
ATOM     35  C   UNL     1       4.085  -6.223   2.894  1.00  0.00     0.001 A 
ATOM     36  C   UNL     1       4.996  -5.312   2.356  1.00  0.00     0.000 A 
ENDBRANCH  17  31
ENDBRANCH   9  14
ENDBRANCH   7   8
ENDBRANCH   6   7
ENDBRANCH   5   6
ENDBRANCH   4   5
ENDBRANCH   3   4
ENDBRANCH   2   3
ENDBRANCH   1   2
BRANCH   1  37
ATOM     37  C   UNL     1      -2.777   3.064   5.779  1.00  0.00     0.001 C 
BRANCH  37  38
ATOM     38  C   UNL     1      -2.506   3.454   4.322  1.00  0.00     0.012 C 
BRANCH  38  39
ATOM     39  C   UNL     1      -3.704   3.398   3.366  1.00  0.00     0.123 C 
BRANCH  39  40
ATOM     40  C   UNL     1      -4.923   4.229   3.717  1.00  0.00     0.305 C 
ATOM     41  O   UNL     1      -5.526   4.910   2.895  1.00  0.00    -0.252 OA
BRANCH  40  42
ATOM     42  O   UNL     1      -5.298   4.083   5.014  1.00  0.00    -0.462 OA
BRANCH  42  43
ATOM     43  C   UNL     1      -6.327   4.952   5.516  1.00  0.00     0.274 C 
BRANCH  43  44
ATOM     44  C   UNL     1      -5.749   6.265   6.030  1.00  0.00     0.275 C 
BRANCH  44  45
ATOM     45  O   UNL     1      -5.209   7.036   4.958  1.00  0.00    -0.458 OA
BRANCH  45  46
ATOM     46  C   UNL     1      -3.871   6.933   4.819  1.00  0.00     0.338 C 
ATOM     47  O   UNL     1      -3.121   6.180   5.414  1.00  0.00    -0.246 OA
BRANCH  46  48
ATOM     48  C   UNL     1      -3.372   8.016   3.978  1.00  0.00     0.060 A 
ATOM     49  C   UNL     1      -2.103   7.881   3.406  1.00  0.00     0.016 A 
ATOM     50  C   UNL     1      -4.037   9.245   4.045  1.00  0.00     0.016 A 
ATOM     51  C   UNL     1      -1.429   9.025   3.032  1.00  0.00     0.010 A 
ATOM     52  C   UNL     1      -3.356  10.383   3.694  1.00  0.00     0.010 A 
ATOM     53  C   UNL     1      -2.038  10.266   3.257  1.00  0.00    -0.014 A 
BRANCH  53  54
ATOM     54  C   UNL     1      -1.304  11.467   2.927  1.00  0.00     0.031 A 
ATOM     55  C   UNL     1      -1.218  11.709   1.474  1.00  0.00     0.074 A 
ATOM     56  C   UNL     1      -0.896  12.352   3.857  1.00  0.00     0.049 A 
ATOM     57  N   UNL     1      -0.163  11.672   0.734  1.00  0.00    -0.248 NA
ATOM     58  C   UNL     1      -2.479  11.864   0.730  1.00  0.00     0.031 C 
ATOM     59  C   UNL     1      -1.236  12.354   5.283  1.00  0.00     0.029 A 
ATOM     60  N   UNL     1      -0.204  13.514   3.698  1.00  0.00    -0.354 N 
ATOM     61  C   UNL     1      -0.599  12.011  -0.540  1.00  0.00     0.074 A 
ATOM     62  C   UNL     1      -2.035  11.920  -0.526  1.00  0.00     0.031 C 
ATOM     63  C   UNL     1      -0.964  13.573   5.800  1.00  0.00     0.029 A 
ATOM     64  C   UNL     1      -0.300  14.373   4.783  1.00  0.00     0.049 A 
ATOM     65  H   UNL     1       0.317  13.724   2.889  1.00  0.00     0.167 HD
ATOM     66  C   UNL     1       0.228  12.656  -1.405  1.00  0.00     0.031 A 
ATOM     67  C   UNL     1       0.080  15.672   4.817  1.00  0.00     0.031 A 
ATOM     68  C   UNL     1       1.593  12.629  -0.953  1.00  0.00     0.049 A 
ATOM     69  C   UNL     1       1.057  15.891   3.728  1.00  0.00     0.074 A 
ATOM     70  C   UNL     1       2.617  11.713  -0.889  1.00  0.00     0.029 A 
ATOM     71  N   UNL     1       1.907  13.658  -0.104  1.00  0.00    -0.354 N 
ATOM     72  N   UNL     1       2.240  15.348   3.708  1.00  0.00    -0.248 NA
ATOM     73  C   UNL     1       0.614  16.464   2.462  1.00  0.00     0.031 C 
ATOM     74  C   UNL     1       3.467  12.145   0.173  1.00  0.00     0.029 A 
ATOM     75  C   UNL     1       2.956  13.328   0.708  1.00  0.00     0.049 A 
ATOM     76  H   UNL     1       1.437  14.523  -0.081  1.00  0.00     0.167 HD
ATOM     77  C   UNL     1       2.487  15.116   2.368  1.00  0.00     0.074 A 
ATOM     78  C   UNL     1       1.562  15.983   1.653  1.00  0.00     0.031 C 
ATOM     79  C   UNL     1       3.179  14.011   1.966  1.00  0.00     0.031 A 
BRANCH  66  80
ATOM     80  C   UNL     1      -0.247  13.752  -2.331  1.00  0.00    -0.014 A 
ATOM     81  C   UNL     1       0.679  14.317  -3.224  1.00  0.00     0.009 A 
ATOM     82  C   UNL     1      -1.454  14.454  -2.142  1.00  0.00     0.009 A 
ATOM     83  C   UNL     1       0.430  15.543  -3.853  1.00  0.00     0.001 A 
ATOM     84  C   UNL     1      -1.723  15.658  -2.797  1.00  0.00     0.001 A 
ATOM     85  C   UNL     1      -0.769  16.215  -3.635  1.00  0.00     0.000 A 
ENDBRANCH  66  80
BRANCH  67  86
ATOM     86  C   UNL     1      -0.526  16.794   5.564  1.00  0.00    -0.014 A 
ATOM     87  C   UNL     1       0.177  17.995   5.744  1.00  0.00     0.009 A 
ATOM     88  C   UNL     1      -1.902  16.788   5.856  1.00  0.00     0.009 A 
ATOM     89  C   UNL     1      -0.484  19.161   6.151  1.00  0.00     0.001 A 
ATOM     90  C   UNL     1      -2.561  17.950   6.267  1.00  0.00     0.001 A 
ATOM     91  C   UNL     1      -1.856  19.141   6.396  1.00  0.00     0.000 A 
ENDBRANCH  67  86
BRANCH  79  92
ATOM     92  C   UNL     1       4.087  13.358   2.969  1.00  0.00    -0.014 A 
ATOM     93  C   UNL     1       3.637  12.762   4.158  1.00  0.00     0.009 A 
ATOM     94  C   UNL     1       5.453  13.285   2.657  1.00  0.00     0.009 A 
ATOM     95  C   UNL     1       4.540  12.138   5.025  1.00  0.00     0.001 A 
ATOM     96  C   UNL     1       6.349  12.641   3.511  1.00  0.00     0.001 A 
ATOM     97  C   UNL     1       5.894  12.075   4.699  1.00  0.00     0.000 A 
ENDBRANCH  79  92
ENDBRANCH  53  54
ENDBRANCH  46  48
ENDBRANCH  45  46
ENDBRANCH  44  45
ENDBRANCH  43  44
ENDBRANCH  42  43
ENDBRANCH  40  42
ENDBRANCH  39  40
ENDBRANCH  38  39
ENDBRANCH  37  38
ENDBRANCH   1  37
TORSDOF 26
