REMARK SMILES CC(C)Cc1cc2c(cc1Cl)C=C(C(=O)OCCOC(=O)c1ccc(-c3c4nc(c(-c5ccccc5)c5ccc([nH]5)c(-c5ccccc5)c5nc(c(-c6ccccc6)c6ccc3[nH]6)C=C5)C=C4)cc1)[C@@H](C(F)(F)F)O2
REMARK SMILES IDX 17 1 16 2 14 3 15 4 13 5 5 6 6 7 10 8 7 9 9 10 11 11 8 12
REMARK SMILES IDX 75 13 12 14 70 15 4 16 2 17 1 18 3 19 71 20 72 21 73 22
REMARK SMILES IDX 74 23 18 24 19 25 20 26 21 27 22 28 23 29 69 30 24 31 68 32
REMARK SMILES IDX 25 33 26 34 27 35 62 36 28 37 67 38 61 39 63 40 29 41 66 42
REMARK SMILES IDX 60 43 59 44 30 46 52 47 37 48 51 49 38 50 41 51 50 52 64 53
REMARK SMILES IDX 39 54 40 55 49 57 65 58 42 59 31 60 32 61 36 62 33 63 35 64
REMARK SMILES IDX 34 65 53 66 54 67 58 68 55 69 57 70 56 71 43 72 44 73 48 74
REMARK SMILES IDX 45 75 47 76 46 77
REMARK H PARENT 63 45 41 56
REMARK Flexibility Score: inf
ROOT
ATOM      1  C   UNL     1      -3.977   2.772   8.085  1.00  0.00     0.275 C 
ENDROOT
BRANCH   1   2
ATOM      2  O   UNL     1      -3.539   2.155   6.854  1.00  0.00    -0.459 OA
BRANCH   2   3
ATOM      3  C   UNL     1      -3.922   2.789   5.720  1.00  0.00     0.338 C 
ATOM      4  O   UNL     1      -4.594   3.804   5.647  1.00  0.00    -0.246 OA
BRANCH   3   5
ATOM      5  C   UNL     1      -3.364   2.115   4.532  1.00  0.00     0.087 C 
ATOM      6  C   UNL     1      -1.435   1.149  -0.015  1.00  0.00    -0.025 A 
ATOM      7  C   UNL     1      -1.966   0.347   1.018  1.00  0.00     0.052 A 
ATOM      8  C   UNL     1      -1.391   2.539   0.165  1.00  0.00     0.045 A 
ATOM      9  C   UNL     1      -2.426   0.916   2.206  1.00  0.00     0.128 A 
ATOM     10  C   UNL     1      -1.833   3.106   1.357  1.00  0.00     0.032 A 
ATOM     11  Cl  UNL     1      -0.813   3.619  -1.054  1.00  0.00    -0.084 Cl
ATOM     12  C   UNL     1      -2.350   2.294   2.371  1.00  0.00     0.019 A 
ATOM     13  O   UNL     1      -2.906   0.069   3.166  1.00  0.00    -0.475 OA
ATOM     14  C   UNL     1      -2.818   2.897   3.596  1.00  0.00     0.027 C 
ATOM     15  C   UNL     1      -3.548   0.635   4.350  1.00  0.00     0.316 C 
BRANCH   6  16
ATOM     16  C   UNL     1      -0.892   0.481  -1.258  1.00  0.00     0.040 C 
BRANCH  16  17
ATOM     17  C   UNL     1       0.650   0.451  -1.315  1.00  0.00    -0.013 C 
ATOM     18  C   UNL     1       1.256  -0.350  -0.161  1.00  0.00     0.008 C 
ATOM     19  C   UNL     1       1.108  -0.127  -2.654  1.00  0.00     0.008 C 
ENDBRANCH  16  17
ENDBRANCH   6  16
BRANCH  15  20
ATOM     20  C   UNL     1      -5.043   0.274   4.332  1.00  0.00     0.430 C 
ATOM     21  F   UNL     1      -5.231  -1.054   4.150  1.00  0.00    -0.167 F 
ATOM     22  F   UNL     1      -5.644   0.594   5.504  1.00  0.00    -0.167 F 
ATOM     23  F   UNL     1      -5.711   0.919   3.349  1.00  0.00    -0.167 F 
ENDBRANCH  15  20
ENDBRANCH   3   5
ENDBRANCH   2   3
ENDBRANCH   1   2
BRANCH   1  24
ATOM     24  C   UNL     1      -2.847   3.556   8.756  1.00  0.00     0.275 C 
BRANCH  24  25
ATOM     25  O   UNL     1      -2.512   4.726   7.988  1.00  0.00    -0.458 OA
BRANCH  25  26
ATOM     26  C   UNL     1      -1.363   4.654   7.284  1.00  0.00     0.338 C 
ATOM     27  O   UNL     1      -0.572   3.722   7.233  1.00  0.00    -0.246 OA
BRANCH  26  28
ATOM     28  C   UNL     1      -1.214   5.869   6.474  1.00  0.00     0.060 A 
ATOM     29  C   UNL     1      -0.268   6.840   6.783  1.00  0.00     0.016 A 
ATOM     30  C   UNL     1      -1.966   5.975   5.310  1.00  0.00     0.016 A 
ATOM     31  C   UNL     1      -0.111   7.934   5.922  1.00  0.00     0.010 A 
ATOM     32  C   UNL     1      -1.703   6.976   4.384  1.00  0.00     0.010 A 
ATOM     33  C   UNL     1      -0.808   8.003   4.699  1.00  0.00    -0.014 A 
BRANCH  33  34
ATOM     34  C   UNL     1      -0.654   9.154   3.765  1.00  0.00     0.031 A 
ATOM     35  C   UNL     1      -1.860   9.961   3.340  1.00  0.00     0.074 A 
ATOM     36  C   UNL     1       0.560   9.457   3.262  1.00  0.00     0.049 A 
ATOM     37  N   UNL     1      -1.923  10.981   2.518  1.00  0.00    -0.248 NA
ATOM     38  C   UNL     1      -3.172   9.553   3.872  1.00  0.00     0.031 C 
ATOM     39  C   UNL     1       1.795   8.717   3.528  1.00  0.00     0.029 A 
ATOM     40  N   UNL     1       0.958  10.478   2.434  1.00  0.00    -0.354 N 
ATOM     41  C   UNL     1      -3.272  11.302   2.414  1.00  0.00     0.074 A 
ATOM     42  C   UNL     1      -4.002  10.333   3.196  1.00  0.00     0.031 C 
ATOM     43  C   UNL     1       2.822   9.350   2.940  1.00  0.00     0.029 A 
ATOM     44  C   UNL     1       2.315  10.511   2.214  1.00  0.00     0.049 A 
ATOM     45  H   UNL     1       0.332  11.125   2.036  1.00  0.00     0.167 HD
ATOM     46  C   UNL     1      -3.854  12.335   1.761  1.00  0.00     0.031 A 
ATOM     47  C   UNL     1       3.072  11.382   1.519  1.00  0.00     0.031 A 
ATOM     48  C   UNL     1      -3.125  13.339   1.037  1.00  0.00     0.049 A 
ATOM     49  C   UNL     1       2.413  12.547   0.836  1.00  0.00     0.074 A 
ATOM     50  C   UNL     1      -3.615  14.476   0.420  1.00  0.00     0.029 A 
ATOM     51  N   UNL     1      -1.753  13.334   0.848  1.00  0.00    -0.354 N 
ATOM     52  N   UNL     1       1.143  12.874   0.810  1.00  0.00    -0.248 NA
ATOM     53  C   UNL     1       3.287  13.467   0.094  1.00  0.00     0.031 C 
ATOM     54  C   UNL     1      -2.543  15.136  -0.185  1.00  0.00     0.029 A 
ATOM     55  C   UNL     1      -1.380  14.439   0.106  1.00  0.00     0.049 A 
ATOM     56  H   UNL     1      -1.137  12.647   1.190  1.00  0.00     0.167 HD
ATOM     57  C   UNL     1       1.066  14.040   0.060  1.00  0.00     0.074 A 
ATOM     58  C   UNL     1       2.419  14.378  -0.332  1.00  0.00     0.031 C 
ATOM     59  C   UNL     1      -0.030  14.761  -0.277  1.00  0.00     0.031 A 
BRANCH  46  60
ATOM     60  C   UNL     1      -5.353  12.462   1.827  1.00  0.00    -0.014 A 
ATOM     61  C   UNL     1      -6.122  12.314   0.661  1.00  0.00     0.009 A 
ATOM     62  C   UNL     1      -6.000  12.809   3.024  1.00  0.00     0.009 A 
ATOM     63  C   UNL     1      -7.504  12.515   0.692  1.00  0.00     0.001 A 
ATOM     64  C   UNL     1      -7.386  12.976   3.059  1.00  0.00     0.001 A 
ATOM     65  C   UNL     1      -8.135  12.838   1.892  1.00  0.00     0.000 A 
ENDBRANCH  46  60
BRANCH  47  66
ATOM     66  C   UNL     1       4.549  11.205   1.492  1.00  0.00    -0.014 A 
ATOM     67  C   UNL     1       5.134  10.136   0.795  1.00  0.00     0.009 A 
ATOM     68  C   UNL     1       5.378  12.072   2.220  1.00  0.00     0.009 A 
ATOM     69  C   UNL     1       6.513   9.923   0.850  1.00  0.00     0.001 A 
ATOM     70  C   UNL     1       6.760  11.873   2.251  1.00  0.00     0.001 A 
ATOM     71  C   UNL     1       7.326  10.793   1.575  1.00  0.00     0.000 A 
ENDBRANCH  47  66
BRANCH  59  72
ATOM     72  C   UNL     1       0.165  15.993  -1.112  1.00  0.00    -0.014 A 
ATOM     73  C   UNL     1      -0.058  17.260  -0.549  1.00  0.00     0.009 A 
ATOM     74  C   UNL     1       0.438  15.893  -2.484  1.00  0.00     0.009 A 
ATOM     75  C   UNL     1      -0.035  18.403  -1.350  1.00  0.00     0.001 A 
ATOM     76  C   UNL     1       0.488  17.041  -3.277  1.00  0.00     0.001 A 
ATOM     77  C   UNL     1       0.240  18.293  -2.712  1.00  0.00     0.000 A 
ENDBRANCH  59  72
ENDBRANCH  33  34
ENDBRANCH  26  28
ENDBRANCH  25  26
ENDBRANCH  24  25
ENDBRANCH   1  24
TORSDOF 14
