REMARK SMILES O=C(OCCOC(=O)[C@@H]1CCCCC[C@H]1NC(=O)c1cc(Cl)ccc1F)c1ccc(-c2c3nc(c(-c4ccccc4)c4ccc([nH]4)c(-c4ccccc4)c4nc(c(-c5ccccc5)c5ccc2[nH]5)C=C4)C=C3)cc1
REMARK SMILES IDX 5 1 4 2 3 3 2 4 1 5 27 6 28 7 74 8 29 9 73 10 30 11 31 12
REMARK SMILES IDX 32 13 67 14 33 15 72 16 66 17 68 18 34 19 71 20 65 21 64 22
REMARK SMILES IDX 35 24 57 25 42 26 56 27 43 28 46 29 55 30 69 31 44 32 45 33
REMARK SMILES IDX 54 35 70 36 47 37 36 38 37 39 41 40 38 41 40 42 39 43 58 44
REMARK SMILES IDX 59 45 63 46 60 47 62 48 61 49 48 50 49 51 53 52 50 53 52 54
REMARK SMILES IDX 51 55 6 56 7 57 8 58 9 59 10 60 11 61 12 62 15 64 14 65
REMARK SMILES IDX 13 66 16 68 17 69 18 71 19 72 20 73 25 74 21 75 24 76 26 77
REMARK SMILES IDX 22 78 23 79
REMARK H PARENT 68 23 46 34 16 70
REMARK Flexibility Score: 100.00
ROOT
ATOM      1  C   UNL     1       3.791   1.321  -2.050  1.00  0.00     0.274 C 
ENDROOT
BRANCH   1   2
ATOM      2  C   UNL     1       4.269  -0.131  -2.051  1.00  0.00     0.275 C 
BRANCH   2   3
ATOM      3  O   UNL     1       3.591  -1.006  -1.147  1.00  0.00    -0.458 OA
BRANCH   3   4
ATOM      4  C   UNL     1       3.866  -1.204   0.160  1.00  0.00     0.338 C 
ATOM      5  O   UNL     1       3.249  -2.061   0.788  1.00  0.00    -0.246 OA
BRANCH   4   6
ATOM      6  C   UNL     1       4.762  -0.293   0.928  1.00  0.00     0.060 A 
ATOM      7  C   UNL     1       6.017   0.201   0.558  1.00  0.00     0.016 A 
ATOM      8  C   UNL     1       4.269   0.058   2.180  1.00  0.00     0.016 A 
ATOM      9  C   UNL     1       6.717   1.104   1.390  1.00  0.00     0.010 A 
ATOM     10  C   UNL     1       4.943   0.967   2.984  1.00  0.00     0.010 A 
ATOM     11  C   UNL     1       6.176   1.512   2.612  1.00  0.00    -0.014 A 
BRANCH  11  12
ATOM     12  C   UNL     1       6.832   2.443   3.578  1.00  0.00     0.031 A 
ATOM     13  C   UNL     1       7.051   1.980   5.004  1.00  0.00     0.074 A 
ATOM     14  C   UNL     1       7.019   3.748   3.284  1.00  0.00     0.049 A 
ATOM     15  N   UNL     1       7.439   2.663   6.052  1.00  0.00    -0.248 NA
ATOM     16  C   UNL     1       6.709   0.577   5.303  1.00  0.00     0.031 C 
ATOM     17  C   UNL     1       6.720   4.397   2.007  1.00  0.00     0.029 A 
ATOM     18  N   UNL     1       7.435   4.785   4.087  1.00  0.00    -0.354 N 
ATOM     19  C   UNL     1       7.362   1.776   7.120  1.00  0.00     0.074 A 
ATOM     20  C   UNL     1       6.739   0.571   6.625  1.00  0.00     0.031 C 
ATOM     21  C   UNL     1       6.891   5.726   2.135  1.00  0.00     0.029 A 
ATOM     22  C   UNL     1       7.348   6.021   3.489  1.00  0.00     0.049 A 
ATOM     23  H   UNL     1       7.764   4.655   5.006  1.00  0.00     0.167 HD
ATOM     24  C   UNL     1       7.861   1.895   8.374  1.00  0.00     0.031 A 
ATOM     25  C   UNL     1       7.620   7.249   3.973  1.00  0.00     0.031 A 
ATOM     26  C   UNL     1       8.556   3.059   8.840  1.00  0.00     0.049 A 
ATOM     27  C   UNL     1       8.230   7.379   5.342  1.00  0.00     0.074 A 
ATOM     28  C   UNL     1       9.300   3.227   9.994  1.00  0.00     0.029 A 
ATOM     29  N   UNL     1       8.595   4.261   8.154  1.00  0.00    -0.354 N 
ATOM     30  N   UNL     1       8.385   6.465   6.268  1.00  0.00    -0.248 NA
ATOM     31  C   UNL     1       8.787   8.694   5.694  1.00  0.00     0.031 C 
ATOM     32  C   UNL     1       9.793   4.538  10.004  1.00  0.00     0.029 A 
ATOM     33  C   UNL     1       9.370   5.172   8.846  1.00  0.00     0.049 A 
ATOM     34  H   UNL     1       8.139   4.440   7.301  1.00  0.00     0.167 HD
ATOM     35  C   UNL     1       9.146   7.064   7.265  1.00  0.00     0.074 A 
ATOM     36  C   UNL     1       9.381   8.432   6.851  1.00  0.00     0.031 C 
ATOM     37  C   UNL     1       9.642   6.512   8.399  1.00  0.00     0.031 A 
BRANCH  24  38
ATOM     38  C   UNL     1       7.769   0.680   9.258  1.00  0.00    -0.014 A 
ATOM     39  C   UNL     1       8.447  -0.503   8.909  1.00  0.00     0.009 A 
ATOM     40  C   UNL     1       6.991   0.692  10.423  1.00  0.00     0.009 A 
ATOM     41  C   UNL     1       8.279  -1.670   9.653  1.00  0.00     0.001 A 
ATOM     42  C   UNL     1       6.858  -0.469  11.192  1.00  0.00     0.001 A 
ATOM     43  C   UNL     1       7.483  -1.652  10.795  1.00  0.00     0.000 A 
ENDBRANCH  24  38
BRANCH  25  44
ATOM     44  C   UNL     1       7.448   8.452   3.118  1.00  0.00    -0.014 A 
ATOM     45  C   UNL     1       8.554   9.010   2.456  1.00  0.00     0.009 A 
ATOM     46  C   UNL     1       6.197   9.073   2.992  1.00  0.00     0.009 A 
ATOM     47  C   UNL     1       8.419  10.187   1.716  1.00  0.00     0.001 A 
ATOM     48  C   UNL     1       6.062  10.242   2.237  1.00  0.00     0.001 A 
ATOM     49  C   UNL     1       7.174  10.803   1.608  1.00  0.00     0.000 A 
ENDBRANCH  25  44
BRANCH  37  50
ATOM     50  C   UNL     1      10.606   7.332   9.204  1.00  0.00    -0.014 A 
ATOM     51  C   UNL     1      10.186   8.399  10.009  1.00  0.00     0.009 A 
ATOM     52  C   UNL     1      11.968   6.985   9.182  1.00  0.00     0.009 A 
ATOM     53  C   UNL     1      11.119   9.121  10.757  1.00  0.00     0.001 A 
ATOM     54  C   UNL     1      12.892   7.691   9.950  1.00  0.00     0.001 A 
ATOM     55  C   UNL     1      12.468   8.764  10.732  1.00  0.00     0.000 A 
ENDBRANCH  37  50
ENDBRANCH  11  12
ENDBRANCH   4   6
ENDBRANCH   3   4
ENDBRANCH   2   3
ENDBRANCH   1   2
BRANCH   1  56
ATOM     56  O   UNL     1       3.362   1.855  -0.782  1.00  0.00    -0.462 OA
BRANCH  56  57
ATOM     57  C   UNL     1       2.005   1.994  -0.659  1.00  0.00     0.311 C 
ATOM     58  O   UNL     1       1.193   1.442  -1.381  1.00  0.00    -0.252 OA
BRANCH  57  59
ATOM     59  C   UNL     1       1.605   3.073   0.352  1.00  0.00     0.121 C 
BRANCH  59  60
ATOM     60  C   UNL     1       2.034   4.421  -0.252  1.00  0.00     0.017 C 
BRANCH  60  61
ATOM     61  C   UNL     1       1.668   5.640   0.584  1.00  0.00     0.001 C 
BRANCH  61  62
ATOM     62  C   UNL     1       2.770   6.028   1.559  1.00  0.00     0.000 CG0
ATOM     63  G   UNL     1       2.958   5.052   2.707  1.00  0.00     0.000 G0
ENDBRANCH  61  62
ENDBRANCH  60  61
ENDBRANCH  59  60
BRANCH  59  64
ATOM     64  C   UNL     1       2.052   2.753   1.795  1.00  0.00     0.096 C 
BRANCH  64  65
ATOM     65  C   UNL     1       3.236   3.600   2.307  1.00  0.00     0.026 C 
BRANCH  65  66
ATOM     66  C   UNL     1       2.958   5.052   2.707  1.00  0.00     0.002 CG0
ATOM     67  G   UNL     1       2.770   6.028   1.559  1.00  0.00     0.000 G0
ENDBRANCH  65  66
ENDBRANCH  64  65
BRANCH  64  68
ATOM     68  N   UNL     1       0.945   2.869   2.760  1.00  0.00    -0.348 N 
ATOM     69  C   UNL     1       0.690   2.163   3.913  1.00  0.00     0.254 C 
ATOM     70  H   UNL     1       0.281   3.563   2.546  1.00  0.00     0.164 HD
ATOM     71  O   UNL     1      -0.025   2.655   4.782  1.00  0.00    -0.269 OA
BRANCH  69  72
ATOM     72  C   UNL     1       1.145   0.779   4.098  1.00  0.00     0.077 A 
ATOM     73  C   UNL     1       0.432  -0.250   3.473  1.00  0.00     0.037 A 
ATOM     74  C   UNL     1       2.117   0.469   5.049  1.00  0.00     0.136 A 
ATOM     75  C   UNL     1       0.728  -1.579   3.786  1.00  0.00     0.042 A 
ATOM     76  C   UNL     1       2.436  -0.862   5.334  1.00  0.00     0.041 A 
ATOM     77  F   UNL     1       2.800   1.437   5.675  1.00  0.00    -0.206 F 
ATOM     78  Cl  UNL     1      -0.189  -2.848   3.072  1.00  0.00    -0.084 Cl
ATOM     79  C   UNL     1       1.737  -1.891   4.701  1.00  0.00     0.023 A 
ENDBRANCH  69  72
ENDBRANCH  64  68
ENDBRANCH  59  64
ENDBRANCH  57  59
ENDBRANCH  56  57
ENDBRANCH   1  56
TORSDOF 13
