REMARK SMILES [NH3+]C1CC[NH+](CC(=O)Nc2cc(Cl)ccc2C(=O)OCCOC(=O)c2ccc(-c3c4nc(c(-c5ccccc5)c5ccc([nH]5)c(-c5ccccc5)c5nc(c(-c6ccccc6)c6ccc3[nH]6)C=C5)C=C4)cc2)CC1
REMARK SMILES IDX 20 1 19 2 17 3 18 4 16 5 10 6 11 7 12 8 15 9 13 10 14 11
REMARK SMILES IDX 9 12 7 13 8 14 6 16 5 17 2 18 3 19 74 20 4 21 73 22 1 24
REMARK SMILES IDX 21 28 22 29 23 30 24 31 25 32 26 33 72 34 27 35 71 36 28 37
REMARK SMILES IDX 29 38 30 39 65 40 31 41 70 42 64 43 66 44 32 45 69 46 63 47
REMARK SMILES IDX 62 48 33 50 55 51 40 52 54 53 41 54 44 55 53 56 67 57 42 58
REMARK SMILES IDX 43 59 52 61 68 62 45 63 34 64 35 65 39 66 36 67 38 68 37 69
REMARK SMILES IDX 56 70 57 71 61 72 58 73 60 74 59 75 46 76 47 77 51 78 48 79
REMARK SMILES IDX 50 80 49 81
REMARK H PARENT 9 15 5 23 1 25 1 26 1 27 66 49 44 60
REMARK Flexibility Score: inf
ROOT
ATOM      1  C   UNL     1      -5.170   1.607   2.104  1.00  0.00     0.275 C 
ENDROOT
BRANCH   1   2
ATOM      2  O   UNL     1      -4.256   1.314   1.028  1.00  0.00    -0.458 OA
BRANCH   2   3
ATOM      3  C   UNL     1      -3.732   0.062   0.978  1.00  0.00     0.340 C 
ATOM      4  O   UNL     1      -3.863  -0.803   1.815  1.00  0.00    -0.246 OA
BRANCH   3   5
ATOM      5  C   UNL     1      -3.106  -0.178  -0.363  1.00  0.00     0.083 A 
ATOM      6  C   UNL     1      -2.636   0.841  -1.229  1.00  0.00     0.057 A 
ATOM      7  C   UNL     1      -2.230   0.468  -2.512  1.00  0.00     0.047 A 
ATOM      8  C   UNL     1      -2.162  -0.882  -2.885  1.00  0.00     0.043 A 
ATOM      9  C   UNL     1      -2.997  -1.533  -0.741  1.00  0.00     0.019 A 
ATOM     10  Cl  UNL     1      -1.570  -1.309  -4.444  1.00  0.00    -0.084 Cl
ATOM     11  C   UNL     1      -2.523  -1.886  -1.998  1.00  0.00     0.021 A 
BRANCH   6  12
ATOM     12  N   UNL     1      -2.537   2.157  -0.723  1.00  0.00    -0.320 N 
ATOM     13  C   UNL     1      -1.775   3.262  -0.961  1.00  0.00     0.279 C 
ATOM     14  O   UNL     1      -1.924   4.194  -0.155  1.00  0.00    -0.268 OA
ATOM     15  H   UNL     1      -3.194   2.319  -0.008  1.00  0.00     0.170 HD
BRANCH  13  16
ATOM     16  C   UNL     1      -0.771   3.410  -2.095  1.00  0.00     0.363 C 
BRANCH  16  17
ATOM     17  N   UNL     1       0.599   2.937  -1.845  1.00  0.00    -0.327 N 
ATOM     18  C   UNL     1       1.708   1.740   0.642  1.00  0.00     0.192 C 
ATOM     19  C   UNL     1       1.584   3.262   0.475  1.00  0.00     0.126 C 
ATOM     20  C   UNL     1       0.699   1.032  -0.258  1.00  0.00     0.126 C 
ATOM     21  C   UNL     1       1.454   3.742  -0.977  1.00  0.00     0.268 C 
ATOM     22  C   UNL     1       0.815   1.511  -1.702  1.00  0.00     0.268 C 
ATOM     23  H   UNL     1       0.950   3.137  -2.781  1.00  0.00     0.348 HD
BRANCH  18  24
ATOM     24  N   UNL     1       3.067   1.252   0.382  1.00  0.00    -0.355 N 
ATOM     25  H   UNL     1       3.725   1.737   0.992  1.00  0.00     0.344 HD
ATOM     26  H   UNL     1       3.311   1.430  -0.592  1.00  0.00     0.344 HD
ATOM     27  H   UNL     1       3.108   0.249   0.565  1.00  0.00     0.344 HD
ENDBRANCH  18  24
ENDBRANCH  16  17
ENDBRANCH  13  16
ENDBRANCH   6  12
ENDBRANCH   3   5
ENDBRANCH   2   3
ENDBRANCH   1   2
BRANCH   1  28
ATOM     28  C   UNL     1      -6.566   1.839   1.525  1.00  0.00     0.275 C 
BRANCH  28  29
ATOM     29  O   UNL     1      -7.063   0.606   0.967  1.00  0.00    -0.458 OA
BRANCH  29  30
ATOM     30  C   UNL     1      -7.051   0.531  -0.383  1.00  0.00     0.338 C 
ATOM     31  O   UNL     1      -6.743   1.400  -1.181  1.00  0.00    -0.246 OA
BRANCH  30  32
ATOM     32  C   UNL     1      -7.381  -0.839  -0.798  1.00  0.00     0.060 A 
ATOM     33  C   UNL     1      -6.434  -1.839  -0.601  1.00  0.00     0.016 A 
ATOM     34  C   UNL     1      -8.538  -1.104  -1.523  1.00  0.00     0.016 A 
ATOM     35  C   UNL     1      -6.575  -3.075  -1.225  1.00  0.00     0.010 A 
ATOM     36  C   UNL     1      -8.738  -2.388  -2.043  1.00  0.00     0.010 A 
ATOM     37  C   UNL     1      -7.741  -3.380  -1.937  1.00  0.00    -0.014 A 
BRANCH  37  38
ATOM     38  C   UNL     1      -7.920  -4.701  -2.609  1.00  0.00     0.031 A 
ATOM     39  C   UNL     1      -8.285  -4.745  -4.072  1.00  0.00     0.074 A 
ATOM     40  C   UNL     1      -7.779  -5.861  -1.935  1.00  0.00     0.049 A 
ATOM     41  N   UNL     1      -8.812  -5.721  -4.766  1.00  0.00    -0.248 NA
ATOM     42  C   UNL     1      -8.043  -3.518  -4.850  1.00  0.00     0.031 C 
ATOM     43  C   UNL     1      -7.339  -6.002  -0.545  1.00  0.00     0.029 A 
ATOM     44  N   UNL     1      -8.009  -7.157  -2.336  1.00  0.00    -0.354 N 
ATOM     45  C   UNL     1      -9.035  -5.203  -6.037  1.00  0.00     0.074 A 
ATOM     46  C   UNL     1      -8.578  -3.830  -6.022  1.00  0.00     0.031 C 
ATOM     47  C   UNL     1      -7.309  -7.303  -0.218  1.00  0.00     0.029 A 
ATOM     48  C   UNL     1      -7.843  -8.079  -1.328  1.00  0.00     0.049 A 
ATOM     49  H   UNL     1      -8.267  -7.401  -3.254  1.00  0.00     0.167 HD
ATOM     50  C   UNL     1      -9.582  -5.816  -7.114  1.00  0.00     0.031 A 
ATOM     51  C   UNL     1      -8.158  -9.388  -1.269  1.00  0.00     0.031 A 
ATOM     52  C   UNL     1      -9.987  -7.197  -7.134  1.00  0.00     0.049 A 
ATOM     53  C   UNL     1      -8.826 -10.033  -2.450  1.00  0.00     0.074 A 
ATOM     54  C   UNL     1     -10.576  -7.910  -8.163  1.00  0.00     0.029 A 
ATOM     55  N   UNL     1      -9.812  -8.081  -6.082  1.00  0.00    -0.354 N 
ATOM     56  N   UNL     1      -9.138  -9.508  -3.610  1.00  0.00    -0.248 NA
ATOM     57  C   UNL     1      -9.205 -11.446  -2.306  1.00  0.00     0.031 C 
ATOM     58  C   UNL     1     -10.785  -9.221  -7.722  1.00  0.00     0.029 A 
ATOM     59  C   UNL     1     -10.277  -9.334  -6.439  1.00  0.00     0.049 A 
ATOM     60  H   UNL     1      -9.416  -7.852  -5.210  1.00  0.00     0.167 HD
ATOM     61  C   UNL     1      -9.721 -10.533  -4.343  1.00  0.00     0.074 A 
ATOM     62  C   UNL     1      -9.710 -11.712  -3.502  1.00  0.00     0.031 C 
ATOM     63  C   UNL     1     -10.225 -10.501  -5.599  1.00  0.00     0.031 A 
BRANCH  50  64
ATOM     64  C   UNL     1      -9.816  -4.992  -8.350  1.00  0.00    -0.014 A 
ATOM     65  C   UNL     1      -8.759  -4.590  -9.178  1.00  0.00     0.009 A 
ATOM     66  C   UNL     1     -11.131  -4.664  -8.720  1.00  0.00     0.009 A 
ATOM     67  C   UNL     1      -9.012  -3.852 -10.338  1.00  0.00     0.001 A 
ATOM     68  C   UNL     1     -11.383  -3.951  -9.894  1.00  0.00     0.001 A 
ATOM     69  C   UNL     1     -10.322  -3.540 -10.698  1.00  0.00     0.000 A 
ENDBRANCH  50  64
BRANCH  51  70
ATOM     70  C   UNL     1      -7.933 -10.158  -0.014  1.00  0.00    -0.014 A 
ATOM     71  C   UNL     1      -7.003 -11.207   0.028  1.00  0.00     0.009 A 
ATOM     72  C   UNL     1      -8.671  -9.863   1.144  1.00  0.00     0.009 A 
ATOM     73  C   UNL     1      -6.838 -11.961   1.193  1.00  0.00     0.001 A 
ATOM     74  C   UNL     1      -8.477 -10.593   2.318  1.00  0.00     0.001 A 
ATOM     75  C   UNL     1      -7.570 -11.649   2.338  1.00  0.00     0.000 A 
ENDBRANCH  51  70
BRANCH  63  76
ATOM     76  C   UNL     1     -10.728 -11.793  -6.173  1.00  0.00    -0.014 A 
ATOM     77  C   UNL     1     -11.953 -12.345  -5.774  1.00  0.00     0.009 A 
ATOM     78  C   UNL     1      -9.980 -12.435  -7.173  1.00  0.00     0.009 A 
ATOM     79  C   UNL     1     -12.409 -13.533  -6.349  1.00  0.00     0.001 A 
ATOM     80  C   UNL     1     -10.450 -13.607  -7.765  1.00  0.00     0.001 A 
ATOM     81  C   UNL     1     -11.661 -14.159  -7.348  1.00  0.00     0.000 A 
ENDBRANCH  63  76
ENDBRANCH  37  38
ENDBRANCH  30  32
ENDBRANCH  29  30
ENDBRANCH  28  29
ENDBRANCH   1  28
TORSDOF 15
