REMARK SMILES NS(=O)(=O)c1ccc(-n2nc(C(=O)NCCCC(=O)OCCOC(=O)c3ccc(-c4c5nc(c(-c6ccccc6)c6ccc([nH]6)c(-c6ccccc6)c6nc(c(-c7ccccc7)c7ccc4[nH]7)C=C6)C=C5)cc3)cc2-c2ccccc2)cc1
REMARK SMILES IDX 18 1 19 2 17 3 16 4 15 5 14 6 12 7 13 8 11 10 9 11 10 12
REMARK SMILES IDX 75 13 74 14 8 15 5 16 6 17 83 18 7 19 82 20 2 21 3 22 4 23
REMARK SMILES IDX 1 24 76 27 77 28 81 29 78 30 80 31 79 32 20 33 21 34 22 35
REMARK SMILES IDX 23 36 24 37 25 38 26 39 27 40 73 41 28 42 72 43 29 44 30 45
REMARK SMILES IDX 31 46 66 47 32 48 71 49 65 50 67 51 33 52 70 53 64 54 63 55
REMARK SMILES IDX 34 57 56 58 41 59 55 60 42 61 45 62 54 63 68 64 43 65 44 66
REMARK SMILES IDX 53 68 69 69 46 70 35 71 36 72 40 73 37 74 39 75 38 76 57 77
REMARK SMILES IDX 58 78 62 79 59 80 61 81 60 82 47 83 48 84 52 85 49 86 51 87
REMARK SMILES IDX 50 88
REMARK H PARENT 14 9 1 25 1 26 67 56 45 67
REMARK Flexibility Score: inf
ROOT
ATOM      1  C   UNL     1       3.237   7.217 -12.754  1.00  0.00     0.305 C 
ATOM      2  O   UNL     1       3.152   7.861 -13.793  1.00  0.00    -0.252 OA
ENDROOT
BRANCH   1   3
ATOM      3  C   UNL     1       2.406   7.514 -11.527  1.00  0.00     0.124 C 
BRANCH   3   4
ATOM      4  C   UNL     1       1.639   6.355 -10.895  1.00  0.00     0.033 C 
BRANCH   4   5
ATOM      5  C   UNL     1       2.452   5.181 -10.357  1.00  0.00     0.117 C 
BRANCH   5   6
ATOM      6  N   UNL     1       3.304   5.561  -9.246  1.00  0.00    -0.351 N 
ATOM      7  C   UNL     1       3.385   5.077  -7.957  1.00  0.00     0.271 C 
ATOM      8  O   UNL     1       4.080   5.724  -7.170  1.00  0.00    -0.267 OA
ATOM      9  H   UNL     1       3.934   6.290  -9.447  1.00  0.00     0.163 HD
BRANCH   7  10
ATOM     10  C   UNL     1       2.699   3.828  -7.567  1.00  0.00     0.151 A 
ATOM     11  N   UNL     1       1.915   2.305  -6.274  1.00  0.00    -0.232 N 
ATOM     12  N   UNL     1       2.364   3.582  -6.282  1.00  0.00    -0.162 NA
ATOM     13  C   UNL     1       1.681   1.830  -7.555  1.00  0.00     0.075 A 
ATOM     14  C   UNL     1       2.324   2.728  -8.379  1.00  0.00     0.065 A 
BRANCH  11  15
ATOM     15  C   UNL     1       1.722   1.599  -5.060  1.00  0.00     0.065 A 
ATOM     16  C   UNL     1       1.028   0.110  -2.826  1.00  0.00     0.082 A 
ATOM     17  C   UNL     1       1.690  -0.515  -3.883  1.00  0.00     0.024 A 
ATOM     18  C   UNL     1       0.765   1.487  -2.852  1.00  0.00     0.024 A 
ATOM     19  C   UNL     1       2.031   0.230  -5.006  1.00  0.00     0.030 A 
ATOM     20  C   UNL     1       1.145   2.245  -3.963  1.00  0.00     0.030 A 
BRANCH  16  21
ATOM     21  S   UNL     1       0.498  -0.860  -1.450  1.00  0.00     0.238 S 
ATOM     22  O   UNL     1       1.163  -2.148  -1.491  1.00  0.00    -0.207 OA
ATOM     23  O   UNL     1      -0.927  -0.727  -1.312  1.00  0.00    -0.207 OA
BRANCH  21  24
ATOM     24  N   UNL     1       1.189  -0.055  -0.150  1.00  0.00    -0.225 NA
ATOM     25  H   UNL     1       0.945  -0.536   0.716  1.00  0.00     0.137 HD
ATOM     26  H   UNL     1       0.838   0.902  -0.118  1.00  0.00     0.137 HD
ENDBRANCH  21  24
ENDBRANCH  16  21
ENDBRANCH  11  15
BRANCH  13  27
ATOM     27  C   UNL     1       0.873   0.664  -7.921  1.00  0.00     0.000 A 
ATOM     28  C   UNL     1      -0.367   0.416  -7.310  1.00  0.00     0.010 A 
ATOM     29  C   UNL     1       1.305  -0.191  -8.941  1.00  0.00     0.010 A 
ATOM     30  C   UNL     1      -1.143  -0.679  -7.695  1.00  0.00     0.001 A 
ATOM     31  C   UNL     1       0.524  -1.278  -9.333  1.00  0.00     0.001 A 
ATOM     32  C   UNL     1      -0.698  -1.524  -8.708  1.00  0.00     0.000 A 
ENDBRANCH  13  27
ENDBRANCH   7  10
ENDBRANCH   5   6
ENDBRANCH   4   5
ENDBRANCH   3   4
ENDBRANCH   1   3
BRANCH   1  33
ATOM     33  O   UNL     1       4.124   6.211 -12.538  1.00  0.00    -0.462 OA
BRANCH  33  34
ATOM     34  C   UNL     1       4.910   5.789 -13.667  1.00  0.00     0.274 C 
BRANCH  34  35
ATOM     35  C   UNL     1       4.200   4.721 -14.488  1.00  0.00     0.275 C 
BRANCH  35  36
ATOM     36  O   UNL     1       3.071   5.243 -15.191  1.00  0.00    -0.458 OA
BRANCH  36  37
ATOM     37  C   UNL     1       1.887   5.045 -14.572  1.00  0.00     0.338 C 
ATOM     38  O   UNL     1       1.713   4.734 -13.405  1.00  0.00    -0.246 OA
BRANCH  37  39
ATOM     39  C   UNL     1       0.807   5.001 -15.560  1.00  0.00     0.060 A 
ATOM     40  C   UNL     1      -0.514   5.068 -15.104  1.00  0.00     0.016 A 
ATOM     41  C   UNL     1       1.116   4.599 -16.865  1.00  0.00     0.016 A 
ATOM     42  C   UNL     1      -1.522   4.598 -15.925  1.00  0.00     0.010 A 
ATOM     43  C   UNL     1       0.116   4.105 -17.669  1.00  0.00     0.010 A 
ATOM     44  C   UNL     1      -1.185   4.054 -17.172  1.00  0.00    -0.014 A 
BRANCH  44  45
ATOM     45  C   UNL     1      -2.249   3.625 -18.061  1.00  0.00     0.031 A 
ATOM     46  C   UNL     1      -3.007   4.779 -18.605  1.00  0.00     0.074 A 
ATOM     47  C   UNL     1      -2.417   2.349 -18.464  1.00  0.00     0.049 A 
ATOM     48  N   UNL     1      -4.239   5.073 -18.369  1.00  0.00    -0.248 NA
ATOM     49  C   UNL     1      -2.268   5.830 -19.331  1.00  0.00     0.031 C 
ATOM     50  C   UNL     1      -1.560   1.192 -18.191  1.00  0.00     0.029 A 
ATOM     51  N   UNL     1      -3.348   1.830 -19.312  1.00  0.00    -0.354 N 
ATOM     52  C   UNL     1      -4.496   6.227 -19.099  1.00  0.00     0.074 A 
ATOM     53  C   UNL     1      -3.216   6.753 -19.493  1.00  0.00     0.031 C 
ATOM     54  C   UNL     1      -1.861   0.199 -19.061  1.00  0.00     0.029 A 
ATOM     55  C   UNL     1      -3.001   0.603 -19.869  1.00  0.00     0.049 A 
ATOM     56  H   UNL     1      -4.197   2.286 -19.514  1.00  0.00     0.167 HD
ATOM     57  C   UNL     1      -5.746   6.481 -19.572  1.00  0.00     0.031 A 
ATOM     58  C   UNL     1      -3.565   0.005 -20.955  1.00  0.00     0.031 A 
ATOM     59  C   UNL     1      -6.734   5.682 -18.889  1.00  0.00     0.049 A 
ATOM     60  C   UNL     1      -4.883   0.648 -21.184  1.00  0.00     0.074 A 
ATOM     61  C   UNL     1      -7.098   5.519 -17.566  1.00  0.00     0.029 A 
ATOM     62  N   UNL     1      -7.212   4.578 -19.556  1.00  0.00    -0.354 N 
ATOM     63  N   UNL     1      -5.897   0.491 -20.383  1.00  0.00    -0.248 NA
ATOM     64  C   UNL     1      -4.913   1.848 -22.008  1.00  0.00     0.031 C 
ATOM     65  C   UNL     1      -7.331   4.121 -17.422  1.00  0.00     0.029 A 
ATOM     66  C   UNL     1      -7.207   3.527 -18.679  1.00  0.00     0.049 A 
ATOM     67  H   UNL     1      -7.504   4.549 -20.495  1.00  0.00     0.167 HD
ATOM     68  C   UNL     1      -6.422   1.767 -20.242  1.00  0.00     0.074 A 
ATOM     69  C   UNL     1      -5.826   2.549 -21.328  1.00  0.00     0.031 C 
ATOM     70  C   UNL     1      -7.040   2.152 -19.087  1.00  0.00     0.031 A 
BRANCH  57  71
ATOM     71  C   UNL     1      -5.997   7.058 -20.945  1.00  0.00    -0.014 A 
ATOM     72  C   UNL     1      -7.330   7.211 -21.365  1.00  0.00     0.009 A 
ATOM     73  C   UNL     1      -5.007   7.159 -21.941  1.00  0.00     0.009 A 
ATOM     74  C   UNL     1      -7.656   7.346 -22.719  1.00  0.00     0.001 A 
ATOM     75  C   UNL     1      -5.325   7.338 -23.288  1.00  0.00     0.001 A 
ATOM     76  C   UNL     1      -6.653   7.397 -23.681  1.00  0.00     0.000 A 
ENDBRANCH  57  71
BRANCH  58  77
ATOM     77  C   UNL     1      -2.941  -0.868 -21.982  1.00  0.00    -0.014 A 
ATOM     78  C   UNL     1      -3.727  -1.567 -22.919  1.00  0.00     0.009 A 
ATOM     79  C   UNL     1      -1.557  -0.806 -22.225  1.00  0.00     0.009 A 
ATOM     80  C   UNL     1      -3.154  -2.142 -24.065  1.00  0.00     0.001 A 
ATOM     81  C   UNL     1      -0.985  -1.383 -23.366  1.00  0.00     0.001 A 
ATOM     82  C   UNL     1      -1.785  -2.037 -24.295  1.00  0.00     0.000 A 
ENDBRANCH  58  77
BRANCH  70  83
ATOM     83  C   UNL     1      -7.380   1.103 -18.057  1.00  0.00    -0.014 A 
ATOM     84  C   UNL     1      -6.438   0.242 -17.468  1.00  0.00     0.009 A 
ATOM     85  C   UNL     1      -8.689   1.100 -17.549  1.00  0.00     0.009 A 
ATOM     86  C   UNL     1      -6.809  -0.618 -16.427  1.00  0.00     0.001 A 
ATOM     87  C   UNL     1      -9.052   0.263 -16.495  1.00  0.00     0.001 A 
ATOM     88  C   UNL     1      -8.115  -0.602 -15.939  1.00  0.00     0.000 A 
ENDBRANCH  70  83
ENDBRANCH  44  45
ENDBRANCH  37  39
ENDBRANCH  36  37
ENDBRANCH  35  36
ENDBRANCH  34  35
ENDBRANCH  33  34
ENDBRANCH   1  33
TORSDOF 19
