REMARK SMILES O=C(C[C@@H]([NH2+]Cc1cccnc1)C(=O)OCCOC(=O)c1ccc(-c2c3nc(c(-c4ccccc4)c4ccc([nH]4)c(-c4ccccc4)c4nc(c(-c5ccccc5)c5ccc2[nH]5)C=C4)C=C3)cc1)Nc1ccc2ccccc2c1
REMARK SMILES IDX 16 1 15 2 13 3 14 4 4 5 3 6 2 7 1 8 69 9 70 11 71 12 79 13
REMARK SMILES IDX 72 14 78 15 73 16 77 17 74 18 76 19 75 20 5 21 6 24 7 25
REMARK SMILES IDX 8 26 12 27 9 28 11 29 10 30 17 31 18 32 19 33 20 34 21 35
REMARK SMILES IDX 22 36 68 37 23 38 67 39 24 40 25 41 26 42 61 43 27 44 66 45
REMARK SMILES IDX 60 46 62 47 28 48 65 49 59 50 58 51 29 53 51 54 36 55 50 56
REMARK SMILES IDX 37 57 40 58 49 59 63 60 38 61 39 62 48 64 64 65 41 66 30 67
REMARK SMILES IDX 31 68 35 69 32 70 34 71 33 72 52 73 53 74 57 75 54 76 56 77
REMARK SMILES IDX 55 78 42 79 43 80 47 81 44 82 46 83 45 84
REMARK H PARENT 69 10 5 22 5 23 62 52 40 63
REMARK Flexibility Score: inf
ROOT
ATOM      1  C   UNL     1       5.943  -2.406  -3.646  1.00  0.00     0.274 C 
ENDROOT
BRANCH   1   2
ATOM      2  O   UNL     1       5.238  -1.831  -2.526  1.00  0.00    -0.458 OA
BRANCH   2   3
ATOM      3  C   UNL     1       4.946  -0.507  -2.630  1.00  0.00     0.365 C 
ATOM      4  O   UNL     1       5.245   0.178  -3.603  1.00  0.00    -0.245 OA
BRANCH   3   5
ATOM      5  C   UNL     1       4.156   0.054  -1.430  1.00  0.00     0.303 C 
BRANCH   5   6
ATOM      6  C   UNL     1       3.685  -1.038  -0.440  1.00  0.00     0.177 C 
BRANCH   6   7
ATOM      7  C   UNL     1       2.707  -0.496   0.599  1.00  0.00     0.231 C 
ATOM      8  O   UNL     1       1.535  -0.848   0.641  1.00  0.00    -0.274 OA
ATOM      9  N   UNL     1       3.297   0.473   1.388  1.00  0.00    -0.326 N 
ATOM     10  H   UNL     1       4.274   0.566   1.308  1.00  0.00     0.169 HD
BRANCH   9  11
ATOM     11  C   UNL     1       2.663   1.337   2.290  1.00  0.00     0.041 A 
ATOM     12  C   UNL     1       3.166   2.639   2.365  1.00  0.00     0.027 A 
ATOM     13  C   UNL     1       1.615   0.948   3.122  1.00  0.00     0.034 A 
ATOM     14  C   UNL     1       2.610   3.562   3.246  1.00  0.00     0.011 A 
ATOM     15  C   UNL     1       1.117   1.841   4.092  1.00  0.00    -0.016 A 
ATOM     16  C   UNL     1       1.607   3.169   4.136  1.00  0.00    -0.018 A 
ATOM     17  C   UNL     1       0.167   1.443   5.046  1.00  0.00     0.009 A 
ATOM     18  C   UNL     1       1.110   4.067   5.091  1.00  0.00     0.009 A 
ATOM     19  C   UNL     1      -0.286   2.336   6.022  1.00  0.00     0.001 A 
ATOM     20  C   UNL     1       0.176   3.649   6.037  1.00  0.00     0.001 A 
ENDBRANCH   9  11
ENDBRANCH   6   7
ENDBRANCH   5   6
BRANCH   5  21
ATOM     21  N   UNL     1       4.844   1.170  -0.704  1.00  0.00    -0.330 N 
ATOM     22  H   UNL     1       5.420   0.742   0.021  1.00  0.00     0.347 HD
ATOM     23  H   UNL     1       4.075   1.764  -0.393  1.00  0.00     0.347 HD
BRANCH  21  24
ATOM     24  C   UNL     1       5.710   2.091  -1.450  1.00  0.00     0.299 C 
BRANCH  24  25
ATOM     25  C   UNL     1       5.047   3.297  -2.072  1.00  0.00     0.024 A 
ATOM     26  C   UNL     1       3.709   3.376  -2.466  1.00  0.00     0.013 A 
ATOM     27  C   UNL     1       5.828   4.429  -2.313  1.00  0.00     0.120 A 
ATOM     28  C   UNL     1       3.218   4.540  -3.059  1.00  0.00     0.021 A 
ATOM     29  N   UNL     1       5.380   5.575  -2.877  1.00  0.00    -0.264 NA
ATOM     30  C   UNL     1       4.084   5.602  -3.244  1.00  0.00     0.111 A 
ENDBRANCH  24  25
ENDBRANCH  21  24
ENDBRANCH   5  21
ENDBRANCH   3   5
ENDBRANCH   2   3
ENDBRANCH   1   2
BRANCH   1  31
ATOM     31  C   UNL     1       5.006  -3.047  -4.681  1.00  0.00     0.275 C 
BRANCH  31  32
ATOM     32  O   UNL     1       4.212  -2.079  -5.397  1.00  0.00    -0.458 OA
BRANCH  32  33
ATOM     33  C   UNL     1       3.006  -1.810  -4.847  1.00  0.00     0.338 C 
ATOM     34  O   UNL     1       2.537  -2.308  -3.832  1.00  0.00    -0.246 OA
BRANCH  33  35
ATOM     35  C   UNL     1       2.379  -0.658  -5.516  1.00  0.00     0.060 A 
ATOM     36  C   UNL     1       2.140   0.469  -4.729  1.00  0.00     0.016 A 
ATOM     37  C   UNL     1       1.965  -0.680  -6.848  1.00  0.00     0.016 A 
ATOM     38  C   UNL     1       1.517   1.589  -5.257  1.00  0.00     0.010 A 
ATOM     39  C   UNL     1       1.324   0.448  -7.383  1.00  0.00     0.010 A 
ATOM     40  C   UNL     1       1.106   1.589  -6.591  1.00  0.00    -0.014 A 
BRANCH  40  41
ATOM     41  C   UNL     1       0.436   2.799  -7.116  1.00  0.00     0.031 A 
ATOM     42  C   UNL     1      -1.058   2.848  -7.220  1.00  0.00     0.074 A 
ATOM     43  C   UNL     1       1.171   3.889  -7.405  1.00  0.00     0.049 A 
ATOM     44  N   UNL     1      -1.818   3.801  -7.696  1.00  0.00    -0.248 NA
ATOM     45  C   UNL     1      -1.794   1.685  -6.702  1.00  0.00     0.031 C 
ATOM     46  C   UNL     1       2.620   4.004  -7.231  1.00  0.00     0.029 A 
ATOM     47  N   UNL     1       0.792   5.112  -7.896  1.00  0.00    -0.354 N 
ATOM     48  C   UNL     1      -3.122   3.349  -7.547  1.00  0.00     0.074 A 
ATOM     49  C   UNL     1      -3.050   2.036  -6.940  1.00  0.00     0.031 C 
ATOM     50  C   UNL     1       3.009   5.230  -7.617  1.00  0.00     0.029 A 
ATOM     51  C   UNL     1       1.848   5.963  -8.114  1.00  0.00     0.049 A 
ATOM     52  H   UNL     1      -0.144   5.357  -8.074  1.00  0.00     0.167 HD
ATOM     53  C   UNL     1      -4.274   3.973  -7.891  1.00  0.00     0.031 A 
ATOM     54  C   UNL     1       1.880   7.177  -8.693  1.00  0.00     0.031 A 
ATOM     55  C   UNL     1      -4.343   5.271  -8.507  1.00  0.00     0.049 A 
ATOM     56  C   UNL     1       0.603   7.780  -9.206  1.00  0.00     0.074 A 
ATOM     57  C   UNL     1      -5.463   5.978  -8.909  1.00  0.00     0.029 A 
ATOM     58  N   UNL     1      -3.243   6.054  -8.819  1.00  0.00    -0.354 N 
ATOM     59  N   UNL     1      -0.624   7.330  -9.098  1.00  0.00    -0.248 NA
ATOM     60  C   UNL     1       0.718   9.049  -9.939  1.00  0.00     0.031 C 
ATOM     61  C   UNL     1      -5.037   7.166  -9.514  1.00  0.00     0.029 A 
ATOM     62  C   UNL     1      -3.654   7.219  -9.444  1.00  0.00     0.049 A 
ATOM     63  H   UNL     1      -2.307   5.817  -8.624  1.00  0.00     0.167 HD
ATOM     64  C   UNL     1      -1.426   8.262  -9.742  1.00  0.00     0.074 A 
ATOM     65  C   UNL     1      -0.551   9.313 -10.219  1.00  0.00     0.031 C 
ATOM     66  C   UNL     1      -2.769   8.246  -9.927  1.00  0.00     0.031 A 
BRANCH  53  67
ATOM     67  C   UNL     1      -5.554   3.225  -7.662  1.00  0.00    -0.014 A 
ATOM     68  C   UNL     1      -6.109   3.102  -6.380  1.00  0.00     0.009 A 
ATOM     69  C   UNL     1      -6.228   2.660  -8.756  1.00  0.00     0.009 A 
ATOM     70  C   UNL     1      -7.305   2.403  -6.195  1.00  0.00     0.001 A 
ATOM     71  C   UNL     1      -7.432   1.980  -8.571  1.00  0.00     0.001 A 
ATOM     72  C   UNL     1      -7.966   1.845  -7.290  1.00  0.00     0.000 A 
ENDBRANCH  53  67
BRANCH  54  73
ATOM     73  C   UNL     1       3.178   7.870  -8.895  1.00  0.00    -0.014 A 
ATOM     74  C   UNL     1       3.486   9.039  -8.185  1.00  0.00     0.009 A 
ATOM     75  C   UNL     1       4.107   7.371  -9.822  1.00  0.00     0.009 A 
ATOM     76  C   UNL     1       4.694   9.703  -8.412  1.00  0.00     0.001 A 
ATOM     77  C   UNL     1       5.324   8.022 -10.027  1.00  0.00     0.001 A 
ATOM     78  C   UNL     1       5.613   9.192  -9.328  1.00  0.00     0.000 A 
ENDBRANCH  54  73
BRANCH  66  79
ATOM     79  C   UNL     1      -3.369   9.402 -10.672  1.00  0.00    -0.014 A 
ATOM     80  C   UNL     1      -3.236   9.508 -12.065  1.00  0.00     0.009 A 
ATOM     81  C   UNL     1      -4.105  10.376  -9.979  1.00  0.00     0.009 A 
ATOM     82  C   UNL     1      -3.810  10.583 -12.747  1.00  0.00     0.001 A 
ATOM     83  C   UNL     1      -4.697  11.436 -10.668  1.00  0.00     0.001 A 
ATOM     84  C   UNL     1      -4.542  11.543 -12.049  1.00  0.00     0.000 A 
ENDBRANCH  66  79
ENDBRANCH  40  41
ENDBRANCH  33  35
ENDBRANCH  32  33
ENDBRANCH  31  32
ENDBRANCH   1  31
TORSDOF 17
