REMARK SMILES Cc1ccc(C[C@H](C(=O)OCCOC(=O)c2ccc(-c3c4nc(c(-c5ccccc5)c5ccc([nH]5)c(-c5ccccc5)c5nc(c(-c6ccccc6)c6ccc3[nH]6)C=C5)C=C4)cc2)[C@@H]2CCCC[C@@H]2O)cc1
REMARK SMILES IDX 11 1 10 2 8 3 9 4 7 5 6 6 5 7 1 8 2 9 3 10 72 11 4 12 71 13
REMARK SMILES IDX 64 14 65 15 69 16 66 17 68 18 67 19 70 20 12 22 13 23 14 24
REMARK SMILES IDX 15 25 16 26 17 27 63 28 18 29 62 30 19 31 20 32 21 33 56 34
REMARK SMILES IDX 22 35 61 36 55 37 57 38 23 39 60 40 54 41 53 42 24 44 46 45
REMARK SMILES IDX 31 46 45 47 32 48 35 49 44 50 58 51 33 52 34 53 43 55 59 56
REMARK SMILES IDX 36 57 25 58 26 59 30 60 27 61 29 62 28 63 47 64 48 65 52 66
REMARK SMILES IDX 49 67 51 68 50 69 37 70 38 71 42 72 39 73 41 74 40 75
REMARK H PARENT 70 21 57 43 35 54
REMARK Flexibility Score: inf
ROOT
ATOM      1  C   UNL     1      -5.897  -2.398   3.349  1.00  0.00     0.274 C 
ENDROOT
BRANCH   1   2
ATOM      2  O   UNL     1      -6.532  -2.148   2.077  1.00  0.00    -0.462 OA
BRANCH   2   3
ATOM      3  C   UNL     1      -6.107  -0.993   1.472  1.00  0.00     0.309 C 
ATOM      4  O   UNL     1      -5.126  -0.354   1.825  1.00  0.00    -0.252 OA
BRANCH   3   5
ATOM      5  C   UNL     1      -7.071  -0.441   0.432  1.00  0.00     0.109 C 
BRANCH   5   6
ATOM      6  C   UNL     1      -7.548   0.957   0.987  1.00  0.00     0.051 C 
BRANCH   6   7
ATOM      7  C   UNL     1      -7.460   1.173   2.494  1.00  0.00    -0.047 A 
ATOM      8  C   UNL     1      -5.992   0.826   6.519  1.00  0.00     0.044 C 
ATOM      9  C   UNL     1      -6.623   1.077   5.180  1.00  0.00    -0.051 A 
ATOM     10  C   UNL     1      -7.681   0.276   4.732  1.00  0.00     0.004 A 
ATOM     11  C   UNL     1      -6.098   2.040   4.318  1.00  0.00     0.004 A 
ATOM     12  C   UNL     1      -8.103   0.324   3.397  1.00  0.00     0.004 A 
ATOM     13  C   UNL     1      -6.533   2.104   2.993  1.00  0.00     0.004 A 
ENDBRANCH   6   7
ENDBRANCH   5   6
BRANCH   5  14
ATOM     14  C   UNL     1      -6.361  -0.381  -0.986  1.00  0.00     0.032 C 
ATOM     15  C   UNL     1      -6.702   0.824  -1.889  1.00  0.00     0.007 C 
ATOM     16  C   UNL     1      -6.569  -1.634  -1.878  1.00  0.00     0.118 C 
ATOM     17  C   UNL     1      -8.132   0.772  -2.416  1.00  0.00     0.001 C 
ATOM     18  C   UNL     1      -7.998  -1.764  -2.398  1.00  0.00     0.032 C 
ATOM     19  C   UNL     1      -8.420  -0.522  -3.174  1.00  0.00     0.003 C 
BRANCH  16  20
ATOM     20  O   UNL     1      -6.156  -2.826  -1.252  1.00  0.00    -0.393 OA
ATOM     21  H   UNL     1      -6.715  -2.994  -0.478  1.00  0.00     0.210 HD
ENDBRANCH  16  20
ENDBRANCH   5  14
ENDBRANCH   3   5
ENDBRANCH   2   3
ENDBRANCH   1   2
BRANCH   1  22
ATOM     22  C   UNL     1      -5.584  -3.868   3.665  1.00  0.00     0.275 C 
BRANCH  22  23
ATOM     23  O   UNL     1      -5.035  -4.755   2.663  1.00  0.00    -0.458 OA
BRANCH  23  24
ATOM     24  C   UNL     1      -4.591  -4.369   1.439  1.00  0.00     0.338 C 
ATOM     25  O   UNL     1      -4.940  -4.921   0.426  1.00  0.00    -0.246 OA
BRANCH  24  26
ATOM     26  C   UNL     1      -3.621  -3.251   1.465  1.00  0.00     0.060 A 
ATOM     27  C   UNL     1      -3.531  -2.419   0.343  1.00  0.00     0.016 A 
ATOM     28  C   UNL     1      -2.928  -2.955   2.637  1.00  0.00     0.016 A 
ATOM     29  C   UNL     1      -2.843  -1.220   0.417  1.00  0.00     0.010 A 
ATOM     30  C   UNL     1      -2.364  -1.711   2.766  1.00  0.00     0.010 A 
ATOM     31  C   UNL     1      -2.297  -0.868   1.645  1.00  0.00    -0.014 A 
BRANCH  31  32
ATOM     32  C   UNL     1      -1.318   0.192   1.752  1.00  0.00     0.031 A 
ATOM     33  C   UNL     1      -1.715   1.606   1.785  1.00  0.00     0.074 A 
ATOM     34  C   UNL     1      -0.082  -0.349   1.821  1.00  0.00     0.049 A 
ATOM     35  N   UNL     1      -0.961   2.576   1.412  1.00  0.00    -0.248 NA
ATOM     36  C   UNL     1      -3.043   2.075   2.185  1.00  0.00     0.031 C 
ATOM     37  C   UNL     1       1.230   0.190   2.100  1.00  0.00     0.029 A 
ATOM     38  N   UNL     1       0.192  -1.656   1.368  1.00  0.00    -0.354 N 
ATOM     39  C   UNL     1      -1.525   3.734   1.913  1.00  0.00     0.074 A 
ATOM     40  C   UNL     1      -2.890   3.406   2.211  1.00  0.00     0.031 C 
ATOM     41  C   UNL     1       2.138  -0.609   1.494  1.00  0.00     0.029 A 
ATOM     42  C   UNL     1       1.399  -1.588   0.694  1.00  0.00     0.049 A 
ATOM     43  H   UNL     1      -0.364  -2.457   1.503  1.00  0.00     0.167 HD
ATOM     44  C   UNL     1      -0.694   4.756   2.254  1.00  0.00     0.031 A 
ATOM     45  C   UNL     1       1.341  -1.624  -0.672  1.00  0.00     0.031 A 
ATOM     46  C   UNL     1       0.672   4.408   1.881  1.00  0.00     0.049 A 
ATOM     47  C   UNL     1       1.823  -0.315  -1.246  1.00  0.00     0.074 A 
ATOM     48  C   UNL     1       1.704   3.819   2.593  1.00  0.00     0.029 A 
ATOM     49  N   UNL     1       0.946   4.195   0.538  1.00  0.00    -0.354 N 
ATOM     50  N   UNL     1       1.615   0.866  -0.724  1.00  0.00    -0.248 NA
ATOM     51  C   UNL     1       2.684  -0.282  -2.414  1.00  0.00     0.031 C 
ATOM     52  C   UNL     1       2.579   3.201   1.655  1.00  0.00     0.029 A 
ATOM     53  C   UNL     1       2.070   3.408   0.384  1.00  0.00     0.049 A 
ATOM     54  H   UNL     1       0.411   4.557  -0.206  1.00  0.00     0.167 HD
ATOM     55  C   UNL     1       2.406   1.788  -1.372  1.00  0.00     0.074 A 
ATOM     56  C   UNL     1       3.019   1.017  -2.444  1.00  0.00     0.031 C 
ATOM     57  C   UNL     1       2.539   3.089  -0.959  1.00  0.00     0.031 A 
BRANCH  44  58
ATOM     58  C   UNL     1      -1.046   5.861   3.216  1.00  0.00    -0.014 A 
ATOM     59  C   UNL     1      -0.045   6.343   4.085  1.00  0.00     0.009 A 
ATOM     60  C   UNL     1      -2.314   6.450   3.341  1.00  0.00     0.009 A 
ATOM     61  C   UNL     1      -0.298   7.321   5.054  1.00  0.00     0.001 A 
ATOM     62  C   UNL     1      -2.577   7.426   4.321  1.00  0.00     0.001 A 
ATOM     63  C   UNL     1      -1.570   7.858   5.179  1.00  0.00     0.000 A 
ENDBRANCH  44  58
BRANCH  45  64
ATOM     64  C   UNL     1       0.283  -2.506  -1.295  1.00  0.00    -0.014 A 
ATOM     65  C   UNL     1       0.108  -3.826  -0.809  1.00  0.00     0.009 A 
ATOM     66  C   UNL     1      -0.672  -2.034  -2.208  1.00  0.00     0.009 A 
ATOM     67  C   UNL     1      -1.016  -4.598  -1.138  1.00  0.00     0.001 A 
ATOM     68  C   UNL     1      -1.787  -2.821  -2.560  1.00  0.00     0.001 A 
ATOM     69  C   UNL     1      -1.971  -4.090  -2.008  1.00  0.00     0.000 A 
ENDBRANCH  45  64
BRANCH  57  70
ATOM     70  C   UNL     1       3.149   4.242  -1.740  1.00  0.00    -0.014 A 
ATOM     71  C   UNL     1       3.739   4.149  -3.000  1.00  0.00     0.009 A 
ATOM     72  C   UNL     1       3.052   5.555  -1.209  1.00  0.00     0.009 A 
ATOM     73  C   UNL     1       4.185   5.282  -3.693  1.00  0.00     0.001 A 
ATOM     74  C   UNL     1       3.446   6.693  -1.911  1.00  0.00     0.001 A 
ATOM     75  C   UNL     1       4.019   6.554  -3.160  1.00  0.00     0.000 A 
ENDBRANCH  57  70
ENDBRANCH  31  32
ENDBRANCH  24  26
ENDBRANCH  23  24
ENDBRANCH  22  23
ENDBRANCH   1  22
TORSDOF 15
