REMARK SMILES O=C(OCCOC(=O)[C@H]1[C@H]2CC[C@H](CC2)[C@@H]1C(=O)Nc1sc2c(c1C(=O)N1CCCCC1)CCCC2)c1ccc(-c2c3nc(c(-c4ccccc4)c4ccc([nH]4)c(-c4ccccc4)c4nc(c(-c5ccccc5)c5ccc2[nH]5)C=C4)C=C3)cc1
REMARK SMILES IDX 5 1 4 2 3 3 2 4 1 5 37 6 38 7 84 8 39 9 83 10 40 11 41 12
REMARK SMILES IDX 42 13 77 14 43 15 82 16 76 17 78 18 44 19 81 20 75 21 74 22
REMARK SMILES IDX 45 24 67 25 52 26 66 27 53 28 56 29 65 30 79 31 54 32 55 33
REMARK SMILES IDX 64 35 80 36 57 37 46 38 47 39 51 40 48 41 50 42 49 43 68 44
REMARK SMILES IDX 69 45 73 46 70 47 72 48 71 49 58 50 59 51 63 52 60 53 62 54
REMARK SMILES IDX 61 55 6 56 7 57 8 58 9 59 10 60 16 61 15 62 11 63 13 64
REMARK SMILES IDX 14 65 12 66 17 67 18 68 19 69 20 71 21 72 24 73 22 74 23 75
REMARK SMILES IDX 36 76 33 77 35 78 34 79 25 80 26 81 27 82 28 83 32 84 29 85
REMARK SMILES IDX 31 86 30 87
REMARK H PARENT 78 23 56 34 19 70
REMARK Flexibility Score: inf
ROOT
ATOM      1  C   UNL     1       4.083  -0.167   2.096  1.00  0.00     0.274 C 
ENDROOT
BRANCH   1   2
ATOM      2  C   UNL     1       4.231   1.015   1.136  1.00  0.00     0.275 C 
BRANCH   2   3
ATOM      3  O   UNL     1       3.185   1.102   0.150  1.00  0.00    -0.458 OA
BRANCH   3   4
ATOM      4  C   UNL     1       3.171   0.609  -1.115  1.00  0.00     0.338 C 
ATOM      5  O   UNL     1       2.385   1.089  -1.930  1.00  0.00    -0.246 OA
BRANCH   4   6
ATOM      6  C   UNL     1       3.925  -0.623  -1.513  1.00  0.00     0.060 A 
ATOM      7  C   UNL     1       5.197  -0.995  -1.064  1.00  0.00     0.016 A 
ATOM      8  C   UNL     1       3.263  -1.496  -2.394  1.00  0.00     0.016 A 
ATOM      9  C   UNL     1       5.745  -2.246  -1.382  1.00  0.00     0.010 A 
ATOM     10  C   UNL     1       3.803  -2.748  -2.709  1.00  0.00     0.010 A 
ATOM     11  C   UNL     1       5.047  -3.140  -2.192  1.00  0.00    -0.014 A 
BRANCH  11  12
ATOM     12  C   UNL     1       5.669  -4.406  -2.648  1.00  0.00     0.031 A 
ATOM     13  C   UNL     1       6.207  -4.455  -4.044  1.00  0.00     0.074 A 
ATOM     14  C   UNL     1       5.766  -5.496  -1.860  1.00  0.00     0.049 A 
ATOM     15  N   UNL     1       6.797  -5.447  -4.654  1.00  0.00    -0.248 NA
ATOM     16  C   UNL     1       6.139  -3.210  -4.829  1.00  0.00     0.031 C 
ATOM     17  C   UNL     1       5.461  -5.550  -0.437  1.00  0.00     0.029 A 
ATOM     18  N   UNL     1       6.095  -6.795  -2.161  1.00  0.00    -0.354 N 
ATOM     19  C   UNL     1       7.239  -4.924  -5.858  1.00  0.00     0.074 A 
ATOM     20  C   UNL     1       6.772  -3.559  -5.938  1.00  0.00     0.031 C 
ATOM     21  C   UNL     1       5.416  -6.830  -0.031  1.00  0.00     0.029 A 
ATOM     22  C   UNL     1       5.782  -7.681  -1.153  1.00  0.00     0.049 A 
ATOM     23  H   UNL     1       6.512  -7.066  -3.010  1.00  0.00     0.167 HD
ATOM     24  C   UNL     1       8.020  -5.520  -6.784  1.00  0.00     0.031 A 
ATOM     25  C   UNL     1       5.793  -9.027  -1.140  1.00  0.00     0.031 A 
ATOM     26  C   UNL     1       8.436  -6.892  -6.712  1.00  0.00     0.049 A 
ATOM     27  C   UNL     1       6.435  -9.728  -2.301  1.00  0.00     0.074 A 
ATOM     28  C   UNL     1       9.250  -7.593  -7.581  1.00  0.00     0.029 A 
ATOM     29  N   UNL     1       8.035  -7.780  -5.725  1.00  0.00    -0.354 N 
ATOM     30  N   UNL     1       6.956  -9.203  -3.384  1.00  0.00    -0.248 NA
ATOM     31  C   UNL     1       6.579 -11.186  -2.205  1.00  0.00     0.031 C 
ATOM     32  C   UNL     1       9.281  -8.926  -7.159  1.00  0.00     0.029 A 
ATOM     33  C   UNL     1       8.534  -9.041  -5.997  1.00  0.00     0.049 A 
ATOM     34  H   UNL     1       7.478  -7.547  -4.947  1.00  0.00     0.167 HD
ATOM     35  C   UNL     1       7.561 -10.251  -4.058  1.00  0.00     0.074 A 
ATOM     36  C   UNL     1       7.322 -11.446  -3.272  1.00  0.00     0.031 C 
ATOM     37  C   UNL     1       8.279 -10.218  -5.206  1.00  0.00     0.031 A 
BRANCH  24  38
ATOM     38  C   UNL     1       8.455  -4.680  -7.944  1.00  0.00    -0.014 A 
ATOM     39  C   UNL     1       9.424  -3.676  -7.782  1.00  0.00     0.009 A 
ATOM     40  C   UNL     1       7.897  -4.894  -9.211  1.00  0.00     0.009 A 
ATOM     41  C   UNL     1       9.808  -2.885  -8.865  1.00  0.00     0.001 A 
ATOM     42  C   UNL     1       8.299  -4.115 -10.297  1.00  0.00     0.001 A 
ATOM     43  C   UNL     1       9.248  -3.108 -10.122  1.00  0.00     0.000 A 
ENDBRANCH  24  38
BRANCH  25  44
ATOM     44  C   UNL     1       5.226  -9.793   0.002  1.00  0.00    -0.014 A 
ATOM     45  C   UNL     1       6.051 -10.485   0.900  1.00  0.00     0.009 A 
ATOM     46  C   UNL     1       3.832  -9.885   0.160  1.00  0.00     0.009 A 
ATOM     47  C   UNL     1       5.495 -11.287   1.902  1.00  0.00     0.001 A 
ATOM     48  C   UNL     1       3.279 -10.673   1.175  1.00  0.00     0.001 A 
ATOM     49  C   UNL     1       4.111 -11.383   2.037  1.00  0.00     0.000 A 
ENDBRANCH  25  44
BRANCH  37  50
ATOM     50  C   UNL     1       8.887 -11.510  -5.663  1.00  0.00    -0.014 A 
ATOM     51  C   UNL     1       8.095 -12.540  -6.187  1.00  0.00     0.009 A 
ATOM     52  C   UNL     1      10.280 -11.676  -5.606  1.00  0.00     0.009 A 
ATOM     53  C   UNL     1       8.684 -13.728  -6.619  1.00  0.00     0.001 A 
ATOM     54  C   UNL     1      10.869 -12.851  -6.070  1.00  0.00     0.001 A 
ATOM     55  C   UNL     1      10.070 -13.879  -6.568  1.00  0.00     0.000 A 
ENDBRANCH  37  50
ENDBRANCH  11  12
ENDBRANCH   4   6
ENDBRANCH   3   4
ENDBRANCH   2   3
ENDBRANCH   1   2
BRANCH   1  56
ATOM     56  O   UNL     1       3.616  -1.340   1.417  1.00  0.00    -0.462 OA
BRANCH  56  57
ATOM     57  C   UNL     1       2.311  -1.687   1.640  1.00  0.00     0.310 C 
ATOM     58  O   UNL     1       1.603  -1.200   2.498  1.00  0.00    -0.252 OA
BRANCH  57  59
ATOM     59  C   UNL     1       1.883  -2.749   0.629  1.00  0.00     0.115 C 
ATOM     60  C   UNL     1       2.621  -4.078   0.845  1.00  0.00     0.004 C 
ATOM     61  C   UNL     1       0.366  -2.994   0.609  1.00  0.00     0.096 C 
ATOM     62  C   UNL     1       2.275  -4.657   2.220  1.00  0.00     0.005 C 
ATOM     63  C   UNL     1       2.161  -5.094  -0.225  1.00  0.00     0.005 C 
ATOM     64  C   UNL     1       0.069  -4.471   0.998  1.00  0.00     0.002 C 
ATOM     65  C   UNL     1       0.750  -4.754   2.360  1.00  0.00     0.005 C 
ATOM     66  C   UNL     1       0.681  -5.434  -0.029  1.00  0.00     0.005 C 
BRANCH  61  67
ATOM     67  C   UNL     1      -0.210  -2.651  -0.786  1.00  0.00     0.229 C 
ATOM     68  O   UNL     1       0.367  -2.994  -1.823  1.00  0.00    -0.274 OA
ATOM     69  N   UNL     1      -1.458  -2.104  -0.895  1.00  0.00    -0.317 N 
ATOM     70  H   UNL     1      -1.897  -2.149  -1.775  1.00  0.00     0.170 HD
BRANCH  69  71
ATOM     71  C   UNL     1      -2.150  -1.496   0.122  1.00  0.00     0.108 A 
ATOM     72  S   UNL     1      -1.369  -0.235   0.951  1.00  0.00    -0.122 S 
ATOM     73  C   UNL     1      -3.465  -1.695   0.515  1.00  0.00     0.078 A 
ATOM     74  C   UNL     1      -2.506  -0.348   2.194  1.00  0.00     0.011 A 
ATOM     75  C   UNL     1      -3.651  -1.023   1.797  1.00  0.00    -0.019 A 
ATOM     76  C   UNL     1      -2.247   0.266   3.533  1.00  0.00     0.047 C 
ATOM     77  C   UNL     1      -4.827  -1.087   2.722  1.00  0.00     0.037 C 
ATOM     78  C   UNL     1      -3.283  -0.230   4.549  1.00  0.00     0.006 C 
ATOM     79  C   UNL     1      -4.688  -0.178   3.952  1.00  0.00     0.005 C 
BRANCH  73  80
ATOM     80  C   UNL     1      -4.314  -2.644  -0.237  1.00  0.00     0.257 C 
ATOM     81  O   UNL     1      -3.919  -3.178  -1.276  1.00  0.00    -0.269 OA
ATOM     82  N   UNL     1      -5.517  -3.038   0.333  1.00  0.00    -0.339 N 
ATOM     83  C   UNL     1      -5.826  -4.459   0.291  1.00  0.00     0.120 C 
ATOM     84  C   UNL     1      -6.686  -2.178   0.227  1.00  0.00     0.120 C 
ATOM     85  C   UNL     1      -6.705  -4.818   1.480  1.00  0.00     0.022 C 
ATOM     86  C   UNL     1      -7.690  -2.479   1.343  1.00  0.00     0.022 C 
ATOM     87  C   UNL     1      -7.981  -3.974   1.490  1.00  0.00     0.004 C 
ENDBRANCH  73  80
ENDBRANCH  69  71
ENDBRANCH  61  67
ENDBRANCH  57  59
ENDBRANCH  56  57
ENDBRANCH   1  56
TORSDOF 14
