REMARK SMILES Cc1ccc(C(=O)OCCOC(=O)c2ccc(-c3c4nc(c(-c5ccccc5)c5ccc([nH]5)c(-c5ccccc5)c5nc(c(-c6ccccc6)c6ccc3[nH]6)C=C5)C=C4)cc2)cc1NC(=O)c1ccc(Br)o1
REMARK SMILES IDX 9 1 8 2 6 3 7 4 5 5 1 6 2 7 3 8 63 9 4 10 62 11 64 12 65 13
REMARK SMILES IDX 66 15 67 16 68 17 72 18 69 19 70 20 71 21 10 22 11 23 12 24
REMARK SMILES IDX 13 25 14 26 15 27 61 28 16 29 60 30 17 31 18 32 19 33 54 34
REMARK SMILES IDX 20 35 59 36 53 37 55 38 21 39 58 40 52 41 51 42 22 44 44 45
REMARK SMILES IDX 29 46 43 47 30 48 33 49 42 50 56 51 31 52 32 53 41 55 57 56
REMARK SMILES IDX 34 57 23 58 24 59 28 60 25 61 27 62 26 63 45 64 46 65 50 66
REMARK SMILES IDX 47 67 49 68 48 69 35 70 36 71 40 72 37 73 39 74 38 75
REMARK H PARENT 64 14 55 43 33 54
REMARK Flexibility Score: inf
ROOT
ATOM      1  C   UNL     1      -4.594   1.565  -2.289  1.00  0.00     0.275 C 
ENDROOT
BRANCH   1   2
ATOM      2  O   UNL     1      -3.293   0.975  -2.431  1.00  0.00    -0.458 OA
BRANCH   2   3
ATOM      3  C   UNL     1      -2.563   1.069  -1.298  1.00  0.00     0.338 C 
ATOM      4  O   UNL     1      -2.936   1.530  -0.227  1.00  0.00    -0.246 OA
BRANCH   3   5
ATOM      5  C   UNL     1      -1.141   0.773  -1.466  1.00  0.00     0.062 A 
ATOM      6  C   UNL     1       2.882   0.520   0.003  1.00  0.00     0.046 C 
ATOM      7  C   UNL     1       1.496   0.684  -0.559  1.00  0.00    -0.027 A 
ATOM      8  C   UNL     1       0.751  -0.504  -0.756  1.00  0.00     0.006 A 
ATOM      9  C   UNL     1       0.887   1.925  -0.834  1.00  0.00     0.045 A 
ATOM     10  C   UNL     1      -0.586  -0.459  -1.154  1.00  0.00     0.016 A 
ATOM     11  C   UNL     1      -0.371   1.928  -1.421  1.00  0.00     0.042 A 
BRANCH   9  12
ATOM     12  N   UNL     1       1.495   3.150  -0.488  1.00  0.00    -0.319 N 
ATOM     13  C   UNL     1       0.941   4.416  -0.310  1.00  0.00     0.291 C 
ATOM     14  H   UNL     1       2.469   3.102  -0.350  1.00  0.00     0.170 HD
ATOM     15  O   UNL     1       1.720   5.369  -0.237  1.00  0.00    -0.265 OA
BRANCH  13  16
ATOM     16  C   UNL     1      -0.490   4.577  -0.126  1.00  0.00     0.193 A 
ATOM     17  C   UNL     1      -1.363   4.078   0.823  1.00  0.00     0.057 A 
ATOM     18  O   UNL     1      -1.199   5.303  -1.052  1.00  0.00    -0.444 OA
ATOM     19  C   UNL     1      -2.665   4.500   0.446  1.00  0.00     0.059 A 
ATOM     20  C   UNL     1      -2.514   5.220  -0.713  1.00  0.00     0.170 A 
ATOM     21  Br  UNL     1      -3.925   5.924  -1.711  1.00  0.00    -0.008 Br
ENDBRANCH  13  16
ENDBRANCH   9  12
ENDBRANCH   3   5
ENDBRANCH   2   3
ENDBRANCH   1   2
BRANCH   1  22
ATOM     22  C   UNL     1      -5.712   0.743  -2.936  1.00  0.00     0.275 C 
BRANCH  22  23
ATOM     23  O   UNL     1      -5.632  -0.712  -2.938  1.00  0.00    -0.458 OA
BRANCH  23  24
ATOM     24  C   UNL     1      -4.957  -1.517  -2.090  1.00  0.00     0.338 C 
ATOM     25  O   UNL     1      -4.432  -2.566  -2.462  1.00  0.00    -0.246 OA
BRANCH  24  26
ATOM     26  C   UNL     1      -4.876  -1.112  -0.682  1.00  0.00     0.060 A 
ATOM     27  C   UNL     1      -3.763  -1.517   0.076  1.00  0.00     0.016 A 
ATOM     28  C   UNL     1      -5.854  -0.280  -0.146  1.00  0.00     0.016 A 
ATOM     29  C   UNL     1      -3.581  -1.027   1.358  1.00  0.00     0.010 A 
ATOM     30  C   UNL     1      -5.613   0.321   1.059  1.00  0.00     0.010 A 
ATOM     31  C   UNL     1      -4.523  -0.120   1.828  1.00  0.00    -0.014 A 
BRANCH  31  32
ATOM     32  C   UNL     1      -4.731   0.112   3.243  1.00  0.00     0.031 A 
ATOM     33  C   UNL     1      -4.055   1.222   3.913  1.00  0.00     0.074 A 
ATOM     34  C   UNL     1      -5.762  -0.656   3.660  1.00  0.00     0.049 A 
ATOM     35  N   UNL     1      -3.838   1.320   5.174  1.00  0.00    -0.248 NA
ATOM     36  C   UNL     1      -3.476   2.338   3.168  1.00  0.00     0.031 C 
ATOM     37  C   UNL     1      -6.668  -0.589   4.784  1.00  0.00     0.029 A 
ATOM     38  N   UNL     1      -6.106  -1.868   3.044  1.00  0.00    -0.354 N 
ATOM     39  C   UNL     1      -3.567   2.657   5.406  1.00  0.00     0.074 A 
ATOM     40  C   UNL     1      -3.129   3.186   4.143  1.00  0.00     0.031 C 
ATOM     41  C   UNL     1      -7.208  -1.815   4.963  1.00  0.00     0.029 A 
ATOM     42  C   UNL     1      -6.555  -2.733   4.027  1.00  0.00     0.049 A 
ATOM     43  H   UNL     1      -6.040  -2.068   2.083  1.00  0.00     0.167 HD
ATOM     44  C   UNL     1      -4.041   3.226   6.551  1.00  0.00     0.031 A 
ATOM     45  C   UNL     1      -5.691  -3.740   4.365  1.00  0.00     0.031 A 
ATOM     46  C   UNL     1      -4.750   2.212   7.333  1.00  0.00     0.049 A 
ATOM     47  C   UNL     1      -5.108  -3.452   5.731  1.00  0.00     0.074 A 
ATOM     48  C   UNL     1      -6.099   1.906   7.412  1.00  0.00     0.029 A 
ATOM     49  N   UNL     1      -4.060   1.090   7.774  1.00  0.00    -0.354 N 
ATOM     50  N   UNL     1      -4.802  -2.260   6.176  1.00  0.00    -0.248 NA
ATOM     51  C   UNL     1      -4.960  -4.495   6.738  1.00  0.00     0.031 C 
ATOM     52  C   UNL     1      -6.207   0.542   7.799  1.00  0.00     0.029 A 
ATOM     53  C   UNL     1      -4.928   0.024   7.930  1.00  0.00     0.049 A 
ATOM     54  H   UNL     1      -3.092   1.058   7.951  1.00  0.00     0.167 HD
ATOM     55  C   UNL     1      -4.569  -2.342   7.524  1.00  0.00     0.074 A 
ATOM     56  C   UNL     1      -4.626  -3.767   7.816  1.00  0.00     0.031 C 
ATOM     57  C   UNL     1      -4.417  -1.268   8.353  1.00  0.00     0.031 A 
BRANCH  44  58
ATOM     58  C   UNL     1      -4.221   4.711   6.779  1.00  0.00    -0.014 A 
ATOM     59  C   UNL     1      -5.197   5.142   7.701  1.00  0.00     0.009 A 
ATOM     60  C   UNL     1      -3.506   5.728   6.124  1.00  0.00     0.009 A 
ATOM     61  C   UNL     1      -5.492   6.495   7.909  1.00  0.00     0.001 A 
ATOM     62  C   UNL     1      -3.806   7.089   6.318  1.00  0.00     0.001 A 
ATOM     63  C   UNL     1      -4.805   7.471   7.205  1.00  0.00     0.000 A 
ENDBRANCH  44  58
BRANCH  45  64
ATOM     64  C   UNL     1      -4.941  -4.342   3.199  1.00  0.00    -0.014 A 
ATOM     65  C   UNL     1      -5.684  -4.792   2.078  1.00  0.00     0.009 A 
ATOM     66  C   UNL     1      -3.549  -4.259   3.051  1.00  0.00     0.009 A 
ATOM     67  C   UNL     1      -5.079  -5.045   0.840  1.00  0.00     0.001 A 
ATOM     68  C   UNL     1      -2.938  -4.545   1.813  1.00  0.00     0.001 A 
ATOM     69  C   UNL     1      -3.704  -4.911   0.704  1.00  0.00     0.000 A 
ENDBRANCH  45  64
BRANCH  57  70
ATOM     70  C   UNL     1      -3.816  -1.344   9.729  1.00  0.00    -0.014 A 
ATOM     71  C   UNL     1      -2.930  -2.353  10.120  1.00  0.00     0.009 A 
ATOM     72  C   UNL     1      -3.985  -0.255  10.614  1.00  0.00     0.009 A 
ATOM     73  C   UNL     1      -2.288  -2.306  11.359  1.00  0.00     0.001 A 
ATOM     74  C   UNL     1      -3.293  -0.171  11.818  1.00  0.00     0.001 A 
ATOM     75  C   UNL     1      -2.457  -1.209  12.199  1.00  0.00     0.000 A 
ENDBRANCH  57  70
ENDBRANCH  31  32
ENDBRANCH  24  26
ENDBRANCH  23  24
ENDBRANCH  22  23
ENDBRANCH   1  22
TORSDOF 13
