REMARK SMILES O=C(Cc1ccc(=O)n(C(F)F)c1)OCCOC(=O)c1ccc(-c2c3nc(c(-c4ccccc4)c4ccc([nH]4)c(-c4ccccc4)c4nc(c(-c5ccccc5)c5ccc2[nH]5)C=C4)C=C3)cc1
REMARK SMILES IDX 15 1 14 2 2 3 1 4 3 5 4 6 5 7 13 8 6 9 9 10 7 11 8 12 10 13
REMARK SMILES IDX 11 14 12 15 16 16 17 17 18 18 19 19 20 20 21 21 67 22 22 23
REMARK SMILES IDX 66 24 23 25 24 26 25 27 60 28 26 29 65 30 59 31 61 32 27 33
REMARK SMILES IDX 64 34 58 35 57 36 28 38 50 39 35 40 49 41 36 42 39 43 48 44
REMARK SMILES IDX 62 45 37 46 38 47 47 49 63 50 40 51 29 52 30 53 34 54 31 55
REMARK SMILES IDX 33 56 32 57 51 58 52 59 56 60 53 61 55 62 54 63 41 64 42 65
REMARK SMILES IDX 46 66 43 67 45 68 44 69
REMARK H PARENT 61 37 39 48
REMARK Flexibility Score: inf
ROOT
ATOM      1  C   UNL     1       4.317  -0.890  -0.702  1.00  0.00     0.274 C 
ENDROOT
BRANCH   1   2
ATOM      2  O   UNL     1       2.977  -1.115  -0.205  1.00  0.00    -0.462 OA
BRANCH   2   3
ATOM      3  C   UNL     1       2.295  -0.332   0.663  1.00  0.00     0.310 C 
ATOM      4  O   UNL     1       1.236  -0.725   1.150  1.00  0.00    -0.252 OA
BRANCH   3   5
ATOM      5  C   UNL     1       2.869   1.018   1.048  1.00  0.00     0.159 C 
BRANCH   5   6
ATOM      6  C   UNL     1       3.941   1.035   2.101  1.00  0.00    -0.020 A 
ATOM      7  C   UNL     1       4.480   2.343   2.426  1.00  0.00     0.011 A 
ATOM      8  C   UNL     1       4.473  -0.047   2.694  1.00  0.00     0.099 A 
ATOM      9  C   UNL     1       5.520   2.472   3.258  1.00  0.00     0.072 A 
ATOM     10  N   UNL     1       5.559   0.057   3.544  1.00  0.00    -0.258 N 
ATOM     11  C   UNL     1       6.154   1.269   3.860  1.00  0.00     0.254 A 
ATOM     12  O   UNL     1       7.143   1.421   4.569  1.00  0.00    -0.269 OA
BRANCH  10  13
ATOM     13  C   UNL     1       6.191  -1.131   4.058  1.00  0.00     0.451 C 
ATOM     14  F   UNL     1       7.435  -1.269   3.535  1.00  0.00    -0.185 F 
ATOM     15  F   UNL     1       6.301  -1.094   5.406  1.00  0.00    -0.185 F 
ENDBRANCH  10  13
ENDBRANCH   5   6
ENDBRANCH   3   5
ENDBRANCH   2   3
ENDBRANCH   1   2
BRANCH   1  16
ATOM     16  C   UNL     1       4.303  -0.477  -2.172  1.00  0.00     0.275 C 
BRANCH  16  17
ATOM     17  O   UNL     1       3.969   0.918  -2.265  1.00  0.00    -0.458 OA
BRANCH  17  18
ATOM     18  C   UNL     1       2.667   1.207  -2.501  1.00  0.00     0.338 C 
ATOM     19  O   UNL     1       1.782   0.418  -2.778  1.00  0.00    -0.246 OA
BRANCH  18  20
ATOM     20  C   UNL     1       2.431   2.622  -2.130  1.00  0.00     0.060 A 
ATOM     21  C   UNL     1       3.434   3.591  -2.246  1.00  0.00     0.016 A 
ATOM     22  C   UNL     1       1.192   2.958  -1.568  1.00  0.00     0.016 A 
ATOM     23  C   UNL     1       3.192   4.894  -1.812  1.00  0.00     0.010 A 
ATOM     24  C   UNL     1       0.948   4.263  -1.139  1.00  0.00     0.010 A 
ATOM     25  C   UNL     1       1.942   5.242  -1.271  1.00  0.00    -0.014 A 
BRANCH  25  26
ATOM     26  C   UNL     1       1.627   6.668  -1.024  1.00  0.00     0.031 A 
ATOM     27  C   UNL     1       1.670   7.272   0.344  1.00  0.00     0.074 A 
ATOM     28  C   UNL     1       1.303   7.424  -2.089  1.00  0.00     0.049 A 
ATOM     29  N   UNL     1       1.542   8.530   0.681  1.00  0.00    -0.248 NA
ATOM     30  C   UNL     1       1.884   6.360   1.476  1.00  0.00     0.031 C 
ATOM     31  C   UNL     1       1.213   6.934  -3.466  1.00  0.00     0.029 A 
ATOM     32  N   UNL     1       1.003   8.758  -2.186  1.00  0.00    -0.354 N 
ATOM     33  C   UNL     1       1.683   8.570   2.061  1.00  0.00     0.074 A 
ATOM     34  C   UNL     1       1.867   7.202   2.503  1.00  0.00     0.031 C 
ATOM     35  C   UNL     1       0.909   7.959  -4.274  1.00  0.00     0.029 A 
ATOM     36  C   UNL     1       0.759   9.169  -3.472  1.00  0.00     0.049 A 
ATOM     37  H   UNL     1       0.967   9.361  -1.409  1.00  0.00     0.167 HD
ATOM     38  C   UNL     1       1.671   9.653   2.874  1.00  0.00     0.031 A 
ATOM     39  C   UNL     1       0.456  10.386  -3.961  1.00  0.00     0.031 A 
ATOM     40  C   UNL     1       1.448  11.005   2.427  1.00  0.00     0.049 A 
ATOM     41  C   UNL     1       0.389  11.557  -3.028  1.00  0.00     0.074 A 
ATOM     42  C   UNL     1       1.470  12.169   3.177  1.00  0.00     0.029 A 
ATOM     43  N   UNL     1       1.140  11.374   1.127  1.00  0.00    -0.354 N 
ATOM     44  N   UNL     1       0.617  11.594  -1.738  1.00  0.00    -0.248 NA
ATOM     45  C   UNL     1       0.039  12.857  -3.617  1.00  0.00     0.031 C 
ATOM     46  C   UNL     1       1.105  13.232   2.347  1.00  0.00     0.029 A 
ATOM     47  C   UNL     1       0.926  12.742   1.063  1.00  0.00     0.049 A 
ATOM     48  H   UNL     1       1.082  10.757   0.363  1.00  0.00     0.167 HD
ATOM     49  C   UNL     1       0.456  12.920  -1.363  1.00  0.00     0.074 A 
ATOM     50  C   UNL     1       0.126  13.659  -2.564  1.00  0.00     0.031 C 
ATOM     51  C   UNL     1       0.577  13.471  -0.131  1.00  0.00     0.031 A 
BRANCH  38  52
ATOM     52  C   UNL     1       1.909   9.440   4.343  1.00  0.00    -0.014 A 
ATOM     53  C   UNL     1       0.875   9.676   5.263  1.00  0.00     0.009 A 
ATOM     54  C   UNL     1       3.191   9.133   4.827  1.00  0.00     0.009 A 
ATOM     55  C   UNL     1       1.122   9.624   6.637  1.00  0.00     0.001 A 
ATOM     56  C   UNL     1       3.429   9.059   6.201  1.00  0.00     0.001 A 
ATOM     57  C   UNL     1       2.398   9.314   7.104  1.00  0.00     0.000 A 
ENDBRANCH  38  52
BRANCH  39  58
ATOM     58  C   UNL     1       0.239  10.539  -5.421  1.00  0.00    -0.014 A 
ATOM     59  C   UNL     1      -0.897   9.987  -6.034  1.00  0.00     0.009 A 
ATOM     60  C   UNL     1       1.206  11.167  -6.219  1.00  0.00     0.009 A 
ATOM     61  C   UNL     1      -1.048  10.037  -7.421  1.00  0.00     0.001 A 
ATOM     62  C   UNL     1       1.039  11.240  -7.603  1.00  0.00     0.001 A 
ATOM     63  C   UNL     1      -0.081  10.666  -8.204  1.00  0.00     0.000 A 
ENDBRANCH  39  58
BRANCH  51  64
ATOM     64  C   UNL     1       0.350  14.951  -0.001  1.00  0.00    -0.014 A 
ATOM     65  C   UNL     1       1.426  15.800   0.303  1.00  0.00     0.009 A 
ATOM     66  C   UNL     1      -0.941  15.495  -0.089  1.00  0.00     0.009 A 
ATOM     67  C   UNL     1       1.214  17.161   0.531  1.00  0.00     0.001 A 
ATOM     68  C   UNL     1      -1.146  16.862   0.111  1.00  0.00     0.001 A 
ATOM     69  C   UNL     1      -0.071  17.691   0.431  1.00  0.00     0.000 A 
ENDBRANCH  51  64
ENDBRANCH  25  26
ENDBRANCH  18  20
ENDBRANCH  17  18
ENDBRANCH  16  17
ENDBRANCH   1  16
TORSDOF 13
