REMARK SMILES Nc1nnc(S[C@H](F)C(=O)OCCOC(=O)c2ccc(-c3c4nc(c(-c5ccccc5)c5ccc([nH]5)c(-c5ccccc5)c5nc(c(-c6ccccc6)c6ccc3[nH]6)C=C5)C=C4)cc2)s1
REMARK SMILES IDX 12 1 11 2 9 3 10 4 7 5 8 6 6 7 5 8 2 9 3 10 65 11 4 12 1 13
REMARK SMILES IDX 13 16 14 17 15 18 16 19 17 20 18 21 64 22 19 23 63 24 20 25
REMARK SMILES IDX 21 26 22 27 57 28 23 29 62 30 56 31 58 32 24 33 61 34 55 35
REMARK SMILES IDX 54 36 25 38 47 39 32 40 46 41 33 42 36 43 45 44 59 45 34 46
REMARK SMILES IDX 35 47 44 49 60 50 37 51 26 52 27 53 31 54 28 55 30 56 29 57
REMARK SMILES IDX 48 58 49 59 53 60 50 61 52 62 51 63 38 64 39 65 43 66 40 67
REMARK SMILES IDX 42 68 41 69
REMARK H PARENT 1 14 1 15 58 37 36 48
REMARK Flexibility Score: inf
ROOT
ATOM      1  C   UNL     1       2.889   2.719   2.704  1.00  0.00     0.274 C 
ENDROOT
BRANCH   1   2
ATOM      2  O   UNL     1       2.793   2.055   1.431  1.00  0.00    -0.459 OA
BRANCH   2   3
ATOM      3  C   UNL     1       3.954   1.932   0.728  1.00  0.00     0.351 C 
ATOM      4  O   UNL     1       5.061   2.286   1.129  1.00  0.00    -0.248 OA
BRANCH   3   5
ATOM      5  C   UNL     1       3.738   1.286  -0.624  1.00  0.00     0.340 C 
ATOM      6  F   UNL     1       2.786   0.304  -0.580  1.00  0.00    -0.222 F 
BRANCH   5   7
ATOM      7  S   UNL     1       3.308   2.400  -1.982  1.00  0.00    -0.044 SA
BRANCH   7   8
ATOM      8  C   UNL     1       3.864   3.980  -1.511  1.00  0.00     0.179 A 
ATOM      9  C   UNL     1       4.496   6.267  -1.346  1.00  0.00     0.203 A 
ATOM     10  N   UNL     1       4.244   5.731  -0.174  1.00  0.00    -0.120 NA
ATOM     11  S   UNL     1       4.329   5.170  -2.657  1.00  0.00    -0.069 S 
ATOM     12  N   UNL     1       3.839   4.418  -0.275  1.00  0.00    -0.130 NA
BRANCH   9  13
ATOM     13  N   UNL     1       4.837   7.549  -1.532  1.00  0.00    -0.374 N 
ATOM     14  H   UNL     1       4.924   8.152  -0.759  1.00  0.00     0.159 HD
ATOM     15  H   UNL     1       5.000   7.888  -2.442  1.00  0.00     0.159 HD
ENDBRANCH   9  13
ENDBRANCH   7   8
ENDBRANCH   5   7
ENDBRANCH   3   5
ENDBRANCH   2   3
ENDBRANCH   1   2
BRANCH   1  16
ATOM     16  C   UNL     1       3.072   1.732   3.863  1.00  0.00     0.275 C 
BRANCH  16  17
ATOM     17  O   UNL     1       4.415   1.215   3.930  1.00  0.00    -0.458 OA
BRANCH  17  18
ATOM     18  C   UNL     1       4.641   0.102   3.194  1.00  0.00     0.338 C 
ATOM     19  O   UNL     1       3.824  -0.531   2.547  1.00  0.00    -0.246 OA
BRANCH  18  20
ATOM     20  C   UNL     1       6.088  -0.175   3.131  1.00  0.00     0.060 A 
ATOM     21  C   UNL     1       6.645  -0.409   1.868  1.00  0.00     0.016 A 
ATOM     22  C   UNL     1       6.878  -0.252   4.279  1.00  0.00     0.016 A 
ATOM     23  C   UNL     1       7.995  -0.722   1.746  1.00  0.00     0.010 A 
ATOM     24  C   UNL     1       8.232  -0.577   4.157  1.00  0.00     0.010 A 
ATOM     25  C   UNL     1       8.793  -0.825   2.890  1.00  0.00    -0.014 A 
BRANCH  25  26
ATOM     26  C   UNL     1      10.197  -1.271   2.757  1.00  0.00     0.031 A 
ATOM     27  C   UNL     1      10.557  -2.688   3.091  1.00  0.00     0.074 A 
ATOM     28  C   UNL     1      11.137  -0.417   2.314  1.00  0.00     0.049 A 
ATOM     29  N   UNL     1      11.729  -3.270   3.076  1.00  0.00    -0.248 NA
ATOM     30  C   UNL     1       9.450  -3.567   3.498  1.00  0.00     0.031 C 
ATOM     31  C   UNL     1      10.899   0.971   1.919  1.00  0.00     0.029 A 
ATOM     32  N   UNL     1      12.484  -0.596   2.127  1.00  0.00    -0.354 N 
ATOM     33  C   UNL     1      11.504  -4.577   3.486  1.00  0.00     0.074 A 
ATOM     34  C   UNL     1      10.088  -4.698   3.763  1.00  0.00     0.031 C 
ATOM     35  C   UNL     1      12.065   1.522   1.544  1.00  0.00     0.029 A 
ATOM     36  C   UNL     1      13.133   0.539   1.709  1.00  0.00     0.049 A 
ATOM     37  H   UNL     1      12.941  -1.455   2.279  1.00  0.00     0.167 HD
ATOM     38  C   UNL     1      12.398  -5.585   3.622  1.00  0.00     0.031 A 
ATOM     39  C   UNL     1      14.444   0.767   1.509  1.00  0.00     0.031 A 
ATOM     40  C   UNL     1      13.807  -5.458   3.358  1.00  0.00     0.049 A 
ATOM     41  C   UNL     1      15.427  -0.350   1.726  1.00  0.00     0.074 A 
ATOM     42  C   UNL     1      14.792  -6.426   3.446  1.00  0.00     0.029 A 
ATOM     43  N   UNL     1      14.432  -4.284   2.964  1.00  0.00    -0.354 N 
ATOM     44  N   UNL     1      15.201  -1.590   2.090  1.00  0.00    -0.248 NA
ATOM     45  C   UNL     1      16.845  -0.039   1.498  1.00  0.00     0.031 C 
ATOM     46  C   UNL     1      16.022  -5.822   3.160  1.00  0.00     0.029 A 
ATOM     47  C   UNL     1      15.794  -4.494   2.836  1.00  0.00     0.049 A 
ATOM     48  H   UNL     1      13.974  -3.428   2.800  1.00  0.00     0.167 HD
ATOM     49  C   UNL     1      16.443  -2.211   2.117  1.00  0.00     0.074 A 
ATOM     50  C   UNL     1      17.416  -1.216   1.715  1.00  0.00     0.031 C 
ATOM     51  C   UNL     1      16.750  -3.490   2.444  1.00  0.00     0.031 A 
BRANCH  38  52
ATOM     52  C   UNL     1      11.877  -6.901   4.129  1.00  0.00    -0.014 A 
ATOM     53  C   UNL     1      11.064  -7.725   3.334  1.00  0.00     0.009 A 
ATOM     54  C   UNL     1      12.215  -7.326   5.423  1.00  0.00     0.009 A 
ATOM     55  C   UNL     1      10.568  -8.928   3.842  1.00  0.00     0.001 A 
ATOM     56  C   UNL     1      11.741  -8.542   5.917  1.00  0.00     0.001 A 
ATOM     57  C   UNL     1      10.909  -9.337   5.131  1.00  0.00     0.000 A 
ENDBRANCH  38  52
BRANCH  39  58
ATOM     58  C   UNL     1      14.904   2.123   1.113  1.00  0.00    -0.014 A 
ATOM     59  C   UNL     1      15.407   2.367  -0.174  1.00  0.00     0.009 A 
ATOM     60  C   UNL     1      14.834   3.187   2.027  1.00  0.00     0.009 A 
ATOM     61  C   UNL     1      15.845   3.645  -0.530  1.00  0.00     0.001 A 
ATOM     62  C   UNL     1      15.247   4.469   1.659  1.00  0.00     0.001 A 
ATOM     63  C   UNL     1      15.759   4.695   0.383  1.00  0.00     0.000 A 
ENDBRANCH  39  58
BRANCH  51  64
ATOM     64  C   UNL     1      18.196  -3.893   2.355  1.00  0.00    -0.014 A 
ATOM     65  C   UNL     1      19.136  -3.449   3.298  1.00  0.00     0.009 A 
ATOM     66  C   UNL     1      18.613  -4.764   1.336  1.00  0.00     0.009 A 
ATOM     67  C   UNL     1      20.471  -3.846   3.203  1.00  0.00     0.001 A 
ATOM     68  C   UNL     1      19.942  -5.181   1.260  1.00  0.00     0.001 A 
ATOM     69  C   UNL     1      20.872  -4.714   2.188  1.00  0.00     0.000 A 
ENDBRANCH  51  64
ENDBRANCH  25  26
ENDBRANCH  18  20
ENDBRANCH  17  18
ENDBRANCH  16  17
ENDBRANCH   1  16
TORSDOF 14
