REMARK SMILES CC(C)C[C@@H](NS(=O)(=O)/C=C/c1ccc(Cl)cc1)C(=O)OCCOC(=O)c1ccc(-c2c3nc(c(-c4ccccc4)c4ccc([nH]4)c(-c4ccccc4)c4nc(c(-c5ccccc5)c5ccc2[nH]5)C=C4)C=C3)cc1
REMARK SMILES IDX 22 1 21 2 19 3 20 4 5 5 4 6 2 7 1 8 3 9 6 10 7 12 8 13 9 14
REMARK SMILES IDX 10 15 11 16 12 17 13 18 18 19 14 20 17 21 15 22 16 23 23 24
REMARK SMILES IDX 24 25 25 26 26 27 27 28 28 29 74 30 29 31 73 32 30 33 31 34
REMARK SMILES IDX 32 35 67 36 33 37 72 38 66 39 68 40 34 41 71 42 65 43 64 44
REMARK SMILES IDX 35 46 57 47 42 48 56 49 43 50 46 51 55 52 69 53 44 54 45 55
REMARK SMILES IDX 54 57 70 58 47 59 36 60 37 61 41 62 38 63 40 64 39 65 58 66
REMARK SMILES IDX 59 67 63 68 60 69 62 70 61 71 48 72 49 73 53 74 50 75 52 76
REMARK SMILES IDX 51 77
REMARK H PARENT 6 11 68 45 46 56
REMARK Flexibility Score: inf
ROOT
ATOM      1  C   UNL     1      -4.832   0.235  -2.100  1.00  0.00     0.274 C 
ENDROOT
BRANCH   1   2
ATOM      2  O   UNL     1      -3.413   0.464  -2.095  1.00  0.00    -0.461 OA
BRANCH   2   3
ATOM      3  C   UNL     1      -2.912   1.089  -0.997  1.00  0.00     0.324 C 
ATOM      4  O   UNL     1      -3.568   1.385  -0.006  1.00  0.00    -0.250 OA
BRANCH   3   5
ATOM      5  C   UNL     1      -1.442   1.456  -1.111  1.00  0.00     0.180 C 
BRANCH   5   6
ATOM      6  C   UNL     1      -0.681   0.414  -1.948  1.00  0.00     0.035 C 
BRANCH   6   7
ATOM      7  C   UNL     1       0.829   0.249  -1.664  1.00  0.00    -0.015 C 
ATOM      8  C   UNL     1       1.166   0.047  -0.184  1.00  0.00     0.007 C 
ATOM      9  C   UNL     1       1.346  -0.966  -2.449  1.00  0.00     0.007 C 
ENDBRANCH   6   7
ENDBRANCH   5   6
BRANCH   5  10
ATOM     10  N   UNL     1      -1.318   2.845  -1.648  1.00  0.00    -0.197 NA
ATOM     11  H   UNL     1      -1.957   2.931  -2.438  1.00  0.00     0.142 HD
BRANCH  10  12
ATOM     12  S   UNL     1      -1.671   4.115  -0.545  1.00  0.00     0.234 S 
ATOM     13  O   UNL     1      -0.936   3.789   0.655  1.00  0.00    -0.208 OA
ATOM     14  O   UNL     1      -1.341   5.321  -1.283  1.00  0.00    -0.208 OA
BRANCH  12  15
ATOM     15  C   UNL     1      -3.362   4.141  -0.168  1.00  0.00     0.123 C 
ATOM     16  C   UNL     1      -4.287   4.134  -1.139  1.00  0.00     0.021 C 
BRANCH  16  17
ATOM     17  C   UNL     1      -5.735   4.008  -0.895  1.00  0.00    -0.025 A 
ATOM     18  C   UNL     1      -6.615   4.861  -1.569  1.00  0.00     0.009 A 
ATOM     19  C   UNL     1      -6.277   2.969  -0.121  1.00  0.00     0.009 A 
ATOM     20  C   UNL     1      -7.998   4.652  -1.509  1.00  0.00     0.021 A 
ATOM     21  C   UNL     1      -7.655   2.730  -0.092  1.00  0.00     0.021 A 
ATOM     22  C   UNL     1      -8.510   3.571  -0.795  1.00  0.00     0.041 A 
ATOM     23  Cl  UNL     1     -10.201   3.256  -0.802  1.00  0.00    -0.084 Cl
ENDBRANCH  16  17
ENDBRANCH  12  15
ENDBRANCH  10  12
ENDBRANCH   5  10
ENDBRANCH   3   5
ENDBRANCH   2   3
ENDBRANCH   1   2
BRANCH   1  24
ATOM     24  C   UNL     1      -5.306  -0.991  -1.301  1.00  0.00     0.275 C 
BRANCH  24  25
ATOM     25  O   UNL     1      -5.029  -0.929   0.113  1.00  0.00    -0.458 OA
BRANCH  25  26
ATOM     26  C   UNL     1      -3.820  -1.428   0.471  1.00  0.00     0.338 C 
ATOM     27  O   UNL     1      -2.995  -1.935  -0.275  1.00  0.00    -0.246 OA
BRANCH  26  28
ATOM     28  C   UNL     1      -3.501  -1.121   1.878  1.00  0.00     0.060 A 
ATOM     29  C   UNL     1      -2.310  -0.426   2.128  1.00  0.00     0.016 A 
ATOM     30  C   UNL     1      -4.263  -1.604   2.939  1.00  0.00     0.016 A 
ATOM     31  C   UNL     1      -1.860  -0.224   3.425  1.00  0.00     0.010 A 
ATOM     32  C   UNL     1      -3.798  -1.424   4.249  1.00  0.00     0.010 A 
ATOM     33  C   UNL     1      -2.580  -0.758   4.494  1.00  0.00    -0.014 A 
BRANCH  33  34
ATOM     34  C   UNL     1      -1.966  -0.750   5.842  1.00  0.00     0.031 A 
ATOM     35  C   UNL     1      -1.357  -2.018   6.371  1.00  0.00     0.074 A 
ATOM     36  C   UNL     1      -1.885   0.388   6.553  1.00  0.00     0.049 A 
ATOM     37  N   UNL     1      -0.836  -2.261   7.546  1.00  0.00    -0.248 NA
ATOM     38  C   UNL     1      -1.326  -3.165   5.449  1.00  0.00     0.031 C 
ATOM     39  C   UNL     1      -2.344   1.703   6.105  1.00  0.00     0.029 A 
ATOM     40  N   UNL     1      -1.379   0.617   7.808  1.00  0.00    -0.354 N 
ATOM     41  C   UNL     1      -0.443  -3.593   7.515  1.00  0.00     0.074 A 
ATOM     42  C   UNL     1      -0.798  -4.111   6.211  1.00  0.00     0.031 C 
ATOM     43  C   UNL     1      -2.104   2.601   7.075  1.00  0.00     0.029 A 
ATOM     44  C   UNL     1      -1.525   1.916   8.227  1.00  0.00     0.049 A 
ATOM     45  H   UNL     1      -0.952  -0.082   8.354  1.00  0.00     0.167 HD
ATOM     46  C   UNL     1       0.158  -4.320   8.487  1.00  0.00     0.031 A 
ATOM     47  C   UNL     1      -1.255   2.479   9.420  1.00  0.00     0.031 A 
ATOM     48  C   UNL     1       0.508  -3.799   9.781  1.00  0.00     0.049 A 
ATOM     49  C   UNL     1      -0.681   1.626  10.520  1.00  0.00     0.074 A 
ATOM     50  C   UNL     1       1.112  -4.454  10.840  1.00  0.00     0.029 A 
ATOM     51  N   UNL     1       0.285  -2.493  10.191  1.00  0.00    -0.354 N 
ATOM     52  N   UNL     1      -0.340   0.360  10.493  1.00  0.00    -0.248 NA
ATOM     53  C   UNL     1      -0.457   2.282  11.816  1.00  0.00     0.031 C 
ATOM     54  C   UNL     1       1.202  -3.559  11.912  1.00  0.00     0.029 A 
ATOM     55  C   UNL     1       0.714  -2.329  11.497  1.00  0.00     0.049 A 
ATOM     56  H   UNL     1      -0.118  -1.788   9.636  1.00  0.00     0.167 HD
ATOM     57  C   UNL     1       0.165   0.075  11.755  1.00  0.00     0.074 A 
ATOM     58  C   UNL     1       0.099   1.305  12.518  1.00  0.00     0.031 C 
ATOM     59  C   UNL     1       0.641  -1.098  12.240  1.00  0.00     0.031 A 
BRANCH  46  60
ATOM     60  C   UNL     1       0.421  -5.772   8.202  1.00  0.00    -0.014 A 
ATOM     61  C   UNL     1       1.412  -6.178   7.295  1.00  0.00     0.009 A 
ATOM     62  C   UNL     1      -0.327  -6.753   8.873  1.00  0.00     0.009 A 
ATOM     63  C   UNL     1       1.624  -7.535   7.040  1.00  0.00     0.001 A 
ATOM     64  C   UNL     1      -0.092  -8.109   8.639  1.00  0.00     0.001 A 
ATOM     65  C   UNL     1       0.876  -8.499   7.715  1.00  0.00     0.000 A 
ENDBRANCH  46  60
BRANCH  47  66
ATOM     66  C   UNL     1      -1.566   3.914   9.657  1.00  0.00    -0.014 A 
ATOM     67  C   UNL     1      -0.541   4.849   9.861  1.00  0.00     0.009 A 
ATOM     68  C   UNL     1      -2.900   4.352   9.700  1.00  0.00     0.009 A 
ATOM     69  C   UNL     1      -0.845   6.186  10.127  1.00  0.00     0.001 A 
ATOM     70  C   UNL     1      -3.201   5.694   9.935  1.00  0.00     0.001 A 
ATOM     71  C   UNL     1      -2.174   6.609  10.159  1.00  0.00     0.000 A 
ENDBRANCH  47  66
BRANCH  59  72
ATOM     72  C   UNL     1       1.169  -1.095  13.648  1.00  0.00    -0.014 A 
ATOM     73  C   UNL     1       0.308  -0.997  14.752  1.00  0.00     0.009 A 
ATOM     74  C   UNL     1       2.548  -1.232  13.870  1.00  0.00     0.009 A 
ATOM     75  C   UNL     1       0.824  -1.000  16.050  1.00  0.00     0.001 A 
ATOM     76  C   UNL     1       3.057  -1.266  15.169  1.00  0.00     0.001 A 
ATOM     77  C   UNL     1       2.196  -1.139  16.257  1.00  0.00     0.000 A 
ENDBRANCH  59  72
ENDBRANCH  33  34
ENDBRANCH  26  28
ENDBRANCH  25  26
ENDBRANCH  24  25
ENDBRANCH   1  24
TORSDOF 17
