REMARK SMILES C[C@@H]1C(=O)NC(=O)CN1C(=O)NC1(CC(=O)OCCOC(=O)c2ccc(-c3c4nc(c(-c5ccccc5)c5ccc([nH]5)c(-c5ccccc5)c5nc(c(-c6ccccc6)c6ccc3[nH]6)C=C5)C=C4)cc2)CCC1
REMARK SMILES IDX 18 1 17 2 15 3 16 4 14 5 13 6 71 7 73 8 72 9 12 10 10 11
REMARK SMILES IDX 11 12 9 14 1 15 2 16 3 17 4 18 5 19 8 20 6 21 7 23 19 24
REMARK SMILES IDX 20 25 21 26 22 27 23 28 24 29 70 30 25 31 69 32 26 33 27 34
REMARK SMILES IDX 28 35 63 36 29 37 68 38 62 39 64 40 30 41 67 42 61 43 60 44
REMARK SMILES IDX 31 46 53 47 38 48 52 49 39 50 42 51 51 52 65 53 40 54 41 55
REMARK SMILES IDX 50 57 66 58 43 59 32 60 33 61 37 62 34 63 36 64 35 65 54 66
REMARK SMILES IDX 55 67 59 68 56 69 58 70 57 71 44 72 45 73 49 74 46 75 48 76
REMARK SMILES IDX 47 77
REMARK H PARENT 12 13 5 22 64 45 42 56
REMARK Flexibility Score: inf
ROOT
ATOM      1  C   UNL     1      -3.491  -2.623  -5.708  1.00  0.00     0.274 C 
ENDROOT
BRANCH   1   2
ATOM      2  O   UNL     1      -2.732  -1.844  -4.759  1.00  0.00    -0.462 OA
BRANCH   2   3
ATOM      3  C   UNL     1      -2.947  -2.083  -3.443  1.00  0.00     0.308 C 
ATOM      4  O   UNL     1      -3.735  -2.917  -3.012  1.00  0.00    -0.252 OA
BRANCH   3   5
ATOM      5  C   UNL     1      -2.199  -1.139  -2.531  1.00  0.00     0.151 C 
BRANCH   5   6
ATOM      6  C   UNL     1      -0.746  -0.765  -2.859  1.00  0.00     0.052 C 
ATOM      7  C   UNL     1      -0.220   0.550  -2.190  1.00  0.00     0.029 C 
ATOM      8  C   UNL     1      -0.507   0.021  -4.215  1.00  0.00     0.029 C 
ATOM      9  C   UNL     1      -0.679   1.326  -3.433  1.00  0.00     0.005 C 
BRANCH   6  10
ATOM     10  N   UNL     1       0.164  -1.931  -2.795  1.00  0.00    -0.332 N 
ATOM     11  C   UNL     1       0.911  -2.644  -1.931  1.00  0.00     0.318 C 
ATOM     12  O   UNL     1       1.609  -3.516  -2.465  1.00  0.00    -0.249 OA
ATOM     13  H   UNL     1       0.253  -2.320  -3.695  1.00  0.00     0.165 HD
BRANCH  11  14
ATOM     14  N   UNL     1       0.916  -2.510  -0.576  1.00  0.00    -0.304 N 
ATOM     15  C   UNL     1       1.338  -0.413   0.674  1.00  0.00     0.042 C 
ATOM     16  C   UNL     1       0.307  -1.470   0.254  1.00  0.00     0.174 C 
ATOM     17  C   UNL     1      -0.347  -2.052   1.516  1.00  0.00     0.249 C 
ATOM     18  O   UNL     1      -1.193  -1.431   2.158  1.00  0.00    -0.272 OA
ATOM     19  N   UNL     1       0.192  -3.205   2.022  1.00  0.00    -0.293 N 
ATOM     20  C   UNL     1       1.782  -3.454   0.154  1.00  0.00     0.222 C 
ATOM     21  C   UNL     1       1.252  -3.900   1.510  1.00  0.00     0.246 C 
ATOM     22  H   UNL     1      -0.226  -3.569   2.836  1.00  0.00     0.173 HD
ATOM     23  O   UNL     1       1.796  -4.782   2.171  1.00  0.00    -0.273 OA
ENDBRANCH  11  14
ENDBRANCH   6  10
ENDBRANCH   5   6
ENDBRANCH   3   5
ENDBRANCH   2   3
ENDBRANCH   1   2
BRANCH   1  24
ATOM     24  C   UNL     1      -2.654  -3.743  -6.331  1.00  0.00     0.275 C 
BRANCH  24  25
ATOM     25  O   UNL     1      -2.364  -4.777  -5.373  1.00  0.00    -0.458 OA
BRANCH  25  26
ATOM     26  C   UNL     1      -1.216  -4.593  -4.682  1.00  0.00     0.338 C 
ATOM     27  O   UNL     1      -0.406  -3.695  -4.836  1.00  0.00    -0.246 OA
BRANCH  26  28
ATOM     28  C   UNL     1      -1.151  -5.568  -3.582  1.00  0.00     0.060 A 
ATOM     29  C   UNL     1      -1.307  -5.099  -2.276  1.00  0.00     0.016 A 
ATOM     30  C   UNL     1      -0.862  -6.911  -3.821  1.00  0.00     0.016 A 
ATOM     31  C   UNL     1      -1.121  -5.955  -1.197  1.00  0.00     0.010 A 
ATOM     32  C   UNL     1      -0.706  -7.781  -2.735  1.00  0.00     0.010 A 
ATOM     33  C   UNL     1      -0.811  -7.302  -1.417  1.00  0.00    -0.014 A 
BRANCH  33  34
ATOM     34  C   UNL     1      -0.573  -8.187  -0.251  1.00  0.00     0.031 A 
ATOM     35  C   UNL     1       0.814  -8.665   0.069  1.00  0.00     0.074 A 
ATOM     36  C   UNL     1      -1.602  -8.523   0.549  1.00  0.00     0.049 A 
ATOM     37  N   UNL     1       1.210  -9.462   1.029  1.00  0.00    -0.248 NA
ATOM     38  C   UNL     1       1.896  -8.192  -0.809  1.00  0.00     0.031 C 
ATOM     39  C   UNL     1      -2.991  -8.097   0.365  1.00  0.00     0.029 A 
ATOM     40  N   UNL     1      -1.633  -9.290   1.685  1.00  0.00    -0.354 N 
ATOM     41  C   UNL     1       2.581  -9.603   0.861  1.00  0.00     0.074 A 
ATOM     42  C   UNL     1       2.945  -8.829  -0.307  1.00  0.00     0.031 C 
ATOM     43  C   UNL     1      -3.735  -8.592   1.368  1.00  0.00     0.029 A 
ATOM     44  C   UNL     1      -2.885  -9.399   2.238  1.00  0.00     0.049 A 
ATOM     45  H   UNL     1      -0.835  -9.721   2.067  1.00  0.00     0.167 HD
ATOM     46  C   UNL     1       3.458 -10.311   1.613  1.00  0.00     0.031 A 
ATOM     47  C   UNL     1      -3.304 -10.080   3.320  1.00  0.00     0.031 A 
ATOM     48  C   UNL     1       3.105 -11.065   2.787  1.00  0.00     0.049 A 
ATOM     49  C   UNL     1      -2.314 -10.870   4.126  1.00  0.00     0.074 A 
ATOM     50  C   UNL     1       3.928 -11.808   3.616  1.00  0.00     0.029 A 
ATOM     51  N   UNL     1       1.824 -11.161   3.305  1.00  0.00    -0.354 N 
ATOM     52  N   UNL     1      -1.024 -11.006   3.945  1.00  0.00    -0.248 NA
ATOM     53  C   UNL     1      -2.841 -11.595   5.291  1.00  0.00     0.031 C 
ATOM     54  C   UNL     1       3.138 -12.382   4.619  1.00  0.00     0.029 A 
ATOM     55  C   UNL     1       1.831 -11.960   4.437  1.00  0.00     0.049 A 
ATOM     56  H   UNL     1       1.027 -10.726   2.926  1.00  0.00     0.167 HD
ATOM     57  C   UNL     1      -0.580 -11.814   4.983  1.00  0.00     0.074 A 
ATOM     58  C   UNL     1      -1.737 -12.124   5.798  1.00  0.00     0.031 C 
ATOM     59  C   UNL     1       0.673 -12.260   5.237  1.00  0.00     0.031 A 
BRANCH  46  60
ATOM     60  C   UNL     1       4.893 -10.325   1.166  1.00  0.00    -0.014 A 
ATOM     61  C   UNL     1       5.722  -9.207   1.342  1.00  0.00     0.009 A 
ATOM     62  C   UNL     1       5.428 -11.487   0.590  1.00  0.00     0.009 A 
ATOM     63  C   UNL     1       7.054  -9.245   0.923  1.00  0.00     0.001 A 
ATOM     64  C   UNL     1       6.766 -11.530   0.194  1.00  0.00     0.001 A 
ATOM     65  C   UNL     1       7.575 -10.406   0.353  1.00  0.00     0.000 A 
ENDBRANCH  46  60
BRANCH  47  66
ATOM     66  C   UNL     1      -4.738 -10.048   3.703  1.00  0.00    -0.014 A 
ATOM     67  C   UNL     1      -5.157  -9.330   4.832  1.00  0.00     0.009 A 
ATOM     68  C   UNL     1      -5.692 -10.737   2.939  1.00  0.00     0.009 A 
ATOM     69  C   UNL     1      -6.504  -9.321   5.202  1.00  0.00     0.001 A 
ATOM     70  C   UNL     1      -7.040 -10.706   3.296  1.00  0.00     0.001 A 
ATOM     71  C   UNL     1      -7.444 -10.005   4.431  1.00  0.00     0.000 A 
ENDBRANCH  47  66
BRANCH  59  72
ATOM     72  C   UNL     1       0.858 -13.103   6.465  1.00  0.00    -0.014 A 
ATOM     73  C   UNL     1       0.422 -14.437   6.504  1.00  0.00     0.009 A 
ATOM     74  C   UNL     1       1.488 -12.558   7.594  1.00  0.00     0.009 A 
ATOM     75  C   UNL     1       0.581 -15.196   7.665  1.00  0.00     0.001 A 
ATOM     76  C   UNL     1       1.665 -13.326   8.745  1.00  0.00     0.001 A 
ATOM     77  C   UNL     1       1.203 -14.641   8.783  1.00  0.00     0.000 A 
ENDBRANCH  59  72
ENDBRANCH  33  34
ENDBRANCH  26  28
ENDBRANCH  25  26
ENDBRANCH  24  25
ENDBRANCH   1  24
TORSDOF 14
