REMARK SMILES CC(C)CN(C)c1cc2c(cc1Cl)C=C(C(=O)OCCOC(=O)c1ccc(-c3c4nc(c(-c5ccccc5)c5ccc([nH]5)c(-c5ccccc5)c5nc(c(-c6ccccc6)c6ccc3[nH]6)C=C5)C=C4)cc1)[C@@H](C(F)(F)F)O2
REMARK SMILES IDX 19 1 18 2 16 3 17 4 15 5 7 6 8 7 12 8 9 9 11 10 13 11 10 12
REMARK SMILES IDX 77 13 14 14 72 15 5 16 6 17 4 18 2 19 1 20 3 21 73 22 74 23
REMARK SMILES IDX 75 24 76 25 20 26 21 27 22 28 23 29 24 30 25 31 71 32 26 33
REMARK SMILES IDX 70 34 27 35 28 36 29 37 64 38 30 39 69 40 63 41 65 42 31 43
REMARK SMILES IDX 68 44 62 45 61 46 32 48 54 49 39 50 53 51 40 52 43 53 52 54
REMARK SMILES IDX 66 55 41 56 42 57 51 59 67 60 44 61 33 62 34 63 38 64 35 65
REMARK SMILES IDX 37 66 36 67 55 68 56 69 60 70 57 71 59 72 58 73 45 74 46 75
REMARK SMILES IDX 50 76 47 77 49 78 48 79
REMARK H PARENT 65 47 43 58
REMARK Flexibility Score: inf
ROOT
ATOM      1  C   UNL     1      -2.181   8.961   2.701  1.00  0.00     0.275 C 
ENDROOT
BRANCH   1   2
ATOM      2  O   UNL     1      -2.409   7.648   2.140  1.00  0.00    -0.459 OA
BRANCH   2   3
ATOM      3  C   UNL     1      -1.544   7.290   1.163  1.00  0.00     0.338 C 
ATOM      4  O   UNL     1      -0.616   7.967   0.743  1.00  0.00    -0.246 OA
BRANCH   3   5
ATOM      5  C   UNL     1      -1.803   5.920   0.680  1.00  0.00     0.087 C 
ATOM      6  C   UNL     1      -1.258   1.318  -1.315  1.00  0.00     0.059 A 
ATOM      7  C   UNL     1      -2.347   2.021  -0.750  1.00  0.00     0.074 A 
ATOM      8  C   UNL     1      -0.028   1.997  -1.430  1.00  0.00     0.065 A 
ATOM      9  C   UNL     1      -2.194   3.327  -0.273  1.00  0.00     0.130 A 
ATOM     10  C   UNL     1       0.146   3.259  -0.873  1.00  0.00     0.034 A 
ATOM     11  Cl  UNL     1       1.322   1.351  -2.300  1.00  0.00    -0.082 Cl
ATOM     12  C   UNL     1      -0.934   3.914  -0.289  1.00  0.00     0.019 A 
ATOM     13  O   UNL     1      -3.295   3.971   0.234  1.00  0.00    -0.475 OA
ATOM     14  C   UNL     1      -0.731   5.217   0.302  1.00  0.00     0.027 C 
ATOM     15  C   UNL     1      -3.198   5.422   0.427  1.00  0.00     0.316 C 
BRANCH   6  16
ATOM     16  N   UNL     1      -1.395  -0.011  -1.731  1.00  0.00    -0.373 N 
ATOM     17  C   UNL     1      -2.362  -0.255  -2.793  1.00  0.00     0.143 C 
BRANCH  16  18
ATOM     18  C   UNL     1      -1.202  -1.067  -0.718  1.00  0.00     0.119 C 
BRANCH  18  19
ATOM     19  C   UNL     1       0.287  -1.412  -0.492  1.00  0.00     0.002 C 
ATOM     20  C   UNL     1       0.878  -0.661   0.706  1.00  0.00     0.009 C 
ATOM     21  C   UNL     1       0.487  -2.914  -0.275  1.00  0.00     0.009 C 
ENDBRANCH  18  19
ENDBRANCH  16  18
ENDBRANCH   6  16
BRANCH  15  22
ATOM     22  C   UNL     1      -3.792   6.170  -0.781  1.00  0.00     0.430 C 
ATOM     23  F   UNL     1      -5.045   5.750  -1.067  1.00  0.00    -0.167 F 
ATOM     24  F   UNL     1      -3.872   7.502  -0.537  1.00  0.00    -0.167 F 
ATOM     25  F   UNL     1      -3.045   6.014  -1.899  1.00  0.00    -0.167 F 
ENDBRANCH  15  22
ENDBRANCH   3   5
ENDBRANCH   2   3
ENDBRANCH   1   2
BRANCH   1  26
ATOM     26  C   UNL     1      -1.435   8.895   4.036  1.00  0.00     0.275 C 
BRANCH  26  27
ATOM     27  O   UNL     1      -0.097   8.392   3.858  1.00  0.00    -0.458 OA
BRANCH  27  28
ATOM     28  C   UNL     1       0.130   7.155   4.357  1.00  0.00     0.338 C 
ATOM     29  O   UNL     1      -0.657   6.431   4.939  1.00  0.00    -0.246 OA
BRANCH  28  30
ATOM     30  C   UNL     1       1.500   6.730   4.027  1.00  0.00     0.060 A 
ATOM     31  C   UNL     1       2.473   6.587   5.009  1.00  0.00     0.016 A 
ATOM     32  C   UNL     1       1.758   6.309   2.729  1.00  0.00     0.016 A 
ATOM     33  C   UNL     1       3.713   6.032   4.664  1.00  0.00     0.010 A 
ATOM     34  C   UNL     1       2.939   5.640   2.417  1.00  0.00     0.010 A 
ATOM     35  C   UNL     1       3.951   5.515   3.373  1.00  0.00    -0.014 A 
BRANCH  35  36
ATOM     36  C   UNL     1       5.240   4.840   3.029  1.00  0.00     0.031 A 
ATOM     37  C   UNL     1       6.088   5.311   1.869  1.00  0.00     0.074 A 
ATOM     38  C   UNL     1       5.646   3.771   3.746  1.00  0.00     0.049 A 
ATOM     39  N   UNL     1       7.251   4.858   1.462  1.00  0.00    -0.248 NA
ATOM     40  C   UNL     1       5.556   6.399   1.032  1.00  0.00     0.031 C 
ATOM     41  C   UNL     1       4.884   3.136   4.824  1.00  0.00     0.029 A 
ATOM     42  N   UNL     1       6.809   3.039   3.692  1.00  0.00    -0.354 N 
ATOM     43  C   UNL     1       7.568   5.588   0.322  1.00  0.00     0.074 A 
ATOM     44  C   UNL     1       6.451   6.463   0.056  1.00  0.00     0.031 C 
ATOM     45  C   UNL     1       5.629   2.169   5.381  1.00  0.00     0.029 A 
ATOM     46  C   UNL     1       6.905   2.083   4.677  1.00  0.00     0.049 A 
ATOM     47  H   UNL     1       7.507   3.185   3.013  1.00  0.00     0.167 HD
ATOM     48  C   UNL     1       8.703   5.569  -0.416  1.00  0.00     0.031 A 
ATOM     49  C   UNL     1       7.910   1.246   5.000  1.00  0.00     0.031 A 
ATOM     50  C   UNL     1       9.842   4.741  -0.127  1.00  0.00     0.049 A 
ATOM     51  C   UNL     1       9.193   1.295   4.218  1.00  0.00     0.074 A 
ATOM     52  C   UNL     1      11.065   4.707  -0.775  1.00  0.00     0.029 A 
ATOM     53  N   UNL     1       9.906   3.818   0.903  1.00  0.00    -0.354 N 
ATOM     54  N   UNL     1       9.502   2.053   3.195  1.00  0.00    -0.248 NA
ATOM     55  C   UNL     1      10.271   0.390   4.643  1.00  0.00     0.031 C 
ATOM     56  C   UNL     1      11.857   3.737  -0.158  1.00  0.00     0.029 A 
ATOM     57  C   UNL     1      11.147   3.208   0.907  1.00  0.00     0.049 A 
ATOM     58  H   UNL     1       9.178   3.626   1.538  1.00  0.00     0.167 HD
ATOM     59  C   UNL     1      10.811   1.727   2.863  1.00  0.00     0.074 A 
ATOM     60  C   UNL     1      11.247   0.721   3.808  1.00  0.00     0.031 C 
ATOM     61  C   UNL     1      11.575   2.215   1.857  1.00  0.00     0.031 A 
BRANCH  48  62
ATOM     62  C   UNL     1       8.804   6.511  -1.586  1.00  0.00    -0.014 A 
ATOM     63  C   UNL     1       8.876   6.008  -2.895  1.00  0.00     0.009 A 
ATOM     64  C   UNL     1       8.930   7.895  -1.385  1.00  0.00     0.009 A 
ATOM     65  C   UNL     1       9.079   6.869  -3.975  1.00  0.00     0.001 A 
ATOM     66  C   UNL     1       9.102   8.757  -2.470  1.00  0.00     0.001 A 
ATOM     67  C   UNL     1       9.186   8.243  -3.762  1.00  0.00     0.000 A 
ENDBRANCH  48  62
BRANCH  49  68
ATOM     68  C   UNL     1       7.757   0.335   6.167  1.00  0.00    -0.014 A 
ATOM     69  C   UNL     1       6.871  -0.752   6.118  1.00  0.00     0.009 A 
ATOM     70  C   UNL     1       8.460   0.582   7.357  1.00  0.00     0.009 A 
ATOM     71  C   UNL     1       6.676  -1.561   7.240  1.00  0.00     0.001 A 
ATOM     72  C   UNL     1       8.286  -0.246   8.468  1.00  0.00     0.001 A 
ATOM     73  C   UNL     1       7.387  -1.310   8.413  1.00  0.00     0.000 A 
ENDBRANCH  49  68
BRANCH  61  74
ATOM     74  C   UNL     1      12.975   1.691   1.714  1.00  0.00    -0.014 A 
ATOM     75  C   UNL     1      14.066   2.534   1.985  1.00  0.00     0.009 A 
ATOM     76  C   UNL     1      13.215   0.411   1.193  1.00  0.00     0.009 A 
ATOM     77  C   UNL     1      15.369   2.112   1.719  1.00  0.00     0.001 A 
ATOM     78  C   UNL     1      14.522  -0.017   0.953  1.00  0.00     0.001 A 
ATOM     79  C   UNL     1      15.596   0.837   1.205  1.00  0.00     0.000 A 
ENDBRANCH  61  74
ENDBRANCH  35  36
ENDBRANCH  28  30
ENDBRANCH  27  28
ENDBRANCH  26  27
ENDBRANCH   1  26
TORSDOF 15
