REMARK SMILES O=C(OCCOC(=O)[C@@H]1CC=CC[C@H]1C(=O)N1CC[NH+](Cc2ccc3c(c2)OCO3)CC1)c1ccc(-c2c3nc(c(-c4ccccc4)c4ccc([nH]4)c(-c4ccccc4)c4nc(c(-c5ccccc5)c5ccc2[nH]5)C=C4)C=C3)cc1
REMARK SMILES IDX 5 1 4 2 3 3 2 4 1 5 33 6 34 7 80 8 35 9 79 10 36 11 37 12
REMARK SMILES IDX 38 13 73 14 39 15 78 16 72 17 74 18 40 19 77 20 71 21 70 22
REMARK SMILES IDX 41 24 63 25 48 26 62 27 49 28 52 29 61 30 75 31 50 32 51 33
REMARK SMILES IDX 60 35 76 36 53 37 42 38 43 39 47 40 44 41 46 42 45 43 64 44
REMARK SMILES IDX 65 45 69 46 66 47 68 48 67 49 54 50 55 51 59 52 56 53 58 54
REMARK SMILES IDX 57 55 6 56 7 57 8 58 9 59 10 60 14 61 11 62 13 63 12 64
REMARK SMILES IDX 15 65 16 66 17 67 18 68 32 69 19 70 31 71 20 72 21 74 22 75
REMARK SMILES IDX 23 76 27 77 24 78 26 79 25 80 28 81 30 82 29 83
REMARK H PARENT 74 23 52 34 20 73
REMARK Flexibility Score: inf
ROOT
ATOM      1  C   UNL     1       4.015  -5.536   0.827  1.00  0.00     0.274 C 
ENDROOT
BRANCH   1   2
ATOM      2  C   UNL     1       3.922  -6.876   0.101  1.00  0.00     0.275 C 
BRANCH   2   3
ATOM      3  O   UNL     1       4.245  -6.832  -1.300  1.00  0.00    -0.458 OA
BRANCH   3   4
ATOM      4  C   UNL     1       3.467  -6.398  -2.320  1.00  0.00     0.338 C 
ATOM      5  O   UNL     1       3.921  -6.345  -3.465  1.00  0.00    -0.246 OA
BRANCH   4   6
ATOM      6  C   UNL     1       2.085  -5.905  -2.086  1.00  0.00     0.060 A 
ATOM      7  C   UNL     1       1.153  -6.535  -1.256  1.00  0.00     0.016 A 
ATOM      8  C   UNL     1       1.696  -4.752  -2.776  1.00  0.00     0.016 A 
ATOM      9  C   UNL     1      -0.091  -5.946  -0.998  1.00  0.00     0.010 A 
ATOM     10  C   UNL     1       0.460  -4.154  -2.515  1.00  0.00     0.010 A 
ATOM     11  C   UNL     1      -0.442  -4.741  -1.611  1.00  0.00    -0.014 A 
BRANCH  11  12
ATOM     12  C   UNL     1      -1.797  -4.160  -1.446  1.00  0.00     0.031 A 
ATOM     13  C   UNL     1      -2.750  -4.269  -2.601  1.00  0.00     0.074 A 
ATOM     14  C   UNL     1      -2.179  -3.521  -0.321  1.00  0.00     0.049 A 
ATOM     15  N   UNL     1      -3.993  -3.875  -2.674  1.00  0.00    -0.248 NA
ATOM     16  C   UNL     1      -2.259  -4.950  -3.813  1.00  0.00     0.031 C 
ATOM     17  C   UNL     1      -1.405  -3.401   0.912  1.00  0.00     0.029 A 
ATOM     18  N   UNL     1      -3.307  -2.780  -0.059  1.00  0.00    -0.354 N 
ATOM     19  C   UNL     1      -4.452  -4.337  -3.898  1.00  0.00     0.074 A 
ATOM     20  C   UNL     1      -3.330  -4.927  -4.589  1.00  0.00     0.031 C 
ATOM     21  C   UNL     1      -1.988  -2.499   1.722  1.00  0.00     0.029 A 
ATOM     22  C   UNL     1      -3.228  -2.050   1.105  1.00  0.00     0.049 A 
ATOM     23  H   UNL     1      -4.096  -2.773  -0.648  1.00  0.00     0.167 HD
ATOM     24  C   UNL     1      -5.719  -4.341  -4.369  1.00  0.00     0.031 A 
ATOM     25  C   UNL     1      -4.067  -1.128   1.615  1.00  0.00     0.031 A 
ATOM     26  C   UNL     1      -6.822  -3.727  -3.692  1.00  0.00     0.049 A 
ATOM     27  C   UNL     1      -5.412  -0.956   0.965  1.00  0.00     0.074 A 
ATOM     28  C   UNL     1      -8.161  -3.732  -4.035  1.00  0.00     0.029 A 
ATOM     29  N   UNL     1      -6.700  -2.965  -2.541  1.00  0.00    -0.354 N 
ATOM     30  N   UNL     1      -5.888  -1.549  -0.102  1.00  0.00    -0.248 NA
ATOM     31  C   UNL     1      -6.366  -0.062   1.635  1.00  0.00     0.031 C 
ATOM     32  C   UNL     1      -8.841  -2.920  -3.121  1.00  0.00     0.029 A 
ATOM     33  C   UNL     1      -7.931  -2.445  -2.189  1.00  0.00     0.049 A 
ATOM     34  H   UNL     1      -5.861  -2.816  -2.048  1.00  0.00     0.167 HD
ATOM     35  C   UNL     1      -7.219  -1.169  -0.183  1.00  0.00     0.074 A 
ATOM     36  C   UNL     1      -7.467  -0.270   0.925  1.00  0.00     0.031 C 
ATOM     37  C   UNL     1      -8.159  -1.560  -1.077  1.00  0.00     0.031 A 
BRANCH  24  38
ATOM     38  C   UNL     1      -5.952  -5.071  -5.655  1.00  0.00    -0.014 A 
ATOM     39  C   UNL     1      -5.912  -6.476  -5.691  1.00  0.00     0.009 A 
ATOM     40  C   UNL     1      -6.189  -4.363  -6.840  1.00  0.00     0.009 A 
ATOM     41  C   UNL     1      -6.066  -7.156  -6.898  1.00  0.00     0.001 A 
ATOM     42  C   UNL     1      -6.363  -5.048  -8.043  1.00  0.00     0.001 A 
ATOM     43  C   UNL     1      -6.292  -6.442  -8.073  1.00  0.00     0.000 A 
ENDBRANCH  24  38
BRANCH  25  44
ATOM     44  C   UNL     1      -3.707  -0.337   2.821  1.00  0.00    -0.014 A 
ATOM     45  C   UNL     1      -4.293  -0.607   4.066  1.00  0.00     0.009 A 
ATOM     46  C   UNL     1      -2.824   0.750   2.711  1.00  0.00     0.009 A 
ATOM     47  C   UNL     1      -4.038   0.219   5.165  1.00  0.00     0.001 A 
ATOM     48  C   UNL     1      -2.558   1.565   3.816  1.00  0.00     0.001 A 
ATOM     49  C   UNL     1      -3.175   1.306   5.038  1.00  0.00     0.000 A 
ENDBRANCH  25  44
BRANCH  37  50
ATOM     50  C   UNL     1      -9.556  -1.058  -0.866  1.00  0.00    -0.014 A 
ATOM     51  C   UNL     1      -9.901   0.269  -1.155  1.00  0.00     0.009 A 
ATOM     52  C   UNL     1     -10.551  -1.948  -0.431  1.00  0.00     0.009 A 
ATOM     53  C   UNL     1     -11.217   0.702  -0.995  1.00  0.00     0.001 A 
ATOM     54  C   UNL     1     -11.871  -1.520  -0.300  1.00  0.00     0.001 A 
ATOM     55  C   UNL     1     -12.202  -0.194  -0.577  1.00  0.00     0.000 A 
ENDBRANCH  37  50
ENDBRANCH  11  12
ENDBRANCH   4   6
ENDBRANCH   3   4
ENDBRANCH   2   3
ENDBRANCH   1   2
BRANCH   1  56
ATOM     56  O   UNL     1       3.426  -4.434   0.114  1.00  0.00    -0.462 OA
BRANCH  56  57
ATOM     57  C   UNL     1       3.580  -3.250   0.769  1.00  0.00     0.310 C 
ATOM     58  O   UNL     1       4.109  -3.151   1.873  1.00  0.00    -0.252 OA
BRANCH  57  59
ATOM     59  C   UNL     1       2.961  -2.049   0.068  1.00  0.00     0.115 C 
ATOM     60  C   UNL     1       1.458  -2.097   0.313  1.00  0.00     0.043 C 
ATOM     61  C   UNL     1       3.271  -1.892  -1.420  1.00  0.00     0.097 C 
ATOM     62  C   UNL     1       0.698  -1.046  -0.436  1.00  0.00    -0.030 C 
ATOM     63  C   UNL     1       2.590  -0.631  -2.000  1.00  0.00     0.041 C 
ATOM     64  C   UNL     1       1.213  -0.377  -1.473  1.00  0.00    -0.030 C 
BRANCH  61  65
ATOM     65  C   UNL     1       4.700  -1.854  -1.947  1.00  0.00     0.227 C 
ATOM     66  O   UNL     1       4.945  -2.404  -3.026  1.00  0.00    -0.275 OA
ATOM     67  N   UNL     1       5.595  -0.975  -1.371  1.00  0.00    -0.331 N 
ATOM     68  C   UNL     1       6.652  -0.433  -2.224  1.00  0.00     0.181 C 
ATOM     69  C   UNL     1       5.960  -1.050   0.031  1.00  0.00     0.181 C 
ATOM     70  C   UNL     1       7.332   0.822  -1.625  1.00  0.00     0.284 C 
ATOM     71  C   UNL     1       6.482   0.277   0.574  1.00  0.00     0.284 C 
ATOM     72  N   UNL     1       7.613   0.821  -0.179  1.00  0.00    -0.328 N 
ATOM     73  H   UNL     1       7.709   1.806   0.068  1.00  0.00     0.348 HD
BRANCH  72  74
ATOM     74  C   UNL     1       8.926   0.315   0.244  1.00  0.00     0.299 C 
BRANCH  74  75
ATOM     75  C   UNL     1       9.182  -1.171   0.099  1.00  0.00     0.010 A 
ATOM     76  C   UNL     1       9.594  -1.698  -1.145  1.00  0.00     0.013 A 
ATOM     77  C   UNL     1       8.931  -2.052   1.170  1.00  0.00     0.060 A 
ATOM     78  C   UNL     1       9.660  -3.078  -1.360  1.00  0.00     0.051 A 
ATOM     79  C   UNL     1       8.997  -3.410   0.925  1.00  0.00     0.166 A 
ATOM     80  C   UNL     1       9.338  -3.906  -0.309  1.00  0.00     0.165 A 
ATOM     81  O   UNL     1       8.687  -4.395   1.811  1.00  0.00    -0.454 OA
ATOM     82  O   UNL     1       9.292  -5.264  -0.356  1.00  0.00    -0.454 OA
ATOM     83  C   UNL     1       8.851  -5.566   0.982  1.00  0.00     0.468 C 
ENDBRANCH  74  75
ENDBRANCH  72  74
ENDBRANCH  61  65
ENDBRANCH  57  59
ENDBRANCH  56  57
ENDBRANCH   1  56
TORSDOF 14
