REMARK SMILES NS(=O)(=O)c1ccc(/N=C/c2ccc(O)c(C(=O)OCCOC(=O)c3ccc(-c4c5nc(c(-c6ccccc6)c6ccc([nH]6)c(-c6ccccc6)c6nc(c(-c7ccccc7)c7ccc4[nH]7)C=C6)C=C5)cc3)c2)cc1
REMARK SMILES IDX 20 1 19 2 17 3 18 4 16 5 11 6 12 7 73 8 13 9 14 10 10 11
REMARK SMILES IDX 9 12 8 13 5 14 6 15 75 16 7 17 74 18 2 19 3 20 4 21 1 22
REMARK SMILES IDX 15 25 21 27 22 28 23 29 24 30 25 31 26 32 72 33 27 34 71 35
REMARK SMILES IDX 28 36 29 37 30 38 65 39 31 40 70 41 64 42 66 43 32 44 69 45
REMARK SMILES IDX 63 46 62 47 33 49 55 50 40 51 54 52 41 53 44 54 53 55 67 56
REMARK SMILES IDX 42 57 43 58 52 60 68 61 45 62 34 63 35 64 39 65 36 66 38 67
REMARK SMILES IDX 37 68 56 69 57 70 61 71 58 72 60 73 59 74 46 75 47 76 51 77
REMARK SMILES IDX 48 78 50 79 49 80
REMARK H PARENT 1 23 1 24 15 26 66 48 44 59
REMARK Flexibility Score: inf
ROOT
ATOM      1  C   UNL     1      -0.797 -10.045  -6.805  1.00  0.00     0.275 C 
ENDROOT
BRANCH   1   2
ATOM      2  O   UNL     1       0.281  -9.207  -6.339  1.00  0.00    -0.458 OA
BRANCH   2   3
ATOM      3  C   UNL     1       1.462  -9.815  -6.080  1.00  0.00     0.342 C 
ATOM      4  O   UNL     1       1.722 -11.005  -6.188  1.00  0.00    -0.246 OA
BRANCH   3   5
ATOM      5  C   UNL     1       2.504  -8.822  -5.738  1.00  0.00     0.102 A 
ATOM      6  C   UNL     1       3.198  -6.771  -4.683  1.00  0.00    -0.006 A 
ATOM      7  C   UNL     1       4.497  -6.931  -5.171  1.00  0.00     0.013 A 
ATOM      8  C   UNL     1       2.185  -7.680  -5.006  1.00  0.00     0.029 A 
ATOM      9  C   UNL     1       4.818  -8.080  -5.886  1.00  0.00     0.048 A 
ATOM     10  C   UNL     1       3.841  -9.049  -6.100  1.00  0.00     0.130 A 
BRANCH   6  11
ATOM     11  C   UNL     1       2.944  -5.686  -3.722  1.00  0.00     0.119 C 
ATOM     12  N   UNL     1       1.853  -5.660  -3.031  1.00  0.00    -0.256 NA
BRANCH  12  13
ATOM     13  C   UNL     1       1.637  -4.659  -2.075  1.00  0.00     0.063 A 
ATOM     14  C   UNL     1       0.966  -2.710  -0.175  1.00  0.00     0.082 A 
ATOM     15  C   UNL     1       0.424  -3.992  -0.070  1.00  0.00     0.024 A 
ATOM     16  C   UNL     1       1.852  -2.398  -1.206  1.00  0.00     0.024 A 
ATOM     17  C   UNL     1       0.770  -4.960  -1.017  1.00  0.00     0.030 A 
ATOM     18  C   UNL     1       2.174  -3.369  -2.156  1.00  0.00     0.030 A 
BRANCH  14  19
ATOM     19  S   UNL     1       0.451  -1.482   0.984  1.00  0.00     0.238 S 
ATOM     20  O   UNL     1       1.139  -1.711   2.228  1.00  0.00    -0.207 OA
ATOM     21  O   UNL     1      -0.986  -1.342   0.890  1.00  0.00    -0.207 OA
BRANCH  19  22
ATOM     22  N   UNL     1       1.074  -0.043   0.373  1.00  0.00    -0.225 NA
ATOM     23  H   UNL     1       0.819   0.727   0.992  1.00  0.00     0.137 HD
ATOM     24  H   UNL     1       0.691   0.126  -0.556  1.00  0.00     0.137 HD
ENDBRANCH  19  22
ENDBRANCH  14  19
ENDBRANCH  12  13
ENDBRANCH   6  11
BRANCH  10  25
ATOM     25  O   UNL     1       4.289 -10.235  -6.612  1.00  0.00    -0.507 OA
ATOM     26  H   UNL     1       5.193 -10.335  -6.839  1.00  0.00     0.293 HD
ENDBRANCH  10  25
ENDBRANCH   3   5
ENDBRANCH   2   3
ENDBRANCH   1   2
BRANCH   1  27
ATOM     27  C   UNL     1      -1.029  -9.862  -8.306  1.00  0.00     0.275 C 
BRANCH  27  28
ATOM     28  O   UNL     1       0.061 -10.430  -9.055  1.00  0.00    -0.458 OA
BRANCH  28  29
ATOM     29  C   UNL     1       0.922  -9.534  -9.588  1.00  0.00     0.338 C 
ATOM     30  O   UNL     1       0.865  -8.318  -9.533  1.00  0.00    -0.246 OA
BRANCH  29  31
ATOM     31  C   UNL     1       2.045 -10.241 -10.217  1.00  0.00     0.060 A 
ATOM     32  C   UNL     1       2.998 -10.817  -9.388  1.00  0.00     0.016 A 
ATOM     33  C   UNL     1       2.260 -10.180 -11.588  1.00  0.00     0.016 A 
ATOM     34  C   UNL     1       4.226 -11.220  -9.897  1.00  0.00     0.010 A 
ATOM     35  C   UNL     1       3.441 -10.715 -12.118  1.00  0.00     0.010 A 
ATOM     36  C   UNL     1       4.458 -11.211 -11.276  1.00  0.00    -0.014 A 
BRANCH  36  37
ATOM     37  C   UNL     1       5.749 -11.695 -11.847  1.00  0.00     0.031 A 
ATOM     38  C   UNL     1       6.523 -10.818 -12.799  1.00  0.00     0.074 A 
ATOM     39  C   UNL     1       6.226 -12.921 -11.543  1.00  0.00     0.049 A 
ATOM     40  N   UNL     1       7.472 -11.142 -13.640  1.00  0.00    -0.248 NA
ATOM     41  C   UNL     1       6.165  -9.390 -12.820  1.00  0.00     0.031 C 
ATOM     42  C   UNL     1       5.647 -13.851 -10.569  1.00  0.00     0.029 A 
ATOM     43  N   UNL     1       7.311 -13.605 -12.037  1.00  0.00    -0.354 N 
ATOM     44  C   UNL     1       7.774  -9.977 -14.338  1.00  0.00     0.074 A 
ATOM     45  C   UNL     1       6.907  -8.939 -13.823  1.00  0.00     0.031 C 
ATOM     46  C   UNL     1       6.395 -14.961 -10.515  1.00  0.00     0.029 A 
ATOM     47  C   UNL     1       7.426 -14.882 -11.539  1.00  0.00     0.049 A 
ATOM     48  H   UNL     1       7.945 -13.219 -12.685  1.00  0.00     0.167 HD
ATOM     49  C   UNL     1       8.685  -9.798 -15.325  1.00  0.00     0.031 A 
ATOM     50  C   UNL     1       8.214 -15.908 -11.910  1.00  0.00     0.031 A 
ATOM     51  C   UNL     1       9.563 -10.835 -15.801  1.00  0.00     0.049 A 
ATOM     52  C   UNL     1       9.146 -15.719 -13.072  1.00  0.00     0.074 A 
ATOM     53  C   UNL     1      10.514 -10.769 -16.804  1.00  0.00     0.029 A 
ATOM     54  N   UNL     1       9.609 -12.123 -15.289  1.00  0.00    -0.354 N 
ATOM     55  N   UNL     1       9.363 -14.643 -13.788  1.00  0.00    -0.248 NA
ATOM     56  C   UNL     1       9.927 -16.891 -13.492  1.00  0.00     0.031 C 
ATOM     57  C   UNL     1      11.101 -12.031 -16.932  1.00  0.00     0.029 A 
ATOM     58  C   UNL     1      10.563 -12.864 -15.964  1.00  0.00     0.049 A 
ATOM     59  H   UNL     1       9.046 -12.460 -14.555  1.00  0.00     0.167 HD
ATOM     60  C   UNL     1      10.331 -14.996 -14.717  1.00  0.00     0.074 A 
ATOM     61  C   UNL     1      10.662 -16.385 -14.472  1.00  0.00     0.031 C 
ATOM     62  C   UNL     1      10.897 -14.236 -15.684  1.00  0.00     0.031 A 
BRANCH  49  63
ATOM     63  C   UNL     1       8.746  -8.449 -15.991  1.00  0.00    -0.014 A 
ATOM     64  C   UNL     1       9.247  -7.318 -15.329  1.00  0.00     0.009 A 
ATOM     65  C   UNL     1       8.333  -8.321 -17.328  1.00  0.00     0.009 A 
ATOM     66  C   UNL     1       9.296  -6.081 -15.978  1.00  0.00     0.001 A 
ATOM     67  C   UNL     1       8.414  -7.091 -17.985  1.00  0.00     0.001 A 
ATOM     68  C   UNL     1       8.885  -5.970 -17.306  1.00  0.00     0.000 A 
ENDBRANCH  49  63
BRANCH  50  69
ATOM     69  C   UNL     1       8.101 -17.227 -11.228  1.00  0.00    -0.014 A 
ATOM     70  C   UNL     1       9.164 -17.730 -10.464  1.00  0.00     0.009 A 
ATOM     71  C   UNL     1       6.926 -17.992 -11.336  1.00  0.00     0.009 A 
ATOM     72  C   UNL     1       9.063 -18.978  -9.844  1.00  0.00     0.001 A 
ATOM     73  C   UNL     1       6.813 -19.221 -10.683  1.00  0.00     0.001 A 
ATOM     74  C   UNL     1       7.886 -19.718  -9.947  1.00  0.00     0.000 A 
ENDBRANCH  50  69
BRANCH  62  75
ATOM     75  C   UNL     1      11.994 -14.859 -16.497  1.00  0.00    -0.014 A 
ATOM     76  C   UNL     1      11.724 -15.808 -17.493  1.00  0.00     0.009 A 
ATOM     77  C   UNL     1      13.316 -14.427 -16.303  1.00  0.00     0.009 A 
ATOM     78  C   UNL     1      12.763 -16.326 -18.268  1.00  0.00     0.001 A 
ATOM     79  C   UNL     1      14.347 -14.925 -17.099  1.00  0.00     0.001 A 
ATOM     80  C   UNL     1      14.070 -15.878 -18.077  1.00  0.00     0.000 A 
ENDBRANCH  62  75
ENDBRANCH  36  37
ENDBRANCH  29  31
ENDBRANCH  28  29
ENDBRANCH  27  28
ENDBRANCH   1  27
TORSDOF 16
