REMARK SMILES Cc1n[nH]c(C(=O)Nc2cc(C(=O)OCCOC(=O)c3ccc(-c4c5nc(c(-c6ccccc6)c6ccc([nH]6)c(-c6ccccc6)c6nc(c(-c7ccccc7)c7ccc4[nH]7)C=C6)C=C5)cc3)[nH]n2)n1
REMARK SMILES IDX 15 1 14 2 12 3 13 4 11 5 9 6 10 7 69 8 68 9 8 11 6 12 7 13
REMARK SMILES IDX 5 15 1 16 2 17 3 18 70 19 4 20 16 22 17 23 18 24 19 25 20 26
REMARK SMILES IDX 21 27 67 28 22 29 66 30 23 31 24 32 25 33 60 34 26 35 65 36
REMARK SMILES IDX 59 37 61 38 27 39 64 40 58 41 57 42 28 44 50 45 35 46 49 47
REMARK SMILES IDX 36 48 39 49 48 50 62 51 37 52 38 53 47 55 63 56 40 57 29 58
REMARK SMILES IDX 30 59 34 60 31 61 33 62 32 63 51 64 52 65 56 66 53 67 55 68
REMARK SMILES IDX 54 69 41 70 42 71 46 72 43 73 45 74 44 75
REMARK H PARENT 68 10 8 14 4 21 61 43 39 54
REMARK Flexibility Score: inf
ROOT
ATOM      1  C   UNL     1      -0.392   0.152   6.541  1.00  0.00     0.275 C 
ENDROOT
BRANCH   1   2
ATOM      2  O   UNL     1      -0.378   1.231   5.596  1.00  0.00    -0.457 OA
BRANCH   2   3
ATOM      3  C   UNL     1      -1.495   2.016   5.561  1.00  0.00     0.356 C 
ATOM      4  O   UNL     1      -2.560   1.775   6.090  1.00  0.00    -0.244 OA
BRANCH   3   5
ATOM      5  C   UNL     1      -1.195   3.227   4.853  1.00  0.00     0.145 A 
ATOM      6  C   UNL     1      -0.495   4.775   3.456  1.00  0.00     0.155 A 
ATOM      7  C   UNL     1      -0.094   3.602   4.120  1.00  0.00     0.084 A 
ATOM      8  N   UNL     1      -1.611   5.277   3.982  1.00  0.00    -0.157 NA
ATOM      9  N   UNL     1      -2.018   4.318   4.838  1.00  0.00    -0.269 N 
ATOM     10  H   UNL     1      -2.825   4.396   5.395  1.00  0.00     0.190 HD
BRANCH   6  11
ATOM     11  N   UNL     1       0.065   5.337   2.342  1.00  0.00    -0.302 N 
ATOM     12  C   UNL     1       0.727   4.682   1.319  1.00  0.00     0.294 C 
ATOM     13  O   UNL     1       1.398   5.369   0.546  1.00  0.00    -0.265 OA
ATOM     14  H   UNL     1      -0.012   6.315   2.259  1.00  0.00     0.172 HD
BRANCH  12  15
ATOM     15  C   UNL     1       0.505   3.252   1.119  1.00  0.00     0.214 A 
ATOM     16  C   UNL     1       1.174   0.017  -0.166  1.00  0.00     0.092 C 
ATOM     17  C   UNL     1       0.662   1.226   0.507  1.00  0.00     0.148 A 
ATOM     18  N   UNL     1      -0.513   1.245   1.144  1.00  0.00    -0.159 NA
ATOM     19  N   UNL     1       1.319   2.430   0.476  1.00  0.00    -0.207 NA
ATOM     20  N   UNL     1      -0.617   2.543   1.458  1.00  0.00    -0.255 N 
ATOM     21  H   UNL     1      -1.409   2.942   1.885  1.00  0.00     0.192 HD
ENDBRANCH  12  15
ENDBRANCH   6  11
ENDBRANCH   3   5
ENDBRANCH   2   3
ENDBRANCH   1   2
BRANCH   1  22
ATOM     22  C   UNL     1       0.054   0.632   7.915  1.00  0.00     0.275 C 
BRANCH  22  23
ATOM     23  O   UNL     1      -0.925   1.493   8.492  1.00  0.00    -0.458 OA
BRANCH  23  24
ATOM     24  C   UNL     1      -0.714   2.814   8.306  1.00  0.00     0.338 C 
ATOM     25  O   UNL     1       0.065   3.343   7.531  1.00  0.00    -0.246 OA
BRANCH  24  26
ATOM     26  C   UNL     1      -1.430   3.560   9.336  1.00  0.00     0.060 A 
ATOM     27  C   UNL     1      -1.452   4.955   9.226  1.00  0.00     0.016 A 
ATOM     28  C   UNL     1      -1.729   2.894  10.530  1.00  0.00     0.016 A 
ATOM     29  C   UNL     1      -1.569   5.691  10.382  1.00  0.00     0.010 A 
ATOM     30  C   UNL     1      -1.811   3.626  11.681  1.00  0.00     0.010 A 
ATOM     31  C   UNL     1      -1.647   5.006  11.600  1.00  0.00    -0.014 A 
BRANCH  31  32
ATOM     32  C   UNL     1      -1.718   5.767  12.825  1.00  0.00     0.031 A 
ATOM     33  C   UNL     1      -3.057   6.371  12.989  1.00  0.00     0.074 A 
ATOM     34  C   UNL     1      -0.725   5.745  13.735  1.00  0.00     0.049 A 
ATOM     35  N   UNL     1      -3.370   7.618  12.881  1.00  0.00    -0.248 NA
ATOM     36  C   UNL     1      -4.221   5.463  13.036  1.00  0.00     0.031 C 
ATOM     37  C   UNL     1       0.479   4.903  13.717  1.00  0.00     0.029 A 
ATOM     38  N   UNL     1      -0.633   6.373  14.938  1.00  0.00    -0.354 N 
ATOM     39  C   UNL     1      -4.738   7.663  13.124  1.00  0.00     0.074 A 
ATOM     40  C   UNL     1      -5.231   6.326  12.935  1.00  0.00     0.031 C 
ATOM     41  C   UNL     1       1.031   4.885  14.953  1.00  0.00     0.029 A 
ATOM     42  C   UNL     1       0.308   5.818  15.799  1.00  0.00     0.049 A 
ATOM     43  H   UNL     1      -1.184   7.153  15.178  1.00  0.00     0.167 HD
ATOM     44  C   UNL     1      -5.262   8.678  13.864  1.00  0.00     0.031 A 
ATOM     45  C   UNL     1       0.437   6.072  17.126  1.00  0.00     0.031 A 
ATOM     46  C   UNL     1      -4.322   9.763  13.979  1.00  0.00     0.049 A 
ATOM     47  C   UNL     1      -0.266   7.343  17.403  1.00  0.00     0.074 A 
ATOM     48  C   UNL     1      -3.821  10.747  13.158  1.00  0.00     0.029 A 
ATOM     49  N   UNL     1      -3.446   9.609  15.024  1.00  0.00    -0.354 N 
ATOM     50  N   UNL     1       0.138   8.492  16.942  1.00  0.00    -0.248 NA
ATOM     51  C   UNL     1      -1.650   7.307  17.863  1.00  0.00     0.031 C 
ATOM     52  C   UNL     1      -2.523  11.056  13.664  1.00  0.00     0.029 A 
ATOM     53  C   UNL     1      -2.288  10.302  14.813  1.00  0.00     0.049 A 
ATOM     54  H   UNL     1      -3.630   9.066  15.825  1.00  0.00     0.167 HD
ATOM     55  C   UNL     1      -1.029   9.168  16.637  1.00  0.00     0.074 A 
ATOM     56  C   UNL     1      -2.078   8.478  17.381  1.00  0.00     0.031 C 
ATOM     57  C   UNL     1      -1.086  10.006  15.562  1.00  0.00     0.031 A 
BRANCH  44  58
ATOM     58  C   UNL     1      -6.307   8.452  14.939  1.00  0.00    -0.014 A 
ATOM     59  C   UNL     1      -6.763   9.566  15.664  1.00  0.00     0.009 A 
ATOM     60  C   UNL     1      -6.628   7.186  15.470  1.00  0.00     0.009 A 
ATOM     61  C   UNL     1      -7.447   9.417  16.878  1.00  0.00     0.001 A 
ATOM     62  C   UNL     1      -7.338   7.032  16.662  1.00  0.00     0.001 A 
ATOM     63  C   UNL     1      -7.728   8.150  17.379  1.00  0.00     0.000 A 
ENDBRANCH  44  58
BRANCH  45  64
ATOM     64  C   UNL     1       0.886   5.176  18.214  1.00  0.00    -0.014 A 
ATOM     65  C   UNL     1       1.346   5.690  19.438  1.00  0.00     0.009 A 
ATOM     66  C   UNL     1       0.593   3.801  18.152  1.00  0.00     0.009 A 
ATOM     67  C   UNL     1       1.473   4.864  20.566  1.00  0.00     0.001 A 
ATOM     68  C   UNL     1       0.716   2.978  19.278  1.00  0.00     0.001 A 
ATOM     69  C   UNL     1       1.143   3.513  20.489  1.00  0.00     0.000 A 
ENDBRANCH  45  64
BRANCH  57  70
ATOM     70  C   UNL     1       0.212  10.539  15.028  1.00  0.00    -0.014 A 
ATOM     71  C   UNL     1       1.194   9.749  14.407  1.00  0.00     0.009 A 
ATOM     72  C   UNL     1       0.400  11.928  15.079  1.00  0.00     0.009 A 
ATOM     73  C   UNL     1       2.343  10.342  13.871  1.00  0.00     0.001 A 
ATOM     74  C   UNL     1       1.534  12.519  14.526  1.00  0.00     0.001 A 
ATOM     75  C   UNL     1       2.509  11.726  13.927  1.00  0.00     0.000 A 
ENDBRANCH  57  70
ENDBRANCH  31  32
ENDBRANCH  24  26
ENDBRANCH  23  24
ENDBRANCH  22  23
ENDBRANCH   1  22
TORSDOF 13
