REMARK SMILES CCC[C@@](C)(NC(=O)N1CCN(C)C(=O)C1(C)C)C(=O)OCCOC(=O)c1ccc(-c2c3nc(c(-c4ccccc4)c4ccc([nH]4)c(-c4ccccc4)c4nc(c(-c5ccccc5)c5ccc2[nH]5)C=C4)C=C3)cc1
REMARK SMILES IDX 22 1 21 2 19 3 20 4 4 5 5 6 3 7 2 8 1 9 6 10 7 11 8 13 9 14
REMARK SMILES IDX 10 15 16 16 11 17 14 18 17 19 18 20 12 21 15 22 13 23 23 24
REMARK SMILES IDX 24 25 25 26 26 27 27 28 28 29 74 30 29 31 73 32 30 33 31 34
REMARK SMILES IDX 32 35 67 36 33 37 72 38 66 39 68 40 34 41 71 42 65 43 64 44
REMARK SMILES IDX 35 46 57 47 42 48 56 49 43 50 46 51 55 52 69 53 44 54 45 55
REMARK SMILES IDX 54 57 70 58 47 59 36 60 37 61 41 62 38 63 40 64 39 65 58 66
REMARK SMILES IDX 59 67 63 68 60 69 62 70 61 71 48 72 49 73 53 74 50 75 52 76
REMARK SMILES IDX 51 77
REMARK H PARENT 6 12 68 45 46 56
REMARK Flexibility Score: inf
ROOT
ATOM      1  C   UNL     1       0.735  -4.150   1.370  1.00  0.00     0.274 C 
ENDROOT
BRANCH   1   2
ATOM      2  O   UNL     1      -0.082  -2.990   0.447  1.00  0.00    -0.460 OA
BRANCH   2   3
ATOM      3  C   UNL     1       0.089  -1.725  -0.192  1.00  0.00     0.331 C 
ATOM      4  O   UNL     1       0.370  -0.722   0.454  1.00  0.00    -0.249 OA
BRANCH   3   5
ATOM      5  C   UNL     1      -0.108  -1.607  -1.903  1.00  0.00     0.136 C 
ATOM      6  C   UNL     1      -1.569  -1.962  -2.363  1.00  0.00     0.047 C 
BRANCH   5   7
ATOM      7  C   UNL     1      -0.061  -0.042  -2.349  1.00  0.00     0.040 C 
BRANCH   7   8
ATOM      8  C   UNL     1      -0.948   1.070  -1.760  1.00  0.00    -0.000 C 
ATOM      9  C   UNL     1      -0.497   1.654  -0.428  1.00  0.00     0.004 C 
ENDBRANCH   7   8
ENDBRANCH   5   7
BRANCH   5  10
ATOM     10  N   UNL     1       1.006  -2.228  -2.962  1.00  0.00    -0.322 N 
ATOM     11  C   UNL     1       1.918  -3.228  -3.297  1.00  0.00     0.319 C 
ATOM     12  H   UNL     1       1.041  -1.585  -3.707  1.00  0.00     0.166 HD
ATOM     13  O   UNL     1       2.393  -3.193  -4.431  1.00  0.00    -0.249 OA
BRANCH  11  14
ATOM     14  N   UNL     1       2.330  -4.143  -2.361  1.00  0.00    -0.309 N 
ATOM     15  C   UNL     1       3.994  -4.968  -2.158  1.00  0.00     0.144 C 
ATOM     16  C   UNL     1       1.438  -4.080  -1.039  1.00  0.00     0.118 C 
ATOM     17  C   UNL     1       4.996  -4.603  -0.468  1.00  0.00     0.140 C 
ATOM     18  C   UNL     1       2.434  -2.838   0.343  1.00  0.00     0.247 C 
ATOM     19  C   UNL     1      -0.140  -4.340  -1.466  1.00  0.00     0.045 C 
ATOM     20  C   UNL     1       1.456  -5.872  -0.984  1.00  0.00     0.045 C 
ATOM     21  N   UNL     1       4.186  -3.331   0.695  1.00  0.00    -0.342 N 
ATOM     22  O   UNL     1       2.074  -2.120   1.278  1.00  0.00    -0.272 OA
ATOM     23  C   UNL     1       4.786  -2.915   1.959  1.00  0.00     0.146 C 
ENDBRANCH  11  14
ENDBRANCH   5  10
ENDBRANCH   3   5
ENDBRANCH   2   3
ENDBRANCH   1   2
BRANCH   1  24
ATOM     24  C   UNL     1       2.393  -4.806   0.985  1.00  0.00     0.275 C 
BRANCH  24  25
ATOM     25  O   UNL     1       3.216  -4.156  -0.577  1.00  0.00    -0.458 OA
BRANCH  25  26
ATOM     26  C   UNL     1       3.943  -2.665  -1.307  1.00  0.00     0.338 C 
ATOM     27  O   UNL     1       4.649  -2.751  -2.333  1.00  0.00    -0.246 OA
BRANCH  26  28
ATOM     28  C   UNL     1       4.134  -1.181  -0.819  1.00  0.00     0.060 A 
ATOM     29  C   UNL     1       3.304  -0.228  -1.390  1.00  0.00     0.016 A 
ATOM     30  C   UNL     1       5.349  -0.664  -0.318  1.00  0.00     0.016 A 
ATOM     31  C   UNL     1       3.584   1.159  -1.407  1.00  0.00     0.010 A 
ATOM     32  C   UNL     1       5.638   0.734  -0.286  1.00  0.00     0.010 A 
ATOM     33  C   UNL     1       4.768   1.669  -0.867  1.00  0.00    -0.014 A 
BRANCH  33  34
ATOM     34  C   UNL     1       5.135   3.119  -1.054  1.00  0.00     0.031 A 
ATOM     35  C   UNL     1       6.218   3.530  -2.035  1.00  0.00     0.074 A 
ATOM     36  C   UNL     1       4.458   4.110  -0.435  1.00  0.00     0.049 A 
ATOM     37  N   UNL     1       6.695   4.727  -2.303  1.00  0.00    -0.248 NA
ATOM     38  C   UNL     1       6.826   2.458  -2.835  1.00  0.00     0.031 C 
ATOM     39  C   UNL     1       3.320   3.925   0.461  1.00  0.00     0.029 A 
ATOM     40  N   UNL     1       4.625   5.481  -0.481  1.00  0.00    -0.354 N 
ATOM     41  C   UNL     1       7.660   4.550  -3.290  1.00  0.00     0.074 A 
ATOM     42  C   UNL     1       7.709   3.127  -3.566  1.00  0.00     0.031 C 
ATOM     43  C   UNL     1       2.880   5.131   0.865  1.00  0.00     0.029 A 
ATOM     44  C   UNL     1       3.737   6.177   0.306  1.00  0.00     0.049 A 
ATOM     45  H   UNL     1       5.316   5.919  -1.028  1.00  0.00     0.167 HD
ATOM     46  C   UNL     1       8.438   5.471  -3.917  1.00  0.00     0.031 A 
ATOM     47  C   UNL     1       3.630   7.496   0.577  1.00  0.00     0.031 A 
ATOM     48  C   UNL     1       8.419   6.893  -3.672  1.00  0.00     0.049 A 
ATOM     49  C   UNL     1       4.588   8.488  -0.033  1.00  0.00     0.074 A 
ATOM     50  C   UNL     1       9.210   7.879  -4.246  1.00  0.00     0.029 A 
ATOM     51  N   UNL     1       7.567   7.537  -2.792  1.00  0.00    -0.354 N 
ATOM     52  N   UNL     1       5.530   8.293  -0.921  1.00  0.00    -0.248 NA
ATOM     53  C   UNL     1       4.472   9.889   0.411  1.00  0.00     0.031 C 
ATOM     54  C   UNL     1       8.868   9.111  -3.678  1.00  0.00     0.029 A 
ATOM     55  C   UNL     1       7.830   8.900  -2.787  1.00  0.00     0.049 A 
ATOM     56  H   UNL     1       6.876   7.093  -2.248  1.00  0.00     0.167 HD
ATOM     57  C   UNL     1       6.101   9.540  -1.154  1.00  0.00     0.074 A 
ATOM     58  C   UNL     1       5.390  10.493  -0.331  1.00  0.00     0.031 C 
ATOM     59  C   UNL     1       7.129   9.860  -1.977  1.00  0.00     0.031 A 
BRANCH  46  60
ATOM     60  C   UNL     1       9.439   4.963  -4.922  1.00  0.00    -0.014 A 
ATOM     61  C   UNL     1       9.046   4.545  -6.202  1.00  0.00     0.009 A 
ATOM     62  C   UNL     1      10.806   4.960  -4.597  1.00  0.00     0.009 A 
ATOM     63  C   UNL     1       9.998   4.102  -7.124  1.00  0.00     0.001 A 
ATOM     64  C   UNL     1      11.757   4.540  -5.528  1.00  0.00     0.001 A 
ATOM     65  C   UNL     1      11.352   4.102  -6.787  1.00  0.00     0.000 A 
ENDBRANCH  46  60
BRANCH  47  66
ATOM     66  C   UNL     1       2.598   7.979   1.539  1.00  0.00    -0.014 A 
ATOM     67  C   UNL     1       1.544   8.806   1.119  1.00  0.00     0.009 A 
ATOM     68  C   UNL     1       2.701   7.656   2.902  1.00  0.00     0.009 A 
ATOM     69  C   UNL     1       0.630   9.314   2.046  1.00  0.00     0.001 A 
ATOM     70  C   UNL     1       1.767   8.137   3.821  1.00  0.00     0.001 A 
ATOM     71  C   UNL     1       0.738   8.974   3.394  1.00  0.00     0.000 A 
ENDBRANCH  47  66
BRANCH  59  72
ATOM     72  C   UNL     1       7.536  11.307  -2.060  1.00  0.00    -0.014 A 
ATOM     73  C   UNL     1       8.235  11.930  -1.013  1.00  0.00     0.009 A 
ATOM     74  C   UNL     1       7.249  12.051  -3.216  1.00  0.00     0.009 A 
ATOM     75  C   UNL     1       8.611  13.273  -1.110  1.00  0.00     0.001 A 
ATOM     76  C   UNL     1       7.646  13.387  -3.320  1.00  0.00     0.001 A 
ATOM     77  C   UNL     1       8.319  13.999  -2.264  1.00  0.00     0.000 A 
ENDBRANCH  59  72
ENDBRANCH  33  34
ENDBRANCH  26  28
ENDBRANCH  25  26
ENDBRANCH  24  25
ENDBRANCH   1  24
TORSDOF 15
