REMARK SMILES Nc1ccccc1C(=O)NCc1ccc(C(=O)OCCOC(=O)c2ccc(-c3c4nc(c(-c5ccccc5)c5ccc([nH]5)c(-c5ccccc5)c5nc(c(-c6ccccc6)c6ccc3[nH]6)C=C5)C=C4)cc2)o1
REMARK SMILES IDX 19 1 18 2 16 3 17 4 15 5 12 6 13 7 72 8 14 9 11 10 10 11
REMARK SMILES IDX 8 12 9 13 7 15 2 16 3 17 4 18 6 19 5 20 1 21 20 24 21 25
REMARK SMILES IDX 22 26 23 27 24 28 25 29 71 30 26 31 70 32 27 33 28 34 29 35
REMARK SMILES IDX 64 36 30 37 69 38 63 39 65 40 31 41 68 42 62 43 61 44 32 46
REMARK SMILES IDX 54 47 39 48 53 49 40 50 43 51 52 52 66 53 41 54 42 55 51 57
REMARK SMILES IDX 67 58 44 59 33 60 34 61 38 62 35 63 37 64 36 65 55 66 56 67
REMARK SMILES IDX 60 68 57 69 59 70 58 71 45 72 46 73 50 74 47 75 49 76 48 77
REMARK H PARENT 10 14 1 22 1 23 65 45 43 56
REMARK Flexibility Score: inf
ROOT
ATOM      1  C   UNL     1       7.016  -1.077  -6.047  1.00  0.00     0.275 C 
ENDROOT
BRANCH   1   2
ATOM      2  O   UNL     1       6.496   0.049  -5.315  1.00  0.00    -0.456 OA
BRANCH   2   3
ATOM      3  C   UNL     1       5.270  -0.150  -4.750  1.00  0.00     0.374 C 
ATOM      4  O   UNL     1       4.582  -1.149  -4.932  1.00  0.00    -0.242 OA
BRANCH   3   5
ATOM      5  C   UNL     1       4.956   0.910  -3.822  1.00  0.00     0.211 A 
ATOM      6  C   UNL     1       3.950   1.641  -1.991  1.00  0.00     0.124 A 
ATOM      7  C   UNL     1       4.804   2.648  -2.389  1.00  0.00     0.048 A 
ATOM      8  O   UNL     1       3.990   0.630  -2.900  1.00  0.00    -0.452 OA
ATOM      9  C   UNL     1       5.460   2.172  -3.564  1.00  0.00     0.058 A 
BRANCH   6  10
ATOM     10  C   UNL     1       3.139   1.320  -0.793  1.00  0.00     0.191 C 
BRANCH  10  11
ATOM     11  N   UNL     1       2.343   2.424  -0.320  1.00  0.00    -0.345 N 
ATOM     12  C   UNL     1       1.091   2.369   0.247  1.00  0.00     0.253 C 
ATOM     13  O   UNL     1       0.581   3.405   0.672  1.00  0.00    -0.269 OA
ATOM     14  H   UNL     1       2.740   3.320  -0.413  1.00  0.00     0.164 HD
BRANCH  12  15
ATOM     15  C   UNL     1       0.298   1.108   0.271  1.00  0.00     0.062 A 
ATOM     16  C   UNL     1       0.731  -0.114   0.826  1.00  0.00     0.044 A 
ATOM     17  C   UNL     1      -0.074  -1.249   0.629  1.00  0.00     0.026 A 
ATOM     18  C   UNL     1      -1.337  -1.151   0.038  1.00  0.00     0.002 A 
ATOM     19  C   UNL     1      -0.990   1.206  -0.287  1.00  0.00     0.016 A 
ATOM     20  C   UNL     1      -1.809   0.083  -0.391  1.00  0.00     0.001 A 
BRANCH  16  21
ATOM     21  N   UNL     1       1.969  -0.293   1.449  1.00  0.00    -0.398 N 
ATOM     22  H   UNL     1       2.212  -1.173   1.817  1.00  0.00     0.156 HD
ATOM     23  H   UNL     1       2.598   0.462   1.520  1.00  0.00     0.156 HD
ENDBRANCH  16  21
ENDBRANCH  12  15
ENDBRANCH  10  11
ENDBRANCH   6  10
ENDBRANCH   3   5
ENDBRANCH   2   3
ENDBRANCH   1   2
BRANCH   1  24
ATOM     24  C   UNL     1       7.952  -1.938  -5.188  1.00  0.00     0.275 C 
BRANCH  24  25
ATOM     25  O   UNL     1       7.251  -2.685  -4.171  1.00  0.00    -0.458 OA
BRANCH  25  26
ATOM     26  C   UNL     1       7.158  -2.068  -2.969  1.00  0.00     0.338 C 
ATOM     27  O   UNL     1       7.591  -0.964  -2.682  1.00  0.00    -0.246 OA
BRANCH  26  28
ATOM     28  C   UNL     1       6.363  -2.872  -2.019  1.00  0.00     0.060 A 
ATOM     29  C   UNL     1       5.327  -2.227  -1.340  1.00  0.00     0.016 A 
ATOM     30  C   UNL     1       6.694  -4.192  -1.700  1.00  0.00     0.016 A 
ATOM     31  C   UNL     1       4.639  -2.880  -0.320  1.00  0.00     0.010 A 
ATOM     32  C   UNL     1       5.999  -4.850  -0.674  1.00  0.00     0.010 A 
ATOM     33  C   UNL     1       4.986  -4.188   0.043  1.00  0.00    -0.014 A 
BRANCH  33  34
ATOM     34  C   UNL     1       4.333  -4.806   1.228  1.00  0.00     0.031 A 
ATOM     35  C   UNL     1       5.088  -4.934   2.525  1.00  0.00     0.074 A 
ATOM     36  C   UNL     1       3.043  -5.185   1.171  1.00  0.00     0.049 A 
ATOM     37  N   UNL     1       4.673  -5.389   3.681  1.00  0.00    -0.248 NA
ATOM     38  C   UNL     1       6.489  -4.486   2.522  1.00  0.00     0.031 C 
ATOM     39  C   UNL     1       2.185  -5.091  -0.010  1.00  0.00     0.029 A 
ATOM     40  N   UNL     1       2.226  -5.715   2.139  1.00  0.00    -0.354 N 
ATOM     41  C   UNL     1       5.762  -5.294   4.539  1.00  0.00     0.074 A 
ATOM     42  C   UNL     1       6.862  -4.760   3.764  1.00  0.00     0.031 C 
ATOM     43  C   UNL     1       0.956  -5.532   0.308  1.00  0.00     0.029 A 
ATOM     44  C   UNL     1       0.948  -5.966   1.703  1.00  0.00     0.049 A 
ATOM     45  H   UNL     1       2.527  -5.897   3.059  1.00  0.00     0.167 HD
ATOM     46  C   UNL     1       5.842  -5.612   5.854  1.00  0.00     0.031 A 
ATOM     47  C   UNL     1      -0.110  -6.491   2.350  1.00  0.00     0.031 A 
ATOM     48  C   UNL     1       4.758  -6.146   6.636  1.00  0.00     0.049 A 
ATOM     49  C   UNL     1       0.018  -6.878   3.798  1.00  0.00     0.074 A 
ATOM     50  C   UNL     1       4.748  -6.487   7.978  1.00  0.00     0.029 A 
ATOM     51  N   UNL     1       3.492  -6.420   6.145  1.00  0.00    -0.354 N 
ATOM     52  N   UNL     1       1.048  -6.759   4.598  1.00  0.00    -0.248 NA
ATOM     53  C   UNL     1      -1.174  -7.461   4.433  1.00  0.00     0.031 C 
ATOM     54  C   UNL     1       3.486  -7.006   8.290  1.00  0.00     0.029 A 
ATOM     55  C   UNL     1       2.697  -6.940   7.154  1.00  0.00     0.049 A 
ATOM     56  H   UNL     1       3.200  -6.268   5.217  1.00  0.00     0.167 HD
ATOM     57  C   UNL     1       0.623  -7.228   5.835  1.00  0.00     0.074 A 
ATOM     58  C   UNL     1      -0.763  -7.618   5.684  1.00  0.00     0.031 C 
ATOM     59  C   UNL     1       1.320  -7.325   6.994  1.00  0.00     0.031 A 
BRANCH  46  60
ATOM     60  C   UNL     1       7.170  -5.411   6.530  1.00  0.00    -0.014 A 
ATOM     61  C   UNL     1       7.639  -4.126   6.845  1.00  0.00     0.009 A 
ATOM     62  C   UNL     1       7.946  -6.525   6.886  1.00  0.00     0.009 A 
ATOM     63  C   UNL     1       8.877  -3.960   7.472  1.00  0.00     0.001 A 
ATOM     64  C   UNL     1       9.171  -6.357   7.534  1.00  0.00     0.001 A 
ATOM     65  C   UNL     1       9.639  -5.075   7.818  1.00  0.00     0.000 A 
ENDBRANCH  46  60
BRANCH  47  66
ATOM     66  C   UNL     1      -1.395  -6.686   1.633  1.00  0.00    -0.014 A 
ATOM     67  C   UNL     1      -2.508  -5.885   1.929  1.00  0.00     0.009 A 
ATOM     68  C   UNL     1      -1.519  -7.690   0.660  1.00  0.00     0.009 A 
ATOM     69  C   UNL     1      -3.727  -6.102   1.282  1.00  0.00     0.001 A 
ATOM     70  C   UNL     1      -2.731  -7.887  -0.004  1.00  0.00     0.001 A 
ATOM     71  C   UNL     1      -3.836  -7.099   0.314  1.00  0.00     0.000 A 
ENDBRANCH  47  66
BRANCH  59  72
ATOM     72  C   UNL     1       0.581  -7.837   8.198  1.00  0.00    -0.014 A 
ATOM     73  C   UNL     1       0.239  -9.193   8.324  1.00  0.00     0.009 A 
ATOM     74  C   UNL     1       0.245  -6.952   9.235  1.00  0.00     0.009 A 
ATOM     75  C   UNL     1      -0.459  -9.643   9.447  1.00  0.00     0.001 A 
ATOM     76  C   UNL     1      -0.429  -7.410  10.368  1.00  0.00     0.001 A 
ATOM     77  C   UNL     1      -0.789  -8.753  10.468  1.00  0.00     0.000 A 
ENDBRANCH  59  72
ENDBRANCH  33  34
ENDBRANCH  26  28
ENDBRANCH  25  26
ENDBRANCH  24  25
ENDBRANCH   1  24
TORSDOF 15
