REMARK SMILES O=C(OCCOC(=O)[C@H](c1c[nH]c2cc(F)ccc12)[NH+]1CCN(c2ccccc2)CC1)c1ccc(-c2c3nc(c(-c4ccccc4)c4ccc([nH]4)c(-c4ccccc4)c4nc(c(-c5ccccc5)c5ccc2[nH]5)C=C4)C=C3)cc1
REMARK SMILES IDX 4 1 3 2 2 3 1 4 32 5 33 6 79 7 34 8 78 9 35 10 36 11 37 12
REMARK SMILES IDX 72 13 38 14 77 15 71 16 73 17 39 18 76 19 70 20 69 21 40 23
REMARK SMILES IDX 62 24 47 25 61 26 48 27 51 28 60 29 74 30 49 31 50 32 59 34
REMARK SMILES IDX 75 35 52 36 41 37 42 38 46 39 43 40 45 41 44 42 63 43 64 44
REMARK SMILES IDX 68 45 65 46 67 47 66 48 53 49 54 50 58 51 55 52 57 53 56 54
REMARK SMILES IDX 5 55 6 56 7 57 8 58 9 59 20 60 21 61 31 62 22 64 30 65 23 66
REMARK SMILES IDX 24 67 25 68 29 69 26 70 28 71 27 72 10 73 11 74 19 75 12 76
REMARK SMILES IDX 13 77 18 78 14 80 17 81 15 82 16 83
REMARK H PARENT 73 22 51 33 20 63 12 79
REMARK Flexibility Score: inf
ROOT
ATOM      1  C   UNL     1       5.620   4.034  -1.629  1.00  0.00     0.275 C 
ENDROOT
BRANCH   1   2
ATOM      2  O   UNL     1       4.670   4.213  -0.569  1.00  0.00    -0.458 OA
BRANCH   2   3
ATOM      3  C   UNL     1       4.436   3.083   0.132  1.00  0.00     0.338 C 
ATOM      4  O   UNL     1       5.289   2.334   0.592  1.00  0.00    -0.246 OA
BRANCH   3   5
ATOM      5  C   UNL     1       2.985   2.779   0.071  1.00  0.00     0.060 A 
ATOM      6  C   UNL     1       2.067   3.634  -0.558  1.00  0.00     0.016 A 
ATOM      7  C   UNL     1       2.559   1.542   0.548  1.00  0.00     0.016 A 
ATOM      8  C   UNL     1       0.730   3.266  -0.681  1.00  0.00     0.010 A 
ATOM      9  C   UNL     1       1.234   1.153   0.379  1.00  0.00     0.010 A 
ATOM     10  C   UNL     1       0.300   2.030  -0.192  1.00  0.00    -0.014 A 
BRANCH  10  11
ATOM     11  C   UNL     1      -1.147   1.766  -0.028  1.00  0.00     0.031 A 
ATOM     12  C   UNL     1      -1.682   1.712   1.378  1.00  0.00     0.074 A 
ATOM     13  C   UNL     1      -1.968   1.619  -1.083  1.00  0.00     0.049 A 
ATOM     14  N   UNL     1      -2.891   1.453   1.801  1.00  0.00    -0.248 NA
ATOM     15  C   UNL     1      -0.706   1.934   2.459  1.00  0.00     0.031 C 
ATOM     16  C   UNL     1      -1.567   1.642  -2.491  1.00  0.00     0.029 A 
ATOM     17  N   UNL     1      -3.328   1.447  -1.126  1.00  0.00    -0.354 N 
ATOM     18  C   UNL     1      -2.791   1.410   3.186  1.00  0.00     0.074 A 
ATOM     19  C   UNL     1      -1.403   1.599   3.528  1.00  0.00     0.031 C 
ATOM     20  C   UNL     1      -2.666   1.535  -3.259  1.00  0.00     0.029 A 
ATOM     21  C   UNL     1      -3.841   1.416  -2.400  1.00  0.00     0.049 A 
ATOM     22  H   UNL     1      -3.884   1.354  -0.319  1.00  0.00     0.167 HD
ATOM     23  C   UNL     1      -3.773   1.272   4.105  1.00  0.00     0.031 A 
ATOM     24  C   UNL     1      -5.120   1.321  -2.812  1.00  0.00     0.031 A 
ATOM     25  C   UNL     1      -5.161   1.187   3.764  1.00  0.00     0.049 A 
ATOM     26  C   UNL     1      -6.215   1.255  -1.778  1.00  0.00     0.074 A 
ATOM     27  C   UNL     1      -6.256   1.106   4.601  1.00  0.00     0.029 A 
ATOM     28  N   UNL     1      -5.639   1.207   2.462  1.00  0.00    -0.354 N 
ATOM     29  N   UNL     1      -6.114   1.248  -0.469  1.00  0.00    -0.248 NA
ATOM     30  C   UNL     1      -7.598   1.201  -2.274  1.00  0.00     0.031 C 
ATOM     31  C   UNL     1      -7.402   1.063   3.801  1.00  0.00     0.029 A 
ATOM     32  C   UNL     1      -7.017   1.149   2.470  1.00  0.00     0.049 A 
ATOM     33  H   UNL     1      -5.079   1.256   1.654  1.00  0.00     0.167 HD
ATOM     34  C   UNL     1      -7.416   1.212   0.014  1.00  0.00     0.074 A 
ATOM     35  C   UNL     1      -8.290   1.211  -1.141  1.00  0.00     0.031 C 
ATOM     36  C   UNL     1      -7.852   1.178   1.297  1.00  0.00     0.031 A 
BRANCH  23  37
ATOM     37  C   UNL     1      -3.342   1.200   5.542  1.00  0.00    -0.014 A 
ATOM     38  C   UNL     1      -2.793   2.316   6.199  1.00  0.00     0.009 A 
ATOM     39  C   UNL     1      -3.393  -0.028   6.216  1.00  0.00     0.009 A 
ATOM     40  C   UNL     1      -2.231   2.181   7.470  1.00  0.00     0.001 A 
ATOM     41  C   UNL     1      -2.864  -0.151   7.502  1.00  0.00     0.001 A 
ATOM     42  C   UNL     1      -2.264   0.947   8.118  1.00  0.00     0.000 A 
ENDBRANCH  23  37
BRANCH  24  43
ATOM     43  C   UNL     1      -5.437   1.325  -4.265  1.00  0.00    -0.014 A 
ATOM     44  C   UNL     1      -6.028   2.448  -4.867  1.00  0.00     0.009 A 
ATOM     45  C   UNL     1      -5.143   0.209  -5.063  1.00  0.00     0.009 A 
ATOM     46  C   UNL     1      -6.336   2.444  -6.231  1.00  0.00     0.001 A 
ATOM     47  C   UNL     1      -5.431   0.216  -6.431  1.00  0.00     0.001 A 
ATOM     48  C   UNL     1      -6.034   1.330  -7.012  1.00  0.00     0.000 A 
ENDBRANCH  24  43
BRANCH  36  49
ATOM     49  C   UNL     1      -9.333   1.176   1.530  1.00  0.00    -0.014 A 
ATOM     50  C   UNL     1     -10.082   0.000   1.382  1.00  0.00     0.009 A 
ATOM     51  C   UNL     1      -9.956   2.332   2.024  1.00  0.00     0.009 A 
ATOM     52  C   UNL     1     -11.436  -0.015   1.722  1.00  0.00     0.001 A 
ATOM     53  C   UNL     1     -11.304   2.308   2.382  1.00  0.00     0.001 A 
ATOM     54  C   UNL     1     -12.042   1.135   2.230  1.00  0.00     0.000 A 
ENDBRANCH  36  49
ENDBRANCH  10  11
ENDBRANCH   3   5
ENDBRANCH   2   3
ENDBRANCH   1   2
BRANCH   1  55
ATOM     55  C   UNL     1       4.901   3.427  -2.843  1.00  0.00     0.274 C 
BRANCH  55  56
ATOM     56  O   UNL     1       4.521   2.050  -2.598  1.00  0.00    -0.457 OA
BRANCH  56  57
ATOM     57  C   UNL     1       3.512   1.588  -3.396  1.00  0.00     0.370 C 
ATOM     58  O   UNL     1       2.994   2.290  -4.266  1.00  0.00    -0.245 OA
BRANCH  57  59
ATOM     59  C   UNL     1       3.114   0.100  -3.188  1.00  0.00     0.328 C 
BRANCH  59  60
ATOM     60  N   UNL     1       3.378  -0.690  -4.422  1.00  0.00    -0.316 N 
ATOM     61  C   UNL     1       4.720  -0.583  -5.008  1.00  0.00     0.284 C 
ATOM     62  C   UNL     1       2.963  -2.105  -4.409  1.00  0.00     0.284 C 
ATOM     63  H   UNL     1       2.737  -0.190  -5.039  1.00  0.00     0.349 HD
ATOM     64  C   UNL     1       5.796  -1.468  -4.366  1.00  0.00     0.178 C 
ATOM     65  C   UNL     1       3.977  -3.141  -3.848  1.00  0.00     0.178 C 
ATOM     66  N   UNL     1       5.360  -2.862  -4.263  1.00  0.00    -0.360 N 
BRANCH  66  67
ATOM     67  C   UNL     1       6.321  -3.786  -3.858  1.00  0.00     0.037 A 
ATOM     68  C   UNL     1       7.178  -3.560  -2.772  1.00  0.00     0.026 A 
ATOM     69  C   UNL     1       6.475  -4.970  -4.585  1.00  0.00     0.026 A 
ATOM     70  C   UNL     1       8.195  -4.465  -2.455  1.00  0.00     0.002 A 
ATOM     71  C   UNL     1       7.496  -5.873  -4.280  1.00  0.00     0.002 A 
ATOM     72  C   UNL     1       8.363  -5.615  -3.221  1.00  0.00     0.000 A 
ENDBRANCH  66  67
ENDBRANCH  59  60
BRANCH  59  73
ATOM     73  C   UNL     1       3.522  -0.598  -1.905  1.00  0.00     0.046 A 
ATOM     74  C   UNL     1       4.733  -0.584  -1.234  1.00  0.00     0.094 A 
ATOM     75  C   UNL     1       2.653  -1.450  -1.115  1.00  0.00     0.009 A 
ATOM     76  N   UNL     1       4.664  -1.432  -0.159  1.00  0.00    -0.361 N 
ATOM     77  C   UNL     1       3.400  -1.958  -0.050  1.00  0.00     0.049 A 
ATOM     78  C   UNL     1       1.293  -1.834  -1.215  1.00  0.00     0.014 A 
ATOM     79  H   UNL     1       5.412  -1.635   0.447  1.00  0.00     0.166 HD
ATOM     80  C   UNL     1       2.865  -2.830   0.907  1.00  0.00     0.065 A 
ATOM     81  C   UNL     1       0.736  -2.689  -0.257  1.00  0.00     0.040 A 
ATOM     82  C   UNL     1       1.520  -3.174   0.779  1.00  0.00     0.125 A 
ATOM     83  F   UNL     1       0.968  -3.989   1.688  1.00  0.00    -0.207 F 
ENDBRANCH  59  73
ENDBRANCH  57  59
ENDBRANCH  56  57
ENDBRANCH  55  56
ENDBRANCH   1  55
TORSDOF 14
