REMARK SMILES Cc1ccc(S(=O)(=O)n2cc(C(=O)C(=O)N[C@@H](Cc3cnc[nH]3)C(=O)OCCOC(=O)c3ccc(-c4c5nc(c(-c6ccccc6)c6ccc([nH]6)c(-c6ccccc6)c6nc(c(-c7ccccc7)c7ccc4[nH]7)C=C6)C=C5)cc3)c3ccccc32)cc1
REMARK SMILES IDX 26 1 24 2 25 3 17 4 16 5 14 6 15 7 12 9 13 10 11 11 9 12
REMARK SMILES IDX 10 13 85 14 80 15 84 16 81 17 83 18 82 19 6 20 7 21 8 22
REMARK SMILES IDX 5 23 1 24 2 25 3 26 87 27 4 28 86 29 18 30 19 31 20 32 23 33
REMARK SMILES IDX 21 34 22 35 27 37 28 38 29 39 30 40 31 41 32 42 33 43 79 44
REMARK SMILES IDX 34 45 78 46 35 47 36 48 37 49 72 50 38 51 77 52 71 53 73 54
REMARK SMILES IDX 39 55 76 56 70 57 69 58 40 60 62 61 47 62 61 63 48 64 51 65
REMARK SMILES IDX 60 66 74 67 49 68 50 69 59 71 75 72 52 73 41 74 42 75 46 76
REMARK SMILES IDX 43 77 45 78 44 79 63 80 64 81 68 82 65 83 67 84 66 85 53 86
REMARK SMILES IDX 54 87 58 88 55 89 57 90 56 91
REMARK H PARENT 16 8 23 36 73 59 51 70
REMARK Flexibility Score: inf
ROOT
ATOM      1  O   UNL     1      -7.151   8.452   5.923  1.00  0.00    -0.461 OA
ENDROOT
BRANCH   1   2
ATOM      2  C   UNL     1      -6.974   8.086   4.522  1.00  0.00     0.329 C 
ATOM      3  O   UNL     1      -6.046   8.847   4.138  1.00  0.00    -0.250 OA
BRANCH   2   4
ATOM      4  C   UNL     1      -8.015   6.399   3.562  1.00  0.00     0.198 C 
BRANCH   4   5
ATOM      5  N   UNL     1      -7.590   4.763   3.537  1.00  0.00    -0.335 N 
ATOM      6  C   UNL     1      -7.058   3.864   2.634  1.00  0.00     0.293 C 
ATOM      7  O   UNL     1      -7.064   2.681   2.969  1.00  0.00    -0.265 OA
ATOM      8  H   UNL     1      -7.770   4.334   4.405  1.00  0.00     0.164 HD
BRANCH   6   9
ATOM      9  C   UNL     1      -6.472   4.264   1.254  1.00  0.00     0.252 C 
ATOM     10  O   UNL     1      -6.907   5.279   0.715  1.00  0.00    -0.283 OA
BRANCH   9  11
ATOM     11  C   UNL     1      -5.465   3.414   0.566  1.00  0.00     0.054 A 
ATOM     12  N   UNL     1      -4.210   1.652  -0.042  1.00  0.00    -0.240 N 
ATOM     13  C   UNL     1      -5.073   2.129   0.914  1.00  0.00     0.117 A 
ATOM     14  C   UNL     1      -3.991   2.592  -1.024  1.00  0.00     0.065 A 
ATOM     15  C   UNL     1      -4.715   3.732  -0.633  1.00  0.00     0.012 A 
ATOM     16  C   UNL     1      -3.222   2.560  -2.204  1.00  0.00     0.028 A 
ATOM     17  C   UNL     1      -4.606   4.889  -1.438  1.00  0.00     0.011 A 
ATOM     18  C   UNL     1      -3.127   3.725  -2.966  1.00  0.00     0.002 A 
ATOM     19  C   UNL     1      -3.799   4.879  -2.583  1.00  0.00     0.001 A 
BRANCH  12  20
ATOM     20  S   UNL     1      -3.595   0.058  -0.055  1.00  0.00     0.268 S 
ATOM     21  O   UNL     1      -3.950  -0.468  -1.360  1.00  0.00    -0.201 OA
ATOM     22  O   UNL     1      -4.064  -0.557   1.173  1.00  0.00    -0.201 OA
BRANCH  20  23
ATOM     23  C   UNL     1      -1.823   0.108   0.035  1.00  0.00     0.088 A 
ATOM     24  C   UNL     1       2.482  -0.038   0.006  1.00  0.00     0.044 C 
ATOM     25  C   UNL     1       0.982   0.017   0.032  1.00  0.00    -0.051 A 
ATOM     26  C   UNL     1       0.239  -1.168  -0.026  1.00  0.00     0.005 A 
ATOM     27  C   UNL     1       0.307   1.241   0.118  1.00  0.00     0.005 A 
ATOM     28  C   UNL     1      -1.157  -1.124  -0.032  1.00  0.00     0.022 A 
ATOM     29  C   UNL     1      -1.091   1.291   0.136  1.00  0.00     0.022 A 
ENDBRANCH  20  23
ENDBRANCH  12  20
ENDBRANCH   9  11
ENDBRANCH   6   9
ENDBRANCH   4   5
BRANCH   4  30
ATOM     30  C   UNL     1      -9.747   5.989   3.366  1.00  0.00     0.092 C 
BRANCH  30  31
ATOM     31  C   UNL     1     -10.485   5.383   4.541  1.00  0.00     0.037 A 
ATOM     32  C   UNL     1     -10.534   4.111   5.072  1.00  0.00     0.134 A 
ATOM     33  N   UNL     1     -11.333   6.102   5.361  1.00  0.00    -0.348 N 
ATOM     34  N   UNL     1     -11.185   4.108   6.282  1.00  0.00    -0.245 NA
ATOM     35  C   UNL     1     -11.602   5.338   6.457  1.00  0.00     0.196 A 
ATOM     36  H   UNL     1     -11.682   7.006   5.185  1.00  0.00     0.167 HD
ENDBRANCH  30  31
ENDBRANCH   4  30
ENDBRANCH   2   4
ENDBRANCH   1   2
BRANCH   1  37
ATOM     37  C   UNL     1      -5.993   8.867   6.667  1.00  0.00     0.274 C 
BRANCH  37  38
ATOM     38  C   UNL     1      -5.061   7.672   6.923  1.00  0.00     0.275 C 
BRANCH  38  39
ATOM     39  O   UNL     1      -4.306   7.185   5.776  1.00  0.00    -0.458 OA
BRANCH  39  40
ATOM     40  C   UNL     1      -4.676   6.152   4.966  1.00  0.00     0.338 C 
ATOM     41  O   UNL     1      -3.892   5.368   4.455  1.00  0.00    -0.246 OA
BRANCH  40  42
ATOM     42  C   UNL     1      -6.036   6.269   4.417  1.00  0.00     0.060 A 
ATOM     43  C   UNL     1      -6.150   7.138   2.836  1.00  0.00     0.016 A 
ATOM     44  C   UNL     1      -7.426   6.292   5.557  1.00  0.00     0.016 A 
ATOM     45  C   UNL     1      -7.559   8.245   2.512  1.00  0.00     0.010 A 
ATOM     46  C   UNL     1      -8.821   7.383   5.213  1.00  0.00     0.010 A 
ATOM     47  C   UNL     1      -8.847   8.405   3.728  1.00  0.00    -0.014 A 
BRANCH  47  48
ATOM     48  C   UNL     1      -9.661   9.604   3.973  1.00  0.00     0.031 A 
ATOM     49  C   UNL     1     -11.095   9.380   4.184  1.00  0.00     0.074 A 
ATOM     50  C   UNL     1      -9.038  10.682   4.495  1.00  0.00     0.049 A 
ATOM     51  N   UNL     1     -11.703   9.514   5.317  1.00  0.00    -0.248 NA
ATOM     52  C   UNL     1     -11.912   8.777   3.124  1.00  0.00     0.031 C 
ATOM     53  C   UNL     1      -9.586  11.749   5.323  1.00  0.00     0.029 A 
ATOM     54  N   UNL     1      -7.772  11.141   4.170  1.00  0.00    -0.354 N 
ATOM     55  C   UNL     1     -13.027   9.211   5.093  1.00  0.00     0.074 A 
ATOM     56  C   UNL     1     -13.062   8.578   3.775  1.00  0.00     0.031 C 
ATOM     57  C   UNL     1      -8.805  12.839   5.210  1.00  0.00     0.029 A 
ATOM     58  C   UNL     1      -7.779  12.546   4.221  1.00  0.00     0.049 A 
ATOM     59  H   UNL     1      -6.998  10.578   3.941  1.00  0.00     0.167 HD
ATOM     60  C   UNL     1     -14.003  10.111   5.378  1.00  0.00     0.031 A 
ATOM     61  C   UNL     1      -7.624  13.210   3.035  1.00  0.00     0.031 A 
ATOM     62  C   UNL     1     -13.577  11.483   5.245  1.00  0.00     0.049 A 
ATOM     63  C   UNL     1      -8.962  13.679   2.486  1.00  0.00     0.074 A 
ATOM     64  C   UNL     1     -13.087  12.444   6.105  1.00  0.00     0.029 A 
ATOM     65  N   UNL     1     -13.366  11.960   3.962  1.00  0.00    -0.354 N 
ATOM     66  N   UNL     1     -10.119  13.346   2.999  1.00  0.00    -0.248 NA
ATOM     67  C   UNL     1      -9.115  14.531   1.311  1.00  0.00     0.031 C 
ATOM     68  C   UNL     1     -12.527  13.489   5.307  1.00  0.00     0.029 A 
ATOM     69  C   UNL     1     -12.732  13.185   3.970  1.00  0.00     0.049 A 
ATOM     70  H   UNL     1     -13.635  11.483   3.144  1.00  0.00     0.167 HD
ATOM     71  C   UNL     1     -11.132  13.947   2.314  1.00  0.00     0.074 A 
ATOM     72  C   UNL     1     -10.455  14.617   1.213  1.00  0.00     0.031 C 
ATOM     73  C   UNL     1     -12.439  13.861   2.710  1.00  0.00     0.031 A 
BRANCH  60  74
ATOM     74  C   UNL     1     -15.214   9.585   6.084  1.00  0.00    -0.014 A 
ATOM     75  C   UNL     1     -16.117  10.476   6.680  1.00  0.00     0.009 A 
ATOM     76  C   UNL     1     -15.454   8.204   6.264  1.00  0.00     0.009 A 
ATOM     77  C   UNL     1     -17.182  10.012   7.463  1.00  0.00     0.001 A 
ATOM     78  C   UNL     1     -16.521   7.739   7.041  1.00  0.00     0.001 A 
ATOM     79  C   UNL     1     -17.378   8.646   7.652  1.00  0.00     0.000 A 
ENDBRANCH  60  74
BRANCH  61  80
ATOM     80  C   UNL     1      -6.477  12.623   2.262  1.00  0.00    -0.014 A 
ATOM     81  C   UNL     1      -5.222  12.631   2.921  1.00  0.00     0.009 A 
ATOM     82  C   UNL     1      -6.678  11.690   1.237  1.00  0.00     0.009 A 
ATOM     83  C   UNL     1      -4.307  11.592   2.733  1.00  0.00     0.001 A 
ATOM     84  C   UNL     1      -5.718  10.690   1.004  1.00  0.00     0.001 A 
ATOM     85  C   UNL     1      -4.576  10.599   1.800  1.00  0.00     0.000 A 
ENDBRANCH  61  80
BRANCH  73  86
ATOM     86  C   UNL     1     -13.570  14.444   1.909  1.00  0.00    -0.014 A 
ATOM     87  C   UNL     1     -13.465  15.664   1.232  1.00  0.00     0.009 A 
ATOM     88  C   UNL     1     -14.818  13.790   1.850  1.00  0.00     0.009 A 
ATOM     89  C   UNL     1     -14.498  16.130   0.413  1.00  0.00     0.001 A 
ATOM     90  C   UNL     1     -15.868  14.271   1.067  1.00  0.00     0.001 A 
ATOM     91  C   UNL     1     -15.694  15.425   0.318  1.00  0.00     0.000 A 
ENDBRANCH  73  86
ENDBRANCH  47  48
ENDBRANCH  40  42
ENDBRANCH  39  40
ENDBRANCH  38  39
ENDBRANCH  37  38
ENDBRANCH   1  37
TORSDOF 18
