REMARK SMILES COc1cc(/C=C2/S/C(=[NH+]\C(C)=O)NC2=O)cc(Br)c1OCC(=O)OCCOC(=O)c1ccc(-c2c3nc(c(-c4ccccc4)c4ccc([nH]4)c(-c4ccccc4)c4nc(c(-c5ccccc5)c5ccc2[nH]5)C=C4)C=C3)cc1
REMARK SMILES IDX 26 1 25 2 23 3 24 4 22 5 21 6 20 7 3 8 4 9 5 10 18 11 17 12
REMARK SMILES IDX 19 13 2 14 1 15 6 16 7 17 8 18 15 19 9 20 14 21 16 22 10 23
REMARK SMILES IDX 11 25 12 27 13 28 27 29 28 30 29 31 30 32 31 33 32 34 78 35
REMARK SMILES IDX 33 36 77 37 34 38 35 39 36 40 71 41 37 42 76 43 70 44 72 45
REMARK SMILES IDX 38 46 75 47 69 48 68 49 39 51 61 52 46 53 60 54 47 55 50 56
REMARK SMILES IDX 59 57 73 58 48 59 49 60 58 62 74 63 51 64 40 65 41 66 45 67
REMARK SMILES IDX 42 68 44 69 43 70 62 71 63 72 67 73 64 74 66 75 65 76 52 77
REMARK SMILES IDX 53 78 57 79 54 80 56 81 55 82
REMARK H PARENT 14 24 10 26 72 50 50 61
REMARK Flexibility Score: inf
ROOT
ATOM      1  C   UNL     1      -3.160  -4.023   3.366  1.00  0.00     0.274 C 
ENDROOT
BRANCH   1   2
ATOM      2  O   UNL     1      -2.633  -2.700   3.090  1.00  0.00    -0.460 OA
BRANCH   2   3
ATOM      3  C   UNL     1      -2.965  -1.741   3.990  1.00  0.00     0.344 C 
ATOM      4  O   UNL     1      -3.699  -1.943   4.958  1.00  0.00    -0.248 OA
BRANCH   3   5
ATOM      5  C   UNL     1      -2.420  -0.326   3.697  1.00  0.00     0.352 C 
BRANCH   5   6
ATOM      6  O   UNL     1      -1.375   0.086   2.836  1.00  0.00    -0.477 OA
BRANCH   6   7
ATOM      7  C   UNL     1      -0.100  -0.335   3.102  1.00  0.00     0.176 A 
ATOM      8  C   UNL     1       0.647  -0.768   1.992  1.00  0.00     0.162 A 
ATOM      9  C   UNL     1       1.889  -1.397   2.168  1.00  0.00     0.058 A 
ATOM     10  C   UNL     1       2.429  -1.545   3.447  1.00  0.00    -0.019 A 
ATOM     11  C   UNL     1       0.567  -0.254   4.327  1.00  0.00     0.064 A 
ATOM     12  C   UNL     1       1.794  -0.914   4.519  1.00  0.00     0.028 A 
ATOM     13  Br  UNL     1       0.076   1.004   5.669  1.00  0.00    -0.047 Br
BRANCH   8  14
ATOM     14  O   UNL     1       0.099  -0.523   0.754  1.00  0.00    -0.493 OA
ATOM     15  C   UNL     1       1.030  -0.251  -0.290  1.00  0.00     0.278 C 
ENDBRANCH   8  14
BRANCH  10  16
ATOM     16  C   UNL     1       3.709  -2.232   3.650  1.00  0.00     0.032 C 
ATOM     17  C   UNL     1       3.897  -3.552   3.813  1.00  0.00     0.110 C 
ATOM     18  S   UNL     1       5.468  -4.231   4.128  1.00  0.00     0.007 SA
ATOM     19  C   UNL     1       2.905  -4.659   3.808  1.00  0.00     0.346 C 
ATOM     20  C   UNL     1       4.849  -5.823   4.418  1.00  0.00     0.324 C 
ATOM     21  N   UNL     1       3.506  -5.816   4.207  1.00  0.00    -0.199 N 
ATOM     22  O   UNL     1       1.735  -4.606   3.454  1.00  0.00    -0.240 OA
ATOM     23  N   UNL     1       5.373  -6.937   4.759  1.00  0.00    -0.204 N 
ATOM     24  H   UNL     1       2.976  -6.634   4.339  1.00  0.00     0.316 HD
ATOM     25  C   UNL     1       6.669  -7.303   5.002  1.00  0.00     0.304 C 
ATOM     26  H   UNL     1       4.723  -7.668   4.866  1.00  0.00     0.316 HD
ATOM     27  C   UNL     1       7.813  -6.340   5.145  1.00  0.00     0.144 C 
ATOM     28  O   UNL     1       6.929  -8.498   5.159  1.00  0.00    -0.247 OA
ENDBRANCH  10  16
ENDBRANCH   6   7
ENDBRANCH   5   6
ENDBRANCH   3   5
ENDBRANCH   2   3
ENDBRANCH   1   2
BRANCH   1  29
ATOM     29  C   UNL     1      -2.151  -4.957   4.055  1.00  0.00     0.275 C 
BRANCH  29  30
ATOM     30  O   UNL     1      -1.854  -4.569   5.414  1.00  0.00    -0.458 OA
BRANCH  30  31
ATOM     31  C   UNL     1      -0.879  -3.643   5.486  1.00  0.00     0.338 C 
ATOM     32  O   UNL     1      -0.300  -3.121   4.547  1.00  0.00    -0.246 OA
BRANCH  31  33
ATOM     33  C   UNL     1      -0.609  -3.165   6.841  1.00  0.00     0.060 A 
ATOM     34  C   UNL     1      -1.174  -1.946   7.197  1.00  0.00     0.016 A 
ATOM     35  C   UNL     1       0.445  -3.699   7.583  1.00  0.00     0.016 A 
ATOM     36  C   UNL     1      -0.617  -1.206   8.234  1.00  0.00     0.010 A 
ATOM     37  C   UNL     1       0.946  -2.985   8.683  1.00  0.00     0.010 A 
ATOM     38  C   UNL     1       0.453  -1.705   8.992  1.00  0.00    -0.014 A 
BRANCH  38  39
ATOM     39  C   UNL     1       1.040  -0.862  10.074  1.00  0.00     0.031 A 
ATOM     40  C   UNL     1       2.503  -0.482  10.077  1.00  0.00     0.074 A 
ATOM     41  C   UNL     1       0.240  -0.387  11.051  1.00  0.00     0.049 A 
ATOM     42  N   UNL     1       3.188   0.163  10.992  1.00  0.00    -0.248 NA
ATOM     43  C   UNL     1       3.303  -0.882   8.910  1.00  0.00     0.031 C 
ATOM     44  C   UNL     1      -1.202  -0.622  11.156  1.00  0.00     0.029 A 
ATOM     45  N   UNL     1       0.523   0.409  12.134  1.00  0.00    -0.354 N 
ATOM     46  C   UNL     1       4.501   0.203  10.535  1.00  0.00     0.074 A 
ATOM     47  C   UNL     1       4.520  -0.491   9.264  1.00  0.00     0.031 C 
ATOM     48  C   UNL     1      -1.685   0.054  12.207  1.00  0.00     0.029 A 
ATOM     49  C   UNL     1      -0.576   0.683  12.912  1.00  0.00     0.049 A 
ATOM     50  H   UNL     1       1.425   0.750  12.334  1.00  0.00     0.167 HD
ATOM     51  C   UNL     1       5.591   0.762  11.120  1.00  0.00     0.031 A 
ATOM     52  C   UNL     1      -0.689   1.327  14.087  1.00  0.00     0.031 A 
ATOM     53  C   UNL     1       5.571   1.475  12.375  1.00  0.00     0.049 A 
ATOM     54  C   UNL     1       0.540   1.884  14.740  1.00  0.00     0.074 A 
ATOM     55  C   UNL     1       6.625   2.083  13.038  1.00  0.00     0.029 A 
ATOM     56  N   UNL     1       4.442   1.683  13.153  1.00  0.00    -0.354 N 
ATOM     57  N   UNL     1       1.779   1.877  14.314  1.00  0.00    -0.248 NA
ATOM     58  C   UNL     1       0.351   2.538  16.041  1.00  0.00     0.031 C 
ATOM     59  C   UNL     1       6.145   2.607  14.244  1.00  0.00     0.029 A 
ATOM     60  C   UNL     1       4.778   2.391  14.298  1.00  0.00     0.049 A 
ATOM     61  H   UNL     1       3.536   1.373  12.926  1.00  0.00     0.167 HD
ATOM     62  C   UNL     1       2.513   2.551  15.280  1.00  0.00     0.074 A 
ATOM     63  C   UNL     1       1.576   2.970  16.302  1.00  0.00     0.031 C 
ATOM     64  C   UNL     1       3.845   2.801  15.315  1.00  0.00     0.031 A 
BRANCH  51  65
ATOM     65  C   UNL     1       6.923   0.588  10.436  1.00  0.00    -0.014 A 
ATOM     66  C   UNL     1       7.235   1.250   9.238  1.00  0.00     0.009 A 
ATOM     67  C   UNL     1       7.909  -0.213  11.038  1.00  0.00     0.009 A 
ATOM     68  C   UNL     1       8.489   1.087   8.643  1.00  0.00     0.001 A 
ATOM     69  C   UNL     1       9.172  -0.349  10.459  1.00  0.00     0.001 A 
ATOM     70  C   UNL     1       9.458   0.293   9.257  1.00  0.00     0.000 A 
ENDBRANCH  51  65
BRANCH  52  71
ATOM     71  C   UNL     1      -2.017   1.437  14.745  1.00  0.00    -0.014 A 
ATOM     72  C   UNL     1      -2.647   2.682  14.885  1.00  0.00     0.009 A 
ATOM     73  C   UNL     1      -2.664   0.289  15.234  1.00  0.00     0.009 A 
ATOM     74  C   UNL     1      -3.885   2.778  15.524  1.00  0.00     0.001 A 
ATOM     75  C   UNL     1      -3.918   0.384  15.836  1.00  0.00     0.001 A 
ATOM     76  C   UNL     1      -4.522   1.629  15.992  1.00  0.00     0.000 A 
ENDBRANCH  52  71
BRANCH  64  77
ATOM     77  C   UNL     1       4.353   3.618  16.472  1.00  0.00    -0.014 A 
ATOM     78  C   UNL     1       4.370   3.113  17.782  1.00  0.00     0.009 A 
ATOM     79  C   UNL     1       4.813   4.925  16.244  1.00  0.00     0.009 A 
ATOM     80  C   UNL     1       4.785   3.920  18.845  1.00  0.00     0.001 A 
ATOM     81  C   UNL     1       5.261   5.716  17.303  1.00  0.00     0.001 A 
ATOM     82  C   UNL     1       5.231   5.218  18.604  1.00  0.00     0.000 A 
ENDBRANCH  64  77
ENDBRANCH  38  39
ENDBRANCH  31  33
ENDBRANCH  30  31
ENDBRANCH  29  30
ENDBRANCH   1  29
TORSDOF 15
