REMARK SMILES CCCCCCNC(=O)Oc1cccc(-c2ccc([C@@H](C)C(=O)OCCOC(=O)c3ccc(-c4c5nc(c(-c6ccccc6)c6ccc([nH]6)c(-c6ccccc6)c6nc(c(-c7ccccc7)c7ccc4[nH]7)C=C6)C=C5)cc3)cc2O)c1
REMARK SMILES IDX 20 1 21 2 19 3 16 4 17 5 79 6 18 7 78 8 15 9 11 10 12 11
REMARK SMILES IDX 81 12 13 13 14 14 10 15 8 16 7 17 9 19 6 20 5 21 4 22 3 23
REMARK SMILES IDX 2 24 1 25 80 26 22 28 23 29 24 30 25 31 26 32 27 33 28 34
REMARK SMILES IDX 29 35 30 36 31 37 77 38 32 39 76 40 33 41 34 42 35 43 70 44
REMARK SMILES IDX 36 45 75 46 69 47 71 48 37 49 74 50 68 51 67 52 38 54 60 55
REMARK SMILES IDX 45 56 59 57 46 58 49 59 58 60 72 61 47 62 48 63 57 65 73 66
REMARK SMILES IDX 50 67 39 68 40 69 44 70 41 71 43 72 42 73 61 74 62 75 66 76
REMARK SMILES IDX 63 77 65 78 64 79 51 80 52 81 56 82 53 83 55 84 54 85
REMARK H PARENT 7 18 80 27 71 53 49 64
REMARK Flexibility Score: inf
ROOT
ATOM      1  C   UNL     1      -5.099  -8.528  10.832  1.00  0.00     0.126 C 
ATOM      2  C   UNL     1      -6.410  -9.174  11.274  1.00  0.00     0.025 C 
ENDROOT
BRANCH   1   3
ATOM      3  C   UNL     1      -5.085  -8.202   9.346  1.00  0.00    -0.030 A 
ATOM      4  C   UNL     1      -5.127  -7.516   6.576  1.00  0.00     0.024 A 
ATOM      5  C   UNL     1      -5.278  -8.846   7.007  1.00  0.00     0.013 A 
ATOM      6  C   UNL     1      -4.946  -6.539   7.568  1.00  0.00     0.123 A 
ATOM      7  C   UNL     1      -5.267  -9.184   8.366  1.00  0.00     0.005 A 
ATOM      8  C   UNL     1      -4.919  -6.874   8.925  1.00  0.00     0.051 A 
BRANCH   4   9
ATOM      9  C   UNL     1      -5.213  -7.204   5.138  1.00  0.00    -0.011 A 
ATOM     10  C   UNL     1      -4.328  -6.205   3.112  1.00  0.00     0.133 A 
ATOM     11  C   UNL     1      -5.481  -6.543   2.408  1.00  0.00     0.047 A 
ATOM     12  C   UNL     1      -4.182  -6.530   4.463  1.00  0.00     0.056 A 
ATOM     13  C   UNL     1      -6.500  -7.233   3.057  1.00  0.00     0.004 A 
ATOM     14  C   UNL     1      -6.367  -7.553   4.410  1.00  0.00     0.009 A 
BRANCH  10  15
ATOM     15  O   UNL     1      -3.399  -5.395   2.437  1.00  0.00    -0.410 OA
BRANCH  15  16
ATOM     16  C   UNL     1      -2.061  -5.761   2.433  1.00  0.00     0.412 C 
ATOM     17  N   UNL     1      -1.266  -4.860   1.776  1.00  0.00    -0.321 N 
ATOM     18  H   UNL     1      -0.303  -5.064   1.746  1.00  0.00     0.167 HD
ATOM     19  O   UNL     1      -1.589  -6.772   2.934  1.00  0.00    -0.224 OA
BRANCH  17  20
ATOM     20  C   UNL     1      -1.691  -3.639   1.120  1.00  0.00     0.119 C 
BRANCH  20  21
ATOM     21  C   UNL     1      -1.096  -2.394   1.777  1.00  0.00     0.021 C 
BRANCH  21  22
ATOM     22  C   UNL     1       0.433  -2.295   1.708  1.00  0.00     0.002 C 
BRANCH  22  23
ATOM     23  C   UNL     1       1.036  -2.318   0.298  1.00  0.00    -0.000 C 
BRANCH  23  24
ATOM     24  C   UNL     1       0.551  -1.214  -0.645  1.00  0.00    -0.003 C 
ATOM     25  C   UNL     1       0.915   0.185  -0.173  1.00  0.00     0.004 C 
ENDBRANCH  23  24
ENDBRANCH  22  23
ENDBRANCH  21  22
ENDBRANCH  20  21
ENDBRANCH  17  20
ENDBRANCH  15  16
ENDBRANCH  10  15
ENDBRANCH   4   9
BRANCH   6  26
ATOM     26  O   UNL     1      -4.832  -5.201   7.294  1.00  0.00    -0.507 OA
ATOM     27  H   UNL     1      -4.842  -4.902   6.406  1.00  0.00     0.293 HD
ENDBRANCH   6  26
ENDBRANCH   1   3
BRANCH   1  28
ATOM     28  C   UNL     1      -3.918  -9.336  11.355  1.00  0.00     0.313 C 
ATOM     29  O   UNL     1      -3.501  -9.209  12.503  1.00  0.00    -0.252 OA
BRANCH  28  30
ATOM     30  O   UNL     1      -3.424 -10.229  10.459  1.00  0.00    -0.462 OA
BRANCH  30  31
ATOM     31  C   UNL     1      -2.286 -11.007  10.876  1.00  0.00     0.274 C 
BRANCH  31  32
ATOM     32  C   UNL     1      -0.979 -10.432  10.325  1.00  0.00     0.275 C 
BRANCH  32  33
ATOM     33  O   UNL     1      -0.667  -9.166  10.936  1.00  0.00    -0.458 OA
BRANCH  33  34
ATOM     34  C   UNL     1      -1.033  -8.084  10.213  1.00  0.00     0.338 C 
ATOM     35  O   UNL     1      -1.530  -8.069   9.101  1.00  0.00    -0.246 OA
BRANCH  34  36
ATOM     36  C   UNL     1      -0.855  -6.864  11.012  1.00  0.00     0.060 A 
ATOM     37  C   UNL     1      -2.000  -6.154  11.379  1.00  0.00     0.016 A 
ATOM     38  C   UNL     1       0.414  -6.354  11.290  1.00  0.00     0.016 A 
ATOM     39  C   UNL     1      -1.888  -4.911  11.991  1.00  0.00     0.010 A 
ATOM     40  C   UNL     1       0.527  -5.106  11.915  1.00  0.00     0.010 A 
ATOM     41  C   UNL     1      -0.624  -4.366  12.243  1.00  0.00    -0.014 A 
BRANCH  41  42
ATOM     42  C   UNL     1      -0.527  -2.980  12.759  1.00  0.00     0.031 A 
ATOM     43  C   UNL     1      -0.131  -1.866  11.830  1.00  0.00     0.074 A 
ATOM     44  C   UNL     1      -0.853  -2.709  14.037  1.00  0.00     0.049 A 
ATOM     45  N   UNL     1       0.026  -0.591  12.088  1.00  0.00    -0.248 NA
ATOM     46  C   UNL     1       0.121  -2.233  10.428  1.00  0.00     0.031 C 
ATOM     47  C   UNL     1      -1.301  -3.692  15.023  1.00  0.00     0.029 A 
ATOM     48  N   UNL     1      -0.867  -1.518  14.718  1.00  0.00    -0.354 N 
ATOM     49  C   UNL     1       0.415  -0.010  10.887  1.00  0.00     0.074 A 
ATOM     50  C   UNL     1       0.486  -1.070   9.905  1.00  0.00     0.031 C 
ATOM     51  C   UNL     1      -1.558  -3.062  16.182  1.00  0.00     0.029 A 
ATOM     52  C   UNL     1      -1.256  -1.641  16.029  1.00  0.00     0.049 A 
ATOM     53  H   UNL     1      -0.621  -0.658  14.307  1.00  0.00     0.167 HD
ATOM     54  C   UNL     1       0.684   1.291  10.625  1.00  0.00     0.031 A 
ATOM     55  C   UNL     1      -1.345  -0.715  17.002  1.00  0.00     0.031 A 
ATOM     56  C   UNL     1       0.598   2.351  11.594  1.00  0.00     0.049 A 
ATOM     57  C   UNL     1      -0.996   0.715  16.694  1.00  0.00     0.074 A 
ATOM     58  C   UNL     1       0.842   3.703  11.417  1.00  0.00     0.029 A 
ATOM     59  N   UNL     1       0.235   2.179  12.919  1.00  0.00    -0.354 N 
ATOM     60  N   UNL     1      -0.628   1.250  15.555  1.00  0.00    -0.248 NA
ATOM     61  C   UNL     1      -1.077   1.670  17.809  1.00  0.00     0.031 C 
ATOM     62  C   UNL     1       0.664   4.343  12.648  1.00  0.00     0.029 A 
ATOM     63  C   UNL     1       0.267   3.397  13.578  1.00  0.00     0.049 A 
ATOM     64  H   UNL     1      -0.009   1.319  13.332  1.00  0.00     0.167 HD
ATOM     65  C   UNL     1      -0.452   2.603  15.812  1.00  0.00     0.074 A 
ATOM     66  C   UNL     1      -0.772   2.811  17.208  1.00  0.00     0.031 C 
ATOM     67  C   UNL     1      -0.054   3.586  14.967  1.00  0.00     0.031 A 
BRANCH  54  68
ATOM     68  C   UNL     1       1.131   1.638   9.234  1.00  0.00    -0.014 A 
ATOM     69  C   UNL     1       0.223   1.682   8.166  1.00  0.00     0.009 A 
ATOM     70  C   UNL     1       2.476   1.965   9.001  1.00  0.00     0.009 A 
ATOM     71  C   UNL     1       0.659   2.025   6.884  1.00  0.00     0.001 A 
ATOM     72  C   UNL     1       2.904   2.329   7.723  1.00  0.00     0.001 A 
ATOM     73  C   UNL     1       1.997   2.352   6.665  1.00  0.00     0.000 A 
ENDBRANCH  54  68
BRANCH  55  74
ATOM     74  C   UNL     1      -1.754  -1.109  18.374  1.00  0.00    -0.014 A 
ATOM     75  C   UNL     1      -2.993  -0.708  18.896  1.00  0.00     0.009 A 
ATOM     76  C   UNL     1      -0.890  -1.866  19.180  1.00  0.00     0.009 A 
ATOM     77  C   UNL     1      -3.346  -1.034  20.208  1.00  0.00     0.001 A 
ATOM     78  C   UNL     1      -1.256  -2.214  20.482  1.00  0.00     0.001 A 
ATOM     79  C   UNL     1      -2.479  -1.789  20.998  1.00  0.00     0.000 A 
ENDBRANCH  55  74
BRANCH  67  80
ATOM     80  C   UNL     1       0.028   4.976  15.529  1.00  0.00    -0.014 A 
ATOM     81  C   UNL     1       1.073   5.349  16.388  1.00  0.00     0.009 A 
ATOM     82  C   UNL     1      -0.937   5.929  15.172  1.00  0.00     0.009 A 
ATOM     83  C   UNL     1       1.130   6.644  16.906  1.00  0.00     0.001 A 
ATOM     84  C   UNL     1      -0.864   7.230  15.672  1.00  0.00     0.001 A 
ATOM     85  C   UNL     1       0.165   7.584  16.545  1.00  0.00     0.000 A 
ENDBRANCH  67  80
ENDBRANCH  41  42
ENDBRANCH  34  36
ENDBRANCH  33  34
ENDBRANCH  32  33
ENDBRANCH  31  32
ENDBRANCH  30  31
ENDBRANCH  28  30
ENDBRANCH   1  28
TORSDOF 21
