REMARK SMILES O=C(Cc1c[nH]c(=O)n(Cc2ccccc2)c1=O)OCCOC(=O)c1ccc(-c2c3nc(c(-c4ccccc4)c4ccc([nH]4)c(-c4ccccc4)c4nc(c(-c5ccccc5)c5ccc2[nH]5)C=C4)C=C3)cc1
REMARK SMILES IDX 20 1 19 2 2 3 1 4 3 5 4 6 5 7 17 8 6 9 9 10 18 11 7 12 8 14
REMARK SMILES IDX 10 15 11 16 12 17 16 18 13 19 15 20 14 21 21 22 22 23 23 24
REMARK SMILES IDX 24 25 25 26 26 27 72 28 27 29 71 30 28 31 29 32 30 33 65 34
REMARK SMILES IDX 31 35 70 36 64 37 66 38 32 39 69 40 63 41 62 42 33 44 55 45
REMARK SMILES IDX 40 46 54 47 41 48 44 49 53 50 67 51 42 52 43 53 52 55 68 56
REMARK SMILES IDX 45 57 34 58 35 59 39 60 36 61 38 62 37 63 56 64 57 65 61 66
REMARK SMILES IDX 58 67 60 68 59 69 46 70 47 71 51 72 48 73 50 74 49 75
REMARK H PARENT 6 13 66 43 44 54
REMARK Flexibility Score: inf
ROOT
ATOM      1  C   UNL     1       4.385  -0.219  -1.049  1.00  0.00     0.274 C 
ENDROOT
BRANCH   1   2
ATOM      2  O   UNL     1       3.018  -0.669  -0.918  1.00  0.00    -0.462 OA
BRANCH   2   3
ATOM      3  C   UNL     1       2.240  -0.531   0.180  1.00  0.00     0.310 C 
ATOM      4  O   UNL     1       1.079  -0.937   0.177  1.00  0.00    -0.252 OA
BRANCH   3   5
ATOM      5  C   UNL     1       2.783   0.226   1.378  1.00  0.00     0.165 C 
BRANCH   5   6
ATOM      6  C   UNL     1       3.653  -0.440   2.392  1.00  0.00     0.045 A 
ATOM      7  C   UNL     1       4.294   0.298   3.306  1.00  0.00     0.097 A 
ATOM      8  C   UNL     1       3.850  -1.912   2.422  1.00  0.00     0.260 A 
ATOM      9  N   UNL     1       5.019  -0.275   4.299  1.00  0.00    -0.314 N 
ATOM     10  N   UNL     1       4.610  -2.412   3.468  1.00  0.00    -0.256 N 
ATOM     11  O   UNL     1       3.368  -2.609   1.535  1.00  0.00    -0.269 OA
ATOM     12  C   UNL     1       5.155  -1.624   4.467  1.00  0.00     0.328 A 
ATOM     13  H   UNL     1       5.475   0.318   4.939  1.00  0.00     0.171 HD
ATOM     14  O   UNL     1       5.733  -2.043   5.467  1.00  0.00    -0.248 OA
BRANCH  10  15
ATOM     15  C   UNL     1       4.874  -3.843   3.509  1.00  0.00     0.166 C 
BRANCH  15  16
ATOM     16  C   UNL     1       6.228  -4.170   2.907  1.00  0.00    -0.028 A 
ATOM     17  C   UNL     1       7.393  -4.050   3.681  1.00  0.00     0.005 A 
ATOM     18  C   UNL     1       6.348  -4.544   1.562  1.00  0.00     0.005 A 
ATOM     19  C   UNL     1       8.649  -4.288   3.123  1.00  0.00     0.000 A 
ATOM     20  C   UNL     1       7.606  -4.798   1.009  1.00  0.00     0.000 A 
ATOM     21  C   UNL     1       8.755  -4.664   1.788  1.00  0.00     0.000 A 
ENDBRANCH  15  16
ENDBRANCH  10  15
ENDBRANCH   5   6
ENDBRANCH   3   5
ENDBRANCH   2   3
ENDBRANCH   1   2
BRANCH   1  22
ATOM     22  C   UNL     1       4.451   1.084  -1.851  1.00  0.00     0.275 C 
BRANCH  22  23
ATOM     23  O   UNL     1       4.039   2.182  -1.016  1.00  0.00    -0.458 OA
BRANCH  23  24
ATOM     24  C   UNL     1       2.771   2.632  -1.186  1.00  0.00     0.338 C 
ATOM     25  O   UNL     1       1.996   2.328  -2.075  1.00  0.00    -0.246 OA
BRANCH  24  26
ATOM     26  C   UNL     1       2.384   3.390   0.031  1.00  0.00     0.060 A 
ATOM     27  C   UNL     1       3.316   4.147   0.749  1.00  0.00     0.016 A 
ATOM     28  C   UNL     1       1.073   3.257   0.508  1.00  0.00     0.016 A 
ATOM     29  C   UNL     1       2.931   4.781   1.932  1.00  0.00     0.010 A 
ATOM     30  C   UNL     1       0.687   3.897   1.690  1.00  0.00     0.010 A 
ATOM     31  C   UNL     1       1.608   4.679   2.400  1.00  0.00    -0.014 A 
BRANCH  31  32
ATOM     32  C   UNL     1       1.158   5.572   3.494  1.00  0.00     0.031 A 
ATOM     33  C   UNL     1       1.006   5.115   4.911  1.00  0.00     0.074 A 
ATOM     34  C   UNL     1       0.897   6.853   3.172  1.00  0.00     0.049 A 
ATOM     35  N   UNL     1       0.782   5.838   5.979  1.00  0.00    -0.248 NA
ATOM     36  C   UNL     1       1.116   3.673   5.169  1.00  0.00     0.031 C 
ATOM     37  C   UNL     1       0.974   7.406   1.818  1.00  0.00     0.029 A 
ATOM     38  N   UNL     1       0.535   7.920   3.952  1.00  0.00    -0.354 N 
ATOM     39  C   UNL     1       0.749   4.949   7.044  1.00  0.00     0.074 A 
ATOM     40  C   UNL     1       0.935   3.624   6.485  1.00  0.00     0.031 C 
ATOM     41  C   UNL     1       0.699   8.716   1.866  1.00  0.00     0.029 A 
ATOM     42  C   UNL     1       0.410   9.091   3.247  1.00  0.00     0.049 A 
ATOM     43  H   UNL     1       0.379   7.853   4.922  1.00  0.00     0.167 HD
ATOM     44  C   UNL     1       0.591   5.220   8.362  1.00  0.00     0.031 A 
ATOM     45  C   UNL     1       0.114  10.337   3.659  1.00  0.00     0.031 A 
ATOM     46  C   UNL     1       0.357   6.536   8.906  1.00  0.00     0.049 A 
ATOM     47  C   UNL     1      -0.090  10.604   5.119  1.00  0.00     0.074 A 
ATOM     48  C   UNL     1       0.236   6.907  10.236  1.00  0.00     0.029 A 
ATOM     49  N   UNL     1       0.184   7.690   8.158  1.00  0.00    -0.354 N 
ATOM     50  N   UNL     1      -0.016   9.767   6.125  1.00  0.00    -0.248 NA
ATOM     51  C   UNL     1      -0.397  11.988   5.502  1.00  0.00     0.031 C 
ATOM     52  C   UNL     1      -0.076   8.269  10.288  1.00  0.00     0.029 A 
ATOM     53  C   UNL     1      -0.081   8.764   8.995  1.00  0.00     0.049 A 
ATOM     54  H   UNL     1       0.240   7.740   7.176  1.00  0.00     0.167 HD
ATOM     55  C   UNL     1      -0.260  10.524   7.263  1.00  0.00     0.074 A 
ATOM     56  C   UNL     1      -0.457  11.891   6.824  1.00  0.00     0.031 C 
ATOM     57  C   UNL     1      -0.315  10.116   8.554  1.00  0.00     0.031 A 
BRANCH  44  58
ATOM     58  C   UNL     1       0.672   4.075   9.334  1.00  0.00    -0.014 A 
ATOM     59  C   UNL     1      -0.466   3.679  10.055  1.00  0.00     0.009 A 
ATOM     60  C   UNL     1       1.905   3.469   9.627  1.00  0.00     0.009 A 
ATOM     61  C   UNL     1      -0.369   2.711  11.058  1.00  0.00     0.001 A 
ATOM     62  C   UNL     1       1.994   2.484  10.613  1.00  0.00     0.001 A 
ATOM     63  C   UNL     1       0.859   2.113  11.334  1.00  0.00     0.000 A 
ENDBRANCH  44  58
BRANCH  45  64
ATOM     64  C   UNL     1       0.048  11.425   2.653  1.00  0.00    -0.014 A 
ATOM     65  C   UNL     1      -1.008  11.473   1.728  1.00  0.00     0.009 A 
ATOM     66  C   UNL     1       1.082  12.367   2.559  1.00  0.00     0.009 A 
ATOM     67  C   UNL     1      -1.014  12.430   0.713  1.00  0.00     0.001 A 
ATOM     68  C   UNL     1       1.059  13.339   1.557  1.00  0.00     0.001 A 
ATOM     69  C   UNL     1       0.018  13.363   0.630  1.00  0.00     0.000 A 
ENDBRANCH  45  64
BRANCH  57  70
ATOM     70  C   UNL     1      -0.620  11.159   9.595  1.00  0.00    -0.014 A 
ATOM     71  C   UNL     1       0.369  11.549  10.511  1.00  0.00     0.009 A 
ATOM     72  C   UNL     1      -1.903  11.718   9.703  1.00  0.00     0.009 A 
ATOM     73  C   UNL     1       0.081  12.474  11.516  1.00  0.00     0.001 A 
ATOM     74  C   UNL     1      -2.181  12.666  10.690  1.00  0.00     0.001 A 
ATOM     75  C   UNL     1      -1.191  13.039  11.599  1.00  0.00     0.000 A 
ENDBRANCH  57  70
ENDBRANCH  31  32
ENDBRANCH  24  26
ENDBRANCH  23  24
ENDBRANCH  22  23
ENDBRANCH   1  22
TORSDOF 14
