REMARK SMILES O=C(Cc1cccnc1Cl)OCCOC(=O)c1ccc(-c2c3nc(c(-c4ccccc4)c4ccc([nH]4)c(-c4ccccc4)c4nc(c(-c5ccccc5)c5ccc2[nH]5)C=C4)C=C3)cc1
REMARK SMILES IDX 13 1 12 2 11 3 2 4 1 5 3 6 4 7 5 8 9 9 6 10 8 11 10 12 7 13
REMARK SMILES IDX 14 14 15 15 16 16 17 17 18 18 64 19 19 20 63 21 20 22 21 23
REMARK SMILES IDX 22 24 57 25 23 26 62 27 56 28 58 29 24 30 61 31 55 32 54 33
REMARK SMILES IDX 25 35 47 36 32 37 46 38 33 39 36 40 45 41 59 42 34 43 35 44
REMARK SMILES IDX 44 46 60 47 37 48 26 49 27 50 31 51 28 52 30 53 29 54 48 55
REMARK SMILES IDX 49 56 53 57 50 58 52 59 51 60 38 61 39 62 43 63 40 64 42 65
REMARK SMILES IDX 41 66
REMARK H PARENT 58 34 36 45
REMARK Flexibility Score: inf
ROOT
ATOM      1  C   UNL     1       4.037  -1.934  -1.103  1.00  0.00     0.275 C 
ENDROOT
BRANCH   1   2
ATOM      2  C   UNL     1       4.031  -1.351   0.311  1.00  0.00     0.274 C 
BRANCH   2   3
ATOM      3  O   UNL     1       2.842  -0.587   0.590  1.00  0.00    -0.462 OA
BRANCH   3   4
ATOM      4  C   UNL     1       2.834   0.766   0.692  1.00  0.00     0.310 C 
ATOM      5  O   UNL     1       1.962   1.324   1.357  1.00  0.00    -0.252 OA
BRANCH   4   6
ATOM      6  C   UNL     1       3.805   1.562  -0.159  1.00  0.00     0.161 C 
BRANCH   6   7
ATOM      7  C   UNL     1       4.457   2.711   0.566  1.00  0.00     0.001 A 
ATOM      8  C   UNL     1       3.756   3.912   0.743  1.00  0.00     0.009 A 
ATOM      9  C   UNL     1       5.748   2.662   1.085  1.00  0.00     0.132 A 
ATOM     10  C   UNL     1       4.359   4.983   1.395  1.00  0.00     0.020 A 
ATOM     11  N   UNL     1       6.360   3.686   1.720  1.00  0.00    -0.244 NA
ATOM     12  Cl  UNL     1       6.769   1.284   0.955  1.00  0.00    -0.062 Cl
ATOM     13  C   UNL     1       5.652   4.823   1.860  1.00  0.00     0.113 A 
ENDBRANCH   6   7
ENDBRANCH   4   6
ENDBRANCH   3   4
ENDBRANCH   2   3
ENDBRANCH   1   2
BRANCH   1  14
ATOM     14  O   UNL     1       3.733  -0.925  -2.079  1.00  0.00    -0.458 OA
BRANCH  14  15
ATOM     15  C   UNL     1       2.432  -0.889  -2.471  1.00  0.00     0.338 C 
ATOM     16  O   UNL     1       1.554  -1.674  -2.171  1.00  0.00    -0.246 OA
BRANCH  15  17
ATOM     17  C   UNL     1       2.179   0.373  -3.199  1.00  0.00     0.060 A 
ATOM     18  C   UNL     1       0.996   1.065  -2.913  1.00  0.00     0.016 A 
ATOM     19  C   UNL     1       3.088   0.884  -4.131  1.00  0.00     0.016 A 
ATOM     20  C   UNL     1       0.714   2.266  -3.564  1.00  0.00     0.010 A 
ATOM     21  C   UNL     1       2.799   2.083  -4.789  1.00  0.00     0.010 A 
ATOM     22  C   UNL     1       1.605   2.774  -4.518  1.00  0.00    -0.014 A 
BRANCH  22  23
ATOM     23  C   UNL     1       1.264   3.993  -5.288  1.00  0.00     0.031 A 
ATOM     24  C   UNL     1       0.625   3.859  -6.641  1.00  0.00     0.074 A 
ATOM     25  C   UNL     1       1.546   5.213  -4.795  1.00  0.00     0.049 A 
ATOM     26  N   UNL     1       0.291   4.797  -7.491  1.00  0.00    -0.248 NA
ATOM     27  C   UNL     1       0.325   2.493  -7.097  1.00  0.00     0.031 C 
ATOM     28  C   UNL     1       2.146   5.483  -3.489  1.00  0.00     0.029 A 
ATOM     29  N   UNL     1       1.375   6.456  -5.351  1.00  0.00    -0.354 N 
ATOM     30  C   UNL     1      -0.259   4.136  -8.582  1.00  0.00     0.074 A 
ATOM     31  C   UNL     1      -0.196   2.719  -8.296  1.00  0.00     0.031 C 
ATOM     32  C   UNL     1       2.316   6.810  -3.355  1.00  0.00     0.029 A 
ATOM     33  C   UNL     1       1.860   7.478  -4.573  1.00  0.00     0.049 A 
ATOM     34  H   UNL     1       0.947   6.601  -6.226  1.00  0.00     0.167 HD
ATOM     35  C   UNL     1      -0.772   4.662  -9.718  1.00  0.00     0.031 A 
ATOM     36  C   UNL     1       1.953   8.797  -4.826  1.00  0.00     0.031 A 
ATOM     37  C   UNL     1      -0.829   6.067 -10.016  1.00  0.00     0.049 A 
ATOM     38  C   UNL     1       1.456   9.344  -6.138  1.00  0.00     0.074 A 
ATOM     39  C   UNL     1      -1.386   6.690 -11.120  1.00  0.00     0.029 A 
ATOM     40  N   UNL     1      -0.294   7.064  -9.219  1.00  0.00    -0.354 N 
ATOM     41  N   UNL     1       0.870   8.716  -7.127  1.00  0.00    -0.248 NA
ATOM     42  C   UNL     1       1.639  10.786  -6.367  1.00  0.00     0.031 C 
ATOM     43  C   UNL     1      -1.134   8.062 -11.020  1.00  0.00     0.029 A 
ATOM     44  C   UNL     1      -0.463   8.295  -9.831  1.00  0.00     0.049 A 
ATOM     45  H   UNL     1       0.142   6.920  -8.348  1.00  0.00     0.167 HD
ATOM     46  C   UNL     1       0.598   9.686  -8.084  1.00  0.00     0.074 A 
ATOM     47  C   UNL     1       1.068  10.947  -7.553  1.00  0.00     0.031 C 
ATOM     48  C   UNL     1       0.013   9.543  -9.297  1.00  0.00     0.031 A 
BRANCH  35  49
ATOM     49  C   UNL     1      -1.298   3.709 -10.749  1.00  0.00    -0.014 A 
ATOM     50  C   UNL     1      -2.547   3.090 -10.591  1.00  0.00     0.009 A 
ATOM     51  C   UNL     1      -0.567   3.487 -11.925  1.00  0.00     0.009 A 
ATOM     52  C   UNL     1      -3.046   2.251 -11.589  1.00  0.00     0.001 A 
ATOM     53  C   UNL     1      -1.077   2.662 -12.928  1.00  0.00     0.001 A 
ATOM     54  C   UNL     1      -2.314   2.042 -12.758  1.00  0.00     0.000 A 
ENDBRANCH  35  49
BRANCH  36  55
ATOM     55  C   UNL     1       2.589   9.707  -3.839  1.00  0.00    -0.014 A 
ATOM     56  C   UNL     1       1.825  10.651  -3.137  1.00  0.00     0.009 A 
ATOM     57  C   UNL     1       3.978   9.672  -3.640  1.00  0.00     0.009 A 
ATOM     58  C   UNL     1       2.445  11.563  -2.280  1.00  0.00     0.001 A 
ATOM     59  C   UNL     1       4.592  10.569  -2.764  1.00  0.00     0.001 A 
ATOM     60  C   UNL     1       3.826  11.521  -2.094  1.00  0.00     0.000 A 
ENDBRANCH  36  55
BRANCH  48  61
ATOM     61  C   UNL     1      -0.167  10.779 -10.130  1.00  0.00    -0.014 A 
ATOM     62  C   UNL     1       0.921  11.367 -10.793  1.00  0.00     0.009 A 
ATOM     63  C   UNL     1      -1.447  11.331 -10.296  1.00  0.00     0.009 A 
ATOM     64  C   UNL     1       0.733  12.498 -11.590  1.00  0.00     0.001 A 
ATOM     65  C   UNL     1      -1.635  12.448 -11.113  1.00  0.00     0.001 A 
ATOM     66  C   UNL     1      -0.544  13.034 -11.754  1.00  0.00     0.000 A 
ENDBRANCH  48  61
ENDBRANCH  22  23
ENDBRANCH  15  17
ENDBRANCH  14  15
ENDBRANCH   1  14
TORSDOF 12
