REMARK SMILES O=C(CCn1cc(/C=C\C(=O)c2ccc(F)cc2)c(-c2cccc(Cl)c2)n1)OCCOC(=O)c1ccc(-c2c3nc(c(-c4ccccc4)c4ccc([nH]4)c(-c4ccccc4)c4nc(c(-c5ccccc5)c5ccc2[nH]5)C=C4)C=C3)cc1
REMARK SMILES IDX 28 1 2 2 1 3 3 4 4 5 5 6 6 7 27 8 7 9 19 10 8 11 9 12 10 13
REMARK SMILES IDX 11 14 12 15 13 16 18 17 14 18 17 19 15 20 16 21 20 22 21 23
REMARK SMILES IDX 26 24 22 25 24 26 23 27 25 28 29 29 30 30 31 31 32 32 33 33
REMARK SMILES IDX 34 34 35 35 81 36 36 37 80 38 37 39 38 40 39 41 74 42 40 43
REMARK SMILES IDX 79 44 73 45 75 46 41 47 78 48 72 49 71 50 42 52 64 53 49 54
REMARK SMILES IDX 63 55 50 56 53 57 62 58 76 59 51 60 52 61 61 63 77 64 54 65
REMARK SMILES IDX 43 66 44 67 48 68 45 69 47 70 46 71 65 72 66 73 70 74 67 75
REMARK SMILES IDX 69 76 68 77 55 78 56 79 60 80 57 81 59 82 58 83
REMARK H PARENT 75 51 53 62
REMARK Flexibility Score: inf
ROOT
ATOM      1  O   UNL     1       2.563  -0.171  -0.791  1.00  0.00    -0.462 OA
ENDROOT
BRANCH   1   2
ATOM      2  C   UNL     1       2.485  -0.201   0.568  1.00  0.00     0.307 C 
ATOM      3  O   UNL     1       1.565  -0.792   1.124  1.00  0.00    -0.252 OA
BRANCH   2   4
ATOM      4  C   UNL     1       3.427   0.684   1.349  1.00  0.00     0.146 C 
BRANCH   4   5
ATOM      5  C   UNL     1       4.234  -0.007   2.433  1.00  0.00     0.156 C 
BRANCH   5   6
ATOM      6  N   UNL     1       5.343  -0.777   1.893  1.00  0.00    -0.271 N 
ATOM      7  C   UNL     1       6.323  -0.383   1.012  1.00  0.00     0.117 A 
ATOM      8  N   UNL     1       5.315  -2.096   2.076  1.00  0.00    -0.172 NA
ATOM      9  C   UNL     1       6.716  -1.538   0.352  1.00  0.00     0.021 A 
ATOM     10  C   UNL     1       5.968  -2.569   1.017  1.00  0.00     0.100 A 
BRANCH   9  11
ATOM     11  C   UNL     1       7.590  -1.581  -0.801  1.00  0.00     0.016 C 
ATOM     12  C   UNL     1       7.888  -2.544  -1.710  1.00  0.00     0.053 C 
BRANCH  12  13
ATOM     13  C   UNL     1       7.485  -4.001  -1.998  1.00  0.00     0.185 C 
ATOM     14  O   UNL     1       7.944  -4.563  -2.986  1.00  0.00    -0.289 OA
BRANCH  13  15
ATOM     15  C   UNL     1       6.389  -4.651  -1.114  1.00  0.00     0.022 A 
ATOM     16  C   UNL     1       5.067  -3.437  -1.362  1.00  0.00     0.015 A 
ATOM     17  C   UNL     1       6.228  -5.867   0.503  1.00  0.00     0.015 A 
ATOM     18  C   UNL     1       3.798  -3.305  -0.148  1.00  0.00     0.040 A 
ATOM     19  C   UNL     1       4.873  -5.586   1.658  1.00  0.00     0.040 A 
ATOM     20  C   UNL     1       3.736  -4.315   1.297  1.00  0.00     0.123 A 
ATOM     21  F   UNL     1       2.730  -4.098   2.159  1.00  0.00    -0.207 F 
ENDBRANCH  13  15
ENDBRANCH  12  13
ENDBRANCH   9  11
BRANCH  10  22
ATOM     22  C   UNL     1       5.949  -4.011   0.606  1.00  0.00     0.004 A 
ATOM     23  C   UNL     1       4.740  -5.263  -0.435  1.00  0.00     0.010 A 
ATOM     24  C   UNL     1       7.726  -4.424   0.615  1.00  0.00     0.031 A 
ATOM     25  C   UNL     1       5.464  -6.615  -1.350  1.00  0.00     0.002 A 
ATOM     26  C   UNL     1       8.272  -5.791  -0.343  1.00  0.00     0.041 A 
ATOM     27  C   UNL     1       7.190  -6.818  -1.283  1.00  0.00     0.020 A 
ATOM     28  Cl  UNL     1       9.955  -6.161  -0.359  1.00  0.00    -0.084 Cl
ENDBRANCH  10  22
ENDBRANCH   5   6
ENDBRANCH   4   5
ENDBRANCH   2   4
ENDBRANCH   1   2
BRANCH   1  29
ATOM     29  C   UNL     1       3.798  -0.353  -1.518  1.00  0.00     0.274 C 
BRANCH  29  30
ATOM     30  C   UNL     1       4.285   0.834  -2.332  1.00  0.00     0.275 C 
BRANCH  30  31
ATOM     31  O   UNL     1       4.250   1.985  -1.521  1.00  0.00    -0.458 OA
BRANCH  31  32
ATOM     32  C   UNL     1       3.003   2.492  -1.364  1.00  0.00     0.338 C 
ATOM     33  O   UNL     1       1.994   2.191  -1.973  1.00  0.00    -0.246 OA
BRANCH  32  34
ATOM     34  C   UNL     1       3.118   3.586  -0.398  1.00  0.00     0.060 A 
ATOM     35  C   UNL     1       2.139   4.555  -0.550  1.00  0.00     0.016 A 
ATOM     36  C   UNL     1       4.381   3.845   0.168  1.00  0.00     0.016 A 
ATOM     37  C   UNL     1       2.580   5.846  -0.557  1.00  0.00     0.010 A 
ATOM     38  C   UNL     1       4.821   5.131   0.155  1.00  0.00     0.010 A 
ATOM     39  C   UNL     1       3.945   6.084  -0.337  1.00  0.00    -0.014 A 
BRANCH  39  40
ATOM     40  C   UNL     1       4.417   7.428  -0.484  1.00  0.00     0.031 A 
ATOM     41  C   UNL     1       3.929   8.243   0.638  1.00  0.00     0.074 A 
ATOM     42  C   UNL     1       5.219   7.817  -1.487  1.00  0.00     0.049 A 
ATOM     43  N   UNL     1       2.921   9.045   0.608  1.00  0.00    -0.248 NA
ATOM     44  C   UNL     1       4.395   7.895   1.992  1.00  0.00     0.031 C 
ATOM     45  C   UNL     1       5.940   7.017  -2.479  1.00  0.00     0.029 A 
ATOM     46  N   UNL     1       5.623   9.075  -1.769  1.00  0.00    -0.354 N 
ATOM     47  C   UNL     1       2.790   9.500   1.909  1.00  0.00     0.074 A 
ATOM     48  C   UNL     1       3.526   8.579   2.736  1.00  0.00     0.031 C 
ATOM     49  C   UNL     1       6.878   7.795  -3.077  1.00  0.00     0.029 A 
ATOM     50  C   UNL     1       6.717   9.163  -2.613  1.00  0.00     0.049 A 
ATOM     51  H   UNL     1       5.173   9.870  -1.402  1.00  0.00     0.167 HD
ATOM     52  C   UNL     1       2.408  10.783   2.138  1.00  0.00     0.031 A 
ATOM     53  C   UNL     1       7.453  10.284  -2.827  1.00  0.00     0.031 A 
ATOM     54  C   UNL     1       1.760  11.346   0.974  1.00  0.00     0.049 A 
ATOM     55  C   UNL     1       6.623  11.442  -2.398  1.00  0.00     0.074 A 
ATOM     56  C   UNL     1       0.642  11.013   0.233  1.00  0.00     0.029 A 
ATOM     57  N   UNL     1       2.532  12.143   0.159  1.00  0.00    -0.354 N 
ATOM     58  N   UNL     1       5.535  11.800  -3.019  1.00  0.00    -0.248 NA
ATOM     59  C   UNL     1       6.712  11.863  -1.006  1.00  0.00     0.031 C 
ATOM     60  C   UNL     1       1.014  11.243  -1.125  1.00  0.00     0.029 A 
ATOM     61  C   UNL     1       2.302  11.784  -1.143  1.00  0.00     0.049 A 
ATOM     62  H   UNL     1       3.146  12.852   0.461  1.00  0.00     0.167 HD
ATOM     63  C   UNL     1       4.625  12.085  -2.009  1.00  0.00     0.074 A 
ATOM     64  C   UNL     1       5.431  12.184  -0.790  1.00  0.00     0.031 C 
ATOM     65  C   UNL     1       3.283  11.909  -2.200  1.00  0.00     0.031 A 
BRANCH  52  66
ATOM     66  C   UNL     1       3.101  11.636   3.173  1.00  0.00    -0.014 A 
ATOM     67  C   UNL     1       2.722  12.984   3.273  1.00  0.00     0.009 A 
ATOM     68  C   UNL     1       4.292  11.267   3.831  1.00  0.00     0.009 A 
ATOM     69  C   UNL     1       3.548  13.923   3.898  1.00  0.00     0.001 A 
ATOM     70  C   UNL     1       5.101  12.194   4.487  1.00  0.00     0.001 A 
ATOM     71  C   UNL     1       4.744  13.530   4.491  1.00  0.00     0.000 A 
ENDBRANCH  52  66
BRANCH  53  72
ATOM     72  C   UNL     1       8.917  10.399  -3.018  1.00  0.00    -0.014 A 
ATOM     73  C   UNL     1       9.491  11.591  -3.489  1.00  0.00     0.009 A 
ATOM     74  C   UNL     1       9.780   9.435  -2.465  1.00  0.00     0.009 A 
ATOM     75  C   UNL     1      10.870  11.824  -3.375  1.00  0.00     0.001 A 
ATOM     76  C   UNL     1      11.156   9.667  -2.352  1.00  0.00     0.001 A 
ATOM     77  C   UNL     1      11.699  10.868  -2.794  1.00  0.00     0.000 A 
ENDBRANCH  53  72
BRANCH  65  78
ATOM     78  C   UNL     1       2.805  11.606  -3.601  1.00  0.00    -0.014 A 
ATOM     79  C   UNL     1       3.169  10.451  -4.319  1.00  0.00     0.009 A 
ATOM     80  C   UNL     1       1.832  12.450  -4.155  1.00  0.00     0.009 A 
ATOM     81  C   UNL     1       2.594  10.170  -5.565  1.00  0.00     0.001 A 
ATOM     82  C   UNL     1       1.244  12.160  -5.388  1.00  0.00     0.001 A 
ATOM     83  C   UNL     1       1.629  11.024  -6.096  1.00  0.00     0.000 A 
ENDBRANCH  65  78
ENDBRANCH  39  40
ENDBRANCH  32  34
ENDBRANCH  31  32
ENDBRANCH  30  31
ENDBRANCH  29  30
ENDBRANCH   1  29
TORSDOF 17
