REMARK SMILES CCc1cc(C(=O)N2CCO[C@@H](CC(=O)OCCOC(=O)c3ccc(-c4c5nc(c(-c6ccccc6)c6ccc([nH]6)c(-c6ccccc6)c6nc(c(-c7ccccc7)c7ccc4[nH]7)C=C6)C=C5)cc3)C2)sc1C
REMARK SMILES IDX 17 1 16 2 14 3 15 4 13 5 12 6 8 7 9 8 70 9 10 10 11 11 6 12
REMARK SMILES IDX 7 13 5 14 3 15 4 16 72 17 71 18 73 19 2 20 1 21 18 22 19 23
REMARK SMILES IDX 20 24 21 25 22 26 23 27 69 28 24 29 68 30 25 31 26 32 27 33
REMARK SMILES IDX 62 34 28 35 67 36 61 37 63 38 29 39 66 40 60 41 59 42 30 44
REMARK SMILES IDX 52 45 37 46 51 47 38 48 41 49 50 50 64 51 39 52 40 53 49 55
REMARK SMILES IDX 65 56 42 57 31 58 32 59 36 60 33 61 35 62 34 63 53 64 54 65
REMARK SMILES IDX 58 66 55 67 57 68 56 69 43 70 44 71 48 72 45 73 47 74 46 75
REMARK H PARENT 63 43 41 54
REMARK Flexibility Score: inf
ROOT
ATOM      1  C   UNL     1      -2.778  -8.435   2.835  1.00  0.00     0.274 C 
ENDROOT
BRANCH   1   2
ATOM      2  O   UNL     1      -2.965  -8.189   1.427  1.00  0.00    -0.462 OA
BRANCH   2   3
ATOM      3  C   UNL     1      -4.223  -7.935   0.993  1.00  0.00     0.308 C 
ATOM      4  O   UNL     1      -5.220  -7.923   1.704  1.00  0.00    -0.252 OA
BRANCH   3   5
ATOM      5  C   UNL     1      -4.271  -7.721  -0.502  1.00  0.00     0.156 C 
BRANCH   5   6
ATOM      6  C   UNL     1      -3.293  -6.662  -1.003  1.00  0.00     0.148 C 
ATOM      7  N   UNL     1      -1.002  -6.125  -1.666  1.00  0.00    -0.333 N 
ATOM      8  C   UNL     1      -1.483  -5.507  -2.901  1.00  0.00     0.148 C 
ATOM      9  C   UNL     1      -1.857  -7.198  -1.169  1.00  0.00     0.152 C 
ATOM     10  C   UNL     1      -2.952  -5.088  -2.759  1.00  0.00     0.182 C 
ATOM     11  O   UNL     1      -3.769  -6.177  -2.285  1.00  0.00    -0.374 OA
BRANCH   7  12
ATOM     12  C   UNL     1       0.215  -5.889  -1.029  1.00  0.00     0.264 C 
ATOM     13  O   UNL     1       0.756  -6.804  -0.403  1.00  0.00    -0.268 OA
BRANCH  12  14
ATOM     14  C   UNL     1       0.758  -4.534  -1.049  1.00  0.00     0.093 A 
ATOM     15  C   UNL     1       0.991  -2.183  -1.026  1.00  0.00    -0.034 A 
ATOM     16  C   UNL     1       0.118  -3.315  -1.172  1.00  0.00     0.029 A 
ATOM     17  C   UNL     1       2.283  -2.599  -0.746  1.00  0.00     0.005 A 
ATOM     18  S   UNL     1       2.424  -4.304  -0.732  1.00  0.00    -0.135 S 
ATOM     19  C   UNL     1       3.491  -1.780  -0.430  1.00  0.00     0.056 C 
BRANCH  15  20
ATOM     20  C   UNL     1       0.515  -0.760  -1.146  1.00  0.00     0.033 C 
ATOM     21  C   UNL     1       0.594   0.026   0.153  1.00  0.00     0.009 C 
ENDBRANCH  15  20
ENDBRANCH  12  14
ENDBRANCH   7  12
ENDBRANCH   5   6
ENDBRANCH   3   5
ENDBRANCH   2   3
ENDBRANCH   1   2
BRANCH   1  22
ATOM     22  C   UNL     1      -2.308  -7.178   3.571  1.00  0.00     0.275 C 
BRANCH  22  23
ATOM     23  O   UNL     1      -3.386  -6.237   3.733  1.00  0.00    -0.458 OA
BRANCH  23  24
ATOM     24  C   UNL     1      -3.465  -5.278   2.783  1.00  0.00     0.338 C 
ATOM     25  O   UNL     1      -2.697  -5.086   1.857  1.00  0.00    -0.246 OA
BRANCH  24  26
ATOM     26  C   UNL     1      -4.727  -4.540   2.938  1.00  0.00     0.060 A 
ATOM     27  C   UNL     1      -5.649  -4.578   1.888  1.00  0.00     0.016 A 
ATOM     28  C   UNL     1      -4.975  -3.771   4.077  1.00  0.00     0.016 A 
ATOM     29  C   UNL     1      -6.827  -3.841   1.970  1.00  0.00     0.010 A 
ATOM     30  C   UNL     1      -6.159  -3.032   4.157  1.00  0.00     0.010 A 
ATOM     31  C   UNL     1      -7.086  -3.055   3.101  1.00  0.00    -0.014 A 
BRANCH  31  32
ATOM     32  C   UNL     1      -8.316  -2.231   3.162  1.00  0.00     0.031 A 
ATOM     33  C   UNL     1      -8.235  -0.746   2.955  1.00  0.00     0.074 A 
ATOM     34  C   UNL     1      -9.504  -2.816   3.398  1.00  0.00     0.049 A 
ATOM     35  N   UNL     1      -9.186   0.150   3.020  1.00  0.00    -0.248 NA
ATOM     36  C   UNL     1      -6.908  -0.196   2.635  1.00  0.00     0.031 C 
ATOM     37  C   UNL     1      -9.717  -4.252   3.582  1.00  0.00     0.029 A 
ATOM     38  N   UNL     1     -10.756  -2.270   3.526  1.00  0.00    -0.354 N 
ATOM     39  C   UNL     1      -8.574   1.370   2.764  1.00  0.00     0.074 A 
ATOM     40  C   UNL     1      -7.165   1.102   2.562  1.00  0.00     0.031 C 
ATOM     41  C   UNL     1     -11.024  -4.473   3.799  1.00  0.00     0.029 A 
ATOM     42  C   UNL     1     -11.730  -3.195   3.809  1.00  0.00     0.049 A 
ATOM     43  H   UNL     1     -10.938  -1.308   3.424  1.00  0.00     0.167 HD
ATOM     44  C   UNL     1      -9.134   2.601   2.704  1.00  0.00     0.031 A 
ATOM     45  C   UNL     1     -13.040  -3.028   4.070  1.00  0.00     0.031 A 
ATOM     46  C   UNL     1     -10.533   2.869   2.910  1.00  0.00     0.049 A 
ATOM     47  C   UNL     1     -13.626  -1.644   4.056  1.00  0.00     0.074 A 
ATOM     48  C   UNL     1     -11.197   4.083   2.848  1.00  0.00     0.029 A 
ATOM     49  N   UNL     1     -11.482   1.910   3.225  1.00  0.00    -0.354 N 
ATOM     50  N   UNL     1     -13.039  -0.501   3.792  1.00  0.00    -0.248 NA
ATOM     51  C   UNL     1     -15.056  -1.528   4.374  1.00  0.00     0.031 C 
ATOM     52  C   UNL     1     -12.540   3.864   3.173  1.00  0.00     0.029 A 
ATOM     53  C   UNL     1     -12.721   2.507   3.387  1.00  0.00     0.049 A 
ATOM     54  H   UNL     1     -11.302   0.947   3.320  1.00  0.00     0.167 HD
ATOM     55  C   UNL     1     -14.031   0.465   3.892  1.00  0.00     0.074 A 
ATOM     56  C   UNL     1     -15.260  -0.226   4.224  1.00  0.00     0.031 C 
ATOM     57  C   UNL     1     -13.933   1.806   3.722  1.00  0.00     0.031 A 
BRANCH  44  58
ATOM     58  C   UNL     1      -8.221   3.763   2.435  1.00  0.00    -0.014 A 
ATOM     59  C   UNL     1      -7.683   3.988   1.159  1.00  0.00     0.009 A 
ATOM     60  C   UNL     1      -7.924   4.666   3.468  1.00  0.00     0.009 A 
ATOM     61  C   UNL     1      -6.841   5.080   0.930  1.00  0.00     0.001 A 
ATOM     62  C   UNL     1      -7.103   5.769   3.231  1.00  0.00     0.001 A 
ATOM     63  C   UNL     1      -6.556   5.971   1.964  1.00  0.00     0.000 A 
ENDBRANCH  44  58
BRANCH  45  64
ATOM     64  C   UNL     1     -13.887  -4.205   4.393  1.00  0.00    -0.014 A 
ATOM     65  C   UNL     1     -14.858  -4.658   3.488  1.00  0.00     0.009 A 
ATOM     66  C   UNL     1     -13.731  -4.876   5.616  1.00  0.00     0.009 A 
ATOM     67  C   UNL     1     -15.670  -5.748   3.811  1.00  0.00     0.001 A 
ATOM     68  C   UNL     1     -14.527  -5.981   5.925  1.00  0.00     0.001 A 
ATOM     69  C   UNL     1     -15.501  -6.410   5.026  1.00  0.00     0.000 A 
ENDBRANCH  45  64
BRANCH  57  70
ATOM     70  C   UNL     1     -15.195   2.609   3.864  1.00  0.00    -0.014 A 
ATOM     71  C   UNL     1     -15.764   2.853   5.123  1.00  0.00     0.009 A 
ATOM     72  C   UNL     1     -15.801   3.158   2.723  1.00  0.00     0.009 A 
ATOM     73  C   UNL     1     -16.934   3.607   5.233  1.00  0.00     0.001 A 
ATOM     74  C   UNL     1     -16.956   3.933   2.839  1.00  0.00     0.001 A 
ATOM     75  C   UNL     1     -17.526   4.149   4.093  1.00  0.00     0.000 A 
ENDBRANCH  57  70
ENDBRANCH  31  32
ENDBRANCH  24  26
ENDBRANCH  23  24
ENDBRANCH  22  23
ENDBRANCH   1  22
TORSDOF 15
