REMARK SMILES C[C@@H](C(=O)OCCOC(=O)c1ccc(-c2c3nc(c(-c4ccccc4)c4ccc([nH]4)c(-c4ccccc4)c4nc(c(-c5ccccc5)c5ccc2[nH]5)C=C4)C=C3)cc1)c1ccc(-c2cccc(OC(=O)NCCCc3ccccc3)c2)c(F)c1
REMARK SMILES IDX 1 1 2 2 3 3 4 4 5 5 6 6 7 7 8 8 9 9 10 10 11 11 12 12 58 13
REMARK SMILES IDX 13 14 57 15 14 16 15 17 16 18 51 19 17 20 56 21 50 22 52 23
REMARK SMILES IDX 18 24 55 25 49 26 48 27 19 29 41 30 26 31 40 32 27 33 30 34
REMARK SMILES IDX 39 35 53 36 28 37 29 38 38 40 54 41 31 42 20 43 21 44 25 45
REMARK SMILES IDX 22 46 24 47 23 48 42 49 43 50 47 51 44 52 46 53 45 54 32 55
REMARK SMILES IDX 33 56 37 57 34 58 36 59 35 60 59 61 60 62 84 63 61 64 82 65
REMARK SMILES IDX 62 66 83 67 63 68 64 69 81 70 65 71 67 72 66 73 68 74 69 75
REMARK SMILES IDX 70 76 71 77 72 79 73 80 74 81 75 82 76 83 80 84 77 85 79 86
REMARK SMILES IDX 78 87
REMARK H PARENT 52 28 30 39 71 78
REMARK Flexibility Score: inf
ROOT
ATOM      1  C   UNL     1       1.511   0.096   0.345  1.00  0.00     0.025 C 
ATOM      2  C   UNL     1       0.826   1.408   0.762  1.00  0.00     0.126 C 
ENDROOT
BRANCH   2   3
ATOM      3  C   UNL     1       1.176   2.559  -0.208  1.00  0.00     0.313 C 
ATOM      4  O   UNL     1       0.563   3.619  -0.268  1.00  0.00    -0.252 OA
BRANCH   3   5
ATOM      5  O   UNL     1       2.288   2.297  -0.951  1.00  0.00    -0.462 OA
BRANCH   5   6
ATOM      6  C   UNL     1       2.718   3.327  -1.863  1.00  0.00     0.274 C 
BRANCH   6   7
ATOM      7  C   UNL     1       2.333   2.986  -3.303  1.00  0.00     0.275 C 
BRANCH   7   8
ATOM      8  O   UNL     1       0.911   3.103  -3.496  1.00  0.00    -0.458 OA
BRANCH   8   9
ATOM      9  C   UNL     1       0.233   1.936  -3.588  1.00  0.00     0.338 C 
ATOM     10  O   UNL     1       0.685   0.805  -3.558  1.00  0.00    -0.246 OA
BRANCH   9  11
ATOM     11  C   UNL     1      -1.210   2.220  -3.595  1.00  0.00     0.060 A 
ATOM     12  C   UNL     1      -1.855   2.233  -2.367  1.00  0.00     0.016 A 
ATOM     13  C   UNL     1      -1.945   2.359  -4.773  1.00  0.00     0.016 A 
ATOM     14  C   UNL     1      -3.237   2.347  -2.305  1.00  0.00     0.010 A 
ATOM     15  C   UNL     1      -3.342   2.507  -4.705  1.00  0.00     0.010 A 
ATOM     16  C   UNL     1      -4.005   2.481  -3.466  1.00  0.00    -0.014 A 
BRANCH  16  17
ATOM     17  C   UNL     1      -5.490   2.494  -3.339  1.00  0.00     0.031 A 
ATOM     18  C   UNL     1      -6.279   1.263  -3.701  1.00  0.00     0.074 A 
ATOM     19  C   UNL     1      -6.120   3.526  -2.741  1.00  0.00     0.049 A 
ATOM     20  N   UNL     1      -7.572   1.056  -3.634  1.00  0.00    -0.248 NA
ATOM     21  C   UNL     1      -5.510   0.107  -4.187  1.00  0.00     0.031 C 
ATOM     22  C   UNL     1      -5.458   4.694  -2.160  1.00  0.00     0.029 A 
ATOM     23  N   UNL     1      -7.448   3.705  -2.424  1.00  0.00    -0.354 N 
ATOM     24  C   UNL     1      -7.774  -0.228  -4.128  1.00  0.00     0.074 A 
ATOM     25  C   UNL     1      -6.471  -0.763  -4.462  1.00  0.00     0.031 C 
ATOM     26  C   UNL     1      -6.358   5.397  -1.451  1.00  0.00     0.029 A 
ATOM     27  C   UNL     1      -7.676   4.785  -1.601  1.00  0.00     0.049 A 
ATOM     28  H   UNL     1      -8.165   3.117  -2.754  1.00  0.00     0.167 HD
ATOM     29  C   UNL     1      -8.940  -0.893  -4.314  1.00  0.00     0.031 A 
ATOM     30  C   UNL     1      -8.812   5.213  -1.011  1.00  0.00     0.031 A 
ATOM     31  C   UNL     1     -10.236  -0.388  -3.947  1.00  0.00     0.049 A 
ATOM     32  C   UNL     1     -10.105   4.488  -1.285  1.00  0.00     0.074 A 
ATOM     33  C   UNL     1     -11.479  -0.954  -4.176  1.00  0.00     0.029 A 
ATOM     34  N   UNL     1     -10.454   0.790  -3.254  1.00  0.00    -0.354 N 
ATOM     35  N   UNL     1     -10.300   3.325  -1.856  1.00  0.00    -0.248 NA
ATOM     36  C   UNL     1     -11.341   5.159  -0.849  1.00  0.00     0.031 C 
ATOM     37  C   UNL     1     -12.454  -0.088  -3.668  1.00  0.00     0.029 A 
ATOM     38  C   UNL     1     -11.813   0.985  -3.072  1.00  0.00     0.049 A 
ATOM     39  H   UNL     1      -9.748   1.399  -2.938  1.00  0.00     0.167 HD
ATOM     40  C   UNL     1     -11.677   3.130  -1.853  1.00  0.00     0.074 A 
ATOM     41  C   UNL     1     -12.264   4.264  -1.173  1.00  0.00     0.031 C 
ATOM     42  C   UNL     1     -12.393   2.111  -2.390  1.00  0.00     0.031 A 
BRANCH  29  43
ATOM     43  C   UNL     1      -8.878  -2.200  -5.052  1.00  0.00    -0.014 A 
ATOM     44  C   UNL     1      -8.430  -3.382  -4.447  1.00  0.00     0.009 A 
ATOM     45  C   UNL     1      -9.312  -2.239  -6.388  1.00  0.00     0.009 A 
ATOM     46  C   UNL     1      -8.394  -4.574  -5.177  1.00  0.00     0.001 A 
ATOM     47  C   UNL     1      -9.300  -3.435  -7.105  1.00  0.00     0.001 A 
ATOM     48  C   UNL     1      -8.832  -4.600  -6.502  1.00  0.00     0.000 A 
ENDBRANCH  29  43
BRANCH  30  49
ATOM     49  C   UNL     1      -8.810   6.391  -0.097  1.00  0.00    -0.014 A 
ATOM     50  C   UNL     1      -9.219   6.250   1.240  1.00  0.00     0.009 A 
ATOM     51  C   UNL     1      -8.463   7.668  -0.562  1.00  0.00     0.009 A 
ATOM     52  C   UNL     1      -9.307   7.365   2.079  1.00  0.00     0.001 A 
ATOM     53  C   UNL     1      -8.514   8.775   0.288  1.00  0.00     0.001 A 
ATOM     54  C   UNL     1      -8.949   8.625   1.603  1.00  0.00     0.000 A 
ENDBRANCH  30  49
BRANCH  42  55
ATOM     55  C   UNL     1     -13.892   2.171  -2.272  1.00  0.00    -0.014 A 
ATOM     56  C   UNL     1     -14.638   3.106  -3.008  1.00  0.00     0.009 A 
ATOM     57  C   UNL     1     -14.573   1.245  -1.466  1.00  0.00     0.009 A 
ATOM     58  C   UNL     1     -16.031   3.132  -2.915  1.00  0.00     0.001 A 
ATOM     59  C   UNL     1     -15.968   1.255  -1.397  1.00  0.00     0.001 A 
ATOM     60  C   UNL     1     -16.695   2.203  -2.115  1.00  0.00     0.000 A 
ENDBRANCH  42  55
ENDBRANCH  16  17
ENDBRANCH   9  11
ENDBRANCH   8   9
ENDBRANCH   7   8
ENDBRANCH   6   7
ENDBRANCH   5   6
ENDBRANCH   3   5
ENDBRANCH   2   3
BRANCH   2  61
ATOM     61  C   UNL     1      -0.689   1.264   0.976  1.00  0.00    -0.031 A 
ATOM     62  C   UNL     1      -1.444   2.352   1.455  1.00  0.00     0.005 A 
ATOM     63  C   UNL     1      -1.386   0.085   0.677  1.00  0.00     0.044 A 
ATOM     64  C   UNL     1      -2.843   2.290   1.556  1.00  0.00     0.012 A 
ATOM     65  C   UNL     1      -2.775   0.022   0.801  1.00  0.00     0.131 A 
ATOM     66  C   UNL     1      -3.536   1.121   1.220  1.00  0.00     0.018 A 
ATOM     67  F   UNL     1      -3.378  -1.129   0.464  1.00  0.00    -0.206 F 
BRANCH  66  68
ATOM     68  C   UNL     1      -5.001   1.037   1.289  1.00  0.00    -0.012 A 
ATOM     69  C   UNL     1      -5.836   1.915   0.578  1.00  0.00     0.009 A 
ATOM     70  C   UNL     1      -5.608   0.038   2.057  1.00  0.00     0.056 A 
ATOM     71  C   UNL     1      -7.225   1.757   0.575  1.00  0.00     0.004 A 
ATOM     72  C   UNL     1      -6.994  -0.056   2.117  1.00  0.00     0.133 A 
ATOM     73  C   UNL     1      -7.809   0.765   1.345  1.00  0.00     0.047 A 
BRANCH  72  74
ATOM     74  O   UNL     1      -7.663  -0.968   2.936  1.00  0.00    -0.410 OA
BRANCH  74  75
ATOM     75  C   UNL     1      -7.261  -1.049   4.255  1.00  0.00     0.412 C 
ATOM     76  O   UNL     1      -6.139  -0.825   4.706  1.00  0.00    -0.224 OA
ATOM     77  N   UNL     1      -8.279  -1.393   5.089  1.00  0.00    -0.321 N 
ATOM     78  H   UNL     1      -8.040  -1.669   6.004  1.00  0.00     0.167 HD
BRANCH  77  79
ATOM     79  C   UNL     1      -9.682  -1.388   4.745  1.00  0.00     0.120 C 
BRANCH  79  80
ATOM     80  C   UNL     1     -10.444  -2.611   5.245  1.00  0.00     0.026 C 
BRANCH  80  81
ATOM     81  C   UNL     1      -9.930  -3.296   6.516  1.00  0.00     0.037 C 
BRANCH  81  82
ATOM     82  C   UNL     1      -9.970  -2.581   7.848  1.00  0.00    -0.048 A 
ATOM     83  C   UNL     1     -10.201  -1.212   8.018  1.00  0.00     0.004 A 
ATOM     84  C   UNL     1      -9.703  -3.349   8.995  1.00  0.00     0.004 A 
ATOM     85  C   UNL     1     -10.142  -0.624   9.286  1.00  0.00     0.000 A 
ATOM     86  C   UNL     1      -9.664  -2.768  10.264  1.00  0.00     0.000 A 
ATOM     87  C   UNL     1      -9.875  -1.401  10.408  1.00  0.00     0.000 A 
ENDBRANCH  81  82
ENDBRANCH  80  81
ENDBRANCH  79  80
ENDBRANCH  77  79
ENDBRANCH  74  75
ENDBRANCH  72  74
ENDBRANCH  66  68
ENDBRANCH   2  61
TORSDOF 19
