REMARK SMILES O=C(OCCOC(=O)[C@@H]1CCCC[C@H]1C(=O)Nc1ccc(NC(=O)c2ccco2)cc1)c1ccc(-c2c3nc(c(-c4ccccc4)c4ccc([nH]4)c(-c4ccccc4)c4nc(c(-c5ccccc5)c5ccc2[nH]5)C=C4)C=C3)cc1
REMARK SMILES IDX 5 1 4 2 3 3 2 4 1 5 32 6 33 7 79 8 34 9 78 10 35 11 36 12
REMARK SMILES IDX 37 13 72 14 38 15 77 16 71 17 73 18 39 19 76 20 70 21 69 22
REMARK SMILES IDX 40 24 62 25 47 26 61 27 48 28 51 29 60 30 74 31 49 32 50 33
REMARK SMILES IDX 59 35 75 36 52 37 41 38 42 39 46 40 43 41 45 42 44 43 63 44
REMARK SMILES IDX 64 45 68 46 65 47 67 48 66 49 53 50 54 51 58 52 55 53 57 54
REMARK SMILES IDX 56 55 6 56 7 57 8 58 9 59 10 60 14 61 11 62 13 63 12 64
REMARK SMILES IDX 15 65 16 66 17 67 18 69 19 70 31 71 20 72 30 73 21 74 22 75
REMARK SMILES IDX 23 76 24 78 25 79 26 80 29 81 27 82 28 83
REMARK H PARENT 73 23 51 34 17 68 22 77
REMARK Flexibility Score: inf
ROOT
ATOM      1  C   UNL     1       3.897   2.138   0.946  1.00  0.00     0.274 C 
ENDROOT
BRANCH   1   2
ATOM      2  C   UNL     1       4.209   1.828  -0.516  1.00  0.00     0.275 C 
BRANCH   2   3
ATOM      3  O   UNL     1       3.357   0.819  -1.076  1.00  0.00    -0.458 OA
BRANCH   3   4
ATOM      4  C   UNL     1       3.802  -0.405  -1.460  1.00  0.00     0.338 C 
ATOM      5  O   UNL     1       3.376  -0.945  -2.474  1.00  0.00    -0.246 OA
BRANCH   4   6
ATOM      6  C   UNL     1       4.569  -1.212  -0.472  1.00  0.00     0.060 A 
ATOM      7  C   UNL     1       5.793  -0.852   0.093  1.00  0.00     0.016 A 
ATOM      8  C   UNL     1       4.022  -2.449  -0.127  1.00  0.00     0.016 A 
ATOM      9  C   UNL     1       6.395  -1.664   1.066  1.00  0.00     0.010 A 
ATOM     10  C   UNL     1       4.577  -3.220   0.897  1.00  0.00     0.010 A 
ATOM     11  C   UNL     1       5.778  -2.841   1.508  1.00  0.00    -0.014 A 
BRANCH  11  12
ATOM     12  C   UNL     1       6.408  -3.701   2.549  1.00  0.00     0.031 A 
ATOM     13  C   UNL     1       6.795  -5.118   2.221  1.00  0.00     0.074 A 
ATOM     14  C   UNL     1       6.610  -3.246   3.804  1.00  0.00     0.049 A 
ATOM     15  N   UNL     1       7.445  -5.980   2.964  1.00  0.00    -0.248 NA
ATOM     16  C   UNL     1       6.417  -5.636   0.896  1.00  0.00     0.031 C 
ATOM     17  C   UNL     1       6.265  -1.913   4.293  1.00  0.00     0.029 A 
ATOM     18  N   UNL     1       7.123  -3.871   4.915  1.00  0.00    -0.354 N 
ATOM     19  C   UNL     1       7.614  -7.101   2.166  1.00  0.00     0.074 A 
ATOM     20  C   UNL     1       6.864  -6.880   0.952  1.00  0.00     0.031 C 
ATOM     21  C   UNL     1       6.483  -1.848   5.617  1.00  0.00     0.029 A 
ATOM     22  C   UNL     1       7.052  -3.114   6.060  1.00  0.00     0.049 A 
ATOM     23  H   UNL     1       7.505  -4.778   4.892  1.00  0.00     0.167 HD
ATOM     24  C   UNL     1       8.409  -8.177   2.370  1.00  0.00     0.031 A 
ATOM     25  C   UNL     1       7.431  -3.390   7.321  1.00  0.00     0.031 A 
ATOM     26  C   UNL     1       9.150  -8.416   3.574  1.00  0.00     0.049 A 
ATOM     27  C   UNL     1       8.213  -4.647   7.582  1.00  0.00     0.074 A 
ATOM     28  C   UNL     1      10.043  -9.433   3.858  1.00  0.00     0.029 A 
ATOM     29  N   UNL     1       9.065  -7.623   4.707  1.00  0.00    -0.354 N 
ATOM     30  N   UNL     1       8.524  -5.610   6.750  1.00  0.00    -0.248 NA
ATOM     31  C   UNL     1       8.771  -4.809   8.932  1.00  0.00     0.031 C 
ATOM     32  C   UNL     1      10.478  -9.269   5.180  1.00  0.00     0.029 A 
ATOM     33  C   UNL     1       9.877  -8.135   5.702  1.00  0.00     0.049 A 
ATOM     34  H   UNL     1       8.509  -6.816   4.791  1.00  0.00     0.167 HD
ATOM     35  C   UNL     1       9.380  -6.449   7.450  1.00  0.00     0.074 A 
ATOM     36  C   UNL     1       9.518  -5.894   8.781  1.00  0.00     0.031 C 
ATOM     37  C   UNL     1      10.020  -7.561   7.015  1.00  0.00     0.031 A 
BRANCH  24  38
ATOM     38  C   UNL     1       8.566  -9.105   1.201  1.00  0.00    -0.014 A 
ATOM     39  C   UNL     1       9.275  -8.677   0.063  1.00  0.00     0.009 A 
ATOM     40  C   UNL     1       7.967 -10.371   1.195  1.00  0.00     0.009 A 
ATOM     41  C   UNL     1       9.330  -9.473  -1.080  1.00  0.00     0.001 A 
ATOM     42  C   UNL     1       8.047 -11.177   0.057  1.00  0.00     0.001 A 
ATOM     43  C   UNL     1       8.713 -10.722  -1.083  1.00  0.00     0.000 A 
ENDBRANCH  24  38
BRANCH  25  44
ATOM     44  C   UNL     1       7.167  -2.427   8.421  1.00  0.00    -0.014 A 
ATOM     45  C   UNL     1       8.192  -1.616   8.931  1.00  0.00     0.009 A 
ATOM     46  C   UNL     1       5.890  -2.350   8.998  1.00  0.00     0.009 A 
ATOM     47  C   UNL     1       7.955  -0.780  10.025  1.00  0.00     0.001 A 
ATOM     48  C   UNL     1       5.651  -1.499  10.081  1.00  0.00     0.001 A 
ATOM     49  C   UNL     1       6.687  -0.724  10.601  1.00  0.00     0.000 A 
ENDBRANCH  25  44
BRANCH  37  50
ATOM     50  C   UNL     1      10.984  -8.210   7.963  1.00  0.00    -0.014 A 
ATOM     51  C   UNL     1      10.539  -8.951   9.066  1.00  0.00     0.009 A 
ATOM     52  C   UNL     1      12.363  -8.099   7.723  1.00  0.00     0.009 A 
ATOM     53  C   UNL     1      11.460  -9.547   9.930  1.00  0.00     0.001 A 
ATOM     54  C   UNL     1      13.280  -8.718   8.573  1.00  0.00     0.001 A 
ATOM     55  C   UNL     1      12.828  -9.434   9.680  1.00  0.00     0.000 A 
ENDBRANCH  37  50
ENDBRANCH  11  12
ENDBRANCH   4   6
ENDBRANCH   3   4
ENDBRANCH   2   3
ENDBRANCH   1   2
BRANCH   1  56
ATOM     56  O   UNL     1       3.582   0.983   1.740  1.00  0.00    -0.462 OA
BRANCH  56  57
ATOM     57  C   UNL     1       2.251   0.802   1.971  1.00  0.00     0.309 C 
ATOM     58  O   UNL     1       1.359   1.413   1.396  1.00  0.00    -0.252 OA
BRANCH  57  59
ATOM     59  C   UNL     1       1.968  -0.210   3.069  1.00  0.00     0.111 C 
ATOM     60  C   UNL     1       3.007  -0.173   4.195  1.00  0.00     0.016 C 
ATOM     61  C   UNL     1       1.759  -1.621   2.520  1.00  0.00     0.093 C 
ATOM     62  C   UNL     1       2.690  -1.188   5.291  1.00  0.00     0.001 C 
ATOM     63  C   UNL     1       1.487  -2.654   3.624  1.00  0.00     0.014 C 
ATOM     64  C   UNL     1       2.544  -2.597   4.727  1.00  0.00     0.001 C 
BRANCH  61  65
ATOM     65  C   UNL     1       0.810  -1.808   1.324  1.00  0.00     0.228 C 
ATOM     66  O   UNL     1       1.125  -2.589   0.418  1.00  0.00    -0.274 OA
ATOM     67  N   UNL     1      -0.440  -1.270   1.222  1.00  0.00    -0.326 N 
ATOM     68  H   UNL     1      -0.750  -0.974   0.336  1.00  0.00     0.169 HD
BRANCH  67  69
ATOM     69  C   UNL     1      -1.299  -1.117   2.307  1.00  0.00     0.041 A 
ATOM     70  C   UNL     1      -2.162  -2.159   2.607  1.00  0.00     0.028 A 
ATOM     71  C   UNL     1      -1.266   0.009   3.112  1.00  0.00     0.028 A 
ATOM     72  C   UNL     1      -2.819  -2.166   3.834  1.00  0.00     0.028 A 
ATOM     73  C   UNL     1      -1.876  -0.027   4.364  1.00  0.00     0.028 A 
ATOM     74  C   UNL     1      -2.596  -1.156   4.770  1.00  0.00     0.041 A 
BRANCH  74  75
ATOM     75  N   UNL     1      -2.964  -1.206   6.127  1.00  0.00    -0.319 N 
ATOM     76  C   UNL     1      -3.514  -2.193   6.919  1.00  0.00     0.291 C 
ATOM     77  H   UNL     1      -2.795  -0.364   6.609  1.00  0.00     0.170 HD
ATOM     78  O   UNL     1      -3.530  -1.992   8.137  1.00  0.00    -0.265 OA
BRANCH  76  79
ATOM     79  C   UNL     1      -4.019  -3.403   6.330  1.00  0.00     0.191 A 
ATOM     80  C   UNL     1      -3.447  -4.646   6.124  1.00  0.00     0.056 A 
ATOM     81  O   UNL     1      -5.291  -3.394   5.827  1.00  0.00    -0.459 OA
ATOM     82  C   UNL     1      -4.407  -5.418   5.423  1.00  0.00     0.043 A 
ATOM     83  C   UNL     1      -5.517  -4.617   5.285  1.00  0.00     0.196 A 
ENDBRANCH  76  79
ENDBRANCH  74  75
ENDBRANCH  67  69
ENDBRANCH  61  65
ENDBRANCH  57  59
ENDBRANCH  56  57
ENDBRANCH   1  56
TORSDOF 15
