REMARK SMILES Cc1ccc(NC(=O)C[C@@H](C(=O)OCCOC(=O)c2ccc(-c3c4nc(c(-c5ccccc5)c5ccc([nH]5)c(-c5ccccc5)c5nc(c(-c6ccccc6)c6ccc3[nH]6)C=C5)C=C4)cc2)[NH+]2CCOCC2)cc1
REMARK SMILES IDX 14 1 13 2 11 3 12 4 10 5 9 6 7 7 6 8 8 10 5 11 1 12 2 13
REMARK SMILES IDX 3 14 74 15 4 16 73 17 67 18 68 19 72 20 69 22 71 23 70 24
REMARK SMILES IDX 15 25 16 26 17 27 18 28 19 29 20 30 66 31 21 32 65 33 22 34
REMARK SMILES IDX 23 35 24 36 59 37 25 38 64 39 58 40 60 41 26 42 63 43 57 44
REMARK SMILES IDX 56 45 27 47 49 48 34 49 48 50 35 51 38 52 47 53 61 54 36 55
REMARK SMILES IDX 37 56 46 58 62 59 39 60 28 61 29 62 33 63 30 64 32 65 31 66
REMARK SMILES IDX 50 67 51 68 55 69 52 70 54 71 53 72 40 73 41 74 45 75 42 76
REMARK SMILES IDX 44 77 43 78
REMARK H PARENT 6 9 67 21 60 46 38 57
REMARK Flexibility Score: inf
ROOT
ATOM      1  C   UNL     1      -1.926   0.881   0.075  1.00  0.00     0.274 C 
ENDROOT
BRANCH   1   2
ATOM      2  O   UNL     1      -2.905  -0.293  -0.856  1.00  0.00    -0.458 OA
BRANCH   2   3
ATOM      3  C   UNL     1      -2.772  -1.651  -1.152  1.00  0.00     0.365 C 
ATOM      4  O   UNL     1      -1.758  -2.309  -1.009  1.00  0.00    -0.245 OA
BRANCH   3   5
ATOM      5  C   UNL     1      -4.040  -2.467  -1.269  1.00  0.00     0.304 C 
BRANCH   5   6
ATOM      6  C   UNL     1      -4.546  -2.474   0.188  1.00  0.00     0.177 C 
BRANCH   6   7
ATOM      7  C   UNL     1      -5.022  -1.129   0.681  1.00  0.00     0.231 C 
ATOM      8  N   UNL     1      -4.313  -0.303   1.510  1.00  0.00    -0.326 N 
ATOM      9  H   UNL     1      -4.883   0.197   2.137  1.00  0.00     0.169 HD
ATOM     10  O   UNL     1      -6.143  -0.729   0.336  1.00  0.00    -0.274 OA
BRANCH   8  11
ATOM     11  C   UNL     1      -2.929  -0.012   1.661  1.00  0.00     0.041 A 
ATOM     12  C   UNL     1       1.330   2.508   0.332  1.00  0.00     0.044 C 
ATOM     13  C   UNL     1      -0.037   1.872   0.484  1.00  0.00    -0.051 A 
ATOM     14  C   UNL     1      -0.153   0.123   0.207  1.00  0.00     0.005 A 
ATOM     15  C   UNL     1      -1.299   2.612   1.359  1.00  0.00     0.005 A 
ATOM     16  C   UNL     1      -1.596  -0.897   0.857  1.00  0.00     0.026 A 
ATOM     17  C   UNL     1      -2.682   1.718   1.954  1.00  0.00     0.026 A 
ENDBRANCH   8  11
ENDBRANCH   6   7
ENDBRANCH   5   6
BRANCH   5  18
ATOM     18  N   UNL     1      -3.844  -3.929  -1.802  1.00  0.00    -0.319 N 
ATOM     19  C   UNL     1      -3.019  -4.027  -3.036  1.00  0.00     0.291 C 
ATOM     20  C   UNL     1      -3.279  -4.925  -0.840  1.00  0.00     0.291 C 
ATOM     21  H   UNL     1      -4.818  -4.170  -1.987  1.00  0.00     0.348 HD
ATOM     22  C   UNL     1      -2.870  -5.461  -3.599  1.00  0.00     0.221 C 
ATOM     23  C   UNL     1      -3.112  -6.347  -1.448  1.00  0.00     0.221 C 
ATOM     24  O   UNL     1      -2.295  -6.336  -2.622  1.00  0.00    -0.370 OA
ENDBRANCH   5  18
ENDBRANCH   3   5
ENDBRANCH   2   3
ENDBRANCH   1   2
BRANCH   1  25
ATOM     25  C   UNL     1      -0.852   0.484   1.936  1.00  0.00     0.275 C 
BRANCH  25  26
ATOM     26  O   UNL     1       0.300  -1.005   2.028  1.00  0.00    -0.458 OA
BRANCH  26  27
ATOM     27  C   UNL     1       0.900  -2.118   1.149  1.00  0.00     0.338 C 
ATOM     28  O   UNL     1       1.252  -3.152   1.720  1.00  0.00    -0.246 OA
BRANCH  27  29
ATOM     29  C   UNL     1       1.151  -2.083  -0.495  1.00  0.00     0.060 A 
ATOM     30  C   UNL     1       0.496  -2.840  -1.482  1.00  0.00     0.016 A 
ATOM     31  C   UNL     1       1.839  -1.023  -1.052  1.00  0.00     0.016 A 
ATOM     32  C   UNL     1       0.094  -2.236  -2.756  1.00  0.00     0.010 A 
ATOM     33  C   UNL     1       1.155  -0.318  -2.062  1.00  0.00     0.010 A 
ATOM     34  C   UNL     1       0.227  -0.872  -2.953  1.00  0.00    -0.014 A 
BRANCH  34  35
ATOM     35  C   UNL     1      -0.191  -0.015  -4.127  1.00  0.00     0.031 A 
ATOM     36  C   UNL     1      -1.536   0.067  -4.835  1.00  0.00     0.074 A 
ATOM     37  C   UNL     1       0.894   0.598  -4.680  1.00  0.00     0.049 A 
ATOM     38  N   UNL     1      -1.682  -0.070  -6.120  1.00  0.00    -0.248 NA
ATOM     39  C   UNL     1      -2.827   0.418  -4.209  1.00  0.00     0.031 C 
ATOM     40  C   UNL     1       1.107   1.282  -5.942  1.00  0.00     0.029 A 
ATOM     41  N   UNL     1       2.221   0.409  -4.229  1.00  0.00    -0.354 N 
ATOM     42  C   UNL     1      -2.939   0.407  -6.496  1.00  0.00     0.074 A 
ATOM     43  C   UNL     1      -3.656   0.583  -5.261  1.00  0.00     0.031 C 
ATOM     44  C   UNL     1       2.379   1.003  -6.326  1.00  0.00     0.029 A 
ATOM     45  C   UNL     1       2.967   0.091  -5.334  1.00  0.00     0.049 A 
ATOM     46  H   UNL     1       2.545   0.491  -3.303  1.00  0.00     0.167 HD
ATOM     47  C   UNL     1      -3.181   0.783  -7.793  1.00  0.00     0.031 A 
ATOM     48  C   UNL     1       3.370  -1.204  -5.483  1.00  0.00     0.031 A 
ATOM     49  C   UNL     1      -1.967   0.635  -8.575  1.00  0.00     0.049 A 
ATOM     50  C   UNL     1       2.863  -1.758  -6.772  1.00  0.00     0.074 A 
ATOM     51  C   UNL     1      -0.970   1.548  -8.867  1.00  0.00     0.029 A 
ATOM     52  N   UNL     1      -1.463  -0.626  -8.835  1.00  0.00    -0.354 N 
ATOM     53  N   UNL     1       1.740  -1.405  -7.327  1.00  0.00    -0.248 NA
ATOM     54  C   UNL     1       3.608  -2.745  -7.535  1.00  0.00     0.031 C 
ATOM     55  C   UNL     1       0.191   0.816  -9.199  1.00  0.00     0.029 A 
ATOM     56  C   UNL     1      -0.122  -0.531  -9.147  1.00  0.00     0.049 A 
ATOM     57  H   UNL     1      -1.981  -1.463  -8.803  1.00  0.00     0.167 HD
ATOM     58  C   UNL     1       1.657  -2.006  -8.552  1.00  0.00     0.074 A 
ATOM     59  C   UNL     1       2.836  -2.851  -8.626  1.00  0.00     0.031 C 
ATOM     60  C   UNL     1       0.651  -1.727  -9.426  1.00  0.00     0.031 A 
BRANCH  47  61
ATOM     61  C   UNL     1      -4.360   1.570  -8.357  1.00  0.00    -0.014 A 
ATOM     62  C   UNL     1      -4.118   2.519  -9.384  1.00  0.00     0.009 A 
ATOM     63  C   UNL     1      -5.705   1.411  -7.991  1.00  0.00     0.009 A 
ATOM     64  C   UNL     1      -5.124   3.302  -9.968  1.00  0.00     0.001 A 
ATOM     65  C   UNL     1      -6.727   2.195  -8.580  1.00  0.00     0.001 A 
ATOM     66  C   UNL     1      -6.436   3.146  -9.558  1.00  0.00     0.000 A 
ENDBRANCH  47  61
BRANCH  48  67
ATOM     67  C   UNL     1       3.624  -2.076  -4.273  1.00  0.00    -0.014 A 
ATOM     68  C   UNL     1       4.471  -1.640  -3.231  1.00  0.00     0.009 A 
ATOM     69  C   UNL     1       2.940  -3.287  -4.066  1.00  0.00     0.009 A 
ATOM     70  C   UNL     1       4.588  -2.350  -2.022  1.00  0.00     0.001 A 
ATOM     71  C   UNL     1       3.068  -4.007  -2.862  1.00  0.00     0.001 A 
ATOM     72  C   UNL     1       3.874  -3.529  -1.832  1.00  0.00     0.000 A 
ENDBRANCH  48  67
BRANCH  60  73
ATOM     73  C   UNL     1       0.369  -2.467 -10.700  1.00  0.00    -0.014 A 
ATOM     74  C   UNL     1       0.849  -3.749 -10.982  1.00  0.00     0.009 A 
ATOM     75  C   UNL     1      -0.519  -1.896 -11.639  1.00  0.00     0.009 A 
ATOM     76  C   UNL     1       0.533  -4.393 -12.181  1.00  0.00     0.001 A 
ATOM     77  C   UNL     1      -0.891  -2.562 -12.804  1.00  0.00     0.001 A 
ATOM     78  C   UNL     1      -0.343  -3.804 -13.086  1.00  0.00     0.000 A 
ENDBRANCH  60  73
ENDBRANCH  34  35
ENDBRANCH  27  29
ENDBRANCH  26  27
ENDBRANCH  25  26
ENDBRANCH   1  25
TORSDOF 15
