REMARK SMILES O=C(OCCOC(=O)[C@@H]1[C@H](C(=O)NCc2ccncc2)[C@H]2C=C[C@@H]1O2)c1ccc(-c2c3nc(c(-c4ccccc4)c4ccc([nH]4)c(-c4ccccc4)c4nc(c(-c5ccccc5)c5ccc2[nH]5)C=C4)C=C3)cc1
REMARK SMILES IDX 5 1 4 2 3 3 2 4 1 5 26 6 27 7 73 8 28 9 72 10 29 11 30 12
REMARK SMILES IDX 31 13 66 14 32 15 71 16 65 17 67 18 33 19 70 20 64 21 63 22
REMARK SMILES IDX 34 24 56 25 41 26 55 27 42 28 45 29 54 30 68 31 43 32 44 33
REMARK SMILES IDX 53 35 69 36 46 37 35 38 36 39 40 40 37 41 39 42 38 43 57 44
REMARK SMILES IDX 58 45 62 46 59 47 61 48 60 49 47 50 48 51 52 52 49 53 51 54
REMARK SMILES IDX 50 55 6 56 7 57 8 58 9 59 10 60 24 61 21 62 23 63 25 64
REMARK SMILES IDX 22 65 11 66 12 67 13 68 14 70 15 71 16 72 20 73 17 74 19 75
REMARK SMILES IDX 18 76
REMARK H PARENT 67 23 45 34 13 69
REMARK Flexibility Score: inf
ROOT
ATOM      1  C   UNL     1       2.787   1.677   0.085  1.00  0.00     0.274 C 
ENDROOT
BRANCH   1   2
ATOM      2  C   UNL     1       3.048   0.881  -1.188  1.00  0.00     0.275 C 
BRANCH   2   3
ATOM      3  O   UNL     1       2.103  -0.194  -1.385  1.00  0.00    -0.458 OA
BRANCH   3   4
ATOM      4  C   UNL     1       1.990  -1.430  -0.848  1.00  0.00     0.338 C 
ATOM      5  O   UNL     1       0.914  -2.013  -0.994  1.00  0.00    -0.246 OA
BRANCH   4   6
ATOM      6  C   UNL     1       3.045  -2.149  -0.049  1.00  0.00     0.060 A 
ATOM      7  C   UNL     1       4.354  -1.733   0.159  1.00  0.00     0.016 A 
ATOM      8  C   UNL     1       2.654  -3.340   0.601  1.00  0.00     0.016 A 
ATOM      9  C   UNL     1       5.197  -2.395   1.071  1.00  0.00     0.010 A 
ATOM     10  C   UNL     1       3.481  -3.973   1.548  1.00  0.00     0.010 A 
ATOM     11  C   UNL     1       4.758  -3.474   1.829  1.00  0.00    -0.014 A 
BRANCH  11  12
ATOM     12  C   UNL     1       5.691  -4.152   2.776  1.00  0.00     0.031 A 
ATOM     13  C   UNL     1       6.264  -5.459   2.356  1.00  0.00     0.074 A 
ATOM     14  C   UNL     1       6.146  -3.612   3.929  1.00  0.00     0.049 A 
ATOM     15  N   UNL     1       7.089  -6.231   3.006  1.00  0.00    -0.248 NA
ATOM     16  C   UNL     1       5.930  -5.911   0.997  1.00  0.00     0.031 C 
ATOM     17  C   UNL     1       5.919  -2.248   4.350  1.00  0.00     0.029 A 
ATOM     18  N   UNL     1       6.885  -4.125   4.973  1.00  0.00    -0.354 N 
ATOM     19  C   UNL     1       7.430  -7.223   2.110  1.00  0.00     0.074 A 
ATOM     20  C   UNL     1       6.644  -7.020   0.912  1.00  0.00     0.031 C 
ATOM     21  C   UNL     1       6.351  -2.053   5.605  1.00  0.00     0.029 A 
ATOM     22  C   UNL     1       6.939  -3.289   6.074  1.00  0.00     0.049 A 
ATOM     23  H   UNL     1       7.331  -5.002   4.939  1.00  0.00     0.167 HD
ATOM     24  C   UNL     1       8.370  -8.181   2.248  1.00  0.00     0.031 A 
ATOM     25  C   UNL     1       7.401  -3.485   7.323  1.00  0.00     0.031 A 
ATOM     26  C   UNL     1       9.117  -8.413   3.450  1.00  0.00     0.049 A 
ATOM     27  C   UNL     1       8.189  -4.732   7.570  1.00  0.00     0.074 A 
ATOM     28  C   UNL     1      10.023  -9.420   3.715  1.00  0.00     0.029 A 
ATOM     29  N   UNL     1       9.029  -7.635   4.597  1.00  0.00    -0.354 N 
ATOM     30  N   UNL     1       8.491  -5.679   6.717  1.00  0.00    -0.248 NA
ATOM     31  C   UNL     1       8.774  -4.904   8.905  1.00  0.00     0.031 C 
ATOM     32  C   UNL     1      10.438  -9.290   5.044  1.00  0.00     0.029 A 
ATOM     33  C   UNL     1       9.839  -8.164   5.588  1.00  0.00     0.049 A 
ATOM     34  H   UNL     1       8.474  -6.828   4.691  1.00  0.00     0.167 HD
ATOM     35  C   UNL     1       9.366  -6.517   7.383  1.00  0.00     0.074 A 
ATOM     36  C   UNL     1       9.536  -5.971   8.716  1.00  0.00     0.031 C 
ATOM     37  C   UNL     1       9.994  -7.621   6.913  1.00  0.00     0.031 A 
BRANCH  24  38
ATOM     38  C   UNL     1       8.578  -9.048   1.049  1.00  0.00    -0.014 A 
ATOM     39  C   UNL     1       9.212  -8.543  -0.100  1.00  0.00     0.009 A 
ATOM     40  C   UNL     1       8.041 -10.341   1.028  1.00  0.00     0.009 A 
ATOM     41  C   UNL     1       9.261  -9.306  -1.266  1.00  0.00     0.001 A 
ATOM     42  C   UNL     1       8.116 -11.110  -0.132  1.00  0.00     0.001 A 
ATOM     43  C   UNL     1       8.713 -10.588  -1.280  1.00  0.00     0.000 A 
ENDBRANCH  24  38
BRANCH  25  44
ATOM     44  C   UNL     1       7.162  -2.504   8.422  1.00  0.00    -0.014 A 
ATOM     45  C   UNL     1       8.211  -1.766   8.992  1.00  0.00     0.009 A 
ATOM     46  C   UNL     1       5.877  -2.377   8.979  1.00  0.00     0.009 A 
ATOM     47  C   UNL     1       7.992  -0.971  10.124  1.00  0.00     0.001 A 
ATOM     48  C   UNL     1       5.656  -1.564  10.097  1.00  0.00     0.001 A 
ATOM     49  C   UNL     1       6.717  -0.875  10.679  1.00  0.00     0.000 A 
ENDBRANCH  25  44
BRANCH  37  50
ATOM     50  C   UNL     1      10.962  -8.288   7.844  1.00  0.00    -0.014 A 
ATOM     51  C   UNL     1      10.525  -8.966   8.991  1.00  0.00     0.009 A 
ATOM     52  C   UNL     1      12.334  -8.248   7.552  1.00  0.00     0.009 A 
ATOM     53  C   UNL     1      11.449  -9.559   9.851  1.00  0.00     0.001 A 
ATOM     54  C   UNL     1      13.252  -8.876   8.392  1.00  0.00     0.001 A 
ATOM     55  C   UNL     1      12.809  -9.520   9.546  1.00  0.00     0.000 A 
ENDBRANCH  37  50
ENDBRANCH  11  12
ENDBRANCH   4   6
ENDBRANCH   3   4
ENDBRANCH   2   3
ENDBRANCH   1   2
BRANCH   1  56
ATOM     56  O   UNL     1       2.668   0.826   1.234  1.00  0.00    -0.462 OA
BRANCH  56  57
ATOM     57  C   UNL     1       1.741   1.238   2.140  1.00  0.00     0.312 C 
ATOM     58  O   UNL     1       1.069   2.250   2.037  1.00  0.00    -0.252 OA
BRANCH  57  59
ATOM     59  C   UNL     1       1.616   0.338   3.333  1.00  0.00     0.147 C 
ATOM     60  C   UNL     1       2.627   0.584   4.467  1.00  0.00     0.128 C 
ATOM     61  C   UNL     1       1.819  -1.143   3.029  1.00  0.00     0.157 C 
ATOM     62  C   UNL     1       3.134  -0.824   4.721  1.00  0.00     0.155 C 
ATOM     63  C   UNL     1       1.279  -2.006   4.128  1.00  0.00     0.004 C 
ATOM     64  O   UNL     1       3.224  -1.272   3.348  1.00  0.00    -0.365 OA
ATOM     65  C   UNL     1       2.076  -1.791   5.183  1.00  0.00     0.004 C 
BRANCH  60  66
ATOM     66  C   UNL     1       3.702   1.676   4.318  1.00  0.00     0.227 C 
ATOM     67  O   UNL     1       3.550   2.691   5.020  1.00  0.00    -0.275 OA
ATOM     68  N   UNL     1       4.803   1.744   3.533  1.00  0.00    -0.352 N 
ATOM     69  H   UNL     1       5.201   2.644   3.560  1.00  0.00     0.163 HD
BRANCH  68  70
ATOM     70  C   UNL     1       5.564   0.859   2.658  1.00  0.00     0.151 C 
BRANCH  70  71
ATOM     71  C   UNL     1       6.171   1.499   1.413  1.00  0.00    -0.026 A 
ATOM     72  C   UNL     1       6.090   2.858   1.113  1.00  0.00     0.025 A 
ATOM     73  C   UNL     1       6.821   0.693   0.463  1.00  0.00     0.025 A 
ATOM     74  C   UNL     1       6.505   3.301  -0.140  1.00  0.00     0.111 A 
ATOM     75  C   UNL     1       7.167   1.210  -0.778  1.00  0.00     0.111 A 
ATOM     76  N   UNL     1       6.994   2.498  -1.108  1.00  0.00    -0.265 NA
ENDBRANCH  70  71
ENDBRANCH  68  70
ENDBRANCH  60  66
ENDBRANCH  57  59
ENDBRANCH  56  57
ENDBRANCH   1  56
TORSDOF 14
