REMARK SMILES C[C@H]1[C@H](C(=O)OCCOC(=O)c2ccc(-c3c4nc(c(-c5ccccc5)c5ccc([nH]5)c(-c5ccccc5)c5nc(c(-c6ccccc6)c6ccc3[nH]6)C=C5)C=C4)cc2)CCN1C(=O)Nc1ccc(F)c(Cl)c1
REMARK SMILES IDX 7 1 6 2 4 3 5 4 3 5 1 6 2 7 62 8 60 9 61 10 63 11 64 12
REMARK SMILES IDX 65 13 66 15 67 16 73 17 68 18 71 19 69 20 72 21 70 22 8 23
REMARK SMILES IDX 9 24 10 25 11 26 12 27 13 28 59 29 14 30 58 31 15 32 16 33
REMARK SMILES IDX 17 34 52 35 18 36 57 37 51 38 53 39 19 40 56 41 50 42 49 43
REMARK SMILES IDX 20 45 42 46 27 47 41 48 28 49 31 50 40 51 54 52 29 53 30 54
REMARK SMILES IDX 39 56 55 57 32 58 21 59 22 60 26 61 23 62 25 63 24 64 43 65
REMARK SMILES IDX 44 66 48 67 45 68 47 69 46 70 33 71 34 72 38 73 35 74 37 75
REMARK SMILES IDX 36 76
REMARK H PARENT 65 14 53 44 31 55
REMARK Flexibility Score: inf
ROOT
ATOM      1  C   UNL     1      -0.678   2.984   3.231  1.00  0.00     0.274 C 
ENDROOT
BRANCH   1   2
ATOM      2  O   UNL     1      -0.574   1.887   2.302  1.00  0.00    -0.462 OA
BRANCH   2   3
ATOM      3  C   UNL     1      -0.873   2.168   1.009  1.00  0.00     0.311 C 
ATOM      4  O   UNL     1      -1.253   3.261   0.601  1.00  0.00    -0.252 OA
BRANCH   3   5
ATOM      5  C   UNL     1      -0.762   0.970   0.092  1.00  0.00     0.123 C 
ATOM      6  C   UNL     1       1.444   0.095  -0.772  1.00  0.00     0.032 C 
ATOM      7  C   UNL     1       0.426   0.022   0.373  1.00  0.00     0.098 C 
ATOM      8  N   UNL     1      -0.172  -1.316   0.482  1.00  0.00    -0.321 N 
ATOM      9  C   UNL     1      -2.019   0.115   0.209  1.00  0.00     0.039 C 
ATOM     10  C   UNL     1      -1.527  -1.292  -0.038  1.00  0.00     0.122 C 
BRANCH   8  11
ATOM     11  C   UNL     1       0.384  -2.533   0.764  1.00  0.00     0.322 C 
ATOM     12  O   UNL     1      -0.256  -3.577   0.591  1.00  0.00    -0.248 OA
ATOM     13  N   UNL     1       1.694  -2.682   1.066  1.00  0.00    -0.308 N 
ATOM     14  H   UNL     1       2.053  -3.548   0.767  1.00  0.00     0.171 HD
BRANCH  13  15
ATOM     15  C   UNL     1       2.660  -1.896   1.702  1.00  0.00     0.044 A 
ATOM     16  C   UNL     1       3.986  -2.069   1.282  1.00  0.00     0.029 A 
ATOM     17  C   UNL     1       2.378  -1.034   2.762  1.00  0.00     0.049 A 
ATOM     18  C   UNL     1       5.011  -1.307   1.840  1.00  0.00     0.043 A 
ATOM     19  C   UNL     1       3.415  -0.299   3.348  1.00  0.00     0.078 A 
ATOM     20  C   UNL     1       4.718  -0.418   2.867  1.00  0.00     0.141 A 
ATOM     21  Cl  UNL     1       3.081   0.720   4.696  1.00  0.00    -0.081 Cl
ATOM     22  F   UNL     1       5.718   0.302   3.396  1.00  0.00    -0.205 F 
ENDBRANCH  13  15
ENDBRANCH   8  11
ENDBRANCH   3   5
ENDBRANCH   2   3
ENDBRANCH   1   2
BRANCH   1  23
ATOM     23  C   UNL     1       0.672   3.660   3.484  1.00  0.00     0.275 C 
BRANCH  23  24
ATOM     24  O   UNL     1       1.180   4.323   2.313  1.00  0.00    -0.458 OA
BRANCH  24  25
ATOM     25  C   UNL     1       1.966   3.561   1.520  1.00  0.00     0.338 C 
ATOM     26  O   UNL     1       2.290   2.398   1.676  1.00  0.00    -0.246 OA
BRANCH  25  27
ATOM     27  C   UNL     1       2.307   4.312   0.308  1.00  0.00     0.060 A 
ATOM     28  C   UNL     1       1.704   3.938  -0.896  1.00  0.00     0.016 A 
ATOM     29  C   UNL     1       3.281   5.307   0.346  1.00  0.00     0.016 A 
ATOM     30  C   UNL     1       2.087   4.548  -2.083  1.00  0.00     0.010 A 
ATOM     31  C   UNL     1       3.648   5.936  -0.844  1.00  0.00     0.010 A 
ATOM     32  C   UNL     1       3.059   5.554  -2.062  1.00  0.00    -0.014 A 
BRANCH  32  33
ATOM     33  C   UNL     1       3.469   6.216  -3.317  1.00  0.00     0.031 A 
ATOM     34  C   UNL     1       4.820   5.937  -3.899  1.00  0.00     0.074 A 
ATOM     35  C   UNL     1       2.633   7.089  -3.905  1.00  0.00     0.049 A 
ATOM     36  N   UNL     1       5.439   6.548  -4.875  1.00  0.00    -0.248 NA
ATOM     37  C   UNL     1       5.577   4.825  -3.302  1.00  0.00     0.031 C 
ATOM     38  C   UNL     1       1.272   7.390  -3.460  1.00  0.00     0.029 A 
ATOM     39  N   UNL     1       2.818   7.899  -4.996  1.00  0.00    -0.354 N 
ATOM     40  C   UNL     1       6.671   5.919  -4.989  1.00  0.00     0.074 A 
ATOM     41  C   UNL     1       6.713   4.877  -3.985  1.00  0.00     0.031 C 
ATOM     42  C   UNL     1       0.748   8.329  -4.263  1.00  0.00     0.029 A 
ATOM     43  C   UNL     1       1.757   8.736  -5.235  1.00  0.00     0.049 A 
ATOM     44  H   UNL     1       3.630   7.881  -5.552  1.00  0.00     0.167 HD
ATOM     45  C   UNL     1       7.678   6.199  -5.849  1.00  0.00     0.031 A 
ATOM     46  C   UNL     1       1.632   9.752  -6.108  1.00  0.00     0.031 A 
ATOM     47  C   UNL     1       7.624   7.239  -6.840  1.00  0.00     0.049 A 
ATOM     48  C   UNL     1       2.791  10.091  -7.001  1.00  0.00     0.074 A 
ATOM     49  C   UNL     1       8.590   7.608  -7.759  1.00  0.00     0.029 A 
ATOM     50  N   UNL     1       6.538   8.078  -7.040  1.00  0.00    -0.354 N 
ATOM     51  N   UNL     1       3.963   9.511  -7.084  1.00  0.00    -0.248 NA
ATOM     52  C   UNL     1       2.613  11.231  -7.911  1.00  0.00     0.031 C 
ATOM     53  C   UNL     1       8.102   8.695  -8.491  1.00  0.00     0.029 A 
ATOM     54  C   UNL     1       6.816   8.974  -8.056  1.00  0.00     0.049 A 
ATOM     55  H   UNL     1       5.694   8.041  -6.534  1.00  0.00     0.167 HD
ATOM     56  C   UNL     1       4.656  10.199  -8.070  1.00  0.00     0.074 A 
ATOM     57  C   UNL     1       3.771  11.237  -8.559  1.00  0.00     0.031 C 
ATOM     58  C   UNL     1       5.913   9.990  -8.530  1.00  0.00     0.031 A 
BRANCH  45  59
ATOM     59  C   UNL     1       8.939   5.397  -5.719  1.00  0.00    -0.014 A 
ATOM     60  C   UNL     1       9.012   4.070  -6.168  1.00  0.00     0.009 A 
ATOM     61  C   UNL     1      10.083   5.992  -5.162  1.00  0.00     0.009 A 
ATOM     62  C   UNL     1      10.199   3.345  -6.038  1.00  0.00     0.001 A 
ATOM     63  C   UNL     1      11.273   5.272  -5.053  1.00  0.00     0.001 A 
ATOM     64  C   UNL     1      11.328   3.947  -5.483  1.00  0.00     0.000 A 
ENDBRANCH  45  59
BRANCH  46  65
ATOM     65  C   UNL     1       0.379  10.546  -6.140  1.00  0.00    -0.014 A 
ATOM     66  C   UNL     1      -0.515  10.426  -7.213  1.00  0.00     0.009 A 
ATOM     67  C   UNL     1       0.062  11.416  -5.084  1.00  0.00     0.009 A 
ATOM     68  C   UNL     1      -1.696  11.171  -7.235  1.00  0.00     0.001 A 
ATOM     69  C   UNL     1      -1.130  12.142  -5.097  1.00  0.00     0.001 A 
ATOM     70  C   UNL     1      -2.005  12.023  -6.175  1.00  0.00     0.000 A 
ENDBRANCH  46  65
BRANCH  58  71
ATOM     71  C   UNL     1       6.387  10.870  -9.648  1.00  0.00    -0.014 A 
ATOM     72  C   UNL     1       6.816  12.183  -9.405  1.00  0.00     0.009 A 
ATOM     73  C   UNL     1       6.460  10.354 -10.950  1.00  0.00     0.009 A 
ATOM     74  C   UNL     1       7.294  12.970 -10.454  1.00  0.00     0.001 A 
ATOM     75  C   UNL     1       6.957  11.137 -11.992  1.00  0.00     0.001 A 
ATOM     76  C   UNL     1       7.369  12.445 -11.744  1.00  0.00     0.000 A 
ENDBRANCH  58  71
ENDBRANCH  32  33
ENDBRANCH  25  27
ENDBRANCH  24  25
ENDBRANCH  23  24
ENDBRANCH   1  23
TORSDOF 13
