REMARK SMILES O=C(CC[NH+]1CCN(C(=O)c2n[nH]c3ccccc23)CC1)OCCOC(=O)c1ccc(-c2c3nc(c(-c4ccccc4)c4ccc([nH]4)c(-c4ccccc4)c4nc(c(-c5ccccc5)c5ccc2[nH]5)C=C4)C=C3)cc1
REMARK SMILES IDX 23 1 22 2 2 3 1 4 3 5 4 6 5 7 6 8 21 9 7 11 20 12 8 13 9 14
REMARK SMILES IDX 10 15 11 16 12 17 19 18 13 19 14 20 18 21 15 23 17 24 16 25
REMARK SMILES IDX 24 26 25 27 26 28 27 29 28 30 29 31 75 32 30 33 74 34 31 35
REMARK SMILES IDX 32 36 33 37 68 38 34 39 73 40 67 41 69 42 35 43 72 44 66 45
REMARK SMILES IDX 65 46 36 48 58 49 43 50 57 51 44 52 47 53 56 54 70 55 45 56
REMARK SMILES IDX 46 57 55 59 71 60 48 61 37 62 38 63 42 64 39 65 41 66 40 67
REMARK SMILES IDX 59 68 60 69 64 70 61 71 63 72 62 73 49 74 50 75 54 76 51 77
REMARK SMILES IDX 53 78 52 79
REMARK H PARENT 5 10 13 22 69 47 47 58
REMARK Flexibility Score: inf
ROOT
ATOM      1  C   UNL     1       4.095  -0.656   1.823  1.00  0.00     0.274 C 
ENDROOT
BRANCH   1   2
ATOM      2  O   UNL     1       2.847  -0.262   1.196  1.00  0.00    -0.462 OA
BRANCH   2   3
ATOM      3  C   UNL     1       2.603  -0.042  -0.119  1.00  0.00     0.311 C 
ATOM      4  O   UNL     1       1.479   0.308  -0.475  1.00  0.00    -0.252 OA
BRANCH   3   5
ATOM      5  C   UNL     1       3.703  -0.220  -1.143  1.00  0.00     0.184 C 
BRANCH   5   6
ATOM      6  C   UNL     1       3.951   1.058  -1.973  1.00  0.00     0.274 C 
BRANCH   6   7
ATOM      7  N   UNL     1       4.952   1.976  -1.391  1.00  0.00    -0.332 N 
ATOM      8  C   UNL     1       5.094   3.243  -2.171  1.00  0.00     0.284 C 
ATOM      9  C   UNL     1       4.652   2.345  -0.000  1.00  0.00     0.284 C 
ATOM     10  H   UNL     1       5.823   1.446  -1.425  1.00  0.00     0.348 HD
ATOM     11  C   UNL     1       4.083   4.399  -1.863  1.00  0.00     0.181 C 
ATOM     12  C   UNL     1       3.377   3.180   0.121  1.00  0.00     0.181 C 
ATOM     13  N   UNL     1       3.705   4.470  -0.445  1.00  0.00    -0.326 N 
ATOM     14  C   UNL     1       3.812   5.641   0.309  1.00  0.00     0.275 C 
ATOM     15  O   UNL     1       4.270   6.679  -0.167  1.00  0.00    -0.267 OA
BRANCH  14  16
ATOM     16  C   UNL     1       3.305   5.585   1.700  1.00  0.00     0.157 A 
ATOM     17  N   UNL     1       2.124   6.156   2.010  1.00  0.00    -0.169 NA
ATOM     18  C   UNL     1       3.839   4.873   2.830  1.00  0.00     0.033 A 
ATOM     19  N   UNL     1       1.908   5.804   3.285  1.00  0.00    -0.277 N 
ATOM     20  C   UNL     1       2.874   5.002   3.824  1.00  0.00     0.066 A 
ATOM     21  C   UNL     1       4.977   4.084   3.106  1.00  0.00     0.013 A 
ATOM     22  H   UNL     1       1.117   6.098   3.792  1.00  0.00     0.190 HD
ATOM     23  C   UNL     1       2.968   4.383   5.076  1.00  0.00     0.028 A 
ATOM     24  C   UNL     1       5.080   3.435   4.345  1.00  0.00     0.001 A 
ATOM     25  C   UNL     1       4.089   3.584   5.313  1.00  0.00     0.002 A 
ENDBRANCH  14  16
ENDBRANCH   6   7
ENDBRANCH   5   6
ENDBRANCH   3   5
ENDBRANCH   2   3
ENDBRANCH   1   2
BRANCH   1  26
ATOM     26  C   UNL     1       4.192  -2.154   2.072  1.00  0.00     0.275 C 
BRANCH  26  27
ATOM     27  O   UNL     1       3.910  -2.858   0.862  1.00  0.00    -0.458 OA
BRANCH  27  28
ATOM     28  C   UNL     1       2.598  -3.175   0.702  1.00  0.00     0.338 C 
ATOM     29  O   UNL     1       1.707  -3.064   1.515  1.00  0.00    -0.246 OA
BRANCH  28  30
ATOM     30  C   UNL     1       2.393  -3.530  -0.713  1.00  0.00     0.060 A 
ATOM     31  C   UNL     1       1.222  -3.094  -1.347  1.00  0.00     0.016 A 
ATOM     32  C   UNL     1       3.348  -4.282  -1.401  1.00  0.00     0.016 A 
ATOM     33  C   UNL     1       0.970  -3.470  -2.664  1.00  0.00     0.010 A 
ATOM     34  C   UNL     1       3.095  -4.661  -2.711  1.00  0.00     0.010 A 
ATOM     35  C   UNL     1       1.884  -4.298  -3.324  1.00  0.00    -0.014 A 
BRANCH  35  36
ATOM     36  C   UNL     1       1.502  -5.023  -4.550  1.00  0.00     0.031 A 
ATOM     37  C   UNL     1       0.975  -6.419  -4.388  1.00  0.00     0.074 A 
ATOM     38  C   UNL     1       1.731  -4.501  -5.763  1.00  0.00     0.049 A 
ATOM     39  N   UNL     1       0.753  -7.333  -5.294  1.00  0.00    -0.248 NA
ATOM     40  C   UNL     1       0.690  -6.849  -3.007  1.00  0.00     0.031 C 
ATOM     41  C   UNL     1       2.233  -3.155  -6.027  1.00  0.00     0.029 A 
ATOM     42  N   UNL     1       1.609  -5.073  -7.002  1.00  0.00    -0.354 N 
ATOM     43  C   UNL     1       0.326  -8.452  -4.592  1.00  0.00     0.074 A 
ATOM     44  C   UNL     1       0.344  -8.113  -3.187  1.00  0.00     0.031 C 
ATOM     45  C   UNL     1       2.413  -3.015  -7.352  1.00  0.00     0.029 A 
ATOM     46  C   UNL     1       2.073  -4.273  -8.015  1.00  0.00     0.049 A 
ATOM     47  H   UNL     1       1.227  -5.968  -7.150  1.00  0.00     0.167 HD
ATOM     48  C   UNL     1      -0.042  -9.659  -5.077  1.00  0.00     0.031 A 
ATOM     49  C   UNL     1       2.239  -4.546  -9.322  1.00  0.00     0.031 A 
ATOM     50  C   UNL     1      -0.025  -9.995  -6.473  1.00  0.00     0.049 A 
ATOM     51  C   UNL     1       1.866  -5.910  -9.841  1.00  0.00     0.074 A 
ATOM     52  C   UNL     1      -0.410 -11.174  -7.083  1.00  0.00     0.029 A 
ATOM     53  N   UNL     1       0.420  -9.146  -7.475  1.00  0.00    -0.354 N 
ATOM     54  N   UNL     1       1.409  -6.948  -9.181  1.00  0.00    -0.248 NA
ATOM     55  C   UNL     1       2.026  -6.136 -11.284  1.00  0.00     0.031 C 
ATOM     56  C   UNL     1      -0.145 -11.058  -8.451  1.00  0.00     0.029 A 
ATOM     57  C   UNL     1       0.348  -9.785  -8.699  1.00  0.00     0.049 A 
ATOM     58  H   UNL     1       0.739  -8.225  -7.336  1.00  0.00     0.167 HD
ATOM     59  C   UNL     1       1.199  -7.940 -10.131  1.00  0.00     0.074 A 
ATOM     60  C   UNL     1       1.576  -7.378 -11.412  1.00  0.00     0.031 C 
ATOM     61  C   UNL     1       0.729  -9.201  -9.960  1.00  0.00     0.031 A 
BRANCH  48  62
ATOM     62  C   UNL     1      -0.436 -10.705  -4.073  1.00  0.00    -0.014 A 
ATOM     63  C   UNL     1      -1.620 -10.593  -3.326  1.00  0.00     0.009 A 
ATOM     64  C   UNL     1       0.404 -11.807  -3.854  1.00  0.00     0.009 A 
ATOM     65  C   UNL     1      -1.928 -11.537  -2.344  1.00  0.00     0.001 A 
ATOM     66  C   UNL     1       0.079 -12.765  -2.893  1.00  0.00     0.001 A 
ATOM     67  C   UNL     1      -1.079 -12.622  -2.129  1.00  0.00     0.000 A 
ENDBRANCH  48  62
BRANCH  49  68
ATOM     68  C   UNL     1       2.801  -3.508 -10.221  1.00  0.00    -0.014 A 
ATOM     69  C   UNL     1       1.980  -2.841 -11.142  1.00  0.00     0.009 A 
ATOM     70  C   UNL     1       4.159  -3.157 -10.142  1.00  0.00     0.009 A 
ATOM     71  C   UNL     1       2.510  -1.854 -11.975  1.00  0.00     0.001 A 
ATOM     72  C   UNL     1       4.680  -2.152 -10.959  1.00  0.00     0.001 A 
ATOM     73  C   UNL     1       3.856  -1.505 -11.879  1.00  0.00     0.000 A 
ENDBRANCH  49  68
BRANCH  61  74
ATOM     74  C   UNL     1       0.554 -10.049 -11.188  1.00  0.00    -0.014 A 
ATOM     75  C   UNL     1       1.654 -10.619 -11.845  1.00  0.00     0.009 A 
ATOM     76  C   UNL     1      -0.742 -10.347 -11.640  1.00  0.00     0.009 A 
ATOM     77  C   UNL     1       1.458 -11.458 -12.944  1.00  0.00     0.001 A 
ATOM     78  C   UNL     1      -0.935 -11.206 -12.721  1.00  0.00     0.001 A 
ATOM     79  C   UNL     1       0.166 -11.757 -13.376  1.00  0.00     0.000 A 
ENDBRANCH  61  74
ENDBRANCH  35  36
ENDBRANCH  28  30
ENDBRANCH  27  28
ENDBRANCH  26  27
ENDBRANCH   1  26
TORSDOF 14
