REMARK SMILES O=C(OCCOC(=O)[C@H]1C[NH2+]CCN1c1ncc(C(F)(F)F)cc1Cl)c1ccc(-c2c3nc(c(-c4ccccc4)c4ccc([nH]4)c(-c4ccccc4)c4nc(c(-c5ccccc5)c5ccc2[nH]5)C=C4)C=C3)cc1
REMARK SMILES IDX 4 1 3 2 2 3 1 4 26 5 27 6 73 7 28 8 72 9 29 10 30 11 31 12
REMARK SMILES IDX 66 13 32 14 71 15 65 16 67 17 33 18 70 19 64 20 63 21 34 23
REMARK SMILES IDX 56 24 41 25 55 26 42 27 45 28 54 29 68 30 43 31 44 32 53 34
REMARK SMILES IDX 69 35 46 36 35 37 36 38 40 39 37 40 39 41 38 42 57 43 58 44
REMARK SMILES IDX 62 45 59 46 61 47 60 48 47 49 48 50 52 51 49 52 51 53 50 54
REMARK SMILES IDX 5 55 6 56 7 57 8 58 9 59 10 60 14 61 11 62 13 63 12 64 15 67
REMARK SMILES IDX 16 68 24 69 17 70 23 71 25 72 18 73 19 74 20 75 21 76 22 77
REMARK H PARENT 67 22 45 33 11 65 11 66
REMARK Flexibility Score: inf
ROOT
ATOM      1  C   UNL     1      -1.769  -0.406  -2.668  1.00  0.00     0.275 C 
ENDROOT
BRANCH   1   2
ATOM      2  O   UNL     1      -1.338   0.353  -1.525  1.00  0.00    -0.458 OA
BRANCH   2   3
ATOM      3  C   UNL     1      -0.383   0.044  -0.616  1.00  0.00     0.338 C 
ATOM      4  O   UNL     1      -0.423   0.565   0.497  1.00  0.00    -0.246 OA
BRANCH   3   5
ATOM      5  C   UNL     1       0.830  -0.765  -0.957  1.00  0.00     0.060 A 
ATOM      6  C   UNL     1       0.879  -1.849  -1.842  1.00  0.00     0.016 A 
ATOM      7  C   UNL     1       2.023  -0.386  -0.317  1.00  0.00     0.016 A 
ATOM      8  C   UNL     1       2.089  -2.477  -2.160  1.00  0.00     0.010 A 
ATOM      9  C   UNL     1       3.229  -1.033  -0.601  1.00  0.00     0.010 A 
ATOM     10  C   UNL     1       3.269  -2.076  -1.536  1.00  0.00    -0.014 A 
BRANCH  10  11
ATOM     11  C   UNL     1       4.486  -2.905  -1.657  1.00  0.00     0.031 A 
ATOM     12  C   UNL     1       4.747  -3.883  -0.557  1.00  0.00     0.074 A 
ATOM     13  C   UNL     1       5.333  -2.796  -2.696  1.00  0.00     0.049 A 
ATOM     14  N   UNL     1       5.763  -4.682  -0.381  1.00  0.00    -0.248 NA
ATOM     15  C   UNL     1       3.708  -3.977   0.484  1.00  0.00     0.031 C 
ATOM     16  C   UNL     1       5.130  -1.947  -3.864  1.00  0.00     0.029 A 
ATOM     17  N   UNL     1       6.553  -3.383  -2.920  1.00  0.00    -0.354 N 
ATOM     18  C   UNL     1       5.481  -5.378   0.784  1.00  0.00     0.074 A 
ATOM     19  C   UNL     1       4.233  -4.868   1.304  1.00  0.00     0.031 C 
ATOM     20  C   UNL     1       6.223  -1.999  -4.645  1.00  0.00     0.029 A 
ATOM     21  C   UNL     1       7.198  -2.896  -4.032  1.00  0.00     0.049 A 
ATOM     22  H   UNL     1       6.929  -4.084  -2.340  1.00  0.00     0.167 HD
ATOM     23  C   UNL     1       6.193  -6.369   1.363  1.00  0.00     0.031 A 
ATOM     24  C   UNL     1       8.444  -3.138  -4.487  1.00  0.00     0.031 A 
ATOM     25  C   UNL     1       7.457  -6.825   0.865  1.00  0.00     0.049 A 
ATOM     26  C   UNL     1       9.287  -4.151  -3.760  1.00  0.00     0.074 A 
ATOM     27  C   UNL     1       8.281  -7.810   1.372  1.00  0.00     0.029 A 
ATOM     28  N   UNL     1       8.091  -6.297  -0.252  1.00  0.00    -0.354 N 
ATOM     29  N   UNL     1       8.994  -4.842  -2.683  1.00  0.00    -0.248 NA
ATOM     30  C   UNL     1      10.613  -4.446  -4.322  1.00  0.00     0.031 C 
ATOM     31  C   UNL     1       9.445  -7.835   0.595  1.00  0.00     0.029 A 
ATOM     32  C   UNL     1       9.313  -6.914  -0.434  1.00  0.00     0.049 A 
ATOM     33  H   UNL     1       7.723  -5.589  -0.829  1.00  0.00     0.167 HD
ATOM     34  C   UNL     1      10.072  -5.690  -2.467  1.00  0.00     0.074 A 
ATOM     35  C   UNL     1      11.033  -5.415  -3.518  1.00  0.00     0.031 C 
ATOM     36  C   UNL     1      10.243  -6.623  -1.499  1.00  0.00     0.031 A 
BRANCH  23  37
ATOM     37  C   UNL     1       5.619  -6.944   2.625  1.00  0.00    -0.014 A 
ATOM     38  C   UNL     1       4.428  -7.690   2.611  1.00  0.00     0.009 A 
ATOM     39  C   UNL     1       6.221  -6.645   3.855  1.00  0.00     0.009 A 
ATOM     40  C   UNL     1       3.813  -8.062   3.808  1.00  0.00     0.001 A 
ATOM     41  C   UNL     1       5.622  -7.048   5.049  1.00  0.00     0.001 A 
ATOM     42  C   UNL     1       4.410  -7.738   5.026  1.00  0.00     0.000 A 
ENDBRANCH  23  37
BRANCH  24  43
ATOM     43  C   UNL     1       8.954  -2.417  -5.685  1.00  0.00    -0.014 A 
ATOM     44  C   UNL     1       9.117  -3.076  -6.912  1.00  0.00     0.009 A 
ATOM     45  C   UNL     1       9.262  -1.048  -5.610  1.00  0.00     0.009 A 
ATOM     46  C   UNL     1       9.592  -2.386  -8.032  1.00  0.00     0.001 A 
ATOM     47  C   UNL     1       9.717  -0.356  -6.736  1.00  0.00     0.001 A 
ATOM     48  C   UNL     1       9.886  -1.026  -7.945  1.00  0.00     0.000 A 
ENDBRANCH  24  43
BRANCH  36  49
ATOM     49  C   UNL     1      11.486  -7.463  -1.551  1.00  0.00    -0.014 A 
ATOM     50  C   UNL     1      12.732  -6.951  -1.162  1.00  0.00     0.009 A 
ATOM     51  C   UNL     1      11.378  -8.823  -1.885  1.00  0.00     0.009 A 
ATOM     52  C   UNL     1      13.848  -7.787  -1.112  1.00  0.00     0.001 A 
ATOM     53  C   UNL     1      12.489  -9.661  -1.806  1.00  0.00     0.001 A 
ATOM     54  C   UNL     1      13.724  -9.142  -1.422  1.00  0.00     0.000 A 
ENDBRANCH  36  49
ENDBRANCH  10  11
ENDBRANCH   3   5
ENDBRANCH   2   3
ENDBRANCH   1   2
BRANCH   1  55
ATOM     55  C   UNL     1      -1.087   0.009  -3.973  1.00  0.00     0.274 C 
BRANCH  55  56
ATOM     56  O   UNL     1       0.342   0.120  -3.843  1.00  0.00    -0.460 OA
BRANCH  56  57
ATOM     57  C   UNL     1       0.835   1.388  -3.656  1.00  0.00     0.334 C 
ATOM     58  O   UNL     1       0.139   2.392  -3.676  1.00  0.00    -0.250 OA
BRANCH  57  59
ATOM     59  C   UNL     1       2.371   1.344  -3.490  1.00  0.00     0.249 C 
ATOM     60  C   UNL     1       3.005   1.030  -4.866  1.00  0.00     0.298 C 
ATOM     61  N   UNL     1       2.932   2.603  -2.967  1.00  0.00    -0.331 N 
ATOM     62  N   UNL     1       2.975   2.146  -5.837  1.00  0.00    -0.343 N 
ATOM     63  C   UNL     1       2.943   3.756  -3.860  1.00  0.00     0.180 C 
ATOM     64  C   UNL     1       3.585   3.342  -5.208  1.00  0.00     0.282 C 
ATOM     65  H   UNL     1       2.010   2.349  -6.096  1.00  0.00     0.346 HD
ATOM     66  H   UNL     1       3.497   1.891  -6.676  1.00  0.00     0.346 HD
BRANCH  61  67
ATOM     67  C   UNL     1       3.421   2.751  -1.693  1.00  0.00     0.148 A 
ATOM     68  N   UNL     1       2.749   3.597  -0.878  1.00  0.00    -0.237 NA
ATOM     69  C   UNL     1       4.610   2.148  -1.250  1.00  0.00     0.084 A 
ATOM     70  C   UNL     1       3.228   3.833   0.370  1.00  0.00     0.126 A 
ATOM     71  C   UNL     1       5.085   2.402   0.041  1.00  0.00     0.039 A 
ATOM     72  Cl  UNL     1       5.598   1.165  -2.268  1.00  0.00    -0.080 Cl
ATOM     73  C   UNL     1       4.388   3.272   0.877  1.00  0.00     0.075 A 
BRANCH  73  74
ATOM     74  C   UNL     1       4.872   3.637   2.246  1.00  0.00     0.417 C 
ATOM     75  F   UNL     1       5.141   4.966   2.365  1.00  0.00    -0.166 F 
ATOM     76  F   UNL     1       3.968   3.347   3.220  1.00  0.00    -0.166 F 
ATOM     77  F   UNL     1       6.020   2.995   2.600  1.00  0.00    -0.166 F 
ENDBRANCH  73  74
ENDBRANCH  61  67
ENDBRANCH  57  59
ENDBRANCH  56  57
ENDBRANCH  55  56
ENDBRANCH   1  55
TORSDOF 13
