REMARK SMILES O=C(OCCOC(=O)c1cc(SCc2csc(-c3ccsc3)n2)ccn1)c1ccc(-c2c3nc(c(-c4ccccc4)c4ccc([nH]4)c(-c4ccccc4)c4nc(c(-c5ccccc5)c5ccc2[nH]5)C=C4)C=C3)cc1
REMARK SMILES IDX 5 1 4 2 3 3 2 4 1 5 27 6 28 7 74 8 29 9 73 10 30 11 31 12
REMARK SMILES IDX 32 13 67 14 33 15 72 16 66 17 68 18 34 19 71 20 65 21 64 22
REMARK SMILES IDX 35 24 57 25 42 26 56 27 43 28 46 29 55 30 69 31 44 32 45 33
REMARK SMILES IDX 54 35 70 36 47 37 36 38 37 39 41 40 38 41 40 42 39 43 58 44
REMARK SMILES IDX 59 45 63 46 60 47 62 48 61 49 48 50 49 51 53 52 50 53 52 54
REMARK SMILES IDX 51 55 6 56 7 57 8 58 9 59 10 60 26 61 11 62 25 63 24 64
REMARK SMILES IDX 12 65 13 66 14 67 15 68 23 69 16 70 17 71 18 72 19 73 22 74
REMARK SMILES IDX 20 75 21 76
REMARK H PARENT 68 23 46 34
REMARK Flexibility Score: inf
ROOT
ATOM      1  C   UNL     1       4.096   0.611  -1.938  1.00  0.00     0.275 C 
ENDROOT
BRANCH   1   2
ATOM      2  C   UNL     1       4.085  -0.706  -1.162  1.00  0.00     0.275 C 
BRANCH   2   3
ATOM      3  O   UNL     1       2.867  -0.923  -0.430  1.00  0.00    -0.458 OA
BRANCH   3   4
ATOM      4  C   UNL     1       2.574  -0.717   0.875  1.00  0.00     0.338 C 
ATOM      5  O   UNL     1       1.615  -1.322   1.357  1.00  0.00    -0.246 OA
BRANCH   4   6
ATOM      6  C   UNL     1       3.283   0.257   1.775  1.00  0.00     0.060 A 
ATOM      7  C   UNL     1       4.611   0.671   1.671  1.00  0.00     0.016 A 
ATOM      8  C   UNL     1       2.543   0.738   2.878  1.00  0.00     0.016 A 
ATOM      9  C   UNL     1       5.181   1.515   2.634  1.00  0.00     0.010 A 
ATOM     10  C   UNL     1       3.105   1.594   3.838  1.00  0.00     0.010 A 
ATOM     11  C   UNL     1       4.443   1.973   3.729  1.00  0.00    -0.014 A 
BRANCH  11  12
ATOM     12  C   UNL     1       5.156   2.713   4.800  1.00  0.00     0.031 A 
ATOM     13  C   UNL     1       5.840   1.929   5.869  1.00  0.00     0.074 A 
ATOM     14  C   UNL     1       5.271   4.053   4.777  1.00  0.00     0.049 A 
ATOM     15  N   UNL     1       6.727   2.328   6.739  1.00  0.00    -0.248 NA
ATOM     16  C   UNL     1       5.464   0.512   5.978  1.00  0.00     0.031 C 
ATOM     17  C   UNL     1       4.611   4.899   3.801  1.00  0.00     0.029 A 
ATOM     18  N   UNL     1       6.013   4.933   5.532  1.00  0.00    -0.354 N 
ATOM     19  C   UNL     1       6.984   1.223   7.533  1.00  0.00     0.074 A 
ATOM     20  C   UNL     1       6.182   0.131   7.023  1.00  0.00     0.031 C 
ATOM     21  C   UNL     1       5.051   6.158   3.940  1.00  0.00     0.029 A 
ATOM     22  C   UNL     1       6.036   6.209   5.002  1.00  0.00     0.049 A 
ATOM     23  H   UNL     1       6.477   4.680   6.363  1.00  0.00     0.167 HD
ATOM     24  C   UNL     1       7.784   1.146   8.621  1.00  0.00     0.031 A 
ATOM     25  C   UNL     1       6.825   7.271   5.272  1.00  0.00     0.031 A 
ATOM     26  C   UNL     1       8.530   2.258   9.145  1.00  0.00     0.049 A 
ATOM     27  C   UNL     1       7.819   7.120   6.388  1.00  0.00     0.074 A 
ATOM     28  C   UNL     1       9.319   2.314  10.279  1.00  0.00     0.029 A 
ATOM     29  N   UNL     1       8.566   3.520   8.567  1.00  0.00    -0.354 N 
ATOM     30  N   UNL     1       8.108   6.052   7.092  1.00  0.00    -0.248 NA
ATOM     31  C   UNL     1       8.601   8.311   6.744  1.00  0.00     0.031 C 
ATOM     32  C   UNL     1       9.798   3.624  10.410  1.00  0.00     0.029 A 
ATOM     33  C   UNL     1       9.352   4.368   9.328  1.00  0.00     0.049 A 
ATOM     34  H   UNL     1       8.101   3.775   7.737  1.00  0.00     0.167 HD
ATOM     35  C   UNL     1       9.085   6.446   7.992  1.00  0.00     0.074 A 
ATOM     36  C   UNL     1       9.399   7.829   7.686  1.00  0.00     0.031 C 
ATOM     37  C   UNL     1       9.641   5.742   9.008  1.00  0.00     0.031 A 
BRANCH  24  38
ATOM     38  C   UNL     1       7.769  -0.158   9.361  1.00  0.00    -0.014 A 
ATOM     39  C   UNL     1       8.382  -1.309   8.843  1.00  0.00     0.009 A 
ATOM     40  C   UNL     1       7.052  -0.248  10.564  1.00  0.00     0.009 A 
ATOM     41  C   UNL     1       8.235  -2.537   9.493  1.00  0.00     0.001 A 
ATOM     42  C   UNL     1       6.928  -1.471  11.224  1.00  0.00     0.001 A 
ATOM     43  C   UNL     1       7.507  -2.616  10.681  1.00  0.00     0.000 A 
ENDBRANCH  24  38
BRANCH  25  44
ATOM     44  C   UNL     1       6.846   8.484   4.389  1.00  0.00    -0.014 A 
ATOM     45  C   UNL     1       8.012   8.813   3.668  1.00  0.00     0.009 A 
ATOM     46  C   UNL     1       5.730   9.317   4.235  1.00  0.00     0.009 A 
ATOM     47  C   UNL     1       8.063   9.927   2.826  1.00  0.00     0.001 A 
ATOM     48  C   UNL     1       5.772  10.421   3.372  1.00  0.00     0.001 A 
ATOM     49  C   UNL     1       6.938  10.728   2.673  1.00  0.00     0.000 A 
ENDBRANCH  25  44
BRANCH  37  50
ATOM     50  C   UNL     1      10.619   6.478   9.876  1.00  0.00    -0.014 A 
ATOM     51  C   UNL     1      10.188   7.497  10.742  1.00  0.00     0.009 A 
ATOM     52  C   UNL     1      11.977   6.132   9.852  1.00  0.00     0.009 A 
ATOM     53  C   UNL     1      11.106   8.184  11.536  1.00  0.00     0.001 A 
ATOM     54  C   UNL     1      12.889   6.801  10.669  1.00  0.00     0.001 A 
ATOM     55  C   UNL     1      12.455   7.833  11.501  1.00  0.00     0.000 A 
ENDBRANCH  37  50
ENDBRANCH  11  12
ENDBRANCH   4   6
ENDBRANCH   3   4
ENDBRANCH   2   3
ENDBRANCH   1   2
BRANCH   1  56
ATOM     56  O   UNL     1       3.635   1.713  -1.146  1.00  0.00    -0.457 OA
BRANCH  56  57
ATOM     57  C   UNL     1       2.317   2.033  -1.314  1.00  0.00     0.357 C 
ATOM     58  O   UNL     1       1.542   1.554  -2.114  1.00  0.00    -0.244 OA
BRANCH  57  59
ATOM     59  C   UNL     1       1.985   3.063  -0.300  1.00  0.00     0.149 A 
ATOM     60  C   UNL     1       2.673   4.271  -0.308  1.00  0.00     0.051 A 
ATOM     61  N   UNL     1       1.065   2.710   0.629  1.00  0.00    -0.249 NA
ATOM     62  C   UNL     1       2.476   5.140   0.751  1.00  0.00     0.012 A 
ATOM     63  C   UNL     1       0.841   3.598   1.613  1.00  0.00     0.113 A 
ATOM     64  C   UNL     1       1.517   4.803   1.718  1.00  0.00     0.035 A 
BRANCH  62  65
ATOM     65  S   UNL     1       3.340   6.684   0.960  1.00  0.00    -0.120 SA
BRANCH  65  66
ATOM     66  C   UNL     1       4.977   6.533   0.158  1.00  0.00     0.132 C 
BRANCH  66  67
ATOM     67  C   UNL     1       5.942   5.441   0.556  1.00  0.00     0.062 A 
ATOM     68  C   UNL     1       6.033   4.201  -0.048  1.00  0.00     0.091 A 
ATOM     69  N   UNL     1       7.014   5.706   1.428  1.00  0.00    -0.240 NA
ATOM     70  S   UNL     1       7.508   3.436   0.328  1.00  0.00    -0.122 S 
ATOM     71  C   UNL     1       7.911   4.734   1.384  1.00  0.00     0.124 A 
BRANCH  71  72
ATOM     72  C   UNL     1       9.210   4.733   2.159  1.00  0.00     0.021 A 
ATOM     73  C   UNL     1       9.450   5.432   3.374  1.00  0.00     0.023 A 
ATOM     74  C   UNL     1      10.331   4.019   1.780  1.00  0.00     0.076 A 
ATOM     75  C   UNL     1      10.719   5.239   3.874  1.00  0.00     0.065 A 
ATOM     76  S   UNL     1      11.648   4.227   2.858  1.00  0.00    -0.152 S 
ENDBRANCH  71  72
ENDBRANCH  66  67
ENDBRANCH  65  66
ENDBRANCH  62  65
ENDBRANCH  57  59
ENDBRANCH  56  57
ENDBRANCH   1  56
TORSDOF 15
