REMARK SMILES C[C@H](CCC(=O)OCCOC(=O)c1ccc(-c2c3nc(c(-c4ccccc4)c4ccc([nH]4)c(-c4ccccc4)c4nc(c(-c5ccccc5)c5ccc2[nH]5)C=C4)C=C3)cc1)NC(=O)N(C)CCc1cccs1
REMARK SMILES IDX 5 1 6 2 4 3 3 4 2 5 1 6 61 7 62 8 63 10 64 11 65 12 66 13
REMARK SMILES IDX 67 14 68 15 69 16 72 17 70 18 71 19 7 20 8 21 9 22 10 23
REMARK SMILES IDX 11 24 12 25 13 26 14 27 60 28 15 29 59 30 16 31 17 32 18 33
REMARK SMILES IDX 53 34 19 35 58 36 52 37 54 38 20 39 57 40 51 41 50 42 21 44
REMARK SMILES IDX 43 45 28 46 42 47 29 48 32 49 41 50 55 51 30 52 31 53 40 55
REMARK SMILES IDX 56 56 33 57 22 58 23 59 27 60 24 61 26 62 25 63 44 64 45 65
REMARK SMILES IDX 49 66 46 67 48 68 47 69 34 70 35 71 39 72 36 73 38 74 37 75
REMARK H PARENT 61 9 54 43 32 54
REMARK Flexibility Score: inf
ROOT
ATOM      1  C   UNL     1       2.138  -1.894   2.332  1.00  0.00     0.305 C 
ATOM      2  O   UNL     1       2.760  -1.786   3.381  1.00  0.00    -0.252 OA
ENDROOT
BRANCH   1   3
ATOM      3  C   UNL     1       0.827  -1.187   2.078  1.00  0.00     0.125 C 
BRANCH   3   4
ATOM      4  C   UNL     1       0.690  -0.536   0.706  1.00  0.00     0.036 C 
BRANCH   4   5
ATOM      5  C   UNL     1       0.222  -1.370  -0.512  1.00  0.00     0.081 C 
ATOM      6  C   UNL     1      -0.085  -2.848  -0.292  1.00  0.00     0.031 C 
BRANCH   5   7
ATOM      7  N   UNL     1      -0.950  -0.708  -1.086  1.00  0.00    -0.336 N 
ATOM      8  C   UNL     1      -1.573  -0.604  -2.266  1.00  0.00     0.317 C 
ATOM      9  H   UNL     1      -1.421  -0.183  -0.400  1.00  0.00     0.165 HD
ATOM     10  O   UNL     1      -2.656  -0.012  -2.195  1.00  0.00    -0.249 OA
BRANCH   8  11
ATOM     11  N   UNL     1      -1.104  -1.107  -3.443  1.00  0.00    -0.328 N 
ATOM     12  C   UNL     1       0.255  -1.473  -3.805  1.00  0.00     0.148 C 
BRANCH  11  13
ATOM     13  C   UNL     1      -2.047  -1.119  -4.575  1.00  0.00     0.126 C 
BRANCH  13  14
ATOM     14  C   UNL     1      -2.863  -2.420  -4.688  1.00  0.00     0.068 C 
BRANCH  14  15
ATOM     15  C   UNL     1      -3.938  -2.573  -3.648  1.00  0.00     0.006 A 
ATOM     16  C   UNL     1      -4.028  -3.514  -2.641  1.00  0.00     0.015 A 
ATOM     17  S   UNL     1      -5.296  -1.522  -3.638  1.00  0.00    -0.149 S 
ATOM     18  C   UNL     1      -5.158  -3.303  -1.799  1.00  0.00     0.012 A 
ATOM     19  C   UNL     1      -5.905  -2.220  -2.203  1.00  0.00     0.065 A 
ENDBRANCH  14  15
ENDBRANCH  13  14
ENDBRANCH  11  13
ENDBRANCH   8  11
ENDBRANCH   5   7
ENDBRANCH   4   5
ENDBRANCH   3   4
ENDBRANCH   1   3
BRANCH   1  20
ATOM     20  O   UNL     1       2.491  -2.692   1.296  1.00  0.00    -0.462 OA
BRANCH  20  21
ATOM     21  C   UNL     1       3.681  -3.487   1.448  1.00  0.00     0.274 C 
BRANCH  21  22
ATOM     22  C   UNL     1       4.796  -2.969   0.541  1.00  0.00     0.275 C 
BRANCH  22  23
ATOM     23  O   UNL     1       5.271  -1.692   1.006  1.00  0.00    -0.458 OA
BRANCH  23  24
ATOM     24  C   UNL     1       4.690  -0.618   0.428  1.00  0.00     0.338 C 
ATOM     25  O   UNL     1       3.902  -0.616  -0.506  1.00  0.00    -0.246 OA
BRANCH  24  26
ATOM     26  C   UNL     1       5.022   0.589   1.203  1.00  0.00     0.060 A 
ATOM     27  C   UNL     1       3.969   1.354   1.710  1.00  0.00     0.016 A 
ATOM     28  C   UNL     1       6.345   0.987   1.404  1.00  0.00     0.016 A 
ATOM     29  C   UNL     1       4.227   2.526   2.409  1.00  0.00     0.010 A 
ATOM     30  C   UNL     1       6.606   2.163   2.116  1.00  0.00     0.010 A 
ATOM     31  C   UNL     1       5.547   2.942   2.614  1.00  0.00    -0.014 A 
BRANCH  31  32
ATOM     32  C   UNL     1       5.793   4.215   3.328  1.00  0.00     0.031 A 
ATOM     33  C   UNL     1       6.208   5.436   2.561  1.00  0.00     0.074 A 
ATOM     34  C   UNL     1       5.580   4.283   4.655  1.00  0.00     0.049 A 
ATOM     35  N   UNL     1       6.468   6.640   3.004  1.00  0.00    -0.248 NA
ATOM     36  C   UNL     1       6.345   5.286   1.103  1.00  0.00     0.031 C 
ATOM     37  C   UNL     1       5.132   3.172   5.498  1.00  0.00     0.029 A 
ATOM     38  N   UNL     1       5.703   5.336   5.524  1.00  0.00    -0.354 N 
ATOM     39  C   UNL     1       6.802   7.389   1.885  1.00  0.00     0.074 A 
ATOM     40  C   UNL     1       6.741   6.500   0.745  1.00  0.00     0.031 C 
ATOM     41  C   UNL     1       5.008   3.607   6.763  1.00  0.00     0.029 A 
ATOM     42  C   UNL     1       5.405   5.010   6.825  1.00  0.00     0.049 A 
ATOM     43  H   UNL     1       5.978   6.239   5.243  1.00  0.00     0.167 HD
ATOM     44  C   UNL     1       7.125   8.703   1.813  1.00  0.00     0.031 A 
ATOM     45  C   UNL     1       5.463   5.756   7.943  1.00  0.00     0.031 A 
ATOM     46  C   UNL     1       7.197   9.583   2.950  1.00  0.00     0.049 A 
ATOM     47  C   UNL     1       5.889   7.195   7.841  1.00  0.00     0.074 A 
ATOM     48  C   UNL     1       7.531  10.926   2.981  1.00  0.00     0.029 A 
ATOM     49  N   UNL     1       6.931   9.206   4.257  1.00  0.00    -0.354 N 
ATOM     50  N   UNL     1       6.207   7.890   6.776  1.00  0.00    -0.248 NA
ATOM     51  C   UNL     1       5.957   7.952   9.098  1.00  0.00     0.031 C 
ATOM     52  C   UNL     1       7.508  11.351   4.314  1.00  0.00     0.029 A 
ATOM     53  C   UNL     1       7.109  10.286   5.105  1.00  0.00     0.049 A 
ATOM     54  H   UNL     1       6.656   8.304   4.540  1.00  0.00     0.167 HD
ATOM     55  C   UNL     1       6.497   9.169   7.232  1.00  0.00     0.074 A 
ATOM     56  C   UNL     1       6.287   9.160   8.665  1.00  0.00     0.031 C 
ATOM     57  C   UNL     1       6.906  10.254   6.530  1.00  0.00     0.031 A 
BRANCH  44  58
ATOM     58  C   UNL     1       7.451   9.261   0.457  1.00  0.00    -0.014 A 
ATOM     59  C   UNL     1       6.445   9.488  -0.496  1.00  0.00     0.009 A 
ATOM     60  C   UNL     1       8.775   9.601   0.143  1.00  0.00     0.009 A 
ATOM     61  C   UNL     1       6.765  10.023  -1.746  1.00  0.00     0.001 A 
ATOM     62  C   UNL     1       9.088  10.158  -1.099  1.00  0.00     0.001 A 
ATOM     63  C   UNL     1       8.084  10.362  -2.044  1.00  0.00     0.000 A 
ENDBRANCH  44  58
BRANCH  45  64
ATOM     64  C   UNL     1       5.146   5.152   9.263  1.00  0.00    -0.014 A 
ATOM     65  C   UNL     1       4.008   5.549   9.982  1.00  0.00     0.009 A 
ATOM     66  C   UNL     1       6.003   4.192   9.825  1.00  0.00     0.009 A 
ATOM     67  C   UNL     1       3.754   5.020  11.251  1.00  0.00     0.001 A 
ATOM     68  C   UNL     1       5.729   3.643  11.079  1.00  0.00     0.001 A 
ATOM     69  C   UNL     1       4.612   4.066  11.796  1.00  0.00     0.000 A 
ENDBRANCH  45  64
BRANCH  57  70
ATOM     70  C   UNL     1       7.130  11.520   7.308  1.00  0.00    -0.014 A 
ATOM     71  C   UNL     1       8.228  11.658   8.172  1.00  0.00     0.009 A 
ATOM     72  C   UNL     1       6.234  12.591   7.169  1.00  0.00     0.009 A 
ATOM     73  C   UNL     1       8.398  12.827   8.915  1.00  0.00     0.001 A 
ATOM     74  C   UNL     1       6.424  13.770   7.890  1.00  0.00     0.001 A 
ATOM     75  C   UNL     1       7.498  13.883   8.771  1.00  0.00     0.000 A 
ENDBRANCH  57  70
ENDBRANCH  31  32
ENDBRANCH  24  26
ENDBRANCH  23  24
ENDBRANCH  22  23
ENDBRANCH  21  22
ENDBRANCH  20  21
ENDBRANCH   1  20
TORSDOF 18
