REMARK SMILES COCCNC(=O)c1cccc(NC(=O)[C@@H]2CCCC[C@H]2C(=O)OCCOC(=O)c2ccc(-c3c4nc(c(-c5ccccc5)c5ccc([nH]5)c(-c5ccccc5)c5nc(c(-c6ccccc6)c6ccc3[nH]6)C=C5)C=C4)cc2)c1
REMARK SMILES IDX 22 1 23 2 21 3 16 4 17 5 18 6 20 7 19 8 14 9 13 10 15 12
REMARK SMILES IDX 12 13 8 14 9 15 78 16 10 17 11 18 6 19 5 20 7 22 4 23 3 24
REMARK SMILES IDX 2 25 1 26 24 27 25 28 26 29 27 30 28 31 29 32 30 33 31 34
REMARK SMILES IDX 77 35 32 36 76 37 33 38 34 39 35 40 70 41 36 42 75 43 69 44
REMARK SMILES IDX 71 45 37 46 74 47 68 48 67 49 38 51 60 52 45 53 59 54 46 55
REMARK SMILES IDX 49 56 58 57 72 58 47 59 48 60 57 62 73 63 50 64 39 65 40 66
REMARK SMILES IDX 44 67 41 68 43 69 42 70 61 71 62 72 66 73 63 74 65 75 64 76
REMARK SMILES IDX 51 77 52 78 56 79 53 80 55 81 54 82
REMARK H PARENT 13 11 5 21 71 50 49 61
REMARK Flexibility Score: inf
ROOT
ATOM      1  C   UNL     1       2.393   7.926   8.026  1.00  0.00     0.309 C 
ATOM      2  O   UNL     1       2.177   9.033   8.508  1.00  0.00    -0.252 OA
ENDROOT
BRANCH   1   3
ATOM      3  C   UNL     1       2.384   6.667   8.880  1.00  0.00     0.111 C 
ATOM      4  C   UNL     1       2.388   5.330   8.102  1.00  0.00     0.093 C 
ATOM      5  C   UNL     1       2.453   4.161   9.100  1.00  0.00     0.014 C 
ATOM      6  C   UNL     1       3.679   4.253   9.998  1.00  0.00     0.001 C 
ATOM      7  C   UNL     1       3.607   6.761   9.806  1.00  0.00     0.016 C 
ATOM      8  C   UNL     1       3.710   5.574  10.753  1.00  0.00     0.001 C 
BRANCH   4   9
ATOM      9  C   UNL     1       1.142   5.141   7.253  1.00  0.00     0.228 C 
ATOM     10  N   UNL     1       1.030   4.196   6.280  1.00  0.00    -0.326 N 
ATOM     11  H   UNL     1       0.125   4.168   5.893  1.00  0.00     0.169 HD
ATOM     12  O   UNL     1       0.129   5.808   7.485  1.00  0.00    -0.274 OA
BRANCH  10  13
ATOM     13  C   UNL     1       1.886   3.248   5.689  1.00  0.00     0.041 A 
ATOM     14  C   UNL     1       2.028   1.325   4.190  1.00  0.00     0.041 A 
ATOM     15  C   UNL     1       3.400   1.231   4.419  1.00  0.00     0.014 A 
ATOM     16  C   UNL     1       1.275   2.317   4.833  1.00  0.00     0.040 A 
ATOM     17  C   UNL     1       4.017   2.154   5.255  1.00  0.00     0.003 A 
ATOM     18  C   UNL     1       3.265   3.156   5.879  1.00  0.00     0.026 A 
BRANCH  14  19
ATOM     19  C   UNL     1       1.378   0.270   3.386  1.00  0.00     0.251 C 
ATOM     20  N   UNL     1       0.468   0.581   2.413  1.00  0.00    -0.350 N 
ATOM     21  H   UNL     1      -0.105  -0.167   2.127  1.00  0.00     0.163 HD
ATOM     22  O   UNL     1       1.657  -0.906   3.606  1.00  0.00    -0.269 OA
BRANCH  20  23
ATOM     23  C   UNL     1       0.211   1.844   1.732  1.00  0.00     0.144 C 
BRANCH  23  24
ATOM     24  C   UNL     1       1.023   1.999   0.439  1.00  0.00     0.181 C 
BRANCH  24  25
ATOM     25  O   UNL     1       0.497   1.228  -0.645  1.00  0.00    -0.383 OA
ATOM     26  C   UNL     1       0.962  -0.114  -0.682  1.00  0.00     0.194 C 
ENDBRANCH  24  25
ENDBRANCH  23  24
ENDBRANCH  20  23
ENDBRANCH  14  19
ENDBRANCH  10  13
ENDBRANCH   4   9
ENDBRANCH   1   3
BRANCH   1  27
ATOM     27  O   UNL     1       2.740   7.700   6.731  1.00  0.00    -0.462 OA
BRANCH  27  28
ATOM     28  C   UNL     1       2.785   8.875   5.896  1.00  0.00     0.274 C 
BRANCH  28  29
ATOM     29  C   UNL     1       1.464   9.066   5.154  1.00  0.00     0.275 C 
BRANCH  29  30
ATOM     30  O   UNL     1       0.392   9.157   6.104  1.00  0.00    -0.458 OA
BRANCH  30  31
ATOM     31  C   UNL     1      -0.725   8.457   5.801  1.00  0.00     0.338 C 
ATOM     32  O   UNL     1      -0.961   7.858   4.765  1.00  0.00    -0.246 OA
BRANCH  31  33
ATOM     33  C   UNL     1      -1.685   8.567   6.917  1.00  0.00     0.060 A 
ATOM     34  C   UNL     1      -1.293   8.290   8.228  1.00  0.00     0.016 A 
ATOM     35  C   UNL     1      -3.018   8.865   6.635  1.00  0.00     0.016 A 
ATOM     36  C   UNL     1      -2.238   8.233   9.249  1.00  0.00     0.010 A 
ATOM     37  C   UNL     1      -3.951   8.890   7.673  1.00  0.00     0.010 A 
ATOM     38  C   UNL     1      -3.575   8.545   8.984  1.00  0.00    -0.014 A 
BRANCH  38  39
ATOM     39  C   UNL     1      -4.594   8.482  10.061  1.00  0.00     0.031 A 
ATOM     40  C   UNL     1      -5.734   7.509   9.956  1.00  0.00     0.074 A 
ATOM     41  C   UNL     1      -4.513   9.313  11.118  1.00  0.00     0.049 A 
ATOM     42  N   UNL     1      -6.827   7.436  10.672  1.00  0.00    -0.248 NA
ATOM     43  C   UNL     1      -5.640   6.491   8.896  1.00  0.00     0.031 C 
ATOM     44  C   UNL     1      -3.437  10.274  11.366  1.00  0.00     0.029 A 
ATOM     45  N   UNL     1      -5.368   9.490  12.177  1.00  0.00    -0.354 N 
ATOM     46  C   UNL     1      -7.575   6.408  10.114  1.00  0.00     0.074 A 
ATOM     47  C   UNL     1      -6.811   5.878   9.005  1.00  0.00     0.031 C 
ATOM     48  C   UNL     1      -3.693  10.935  12.506  1.00  0.00     0.029 A 
ATOM     49  C   UNL     1      -4.982  10.497  13.027  1.00  0.00     0.049 A 
ATOM     50  H   UNL     1      -6.178   8.947  12.314  1.00  0.00     0.167 HD
ATOM     51  C   UNL     1      -8.794   5.954  10.489  1.00  0.00     0.031 A 
ATOM     52  C   UNL     1      -5.617  11.043  14.081  1.00  0.00     0.031 A 
ATOM     53  C   UNL     1      -9.532   6.452  11.619  1.00  0.00     0.049 A 
ATOM     54  C   UNL     1      -6.977  10.536  14.463  1.00  0.00     0.074 A 
ATOM     55  C   UNL     1     -10.761   6.032  12.098  1.00  0.00     0.029 A 
ATOM     56  N   UNL     1      -9.103   7.472  12.452  1.00  0.00    -0.354 N 
ATOM     57  N   UNL     1      -7.686   9.580  13.912  1.00  0.00    -0.248 NA
ATOM     58  C   UNL     1      -7.630  11.191  15.605  1.00  0.00     0.031 C 
ATOM     59  C   UNL     1     -11.092   6.824  13.203  1.00  0.00     0.029 A 
ATOM     60  C   UNL     1     -10.050   7.708  13.433  1.00  0.00     0.049 A 
ATOM     61  H   UNL     1      -8.251   7.956  12.360  1.00  0.00     0.167 HD
ATOM     62  C   UNL     1      -8.861   9.512  14.646  1.00  0.00     0.074 A 
ATOM     63  C   UNL     1      -8.762  10.507  15.694  1.00  0.00     0.031 C 
ATOM     64  C   UNL     1      -9.931   8.701  14.466  1.00  0.00     0.031 A 
BRANCH  51  65
ATOM     65  C   UNL     1      -9.431   4.889   9.644  1.00  0.00    -0.014 A 
ATOM     66  C   UNL     1      -9.017   3.551   9.712  1.00  0.00     0.009 A 
ATOM     67  C   UNL     1     -10.503   5.230   8.803  1.00  0.00     0.009 A 
ATOM     68  C   UNL     1      -9.652   2.578   8.937  1.00  0.00     0.001 A 
ATOM     69  C   UNL     1     -11.149   4.252   8.046  1.00  0.00     0.001 A 
ATOM     70  C   UNL     1     -10.720   2.927   8.110  1.00  0.00     0.000 A 
ENDBRANCH  51  65
BRANCH  52  71
ATOM     71  C   UNL     1      -4.999  12.178  14.811  1.00  0.00    -0.014 A 
ATOM     72  C   UNL     1      -4.504  12.008  16.112  1.00  0.00     0.009 A 
ATOM     73  C   UNL     1      -4.906  13.443  14.207  1.00  0.00     0.009 A 
ATOM     74  C   UNL     1      -3.949  13.088  16.802  1.00  0.00     0.001 A 
ATOM     75  C   UNL     1      -4.325  14.513  14.889  1.00  0.00     0.001 A 
ATOM     76  C   UNL     1      -3.855  14.337  16.189  1.00  0.00     0.000 A 
ENDBRANCH  52  71
BRANCH  64  77
ATOM     77  C   UNL     1     -11.063   8.841  15.441  1.00  0.00    -0.014 A 
ATOM     78  C   UNL     1     -11.957   9.919  15.360  1.00  0.00     0.009 A 
ATOM     79  C   UNL     1     -11.253   7.865  16.430  1.00  0.00     0.009 A 
ATOM     80  C   UNL     1     -13.007  10.031  16.273  1.00  0.00     0.001 A 
ATOM     81  C   UNL     1     -12.316   7.969  17.328  1.00  0.00     0.001 A 
ATOM     82  C   UNL     1     -13.187   9.055  17.253  1.00  0.00     0.000 A 
ENDBRANCH  64  77
ENDBRANCH  38  39
ENDBRANCH  31  33
ENDBRANCH  30  31
ENDBRANCH  29  30
ENDBRANCH  28  29
ENDBRANCH  27  28
ENDBRANCH   1  27
TORSDOF 17
