REMARK SMILES C[C@@H](C(=O)OCCOC(=O)c1ccc(-c2c3nc(c(-c4ccccc4)c4ccc([nH]4)c(-c4ccccc4)c4nc(c(-c5ccccc5)c5ccc2[nH]5)C=C4)C=C3)cc1)c1cccc(C(=O)c2ccccc2)c1
REMARK SMILES IDX 6 1 5 2 3 3 4 4 2 5 1 6 59 7 60 8 72 9 61 10 63 11 62 12
REMARK SMILES IDX 64 13 65 14 66 15 67 16 71 17 68 18 70 19 69 20 7 21 8 22
REMARK SMILES IDX 9 23 10 24 11 25 12 26 58 27 13 28 57 29 14 30 15 31 16 32
REMARK SMILES IDX 51 33 17 34 56 35 50 36 52 37 18 38 55 39 49 40 48 41 19 43
REMARK SMILES IDX 41 44 26 45 40 46 27 47 30 48 39 49 53 50 28 51 29 52 38 54
REMARK SMILES IDX 54 55 31 56 20 57 21 58 25 59 22 60 24 61 23 62 42 63 43 64
REMARK SMILES IDX 47 65 44 66 46 67 45 68 32 69 33 70 37 71 34 72 36 73 35 74
REMARK H PARENT 52 42 30 53
REMARK Flexibility Score: inf
ROOT
ATOM      1  C   UNL     1       2.545   0.620  -3.748  1.00  0.00     0.274 C 
ENDROOT
BRANCH   1   2
ATOM      2  O   UNL     1       2.197   0.611  -2.349  1.00  0.00    -0.462 OA
BRANCH   2   3
ATOM      3  C   UNL     1       1.175   1.423  -1.966  1.00  0.00     0.313 C 
ATOM      4  O   UNL     1       0.550   2.151  -2.731  1.00  0.00    -0.252 OA
BRANCH   3   5
ATOM      5  C   UNL     1       0.908   1.364  -0.459  1.00  0.00     0.126 C 
ATOM      6  C   UNL     1       1.806   0.381   0.298  1.00  0.00     0.025 C 
BRANCH   5   7
ATOM      7  C   UNL     1      -0.575   1.150  -0.167  1.00  0.00    -0.033 A 
ATOM      8  C   UNL     1      -1.422   2.266  -0.061  1.00  0.00     0.004 A 
ATOM      9  C   UNL     1      -1.140  -0.135  -0.071  1.00  0.00     0.016 A 
ATOM     10  C   UNL     1      -2.792   2.109   0.154  1.00  0.00     0.001 A 
ATOM     11  C   UNL     1      -2.518  -0.297   0.141  1.00  0.00     0.023 A 
ATOM     12  C   UNL     1      -3.338   0.832   0.259  1.00  0.00     0.012 A 
BRANCH  11  13
ATOM     13  C   UNL     1      -3.164  -1.638   0.157  1.00  0.00     0.193 C 
ATOM     14  O   UNL     1      -4.385  -1.752   0.112  1.00  0.00    -0.289 OA
BRANCH  13  15
ATOM     15  C   UNL     1      -2.359  -2.868   0.192  1.00  0.00     0.022 A 
ATOM     16  C   UNL     1      -2.231  -3.630  -0.971  1.00  0.00     0.012 A 
ATOM     17  C   UNL     1      -1.772  -3.286   1.387  1.00  0.00     0.012 A 
ATOM     18  C   UNL     1      -1.510  -4.821  -0.942  1.00  0.00     0.001 A 
ATOM     19  C   UNL     1      -1.048  -4.478   1.410  1.00  0.00     0.001 A 
ATOM     20  C   UNL     1      -0.920  -5.245   0.248  1.00  0.00     0.000 A 
ENDBRANCH  13  15
ENDBRANCH  11  13
ENDBRANCH   5   7
ENDBRANCH   3   5
ENDBRANCH   2   3
ENDBRANCH   1   2
BRANCH   1  21
ATOM     21  C   UNL     1       1.986  -0.615  -4.447  1.00  0.00     0.275 C 
BRANCH  21  22
ATOM     22  O   UNL     1       0.553  -0.517  -4.536  1.00  0.00    -0.458 OA
BRANCH  22  23
ATOM     23  C   UNL     1      -0.144  -1.473  -3.883  1.00  0.00     0.338 C 
ATOM     24  O   UNL     1       0.294  -2.419  -3.255  1.00  0.00    -0.246 OA
BRANCH  23  25
ATOM     25  C   UNL     1      -1.585  -1.215  -4.020  1.00  0.00     0.060 A 
ATOM     26  C   UNL     1      -2.145  -0.117  -3.373  1.00  0.00     0.016 A 
ATOM     27  C   UNL     1      -2.403  -2.154  -4.652  1.00  0.00     0.016 A 
ATOM     28  C   UNL     1      -3.531  -0.013  -3.269  1.00  0.00     0.010 A 
ATOM     29  C   UNL     1      -3.795  -1.999  -4.614  1.00  0.00     0.010 A 
ATOM     30  C   UNL     1      -4.378  -0.952  -3.881  1.00  0.00    -0.014 A 
BRANCH  30  31
ATOM     31  C   UNL     1      -5.857  -0.849  -3.709  1.00  0.00     0.031 A 
ATOM     32  C   UNL     1      -6.642  -1.953  -3.042  1.00  0.00     0.074 A 
ATOM     33  C   UNL     1      -6.508   0.266  -4.096  1.00  0.00     0.049 A 
ATOM     34  N   UNL     1      -7.938  -2.073  -2.882  1.00  0.00    -0.248 NA
ATOM     35  C   UNL     1      -5.870  -3.071  -2.487  1.00  0.00     0.031 C 
ATOM     36  C   UNL     1      -5.890   1.443  -4.708  1.00  0.00     0.029 A 
ATOM     37  N   UNL     1      -7.838   0.597  -4.010  1.00  0.00    -0.354 N 
ATOM     38  C   UNL     1      -8.127  -3.278  -2.212  1.00  0.00     0.074 A 
ATOM     39  C   UNL     1      -6.821  -3.866  -2.021  1.00  0.00     0.031 C 
ATOM     40  C   UNL     1      -6.827   2.385  -4.891  1.00  0.00     0.029 A 
ATOM     41  C   UNL     1      -8.123   1.852  -4.487  1.00  0.00     0.049 A 
ATOM     42  H   UNL     1      -8.521  -0.008  -3.640  1.00  0.00     0.167 HD
ATOM     43  C   UNL     1      -9.278  -3.850  -1.785  1.00  0.00     0.031 A 
ATOM     44  C   UNL     1      -9.297   2.497  -4.620  1.00  0.00     0.031 A 
ATOM     45  C   UNL     1     -10.586  -3.280  -1.958  1.00  0.00     0.049 A 
ATOM     46  C   UNL     1     -10.572   1.810  -4.228  1.00  0.00     0.074 A 
ATOM     47  C   UNL     1     -11.815  -3.810  -1.604  1.00  0.00     0.029 A 
ATOM     48  N   UNL     1     -10.830  -2.040  -2.522  1.00  0.00    -0.354 N 
ATOM     49  N   UNL     1     -10.738   0.634  -3.676  1.00  0.00    -0.248 NA
ATOM     50  C   UNL     1     -11.822   2.530  -4.506  1.00  0.00     0.031 C 
ATOM     51  C   UNL     1     -12.808  -2.901  -1.986  1.00  0.00     0.029 A 
ATOM     52  C   UNL     1     -12.191  -1.793  -2.544  1.00  0.00     0.049 A 
ATOM     53  H   UNL     1     -10.138  -1.425  -2.857  1.00  0.00     0.167 HD
ATOM     54  C   UNL     1     -12.110   0.468  -3.549  1.00  0.00     0.074 A 
ATOM     55  C   UNL     1     -12.730   1.675  -4.055  1.00  0.00     0.031 C 
ATOM     56  C   UNL     1     -12.794  -0.596  -3.065  1.00  0.00     0.031 A 
BRANCH  43  57
ATOM     57  C   UNL     1      -9.170  -5.189  -1.115  1.00  0.00    -0.014 A 
ATOM     58  C   UNL     1      -8.748  -5.301   0.218  1.00  0.00     0.009 A 
ATOM     59  C   UNL     1      -9.510  -6.352  -1.823  1.00  0.00     0.009 A 
ATOM     60  C   UNL     1      -8.645  -6.556   0.822  1.00  0.00     0.001 A 
ATOM     61  C   UNL     1      -9.423  -7.603  -1.212  1.00  0.00     0.001 A 
ATOM     62  C   UNL     1      -8.984  -7.705   0.108  1.00  0.00     0.000 A 
ENDBRANCH  43  57
BRANCH  44  63
ATOM     63  C   UNL     1      -9.318   3.858  -5.211  1.00  0.00    -0.014 A 
ATOM     64  C   UNL     1      -9.575   4.981  -4.413  1.00  0.00     0.009 A 
ATOM     65  C   UNL     1      -9.054   4.038  -6.579  1.00  0.00     0.009 A 
ATOM     66  C   UNL     1      -9.570   6.260  -4.975  1.00  0.00     0.001 A 
ATOM     67  C   UNL     1      -9.024   5.318  -7.132  1.00  0.00     0.001 A 
ATOM     68  C   UNL     1      -9.287   6.427  -6.331  1.00  0.00     0.000 A 
ENDBRANCH  44  63
BRANCH  56  69
ATOM     69  C   UNL     1     -14.290  -0.504  -3.069  1.00  0.00    -0.014 A 
ATOM     70  C   UNL     1     -15.015  -0.710  -4.252  1.00  0.00     0.009 A 
ATOM     71  C   UNL     1     -14.981  -0.245  -1.877  1.00  0.00     0.009 A 
ATOM     72  C   UNL     1     -16.409  -0.636  -4.245  1.00  0.00     0.001 A 
ATOM     73  C   UNL     1     -16.376  -0.188  -1.870  1.00  0.00     0.001 A 
ATOM     74  C   UNL     1     -17.087  -0.378  -3.054  1.00  0.00     0.000 A 
ENDBRANCH  56  69
ENDBRANCH  30  31
ENDBRANCH  23  25
ENDBRANCH  22  23
ENDBRANCH  21  22
ENDBRANCH   1  21
TORSDOF 14
