REMARK SMILES O=C(OCCOC(=O)c1cc(Br)ccc1N1CC2(CCCCC2)C1)c1ccc(-c2c3nc(c(-c4ccccc4)c4ccc([nH]4)c(-c4ccccc4)c4nc(c(-c5ccccc5)c5ccc2[nH]5)C=C4)C=C3)cc1
REMARK SMILES IDX 4 1 3 2 2 3 1 4 25 5 26 6 72 7 27 8 71 9 28 10 29 11 30 12
REMARK SMILES IDX 65 13 31 14 70 15 64 16 66 17 32 18 69 19 63 20 62 21 33 23
REMARK SMILES IDX 55 24 40 25 54 26 41 27 44 28 53 29 67 30 42 31 43 32 52 34
REMARK SMILES IDX 68 35 45 36 34 37 35 38 39 39 36 40 38 41 37 42 56 43 57 44
REMARK SMILES IDX 61 45 58 46 60 47 59 48 46 49 47 50 51 51 48 52 50 53 49 54
REMARK SMILES IDX 5 55 6 56 7 57 8 58 9 59 10 60 15 61 11 62 14 63 12 64 13 65
REMARK SMILES IDX 16 66 17 67 24 68 18 69 19 70 23 71 20 72 22 73 21 74
REMARK H PARENT 66 22 44 33
REMARK Flexibility Score: inf
ROOT
ATOM      1  C   UNL     1       4.697   1.261  -1.579  1.00  0.00     0.275 C 
ENDROOT
BRANCH   1   2
ATOM      2  O   UNL     1       5.425   0.267  -0.858  1.00  0.00    -0.458 OA
BRANCH   2   3
ATOM      3  C   UNL     1       4.676  -0.789  -0.456  1.00  0.00     0.338 C 
ATOM      4  O   UNL     1       3.784  -1.331  -1.090  1.00  0.00    -0.246 OA
BRANCH   3   5
ATOM      5  C   UNL     1       4.960  -1.013   0.979  1.00  0.00     0.060 A 
ATOM      6  C   UNL     1       6.131  -0.497   1.540  1.00  0.00     0.016 A 
ATOM      7  C   UNL     1       3.990  -1.609   1.794  1.00  0.00     0.016 A 
ATOM      8  C   UNL     1       6.330  -0.576   2.903  1.00  0.00     0.010 A 
ATOM      9  C   UNL     1       4.159  -1.637   3.175  1.00  0.00     0.010 A 
ATOM     10  C   UNL     1       5.348  -1.148   3.721  1.00  0.00    -0.014 A 
BRANCH  10  11
ATOM     11  C   UNL     1       5.709  -1.364   5.128  1.00  0.00     0.031 A 
ATOM     12  C   UNL     1       6.196  -2.723   5.514  1.00  0.00     0.074 A 
ATOM     13  C   UNL     1       5.799  -0.304   5.949  1.00  0.00     0.049 A 
ATOM     14  N   UNL     1       6.881  -3.077   6.565  1.00  0.00    -0.248 NA
ATOM     15  C   UNL     1       5.922  -3.820   4.568  1.00  0.00     0.031 C 
ATOM     16  C   UNL     1       5.394   1.060   5.608  1.00  0.00     0.029 A 
ATOM     17  N   UNL     1       6.300  -0.200   7.216  1.00  0.00    -0.354 N 
ATOM     18  C   UNL     1       7.185  -4.416   6.367  1.00  0.00     0.074 A 
ATOM     19  C   UNL     1       6.531  -4.838   5.151  1.00  0.00     0.031 C 
ATOM     20  C   UNL     1       5.661   1.869   6.647  1.00  0.00     0.029 A 
ATOM     21  C   UNL     1       6.261   1.080   7.713  1.00  0.00     0.049 A 
ATOM     22  H   UNL     1       6.655  -0.966   7.722  1.00  0.00     0.167 HD
ATOM     23  C   UNL     1       7.989  -5.205   7.112  1.00  0.00     0.031 A 
ATOM     24  C   UNL     1       6.687   1.554   8.896  1.00  0.00     0.031 A 
ATOM     25  C   UNL     1       8.580  -4.772   8.344  1.00  0.00     0.049 A 
ATOM     26  C   UNL     1       7.445   0.612   9.788  1.00  0.00     0.074 A 
ATOM     27  C   UNL     1       9.370  -5.481   9.227  1.00  0.00     0.029 A 
ATOM     28  N   UNL     1       8.419  -3.497   8.872  1.00  0.00    -0.354 N 
ATOM     29  N   UNL     1       7.772  -0.641   9.569  1.00  0.00    -0.248 NA
ATOM     30  C   UNL     1       7.932   1.153  11.060  1.00  0.00     0.031 C 
ATOM     31  C   UNL     1       9.651  -4.644  10.314  1.00  0.00     0.029 A 
ATOM     32  C   UNL     1       9.076  -3.401  10.083  1.00  0.00     0.049 A 
ATOM     33  H   UNL     1       7.912  -2.768   8.446  1.00  0.00     0.167 HD
ATOM     34  C   UNL     1       8.539  -1.029  10.657  1.00  0.00     0.074 A 
ATOM     35  C   UNL     1       8.627   0.127  11.531  1.00  0.00     0.031 C 
ATOM     36  C   UNL     1       9.129  -2.224  10.912  1.00  0.00     0.031 A 
BRANCH  23  37
ATOM     37  C   UNL     1       8.232  -6.591   6.592  1.00  0.00    -0.014 A 
ATOM     38  C   UNL     1       9.030  -6.800   5.452  1.00  0.00     0.009 A 
ATOM     39  C   UNL     1       7.608  -7.692   7.194  1.00  0.00     0.009 A 
ATOM     40  C   UNL     1       9.161  -8.076   4.902  1.00  0.00     0.001 A 
ATOM     41  C   UNL     1       7.761  -8.971   6.654  1.00  0.00     0.001 A 
ATOM     42  C   UNL     1       8.526  -9.161   5.504  1.00  0.00     0.000 A 
ENDBRANCH  23  37
BRANCH  24  43
ATOM     43  C   UNL     1       6.419   2.965   9.278  1.00  0.00    -0.014 A 
ATOM     44  C   UNL     1       7.449   3.910   9.378  1.00  0.00     0.009 A 
ATOM     45  C   UNL     1       5.100   3.374   9.541  1.00  0.00     0.009 A 
ATOM     46  C   UNL     1       7.168   5.226   9.761  1.00  0.00     0.001 A 
ATOM     47  C   UNL     1       4.819   4.694   9.901  1.00  0.00     0.001 A 
ATOM     48  C   UNL     1       5.854   5.617  10.021  1.00  0.00     0.000 A 
ENDBRANCH  24  43
BRANCH  36  49
ATOM     49  C   UNL     1       9.942  -2.309  12.168  1.00  0.00    -0.014 A 
ATOM     50  C   UNL     1       9.327  -2.391  13.425  1.00  0.00     0.009 A 
ATOM     51  C   UNL     1      11.342  -2.349  12.080  1.00  0.00     0.009 A 
ATOM     52  C   UNL     1      10.104  -2.480  14.579  1.00  0.00     0.001 A 
ATOM     53  C   UNL     1      12.115  -2.466  13.233  1.00  0.00     0.001 A 
ATOM     54  C   UNL     1      11.496  -2.522  14.481  1.00  0.00     0.000 A 
ENDBRANCH  36  49
ENDBRANCH  10  11
ENDBRANCH   3   5
ENDBRANCH   2   3
ENDBRANCH   1   2
BRANCH   1  55
ATOM     55  C   UNL     1       4.008   2.233  -0.606  1.00  0.00     0.275 C 
BRANCH  55  56
ATOM     56  O   UNL     1       3.379   1.556   0.507  1.00  0.00    -0.458 OA
BRANCH  56  57
ATOM     57  C   UNL     1       2.104   1.902   0.810  1.00  0.00     0.340 C 
ATOM     58  O   UNL     1       1.396   2.681   0.194  1.00  0.00    -0.246 OA
BRANCH  57  59
ATOM     59  C   UNL     1       1.733   1.316   2.119  1.00  0.00     0.084 A 
ATOM     60  C   UNL     1       2.169   1.990   3.269  1.00  0.00     0.033 A 
ATOM     61  C   UNL     1       0.839   0.230   2.217  1.00  0.00     0.051 A 
ATOM     62  C   UNL     1       1.721   1.568   4.519  1.00  0.00     0.018 A 
ATOM     63  C   UNL     1       0.463  -0.217   3.491  1.00  0.00     0.028 A 
ATOM     64  Br  UNL     1       2.124   2.583   6.062  1.00  0.00    -0.051 Br
ATOM     65  C   UNL     1       0.904   0.446   4.639  1.00  0.00     0.018 A 
BRANCH  61  66
ATOM     66  N   UNL     1       0.282  -0.345   1.074  1.00  0.00    -0.370 N 
ATOM     67  C   UNL     1       0.701  -1.501   0.352  1.00  0.00     0.125 C 
ATOM     68  C   UNL     1      -1.091  -0.545   0.702  1.00  0.00     0.125 C 
ATOM     69  C   UNL     1      -0.515  -1.241  -0.567  1.00  0.00     0.005 C 
ATOM     70  C   UNL     1      -1.151  -2.520  -1.102  1.00  0.00     0.011 C 
ATOM     71  C   UNL     1      -0.291  -0.217  -1.700  1.00  0.00     0.011 C 
ATOM     72  C   UNL     1      -0.243  -3.118  -2.184  1.00  0.00     0.001 C 
ATOM     73  C   UNL     1       0.573  -0.807  -2.807  1.00  0.00     0.001 C 
ATOM     74  C   UNL     1       0.008  -2.126  -3.321  1.00  0.00     0.000 C 
ENDBRANCH  61  66
ENDBRANCH  57  59
ENDBRANCH  56  57
ENDBRANCH  55  56
ENDBRANCH   1  55
TORSDOF 12
