REMARK SMILES O=C(CNc1nc(-c2ccccc2)c(-c2ccccc2)s1)OCCOC(=O)c1ccc(-c2c3nc(c(-c4ccccc4)c4ccc([nH]4)c(-c4ccccc4)c4nc(c(-c5ccccc5)c5ccc2[nH]5)C=C4)C=C3)cc1
REMARK SMILES IDX 23 1 22 2 2 3 1 4 3 5 4 6 5 8 6 9 21 10 7 11 14 12 8 13 9 14
REMARK SMILES IDX 13 15 10 16 12 17 11 18 15 19 16 20 20 21 17 22 19 23 18 24
REMARK SMILES IDX 24 25 25 26 26 27 27 28 28 29 29 30 75 31 30 32 74 33 31 34
REMARK SMILES IDX 32 35 33 36 68 37 34 38 73 39 67 40 69 41 35 42 72 43 66 44
REMARK SMILES IDX 65 45 36 47 58 48 43 49 57 50 44 51 47 52 56 53 70 54 45 55
REMARK SMILES IDX 46 56 55 58 71 59 48 60 37 61 38 62 42 63 39 64 41 65 40 66
REMARK SMILES IDX 59 67 60 68 64 69 61 70 63 71 62 72 49 73 50 74 54 75 51 76
REMARK SMILES IDX 53 77 52 78
REMARK H PARENT 4 7 69 46 47 57
REMARK Flexibility Score: inf
ROOT
ATOM      1  C   UNL     1       4.198  -0.943   0.232  1.00  0.00     0.274 C 
ENDROOT
BRANCH   1   2
ATOM      2  O   UNL     1       2.882  -0.534   0.665  1.00  0.00    -0.461 OA
BRANCH   2   3
ATOM      3  C   UNL     1       2.395   0.731   0.648  1.00  0.00     0.325 C 
ATOM      4  O   UNL     1       1.285   0.965   1.129  1.00  0.00    -0.250 OA
BRANCH   3   5
ATOM      5  C   UNL     1       3.231   1.855   0.048  1.00  0.00     0.238 C 
BRANCH   5   6
ATOM      6  N   UNL     1       4.304   2.271   0.933  1.00  0.00    -0.351 N 
ATOM      7  H   UNL     1       4.102   2.512   1.866  1.00  0.00     0.163 HD
BRANCH   6   8
ATOM      8  C   UNL     1       5.572   2.330   0.487  1.00  0.00     0.184 A 
ATOM      9  N   UNL     1       5.933   2.285  -0.775  1.00  0.00    -0.220 NA
ATOM     10  S   UNL     1       6.862   2.357   1.616  1.00  0.00    -0.096 S 
ATOM     11  C   UNL     1       7.314   2.210  -0.877  1.00  0.00     0.091 A 
ATOM     12  C   UNL     1       7.990   2.184   0.333  1.00  0.00     0.064 A 
BRANCH  11  13
ATOM     13  C   UNL     1       7.973   2.195  -2.176  1.00  0.00     0.002 A 
ATOM     14  C   UNL     1       8.887   1.190  -2.519  1.00  0.00     0.010 A 
ATOM     15  C   UNL     1       7.740   3.242  -3.077  1.00  0.00     0.010 A 
ATOM     16  C   UNL     1       9.595   1.258  -3.722  1.00  0.00     0.001 A 
ATOM     17  C   UNL     1       8.451   3.311  -4.278  1.00  0.00     0.001 A 
ATOM     18  C   UNL     1       9.386   2.326  -4.594  1.00  0.00     0.000 A 
ENDBRANCH  11  13
BRANCH  12  19
ATOM     19  C   UNL     1       9.412   2.093   0.647  1.00  0.00    -0.006 A 
ATOM     20  C   UNL     1       9.916   0.976   1.326  1.00  0.00     0.009 A 
ATOM     21  C   UNL     1      10.288   3.112   0.255  1.00  0.00     0.009 A 
ATOM     22  C   UNL     1      11.276   0.886   1.623  1.00  0.00     0.001 A 
ATOM     23  C   UNL     1      11.648   3.021   0.555  1.00  0.00     0.001 A 
ATOM     24  C   UNL     1      12.140   1.911   1.241  1.00  0.00     0.000 A 
ENDBRANCH  12  19
ENDBRANCH   6   8
ENDBRANCH   5   6
ENDBRANCH   3   5
ENDBRANCH   2   3
ENDBRANCH   1   2
BRANCH   1  25
ATOM     25  C   UNL     1       4.171  -1.599  -1.147  1.00  0.00     0.275 C 
BRANCH  25  26
ATOM     26  O   UNL     1       3.762  -0.644  -2.137  1.00  0.00    -0.458 OA
BRANCH  26  27
ATOM     27  C   UNL     1       2.453  -0.681  -2.486  1.00  0.00     0.338 C 
ATOM     28  O   UNL     1       1.630  -1.519  -2.163  1.00  0.00    -0.246 OA
BRANCH  27  29
ATOM     29  C   UNL     1       2.112   0.594  -3.153  1.00  0.00     0.060 A 
ATOM     30  C   UNL     1       0.904   1.213  -2.805  1.00  0.00     0.016 A 
ATOM     31  C   UNL     1       2.989   1.213  -4.050  1.00  0.00     0.016 A 
ATOM     32  C   UNL     1       0.571   2.453  -3.354  1.00  0.00     0.010 A 
ATOM     33  C   UNL     1       2.650   2.448  -4.605  1.00  0.00     0.010 A 
ATOM     34  C   UNL     1       1.438   3.071  -4.266  1.00  0.00    -0.014 A 
BRANCH  34  35
ATOM     35  C   UNL     1       1.063   4.350  -4.913  1.00  0.00     0.031 A 
ATOM     36  C   UNL     1       0.422   4.331  -6.270  1.00  0.00     0.074 A 
ATOM     37  C   UNL     1       1.331   5.521  -4.307  1.00  0.00     0.049 A 
ATOM     38  N   UNL     1       0.072   5.337  -7.030  1.00  0.00    -0.248 NA
ATOM     39  C   UNL     1       0.142   3.008  -6.849  1.00  0.00     0.031 C 
ATOM     40  C   UNL     1       1.938   5.675  -2.986  1.00  0.00     0.029 A 
ATOM     41  N   UNL     1       1.139   6.809  -4.743  1.00  0.00    -0.354 N 
ATOM     42  C   UNL     1      -0.470   4.771  -8.175  1.00  0.00     0.074 A 
ATOM     43  C   UNL     1      -0.384   3.334  -8.022  1.00  0.00     0.031 C 
ATOM     44  C   UNL     1       2.089   6.986  -2.726  1.00  0.00     0.029 A 
ATOM     45  C   UNL     1       1.616   7.759  -3.873  1.00  0.00     0.049 A 
ATOM     46  H   UNL     1       0.703   7.031  -5.597  1.00  0.00     0.167 HD
ATOM     47  C   UNL     1      -0.994   5.393  -9.257  1.00  0.00     0.031 A 
ATOM     48  C   UNL     1       1.689   9.098  -4.000  1.00  0.00     0.031 A 
ATOM     49  C   UNL     1      -1.070   6.818  -9.423  1.00  0.00     0.049 A 
ATOM     50  C   UNL     1       1.179   9.755  -5.255  1.00  0.00     0.074 A 
ATOM     51  C   UNL     1      -1.635   7.534 -10.464  1.00  0.00     0.029 A 
ATOM     52  N   UNL     1      -0.547   7.744  -8.536  1.00  0.00    -0.354 N 
ATOM     53  N   UNL     1       0.601   9.212  -6.298  1.00  0.00    -0.248 NA
ATOM     54  C   UNL     1       1.337  11.216  -5.349  1.00  0.00     0.031 C 
ATOM     55  C   UNL     1      -1.402   8.894 -10.236  1.00  0.00     0.029 A 
ATOM     56  C   UNL     1      -0.733   9.024  -9.029  1.00  0.00     0.049 A 
ATOM     57  H   UNL     1      -0.108   7.524  -7.683  1.00  0.00     0.167 HD
ATOM     58  C   UNL     1       0.309  10.262  -7.159  1.00  0.00     0.074 A 
ATOM     59  C   UNL     1       0.759  11.477  -6.513  1.00  0.00     0.031 C 
ATOM     60  C   UNL     1      -0.277  10.223  -8.380  1.00  0.00     0.031 A 
BRANCH  47  61
ATOM     61  C   UNL     1      -1.511   4.530 -10.370  1.00  0.00    -0.014 A 
ATOM     62  C   UNL     1      -2.746   3.873 -10.261  1.00  0.00     0.009 A 
ATOM     63  C   UNL     1      -0.785   4.431 -11.566  1.00  0.00     0.009 A 
ATOM     64  C   UNL     1      -3.237   3.119 -11.329  1.00  0.00     0.001 A 
ATOM     65  C   UNL     1      -1.287   3.691 -12.637  1.00  0.00     0.001 A 
ATOM     66  C   UNL     1      -2.510   3.033 -12.516  1.00  0.00     0.000 A 
ENDBRANCH  47  61
BRANCH  48  67
ATOM     67  C   UNL     1       2.315   9.921  -2.934  1.00  0.00    -0.014 A 
ATOM     68  C   UNL     1       1.539  10.786  -2.148  1.00  0.00     0.009 A 
ATOM     69  C   UNL     1       3.704   9.885  -2.736  1.00  0.00     0.009 A 
ATOM     70  C   UNL     1       2.146  11.623  -1.210  1.00  0.00     0.001 A 
ATOM     71  C   UNL     1       4.305  10.704  -1.779  1.00  0.00     0.001 A 
ATOM     72  C   UNL     1       3.527  11.581  -1.026  1.00  0.00     0.000 A 
ENDBRANCH  48  67
BRANCH  60  73
ATOM     73  C   UNL     1      -0.480  11.530  -9.092  1.00  0.00    -0.014 A 
ATOM     74  C   UNL     1       0.597  12.198  -9.694  1.00  0.00     0.009 A 
ATOM     75  C   UNL     1      -1.770  12.071  -9.206  1.00  0.00     0.009 A 
ATOM     76  C   UNL     1       0.388  13.398 -10.378  1.00  0.00     0.001 A 
ATOM     77  C   UNL     1      -1.979  13.258  -9.911  1.00  0.00     0.001 A 
ATOM     78  C   UNL     1      -0.899  13.923 -10.490  1.00  0.00     0.000 A 
ENDBRANCH  60  73
ENDBRANCH  34  35
ENDBRANCH  27  29
ENDBRANCH  26  27
ENDBRANCH  25  26
ENDBRANCH   1  25
TORSDOF 15
