REMARK SMILES C[NH+]1CCC(C(=O)N2C[C@@H](C(=O)OCCOC(=O)c3ccc(-c4c5nc(c(-c6ccccc6)c6ccc([nH]6)c(-c6ccccc6)c6nc(c(-c7ccccc7)c7ccc4[nH]7)C=C6)C=C5)cc3)[C@H](c3ccc4c(c3)OCO4)C2)CC1
REMARK SMILES IDX 14 1 13 2 11 3 12 4 10 5 8 6 9 7 77 8 67 9 6 10 7 11 5 12
REMARK SMILES IDX 1 13 2 14 3 15 79 16 4 18 78 19 68 20 69 21 73 22 70 23
REMARK SMILES IDX 72 24 71 25 74 26 76 27 75 28 15 29 16 30 17 31 18 32 19 33
REMARK SMILES IDX 20 34 66 35 21 36 65 37 22 38 23 39 24 40 59 41 25 42 64 43
REMARK SMILES IDX 58 44 60 45 26 46 63 47 57 48 56 49 27 51 49 52 34 53 48 54
REMARK SMILES IDX 35 55 38 56 47 57 61 58 36 59 37 60 46 62 62 63 39 64 28 65
REMARK SMILES IDX 29 66 33 67 30 68 32 69 31 70 50 71 51 72 55 73 52 74 54 75
REMARK SMILES IDX 53 76 40 77 41 78 45 79 42 80 44 81 43 82
REMARK H PARENT 2 17 60 50 38 61
REMARK Flexibility Score: inf
ROOT
ATOM      1  C   UNL     1       2.550  -1.417   7.182  1.00  0.00     0.274 C 
ENDROOT
BRANCH   1   2
ATOM      2  O   UNL     1       2.398  -0.617   5.993  1.00  0.00    -0.462 OA
BRANCH   2   3
ATOM      3  C   UNL     1       3.405  -0.678   5.081  1.00  0.00     0.311 C 
ATOM      4  O   UNL     1       4.367  -1.433   5.140  1.00  0.00    -0.252 OA
BRANCH   3   5
ATOM      5  C   UNL     1       3.212   0.356   4.000  1.00  0.00     0.128 C 
ATOM      6  N   UNL     1       3.446   0.644   1.686  1.00  0.00    -0.341 N 
ATOM      7  C   UNL     1       2.899  -0.262   2.664  1.00  0.00     0.135 C 
ATOM      8  C   UNL     1       4.551   1.407   2.255  1.00  0.00     0.128 C 
ATOM      9  C   UNL     1       4.500   1.186   3.780  1.00  0.00     0.055 C 
BRANCH   6  10
ATOM     10  C   UNL     1       3.242   0.586   0.324  1.00  0.00     0.226 C 
ATOM     11  O   UNL     1       4.127   0.943  -0.460  1.00  0.00    -0.275 OA
BRANCH  10  12
ATOM     12  C   UNL     1       1.840   0.281  -0.219  1.00  0.00     0.090 C 
ATOM     13  C   UNL     1      -2.431  -0.208  -0.295  1.00  0.00     0.332 C 
ATOM     14  N   UNL     1      -1.027  -0.097   0.100  1.00  0.00    -0.337 N 
ATOM     15  C   UNL     1      -0.504   1.218  -0.282  1.00  0.00     0.262 C 
ATOM     16  C   UNL     1      -0.221  -1.172  -0.499  1.00  0.00     0.262 C 
ATOM     17  H   UNL     1      -0.967  -0.196   1.113  1.00  0.00     0.347 HD
ATOM     18  C   UNL     1       0.901   1.390   0.271  1.00  0.00     0.075 C 
ATOM     19  C   UNL     1       1.240  -1.115  -0.018  1.00  0.00     0.075 C 
ENDBRANCH  10  12
ENDBRANCH   6  10
BRANCH   9  20
ATOM     20  C   UNL     1       4.389   2.365   4.739  1.00  0.00    -0.038 A 
ATOM     21  C   UNL     1       3.830   3.607   4.368  1.00  0.00     0.008 A 
ATOM     22  C   UNL     1       4.591   2.085   6.109  1.00  0.00     0.054 A 
ATOM     23  C   UNL     1       3.391   4.514   5.341  1.00  0.00     0.051 A 
ATOM     24  C   UNL     1       4.080   2.962   7.037  1.00  0.00     0.166 A 
ATOM     25  C   UNL     1       3.483   4.139   6.663  1.00  0.00     0.165 A 
ATOM     26  O   UNL     1       4.005   2.739   8.376  1.00  0.00    -0.454 OA
ATOM     27  O   UNL     1       2.965   4.811   7.726  1.00  0.00    -0.454 OA
ATOM     28  C   UNL     1       3.145   3.828   8.769  1.00  0.00     0.468 C 
ENDBRANCH   9  20
ENDBRANCH   3   5
ENDBRANCH   2   3
ENDBRANCH   1   2
BRANCH   1  29
ATOM     29  C   UNL     1       1.602  -2.612   7.157  1.00  0.00     0.275 C 
BRANCH  29  30
ATOM     30  O   UNL     1       2.002  -3.526   6.120  1.00  0.00    -0.458 OA
BRANCH  30  31
ATOM     31  C   UNL     1       1.169  -3.601   5.060  1.00  0.00     0.338 C 
ATOM     32  O   UNL     1       0.096  -3.046   4.907  1.00  0.00    -0.246 OA
BRANCH  31  33
ATOM     33  C   UNL     1       1.797  -4.407   4.004  1.00  0.00     0.060 A 
ATOM     34  C   UNL     1       2.824  -3.831   3.265  1.00  0.00     0.016 A 
ATOM     35  C   UNL     1       1.275  -5.641   3.634  1.00  0.00     0.016 A 
ATOM     36  C   UNL     1       3.258  -4.417   2.082  1.00  0.00     0.010 A 
ATOM     37  C   UNL     1       1.792  -6.288   2.504  1.00  0.00     0.010 A 
ATOM     38  C   UNL     1       2.756  -5.662   1.689  1.00  0.00    -0.014 A 
BRANCH  38  39
ATOM     39  C   UNL     1       3.193  -6.277   0.405  1.00  0.00     0.031 A 
ATOM     40  C   UNL     1       2.172  -6.614  -0.651  1.00  0.00     0.074 A 
ATOM     41  C   UNL     1       4.497  -6.518   0.162  1.00  0.00     0.049 A 
ATOM     42  N   UNL     1       2.313  -7.331  -1.738  1.00  0.00    -0.248 NA
ATOM     43  C   UNL     1       0.810  -6.092  -0.451  1.00  0.00     0.031 C 
ATOM     44  C   UNL     1       5.610  -6.186   1.055  1.00  0.00     0.029 A 
ATOM     45  N   UNL     1       5.110  -7.093  -0.925  1.00  0.00    -0.354 N 
ATOM     46  C   UNL     1       1.046  -7.414  -2.303  1.00  0.00     0.074 A 
ATOM     47  C   UNL     1       0.152  -6.659  -1.452  1.00  0.00     0.031 C 
ATOM     48  C   UNL     1       6.767  -6.520   0.463  1.00  0.00     0.029 A 
ATOM     49  C   UNL     1       6.477  -7.174  -0.807  1.00  0.00     0.049 A 
ATOM     50  H   UNL     1       4.617  -7.417  -1.713  1.00  0.00     0.167 HD
ATOM     51  C   UNL     1       0.662  -8.071  -3.422  1.00  0.00     0.031 A 
ATOM     52  C   UNL     1       7.394  -7.749  -1.607  1.00  0.00     0.031 A 
ATOM     53  C   UNL     1       1.561  -8.761  -4.308  1.00  0.00     0.049 A 
ATOM     54  C   UNL     1       6.943  -8.475  -2.841  1.00  0.00     0.074 A 
ATOM     55  C   UNL     1       1.266  -9.442  -5.477  1.00  0.00     0.029 A 
ATOM     56  N   UNL     1       2.933  -8.832  -4.138  1.00  0.00    -0.354 N 
ATOM     57  N   UNL     1       5.731  -8.610  -3.322  1.00  0.00    -0.248 NA
ATOM     58  C   UNL     1       7.985  -9.148  -3.630  1.00  0.00     0.031 C 
ATOM     59  C   UNL     1       2.460  -9.950  -6.000  1.00  0.00     0.029 A 
ATOM     60  C   UNL     1       3.499  -9.552  -5.176  1.00  0.00     0.049 A 
ATOM     61  H   UNL     1       3.432  -8.431  -3.390  1.00  0.00     0.167 HD
ATOM     62  C   UNL     1       5.867  -9.373  -4.474  1.00  0.00     0.074 A 
ATOM     63  C   UNL     1       7.279  -9.654  -4.631  1.00  0.00     0.031 C 
ATOM     64  C   UNL     1       4.906  -9.811  -5.321  1.00  0.00     0.031 A 
BRANCH  51  65
ATOM     65  C   UNL     1      -0.806  -8.121  -3.731  1.00  0.00    -0.014 A 
ATOM     66  C   UNL     1      -1.485  -7.021  -4.274  1.00  0.00     0.009 A 
ATOM     67  C   UNL     1      -1.508  -9.319  -3.517  1.00  0.00     0.009 A 
ATOM     68  C   UNL     1      -2.846  -7.114  -4.575  1.00  0.00     0.001 A 
ATOM     69  C   UNL     1      -2.862  -9.416  -3.840  1.00  0.00     0.001 A 
ATOM     70  C   UNL     1      -3.531  -8.311  -4.363  1.00  0.00     0.000 A 
ENDBRANCH  51  65
BRANCH  52  71
ATOM     71  C   UNL     1       8.833  -7.719  -1.236  1.00  0.00    -0.014 A 
ATOM     72  C   UNL     1       9.746  -6.959  -1.982  1.00  0.00     0.009 A 
ATOM     73  C   UNL     1       9.303  -8.464  -0.143  1.00  0.00     0.009 A 
ATOM     74  C   UNL     1      11.104  -6.963  -1.654  1.00  0.00     0.001 A 
ATOM     75  C   UNL     1      10.656  -8.442   0.202  1.00  0.00     0.001 A 
ATOM     76  C   UNL     1      11.556  -7.700  -0.560  1.00  0.00     0.000 A 
ENDBRANCH  52  71
BRANCH  64  77
ATOM     77  C   UNL     1       5.357 -10.604  -6.510  1.00  0.00    -0.014 A 
ATOM     78  C   UNL     1       5.740 -11.948  -6.381  1.00  0.00     0.009 A 
ATOM     79  C   UNL     1       5.373 -10.006  -7.779  1.00  0.00     0.009 A 
ATOM     80  C   UNL     1       6.158 -12.670  -7.500  1.00  0.00     0.001 A 
ATOM     81  C   UNL     1       5.772 -10.737  -8.898  1.00  0.00     0.001 A 
ATOM     82  C   UNL     1       6.172 -12.065  -8.757  1.00  0.00     0.000 A 
ENDBRANCH  64  77
ENDBRANCH  38  39
ENDBRANCH  31  33
ENDBRANCH  30  31
ENDBRANCH  29  30
ENDBRANCH   1  29
TORSDOF 14
