REMARK SMILES O=C(OCCOC(=O)c1ccc(CNC(=O)C2(c3ccccc3)CC2)o1)c1ccc(-c2c3nc(c(-c4ccccc4)c4ccc([nH]4)c(-c4ccccc4)c4nc(c(-c5ccccc5)c5ccc2[nH]5)C=C4)C=C3)cc1
REMARK SMILES IDX 5 1 4 2 3 3 2 4 1 5 27 6 28 7 74 8 29 9 73 10 30 11 31 12
REMARK SMILES IDX 32 13 67 14 33 15 72 16 66 17 68 18 34 19 71 20 65 21 64 22
REMARK SMILES IDX 35 24 57 25 42 26 56 27 43 28 46 29 55 30 69 31 44 32 45 33
REMARK SMILES IDX 54 35 70 36 47 37 36 38 37 39 41 40 38 41 40 42 39 43 58 44
REMARK SMILES IDX 59 45 63 46 60 47 62 48 61 49 48 50 49 51 53 52 50 53 52 54
REMARK SMILES IDX 51 55 6 56 7 57 8 58 9 59 10 60 26 61 11 62 12 63 13 64
REMARK SMILES IDX 14 65 15 66 16 68 17 69 24 70 25 71 18 72 19 73 23 74 20 75
REMARK SMILES IDX 22 76 21 77
REMARK H PARENT 68 23 46 34 14 67
REMARK Flexibility Score: inf
ROOT
ATOM      1  C   UNL     1       3.890   0.416  -2.417  1.00  0.00     0.275 C 
ENDROOT
BRANCH   1   2
ATOM      2  C   UNL     1       4.090  -0.780  -1.487  1.00  0.00     0.275 C 
BRANCH   2   3
ATOM      3  O   UNL     1       2.987  -0.992  -0.587  1.00  0.00    -0.458 OA
BRANCH   3   4
ATOM      4  C   UNL     1       2.963  -0.781   0.749  1.00  0.00     0.338 C 
ATOM      5  O   UNL     1       2.240  -1.461   1.472  1.00  0.00    -0.246 OA
BRANCH   4   6
ATOM      6  C   UNL     1       3.636   0.396   1.368  1.00  0.00     0.060 A 
ATOM      7  C   UNL     1       4.992   0.697   1.240  1.00  0.00     0.016 A 
ATOM      8  C   UNL     1       2.863   1.156   2.264  1.00  0.00     0.016 A 
ATOM      9  C   UNL     1       5.558   1.748   1.970  1.00  0.00     0.010 A 
ATOM     10  C   UNL     1       3.427   2.199   3.007  1.00  0.00     0.010 A 
ATOM     11  C   UNL     1       4.788   2.487   2.877  1.00  0.00    -0.014 A 
BRANCH  11  12
ATOM     12  C   UNL     1       5.464   3.451   3.775  1.00  0.00     0.031 A 
ATOM     13  C   UNL     1       5.900   3.000   5.139  1.00  0.00     0.074 A 
ATOM     14  C   UNL     1       5.755   4.694   3.354  1.00  0.00     0.049 A 
ATOM     15  N   UNL     1       6.679   3.607   5.997  1.00  0.00    -0.248 NA
ATOM     16  C   UNL     1       5.410   1.687   5.588  1.00  0.00     0.031 C 
ATOM     17  C   UNL     1       5.399   5.248   2.051  1.00  0.00     0.029 A 
ATOM     18  N   UNL     1       6.436   5.709   3.976  1.00  0.00    -0.354 N 
ATOM     19  C   UNL     1       6.806   2.735   7.069  1.00  0.00     0.074 A 
ATOM     20  C   UNL     1       5.978   1.583   6.780  1.00  0.00     0.031 C 
ATOM     21  C   UNL     1       5.864   6.506   1.966  1.00  0.00     0.029 A 
ATOM     22  C   UNL     1       6.568   6.836   3.203  1.00  0.00     0.049 A 
ATOM     23  H   UNL     1       6.797   5.637   4.889  1.00  0.00     0.167 HD
ATOM     24  C   UNL     1       7.564   2.866   8.182  1.00  0.00     0.031 A 
ATOM     25  C   UNL     1       7.210   7.992   3.451  1.00  0.00     0.031 A 
ATOM     26  C   UNL     1       8.357   4.022   8.493  1.00  0.00     0.049 A 
ATOM     27  C   UNL     1       7.992   8.143   4.726  1.00  0.00     0.074 A 
ATOM     28  C   UNL     1       9.166   4.248   9.593  1.00  0.00     0.029 A 
ATOM     29  N   UNL     1       8.427   5.158   7.703  1.00  0.00    -0.354 N 
ATOM     30  N   UNL     1       8.175   7.273   5.689  1.00  0.00    -0.248 NA
ATOM     31  C   UNL     1       8.684   9.425   4.929  1.00  0.00     0.031 C 
ATOM     32  C   UNL     1       9.699   5.538   9.483  1.00  0.00     0.029 A 
ATOM     33  C   UNL     1       9.247   6.099   8.299  1.00  0.00     0.049 A 
ATOM     34  H   UNL     1       7.961   5.278   6.844  1.00  0.00     0.167 HD
ATOM     35  C   UNL     1       9.032   7.886   6.593  1.00  0.00     0.074 A 
ATOM     36  C   UNL     1       9.331   9.201   6.065  1.00  0.00     0.031 C 
ATOM     37  C   UNL     1       9.537   7.398   7.753  1.00  0.00     0.031 A 
BRANCH  24  38
ATOM     38  C   UNL     1       7.552   1.713   9.141  1.00  0.00    -0.014 A 
ATOM     39  C   UNL     1       8.266   0.538   8.853  1.00  0.00     0.009 A 
ATOM     40  C   UNL     1       6.812   1.790  10.329  1.00  0.00     0.009 A 
ATOM     41  C   UNL     1       8.207  -0.554   9.721  1.00  0.00     0.001 A 
ATOM     42  C   UNL     1       6.769   0.702  11.203  1.00  0.00     0.001 A 
ATOM     43  C   UNL     1       7.458  -0.471  10.894  1.00  0.00     0.000 A 
ENDBRANCH  24  38
BRANCH  25  44
ATOM     44  C   UNL     1       7.188   9.082   2.444  1.00  0.00    -0.014 A 
ATOM     45  C   UNL     1       8.319   9.352   1.659  1.00  0.00     0.009 A 
ATOM     46  C   UNL     1       6.034   9.860   2.267  1.00  0.00     0.009 A 
ATOM     47  C   UNL     1       8.300  10.393   0.729  1.00  0.00     0.001 A 
ATOM     48  C   UNL     1       6.013  10.889   1.324  1.00  0.00     0.001 A 
ATOM     49  C   UNL     1       7.147  11.159   0.560  1.00  0.00     0.000 A 
ENDBRANCH  25  44
BRANCH  37  50
ATOM     50  C   UNL     1      10.492   8.277   8.504  1.00  0.00    -0.014 A 
ATOM     51  C   UNL     1      10.032   9.359   9.268  1.00  0.00     0.009 A 
ATOM     52  C   UNL     1      11.866   7.995   8.473  1.00  0.00     0.009 A 
ATOM     53  C   UNL     1      10.937  10.160   9.968  1.00  0.00     0.001 A 
ATOM     54  C   UNL     1      12.766   8.786   9.188  1.00  0.00     0.001 A 
ATOM     55  C   UNL     1      12.301   9.871   9.929  1.00  0.00     0.000 A 
ENDBRANCH  37  50
ENDBRANCH  11  12
ENDBRANCH   4   6
ENDBRANCH   3   4
ENDBRANCH   2   3
ENDBRANCH   1   2
BRANCH   1  56
ATOM     56  O   UNL     1       3.529   1.605  -1.702  1.00  0.00    -0.456 OA
BRANCH  56  57
ATOM     57  C   UNL     1       2.179   1.802  -1.580  1.00  0.00     0.374 C 
ATOM     58  O   UNL     1       1.323   1.099  -2.099  1.00  0.00    -0.242 OA
BRANCH  57  59
ATOM     59  C   UNL     1       1.931   2.903  -0.685  1.00  0.00     0.211 A 
ATOM     60  C   UNL     1       2.607   4.078  -0.418  1.00  0.00     0.058 A 
ATOM     61  O   UNL     1       0.846   2.812   0.140  1.00  0.00    -0.452 OA
ATOM     62  C   UNL     1       1.902   4.727   0.630  1.00  0.00     0.048 A 
ATOM     63  C   UNL     1       0.849   3.900   0.962  1.00  0.00     0.124 A 
BRANCH  63  64
ATOM     64  C   UNL     1      -0.190   3.938   2.027  1.00  0.00     0.191 C 
BRANCH  64  65
ATOM     65  N   UNL     1      -1.377   3.253   1.574  1.00  0.00    -0.348 N 
ATOM     66  C   UNL     1      -2.296   2.549   2.300  1.00  0.00     0.231 C 
ATOM     67  H   UNL     1      -1.550   3.301   0.606  1.00  0.00     0.163 HD
ATOM     68  O   UNL     1      -3.291   2.085   1.750  1.00  0.00    -0.274 OA
BRANCH  66  69
ATOM     69  C   UNL     1      -2.088   2.345   3.780  1.00  0.00     0.074 C 
ATOM     70  C   UNL     1      -2.269   0.901   4.278  1.00  0.00     0.023 C 
ATOM     71  C   UNL     1      -0.908   1.506   4.263  1.00  0.00     0.023 C 
BRANCH  69  72
ATOM     72  C   UNL     1      -2.655   3.435   4.688  1.00  0.00    -0.032 A 
ATOM     73  C   UNL     1      -4.021   3.447   5.025  1.00  0.00     0.005 A 
ATOM     74  C   UNL     1      -1.856   4.469   5.207  1.00  0.00     0.005 A 
ATOM     75  C   UNL     1      -4.565   4.438   5.844  1.00  0.00     0.000 A 
ATOM     76  C   UNL     1      -2.398   5.471   6.018  1.00  0.00     0.000 A 
ATOM     77  C   UNL     1      -3.752   5.453   6.337  1.00  0.00     0.000 A 
ENDBRANCH  69  72
ENDBRANCH  66  69
ENDBRANCH  64  65
ENDBRANCH  63  64
ENDBRANCH  57  59
ENDBRANCH  56  57
ENDBRANCH   1  56
TORSDOF 15
