REMARK SMILES C[C@]1(C(=O)NCc2ccc(C(=O)OCCOC(=O)c3ccc(-c4c5nc(c(-c6ccccc6)c6ccc([nH]6)c(-c6ccccc6)c6nc(c(-c7ccccc7)c7ccc4[nH]7)C=C6)C=C5)cc3)o2)CCC[NH2+]C1
REMARK SMILES IDX 14 1 13 2 11 3 12 4 10 5 7 6 8 7 67 8 9 9 6 10 5 11 3 12
REMARK SMILES IDX 4 13 2 15 1 16 68 17 72 18 69 19 71 20 70 21 15 24 16 25
REMARK SMILES IDX 17 26 18 27 19 28 20 29 66 30 21 31 65 32 22 33 23 34 24 35
REMARK SMILES IDX 59 36 25 37 64 38 58 39 60 40 26 41 63 42 57 43 56 44 27 46
REMARK SMILES IDX 49 47 34 48 48 49 35 50 38 51 47 52 61 53 36 54 37 55 46 57
REMARK SMILES IDX 62 58 39 59 28 60 29 61 33 62 30 63 32 64 31 65 50 66 51 67
REMARK SMILES IDX 55 68 52 69 54 70 53 71 40 72 41 73 45 74 42 75 44 76 43 77
REMARK H PARENT 5 14 71 22 71 23 60 45 38 56
REMARK Flexibility Score: inf
ROOT
ATOM      1  C   UNL     1       9.945   1.766   2.136  1.00  0.00     0.275 C 
ENDROOT
BRANCH   1   2
ATOM      2  O   UNL     1       8.805   0.937   1.845  1.00  0.00    -0.456 OA
BRANCH   2   3
ATOM      3  C   UNL     1       7.583   1.510   2.060  1.00  0.00     0.374 C 
ATOM      4  O   UNL     1       7.414   2.592   2.607  1.00  0.00    -0.242 OA
BRANCH   3   5
ATOM      5  C   UNL     1       6.551   0.716   1.434  1.00  0.00     0.211 A 
ATOM      6  C   UNL     1       4.647   0.504   0.334  1.00  0.00     0.124 A 
ATOM      7  C   UNL     1       5.257  -0.732   0.296  1.00  0.00     0.048 A 
ATOM      8  O   UNL     1       5.388   1.356   1.095  1.00  0.00    -0.452 OA
ATOM      9  C   UNL     1       6.487  -0.592   0.991  1.00  0.00     0.058 A 
BRANCH   6  10
ATOM     10  C   UNL     1       3.478   1.113  -0.345  1.00  0.00     0.191 C 
BRANCH  10  11
ATOM     11  N   UNL     1       2.408   0.160  -0.480  1.00  0.00    -0.348 N 
ATOM     12  C   UNL     1       1.160   0.041   0.020  1.00  0.00     0.232 C 
ATOM     13  O   UNL     1       0.539  -0.932  -0.436  1.00  0.00    -0.274 OA
ATOM     14  H   UNL     1       2.642  -0.584  -1.082  1.00  0.00     0.163 HD
BRANCH  12  15
ATOM     15  C   UNL     1       0.554   0.868   1.181  1.00  0.00     0.095 C 
ATOM     16  C   UNL     1       0.833   0.043   2.454  1.00  0.00     0.028 C 
ATOM     17  C   UNL     1       1.021   2.310   1.439  1.00  0.00     0.028 C 
ATOM     18  C   UNL     1      -0.983   0.939   0.943  1.00  0.00     0.277 C 
ATOM     19  C   UNL     1       0.625   3.253   0.305  1.00  0.00     0.063 C 
ATOM     20  N   UNL     1      -1.340   1.843  -0.162  1.00  0.00    -0.345 N 
ATOM     21  C   UNL     1      -0.883   3.209   0.071  1.00  0.00     0.260 C 
ATOM     22  H   UNL     1      -0.912   1.496  -1.021  1.00  0.00     0.346 HD
ATOM     23  H   UNL     1      -2.357   1.862  -0.234  1.00  0.00     0.346 HD
ENDBRANCH  12  15
ENDBRANCH  10  11
ENDBRANCH   6  10
ENDBRANCH   3   5
ENDBRANCH   2   3
ENDBRANCH   1   2
BRANCH   1  24
ATOM     24  C   UNL     1      10.432   2.516   0.889  1.00  0.00     0.275 C 
BRANCH  24  25
ATOM     25  O   UNL     1       9.579   3.630   0.555  1.00  0.00    -0.458 OA
BRANCH  25  26
ATOM     26  C   UNL     1       8.595   3.365  -0.337  1.00  0.00     0.338 C 
ATOM     27  O   UNL     1       8.372   2.299  -0.886  1.00  0.00    -0.246 OA
BRANCH  26  28
ATOM     28  C   UNL     1       7.719   4.542  -0.488  1.00  0.00     0.060 A 
ATOM     29  C   UNL     1       6.344   4.361  -0.315  1.00  0.00     0.016 A 
ATOM     30  C   UNL     1       8.221   5.790  -0.862  1.00  0.00     0.016 A 
ATOM     31  C   UNL     1       5.462   5.418  -0.519  1.00  0.00     0.010 A 
ATOM     32  C   UNL     1       7.335   6.853  -1.072  1.00  0.00     0.010 A 
ATOM     33  C   UNL     1       5.950   6.670  -0.913  1.00  0.00    -0.014 A 
BRANCH  33  34
ATOM     34  C   UNL     1       4.998   7.766  -1.206  1.00  0.00     0.031 A 
ATOM     35  C   UNL     1       4.663   8.105  -2.630  1.00  0.00     0.074 A 
ATOM     36  C   UNL     1       4.408   8.435  -0.199  1.00  0.00     0.049 A 
ATOM     37  N   UNL     1       3.882   9.049  -3.092  1.00  0.00    -0.248 NA
ATOM     38  C   UNL     1       5.284   7.271  -3.670  1.00  0.00     0.031 C 
ATOM     39  C   UNL     1       4.610   8.169   1.225  1.00  0.00     0.029 A 
ATOM     40  N   UNL     1       3.515   9.476  -0.225  1.00  0.00    -0.354 N 
ATOM     41  C   UNL     1       3.928   8.931  -4.475  1.00  0.00     0.074 A 
ATOM     42  C   UNL     1       4.824   7.834  -4.777  1.00  0.00     0.031 C 
ATOM     43  C   UNL     1       3.858   9.025   1.938  1.00  0.00     0.029 A 
ATOM     44  C   UNL     1       3.153   9.918   1.023  1.00  0.00     0.049 A 
ATOM     45  H   UNL     1       3.167   9.868  -1.058  1.00  0.00     0.167 HD
ATOM     46  C   UNL     1       3.283   9.670  -5.409  1.00  0.00     0.031 A 
ATOM     47  C   UNL     1       2.357  10.941   1.388  1.00  0.00     0.031 A 
ATOM     48  C   UNL     1       2.397  10.763  -5.116  1.00  0.00     0.049 A 
ATOM     49  C   UNL     1       1.706  11.788   0.331  1.00  0.00     0.074 A 
ATOM     50  C   UNL     1       1.697  11.568  -5.999  1.00  0.00     0.029 A 
ATOM     51  N   UNL     1       2.090  11.207  -3.840  1.00  0.00    -0.354 N 
ATOM     52  N   UNL     1       1.761  11.667  -0.973  1.00  0.00    -0.248 NA
ATOM     53  C   UNL     1       0.884  12.914   0.799  1.00  0.00     0.031 C 
ATOM     54  C   UNL     1       0.994  12.524  -5.257  1.00  0.00     0.029 A 
ATOM     55  C   UNL     1       1.226  12.287  -3.912  1.00  0.00     0.049 A 
ATOM     56  H   UNL     1       2.435  10.814  -3.007  1.00  0.00     0.167 HD
ATOM     57  C   UNL     1       0.968  12.688  -1.481  1.00  0.00     0.074 A 
ATOM     58  C   UNL     1       0.434  13.411  -0.345  1.00  0.00     0.031 C 
ATOM     59  C   UNL     1       0.705  12.997  -2.773  1.00  0.00     0.031 A 
BRANCH  46  60
ATOM     60  C   UNL     1       3.547   9.334  -6.848  1.00  0.00    -0.014 A 
ATOM     61  C   UNL     1       2.968   8.205  -7.448  1.00  0.00     0.009 A 
ATOM     62  C   UNL     1       4.367  10.172  -7.618  1.00  0.00     0.009 A 
ATOM     63  C   UNL     1       3.231   7.906  -8.787  1.00  0.00     0.001 A 
ATOM     64  C   UNL     1       4.611   9.882  -8.961  1.00  0.00     0.001 A 
ATOM     65  C   UNL     1       4.049   8.746  -9.542  1.00  0.00     0.000 A 
ENDBRANCH  46  60
BRANCH  47  66
ATOM     66  C   UNL     1       2.149  11.238   2.827  1.00  0.00    -0.014 A 
ATOM     67  C   UNL     1       0.922  10.952   3.444  1.00  0.00     0.009 A 
ATOM     68  C   UNL     1       3.178  11.813   3.588  1.00  0.00     0.009 A 
ATOM     69  C   UNL     1       0.725  11.252   4.794  1.00  0.00     0.001 A 
ATOM     70  C   UNL     1       2.985  12.091   4.942  1.00  0.00     0.001 A 
ATOM     71  C   UNL     1       1.757  11.817   5.542  1.00  0.00     0.000 A 
ENDBRANCH  47  66
BRANCH  59  72
ATOM     72  C   UNL     1      -0.221  14.149  -3.027  1.00  0.00    -0.014 A 
ATOM     73  C   UNL     1       0.219  15.475  -2.893  1.00  0.00     0.009 A 
ATOM     74  C   UNL     1      -1.539  13.905  -3.444  1.00  0.00     0.009 A 
ATOM     75  C   UNL     1      -0.654  16.535  -3.148  1.00  0.00     0.001 A 
ATOM     76  C   UNL     1      -2.402  14.966  -3.717  1.00  0.00     0.001 A 
ATOM     77  C   UNL     1      -1.961  16.280  -3.562  1.00  0.00     0.000 A 
ENDBRANCH  59  72
ENDBRANCH  33  34
ENDBRANCH  26  28
ENDBRANCH  25  26
ENDBRANCH  24  25
ENDBRANCH   1  24
TORSDOF 14
