REMARK SMILES CC1(C)[C@H](C(=O)OCCOC(=O)c2ccc(-c3c4nc(c(-c5ccccc5)c5ccc([nH]5)c(-c5ccccc5)c5nc(c(-c6ccccc6)c6ccc3[nH]6)C=C5)C=C4)cc2)[C@@H]1C(=O)Nc1ccc(NC(=O)C2CCC2)cc1
REMARK SMILES IDX 8 1 7 2 5 3 6 4 4 5 1 6 2 7 3 8 61 9 62 10 63 11 64 12 65 14
REMARK SMILES IDX 66 15 77 16 67 17 76 18 68 19 69 20 70 21 71 23 72 24 73 25
REMARK SMILES IDX 75 26 74 27 9 28 10 29 11 30 12 31 13 32 14 33 60 34 15 35
REMARK SMILES IDX 59 36 16 37 17 38 18 39 53 40 19 41 58 42 52 43 54 44 20 45
REMARK SMILES IDX 57 46 51 47 50 48 21 50 43 51 28 52 42 53 29 54 32 55 41 56
REMARK SMILES IDX 55 57 30 58 31 59 40 61 56 62 33 63 22 64 23 65 27 66 24 67
REMARK SMILES IDX 26 68 25 69 44 70 45 71 49 72 46 73 48 74 47 75 34 76 35 77
REMARK SMILES IDX 39 78 36 79 38 80 37 81
REMARK H PARENT 64 13 69 22 54 49 32 60
REMARK Flexibility Score: inf
ROOT
ATOM      1  C   UNL     1      -1.212   3.124  -2.491  1.00  0.00     0.274 C 
ENDROOT
BRANCH   1   2
ATOM      2  O   UNL     1      -0.643   2.216  -1.523  1.00  0.00    -0.462 OA
BRANCH   2   3
ATOM      3  C   UNL     1      -1.324   1.048  -1.379  1.00  0.00     0.310 C 
ATOM      4  O   UNL     1      -2.285   0.736  -2.055  1.00  0.00    -0.252 OA
BRANCH   3   5
ATOM      5  C   UNL     1      -0.754   0.043  -0.455  1.00  0.00     0.118 C 
ATOM      6  C   UNL     1       1.387  -1.015   0.385  1.00  0.00     0.013 C 
ATOM      7  C   UNL     1       0.443   0.166   0.440  1.00  0.00    -0.009 C 
ATOM      8  C   UNL     1       1.159   1.488   0.553  1.00  0.00     0.013 C 
ATOM      9  C   UNL     1      -0.972  -0.046   1.028  1.00  0.00     0.100 C 
BRANCH   9  10
ATOM     10  C   UNL     1      -1.573   0.960   1.930  1.00  0.00     0.228 C 
ATOM     11  O   UNL     1      -0.896   1.438   2.837  1.00  0.00    -0.274 OA
ATOM     12  N   UNL     1      -2.891   1.334   1.822  1.00  0.00    -0.326 N 
ATOM     13  H   UNL     1      -3.283   1.780   2.607  1.00  0.00     0.169 HD
BRANCH  12  14
ATOM     14  C   UNL     1      -3.739   1.157   0.729  1.00  0.00     0.041 A 
ATOM     15  C   UNL     1      -4.058   2.314   0.034  1.00  0.00     0.028 A 
ATOM     16  C   UNL     1      -4.199  -0.076   0.271  1.00  0.00     0.028 A 
ATOM     17  C   UNL     1      -4.700   2.220  -1.195  1.00  0.00     0.028 A 
ATOM     18  C   UNL     1      -4.964  -0.133  -0.912  1.00  0.00     0.028 A 
ATOM     19  C   UNL     1      -5.197   1.024  -1.677  1.00  0.00     0.041 A 
BRANCH  19  20
ATOM     20  N   UNL     1      -5.836   0.892  -2.918  1.00  0.00    -0.326 N 
ATOM     21  C   UNL     1      -6.203   1.752  -3.933  1.00  0.00     0.227 C 
ATOM     22  H   UNL     1      -6.084  -0.041  -3.112  1.00  0.00     0.169 HD
ATOM     23  O   UNL     1      -6.696   1.174  -4.924  1.00  0.00    -0.274 OA
BRANCH  21  24
ATOM     24  C   UNL     1      -6.045   3.294  -3.959  1.00  0.00     0.079 C 
ATOM     25  C   UNL     1      -7.257   4.019  -4.657  1.00  0.00     0.013 C 
ATOM     26  C   UNL     1      -6.329   4.282  -2.787  1.00  0.00     0.013 C 
ATOM     27  C   UNL     1      -6.952   5.247  -3.797  1.00  0.00     0.002 C 
ENDBRANCH  21  24
ENDBRANCH  19  20
ENDBRANCH  12  14
ENDBRANCH   9  10
ENDBRANCH   3   5
ENDBRANCH   2   3
ENDBRANCH   1   2
BRANCH   1  28
ATOM     28  C   UNL     1      -0.769   2.880  -3.944  1.00  0.00     0.275 C 
BRANCH  28  29
ATOM     29  O   UNL     1      -1.260   1.646  -4.504  1.00  0.00    -0.458 OA
BRANCH  29  30
ATOM     30  C   UNL     1      -0.440   0.584  -4.328  1.00  0.00     0.338 C 
ATOM     31  O   UNL     1       0.652   0.585  -3.781  1.00  0.00    -0.246 OA
BRANCH  30  32
ATOM     32  C   UNL     1      -1.075  -0.668  -4.774  1.00  0.00     0.060 A 
ATOM     33  C   UNL     1      -1.351  -1.635  -3.804  1.00  0.00     0.016 A 
ATOM     34  C   UNL     1      -1.218  -0.975  -6.123  1.00  0.00     0.016 A 
ATOM     35  C   UNL     1      -1.717  -2.924  -4.155  1.00  0.00     0.010 A 
ATOM     36  C   UNL     1      -1.593  -2.275  -6.486  1.00  0.00     0.010 A 
ATOM     37  C   UNL     1      -1.807  -3.261  -5.503  1.00  0.00    -0.014 A 
BRANCH  37  38
ATOM     38  C   UNL     1      -1.979  -4.680  -5.877  1.00  0.00     0.031 A 
ATOM     39  C   UNL     1      -0.802  -5.428  -6.432  1.00  0.00     0.074 A 
ATOM     40  C   UNL     1      -3.153  -5.303  -5.676  1.00  0.00     0.049 A 
ATOM     41  N   UNL     1      -0.761  -6.609  -6.989  1.00  0.00    -0.248 NA
ATOM     42  C   UNL     1       0.504  -4.752  -6.347  1.00  0.00     0.031 C 
ATOM     43  C   UNL     1      -4.327  -4.714  -5.031  1.00  0.00     0.029 A 
ATOM     44  N   UNL     1      -3.550  -6.571  -6.008  1.00  0.00    -0.354 N 
ATOM     45  C   UNL     1       0.562  -6.798  -7.365  1.00  0.00     0.074 A 
ATOM     46  C   UNL     1       1.294  -5.615  -6.970  1.00  0.00     0.031 C 
ATOM     47  C   UNL     1      -5.322  -5.616  -5.032  1.00  0.00     0.029 A 
ATOM     48  C   UNL     1      -4.874  -6.813  -5.736  1.00  0.00     0.049 A 
ATOM     49  H   UNL     1      -2.947  -7.242  -6.401  1.00  0.00     0.167 HD
ATOM     50  C   UNL     1       1.110  -7.862  -7.998  1.00  0.00     0.031 A 
ATOM     51  C   UNL     1      -5.649  -7.861  -6.073  1.00  0.00     0.031 A 
ATOM     52  C   UNL     1       0.368  -9.033  -8.379  1.00  0.00     0.049 A 
ATOM     53  C   UNL     1      -5.044  -8.987  -6.864  1.00  0.00     0.074 A 
ATOM     54  C   UNL     1       0.815 -10.163  -9.039  1.00  0.00     0.029 A 
ATOM     55  N   UNL     1      -0.982  -9.223  -8.124  1.00  0.00    -0.354 N 
ATOM     56  N   UNL     1      -3.807  -9.139  -7.271  1.00  0.00    -0.248 NA
ATOM     57  C   UNL     1      -5.944 -10.082  -7.250  1.00  0.00     0.031 C 
ATOM     58  C   UNL     1      -0.277 -11.016  -9.227  1.00  0.00     0.029 A 
ATOM     59  C   UNL     1      -1.389 -10.444  -8.630  1.00  0.00     0.049 A 
ATOM     60  H   UNL     1      -1.564  -8.584  -7.654  1.00  0.00     0.167 HD
ATOM     61  C   UNL     1      -3.772 -10.360  -7.932  1.00  0.00     0.074 A 
ATOM     62  C   UNL     1      -5.111 -10.909  -7.866  1.00  0.00     0.031 C 
ATOM     63  C   UNL     1      -2.725 -10.974  -8.537  1.00  0.00     0.031 A 
BRANCH  50  64
ATOM     64  C   UNL     1       2.562  -7.774  -8.372  1.00  0.00    -0.014 A 
ATOM     65  C   UNL     1       3.579  -7.855  -7.409  1.00  0.00     0.009 A 
ATOM     66  C   UNL     1       2.916  -7.622  -9.722  1.00  0.00     0.009 A 
ATOM     67  C   UNL     1       4.920  -7.754  -7.788  1.00  0.00     0.001 A 
ATOM     68  C   UNL     1       4.257  -7.549 -10.102  1.00  0.00     0.001 A 
ATOM     69  C   UNL     1       5.258  -7.606  -9.134  1.00  0.00     0.000 A 
ENDBRANCH  50  64
BRANCH  51  70
ATOM     70  C   UNL     1      -7.092  -7.862  -5.717  1.00  0.00    -0.014 A 
ATOM     71  C   UNL     1      -7.594  -8.765  -4.768  1.00  0.00     0.009 A 
ATOM     72  C   UNL     1      -7.976  -6.958  -6.328  1.00  0.00     0.009 A 
ATOM     73  C   UNL     1      -8.956  -8.775  -4.455  1.00  0.00     0.001 A 
ATOM     74  C   UNL     1      -9.331  -6.951  -5.990  1.00  0.00     0.001 A 
ATOM     75  C   UNL     1      -9.821  -7.865  -5.061  1.00  0.00     0.000 A 
ENDBRANCH  51  70
BRANCH  63  76
ATOM     76  C   UNL     1      -2.971 -12.336  -9.119  1.00  0.00    -0.014 A 
ATOM     77  C   UNL     1      -3.684 -12.503 -10.315  1.00  0.00     0.009 A 
ATOM     78  C   UNL     1      -2.424 -13.463  -8.485  1.00  0.00     0.009 A 
ATOM     79  C   UNL     1      -3.867 -13.780 -10.851  1.00  0.00     0.001 A 
ATOM     80  C   UNL     1      -2.584 -14.733  -9.038  1.00  0.00     0.001 A 
ATOM     81  C   UNL     1      -3.311 -14.891 -10.216  1.00  0.00     0.000 A 
ENDBRANCH  63  76
ENDBRANCH  37  38
ENDBRANCH  30  32
ENDBRANCH  29  30
ENDBRANCH  28  29
ENDBRANCH   1  28
TORSDOF 15
