REMARK SMILES CC(C)NC(=O)c1cccc(NC(=O)[C@@H]2[C@H](C(=O)OCCOC(=O)c3ccc(-c4c5nc(c(-c6ccccc6)c6ccc([nH]6)c(-c6ccccc6)c6nc(c(-c7ccccc7)c7ccc4[nH]7)C=C6)C=C5)cc3)C2(C)C)c1
REMARK SMILES IDX 20 1 19 2 17 3 18 4 16 5 15 6 73 7 74 8 75 9 13 10 12 11
REMARK SMILES IDX 14 13 11 14 7 15 8 16 76 17 9 18 10 19 5 20 4 21 6 23 2 24
REMARK SMILES IDX 1 25 3 26 21 27 22 28 23 29 24 30 25 31 26 32 72 33 27 34
REMARK SMILES IDX 71 35 28 36 29 37 30 38 65 39 31 40 70 41 64 42 66 43 32 44
REMARK SMILES IDX 69 45 63 46 62 47 33 49 55 50 40 51 54 52 41 53 44 54 53 55
REMARK SMILES IDX 67 56 42 57 43 58 52 60 68 61 45 62 34 63 35 64 39 65 36 66
REMARK SMILES IDX 38 67 37 68 56 69 57 70 61 71 58 72 60 73 59 74 46 75 47 76
REMARK SMILES IDX 51 77 48 78 50 79 49 80
REMARK H PARENT 12 12 4 22 66 48 44 59
REMARK Flexibility Score: inf
ROOT
ATOM      1  C   UNL     1      -2.253  -9.063   1.567  1.00  0.00     0.274 C 
ENDROOT
BRANCH   1   2
ATOM      2  O   UNL     1      -1.418  -7.887   1.516  1.00  0.00    -0.462 OA
BRANCH   2   3
ATOM      3  C   UNL     1      -0.211  -8.007   2.142  1.00  0.00     0.310 C 
ATOM      4  O   UNL     1       0.230  -9.043   2.598  1.00  0.00    -0.252 OA
BRANCH   3   5
ATOM      5  C   UNL     1       0.525  -6.707   2.163  1.00  0.00     0.118 C 
ATOM      6  C   UNL     1       1.896  -6.507   2.813  1.00  0.00     0.100 C 
ATOM      7  C   UNL     1       1.751  -6.460   1.292  1.00  0.00    -0.009 C 
ATOM      8  C   UNL     1       1.864  -5.095   0.640  1.00  0.00     0.013 C 
ATOM      9  C   UNL     1       2.270  -7.565   0.415  1.00  0.00     0.013 C 
BRANCH   6  10
ATOM     10  C   UNL     1       2.454  -7.563   3.704  1.00  0.00     0.228 C 
ATOM     11  N   UNL     1       3.789  -7.889   3.775  1.00  0.00    -0.326 N 
ATOM     12  H   UNL     1       3.972  -8.581   4.451  1.00  0.00     0.169 HD
ATOM     13  O   UNL     1       1.722  -8.051   4.565  1.00  0.00    -0.274 OA
BRANCH  11  14
ATOM     14  C   UNL     1       4.953  -7.468   3.111  1.00  0.00     0.041 A 
ATOM     15  C   UNL     1       7.365  -7.694   2.852  1.00  0.00     0.041 A 
ATOM     16  C   UNL     1       7.333  -6.886   1.716  1.00  0.00     0.014 A 
ATOM     17  C   UNL     1       6.174  -8.006   3.532  1.00  0.00     0.040 A 
ATOM     18  C   UNL     1       6.138  -6.300   1.336  1.00  0.00     0.003 A 
ATOM     19  C   UNL     1       4.980  -6.550   2.073  1.00  0.00     0.026 A 
BRANCH  15  20
ATOM     20  C   UNL     1       8.696  -8.042   3.396  1.00  0.00     0.251 C 
ATOM     21  N   UNL     1       8.874  -9.195   4.106  1.00  0.00    -0.350 N 
ATOM     22  H   UNL     1       9.487  -9.156   4.875  1.00  0.00     0.164 HD
ATOM     23  O   UNL     1       9.637  -7.266   3.258  1.00  0.00    -0.269 OA
BRANCH  21  24
ATOM     24  C   UNL     1       8.242 -10.470   3.830  1.00  0.00     0.076 C 
ATOM     25  C   UNL     1       9.165 -11.225   2.892  1.00  0.00     0.030 C 
ATOM     26  C   UNL     1       7.973 -11.215   5.130  1.00  0.00     0.030 C 
ENDBRANCH  21  24
ENDBRANCH  15  20
ENDBRANCH  11  14
ENDBRANCH   6  10
ENDBRANCH   3   5
ENDBRANCH   2   3
ENDBRANCH   1   2
BRANCH   1  27
ATOM     27  C   UNL     1      -2.067  -9.974   0.353  1.00  0.00     0.275 C 
BRANCH  27  28
ATOM     28  O   UNL     1      -0.794 -10.650   0.398  1.00  0.00    -0.458 OA
BRANCH  28  29
ATOM     29  C   UNL     1       0.065 -10.315  -0.588  1.00  0.00     0.338 C 
ATOM     30  O   UNL     1      -0.142  -9.537  -1.508  1.00  0.00    -0.246 OA
BRANCH  29  31
ATOM     31  C   UNL     1       1.373 -10.986  -0.445  1.00  0.00     0.060 A 
ATOM     32  C   UNL     1       2.164 -10.777   0.685  1.00  0.00     0.016 A 
ATOM     33  C   UNL     1       1.926 -11.589  -1.574  1.00  0.00     0.016 A 
ATOM     34  C   UNL     1       3.539 -11.007   0.622  1.00  0.00     0.010 A 
ATOM     35  C   UNL     1       3.271 -11.966  -1.572  1.00  0.00     0.010 A 
ATOM     36  C   UNL     1       4.109 -11.632  -0.496  1.00  0.00    -0.014 A 
BRANCH  36  37
ATOM     37  C   UNL     1       5.561 -11.981  -0.535  1.00  0.00     0.031 A 
ATOM     38  C   UNL     1       6.441 -11.491  -1.663  1.00  0.00     0.074 A 
ATOM     39  C   UNL     1       6.058 -12.800   0.417  1.00  0.00     0.049 A 
ATOM     40  N   UNL     1       7.695 -11.774  -1.915  1.00  0.00    -0.248 NA
ATOM     41  C   UNL     1       5.833 -10.580  -2.650  1.00  0.00     0.031 C 
ATOM     42  C   UNL     1       5.316 -13.270   1.589  1.00  0.00     0.029 A 
ATOM     43  N   UNL     1       7.304 -13.358   0.582  1.00  0.00    -0.354 N 
ATOM     44  C   UNL     1       7.987 -11.173  -3.137  1.00  0.00     0.074 A 
ATOM     45  C   UNL     1       6.792 -10.479  -3.561  1.00  0.00     0.031 C 
ATOM     46  C   UNL     1       6.140 -13.946   2.399  1.00  0.00     0.029 A 
ATOM     47  C   UNL     1       7.449 -14.049   1.770  1.00  0.00     0.049 A 
ATOM     48  H   UNL     1       8.025 -13.274  -0.083  1.00  0.00     0.167 HD
ATOM     49  C   UNL     1       9.140 -11.228  -3.850  1.00  0.00     0.031 A 
ATOM     50  C   UNL     1       8.541 -14.616   2.329  1.00  0.00     0.031 A 
ATOM     51  C   UNL     1      10.338 -11.874  -3.378  1.00  0.00     0.049 A 
ATOM     52  C   UNL     1       9.841 -14.523   1.570  1.00  0.00     0.074 A 
ATOM     53  C   UNL     1      11.563 -11.997  -4.011  1.00  0.00     0.029 A 
ATOM     54  N   UNL     1      10.463 -12.490  -2.141  1.00  0.00    -0.354 N 
ATOM     55  N   UNL     1      10.103 -13.901   0.444  1.00  0.00    -0.248 NA
ATOM     56  C   UNL     1      11.008 -15.159   2.194  1.00  0.00     0.031 C 
ATOM     57  C   UNL     1      12.409 -12.743  -3.184  1.00  0.00     0.029 A 
ATOM     58  C   UNL     1      11.733 -13.026  -2.007  1.00  0.00     0.049 A 
ATOM     59  H   UNL     1       9.755 -12.539  -1.460  1.00  0.00     0.167 HD
ATOM     60  C   UNL     1      11.465 -14.065   0.232  1.00  0.00     0.074 A 
ATOM     61  C   UNL     1      11.985 -14.759   1.393  1.00  0.00     0.031 C 
ATOM     62  C   UNL     1      12.218 -13.720  -0.842  1.00  0.00     0.031 A 
BRANCH  49  63
ATOM     63  C   UNL     1       9.145 -10.660  -5.248  1.00  0.00    -0.014 A 
ATOM     64  C   UNL     1       9.097  -9.283  -5.508  1.00  0.00     0.009 A 
ATOM     65  C   UNL     1       9.254 -11.545  -6.336  1.00  0.00     0.009 A 
ATOM     66  C   UNL     1       9.124  -8.809  -6.825  1.00  0.00     0.001 A 
ATOM     67  C   UNL     1       9.313 -11.069  -7.647  1.00  0.00     0.001 A 
ATOM     68  C   UNL     1       9.239  -9.700  -7.892  1.00  0.00     0.000 A 
ENDBRANCH  49  63
BRANCH  50  69
ATOM     69  C   UNL     1       8.519 -15.029   3.772  1.00  0.00    -0.014 A 
ATOM     70  C   UNL     1       9.362 -14.374   4.693  1.00  0.00     0.009 A 
ATOM     71  C   UNL     1       7.622 -15.982   4.275  1.00  0.00     0.009 A 
ATOM     72  C   UNL     1       9.301 -14.642   6.061  1.00  0.00     0.001 A 
ATOM     73  C   UNL     1       7.531 -16.220   5.652  1.00  0.00     0.001 A 
ATOM     74  C   UNL     1       8.370 -15.552   6.543  1.00  0.00     0.000 A 
ENDBRANCH  50  69
BRANCH  62  75
ATOM     75  C   UNL     1      13.661 -14.150  -0.826  1.00  0.00    -0.014 A 
ATOM     76  C   UNL     1      13.997 -15.514  -0.856  1.00  0.00     0.009 A 
ATOM     77  C   UNL     1      14.692 -13.199  -0.828  1.00  0.00     0.009 A 
ATOM     78  C   UNL     1      15.331 -15.919  -0.829  1.00  0.00     0.001 A 
ATOM     79  C   UNL     1      16.028 -13.607  -0.843  1.00  0.00     0.001 A 
ATOM     80  C   UNL     1      16.346 -14.964  -0.829  1.00  0.00     0.000 A 
ENDBRANCH  62  75
ENDBRANCH  36  37
ENDBRANCH  29  31
ENDBRANCH  28  29
ENDBRANCH  27  28
ENDBRANCH   1  27
TORSDOF 15
