REMARK SMILES Cc1c(C[C@@H](C)O)c(=O)oc2cc(OCC(=O)OCCOC(=O)c3ccc(-c4c5nc(c(-c6ccccc6)c6ccc([nH]6)c(-c6ccccc6)c6nc(c(-c7ccccc7)c7ccc4[nH]7)C=C6)C=C5)cc3)ccc12
REMARK SMILES IDX 18 1 16 2 17 3 15 4 14 5 13 6 1 7 2 8 3 9 74 10 8 11 11 12
REMARK SMILES IDX 73 13 9 14 10 15 12 16 72 17 4 18 5 19 6 20 7 21 19 23 20 24
REMARK SMILES IDX 21 25 22 26 23 27 24 28 25 29 71 30 26 31 70 32 27 33 28 34
REMARK SMILES IDX 29 35 64 36 30 37 69 38 63 39 65 40 31 41 68 42 62 43 61 44
REMARK SMILES IDX 32 46 54 47 39 48 53 49 40 50 43 51 52 52 66 53 41 54 42 55
REMARK SMILES IDX 51 57 67 58 44 59 33 60 34 61 38 62 35 63 37 64 36 65 55 66
REMARK SMILES IDX 56 67 60 68 57 69 59 70 58 71 45 72 46 73 50 74 47 75 49 76
REMARK SMILES IDX 48 77
REMARK H PARENT 7 22 65 45 43 56
REMARK Flexibility Score: inf
ROOT
ATOM      1  O   UNL     1       3.423   3.157  -2.359  1.00  0.00    -0.460 OA
ENDROOT
BRANCH   1   2
ATOM      2  C   UNL     1       3.637   3.831  -1.197  1.00  0.00     0.344 C 
ATOM      3  O   UNL     1       3.443   5.031  -1.035  1.00  0.00    -0.248 OA
BRANCH   2   4
ATOM      4  C   UNL     1       4.180   2.939  -0.082  1.00  0.00     0.351 C 
BRANCH   4   5
ATOM      5  O   UNL     1       4.270   1.542  -0.298  1.00  0.00    -0.482 OA
BRANCH   5   6
ATOM      6  C   UNL     1       3.173   0.764  -0.065  1.00  0.00     0.123 A 
ATOM      7  C   UNL     1       0.167  -3.458   0.515  1.00  0.00     0.046 C 
ATOM      8  C   UNL     1      -0.119  -1.986   0.369  1.00  0.00    -0.030 A 
ATOM      9  C   UNL     1      -1.357  -1.451   0.290  1.00  0.00     0.044 A 
ATOM     10  C   UNL     1       1.044  -1.087   0.252  1.00  0.00     0.021 A 
ATOM     11  C   UNL     1      -1.556   0.029   0.301  1.00  0.00     0.339 A 
ATOM     12  C   UNL     1       0.848   0.283   0.353  1.00  0.00     0.142 A 
ATOM     13  C   UNL     1       2.347  -1.526  -0.013  1.00  0.00     0.016 A 
ATOM     14  O   UNL     1      -2.672   0.532   0.219  1.00  0.00    -0.246 OA
ATOM     15  O   UNL     1      -0.438   0.816   0.522  1.00  0.00    -0.422 OA
ATOM     16  C   UNL     1       1.893   1.207   0.233  1.00  0.00     0.094 A 
ATOM     17  C   UNL     1       3.393  -0.608  -0.183  1.00  0.00     0.047 A 
BRANCH   9  18
ATOM     18  C   UNL     1      -2.650  -2.240   0.221  1.00  0.00     0.075 C 
BRANCH  18  19
ATOM     19  C   UNL     1      -3.109  -2.546  -1.219  1.00  0.00     0.116 C 
ATOM     20  C   UNL     1      -2.180  -3.493  -1.974  1.00  0.00     0.038 C 
BRANCH  19  21
ATOM     21  O   UNL     1      -4.406  -3.148  -1.175  1.00  0.00    -0.393 OA
ATOM     22  H   UNL     1      -4.356  -3.989  -0.695  1.00  0.00     0.210 HD
ENDBRANCH  19  21
ENDBRANCH  18  19
ENDBRANCH   9  18
ENDBRANCH   5   6
ENDBRANCH   4   5
ENDBRANCH   2   4
ENDBRANCH   1   2
BRANCH   1  23
ATOM     23  C   UNL     1       2.904   3.940  -3.454  1.00  0.00     0.274 C 
BRANCH  23  24
ATOM     24  C   UNL     1       1.391   3.771  -3.565  1.00  0.00     0.275 C 
BRANCH  24  25
ATOM     25  O   UNL     1       0.773   4.200  -2.340  1.00  0.00    -0.458 OA
BRANCH  25  26
ATOM     26  C   UNL     1      -0.272   3.453  -1.924  1.00  0.00     0.338 C 
ATOM     27  O   UNL     1      -0.773   2.506  -2.521  1.00  0.00    -0.246 OA
BRANCH  26  28
ATOM     28  C   UNL     1      -0.744   3.914  -0.600  1.00  0.00     0.060 A 
ATOM     29  C   UNL     1       0.141   4.422   0.358  1.00  0.00     0.016 A 
ATOM     30  C   UNL     1      -2.085   3.719  -0.266  1.00  0.00     0.016 A 
ATOM     31  C   UNL     1      -0.294   4.639   1.667  1.00  0.00     0.010 A 
ATOM     32  C   UNL     1      -2.538   4.021   1.020  1.00  0.00     0.010 A 
ATOM     33  C   UNL     1      -1.643   4.455   2.009  1.00  0.00    -0.014 A 
BRANCH  33  34
ATOM     34  C   UNL     1      -2.132   4.729   3.386  1.00  0.00     0.031 A 
ATOM     35  C   UNL     1      -2.754   3.639   4.218  1.00  0.00     0.074 A 
ATOM     36  C   UNL     1      -2.057   5.980   3.881  1.00  0.00     0.049 A 
ATOM     37  N   UNL     1      -3.367   3.731   5.373  1.00  0.00    -0.248 NA
ATOM     38  C   UNL     1      -2.682   2.269   3.685  1.00  0.00     0.031 C 
ATOM     39  C   UNL     1      -1.464   7.130   3.195  1.00  0.00     0.029 A 
ATOM     40  N   UNL     1      -2.496   6.495   5.075  1.00  0.00    -0.354 N 
ATOM     41  C   UNL     1      -3.786   2.443   5.685  1.00  0.00     0.074 A 
ATOM     42  C   UNL     1      -3.357   1.586   4.600  1.00  0.00     0.031 C 
ATOM     43  C   UNL     1      -1.562   8.210   3.984  1.00  0.00     0.029 A 
ATOM     44  C   UNL     1      -2.285   7.846   5.197  1.00  0.00     0.049 A 
ATOM     45  H   UNL     1      -2.920   5.949   5.776  1.00  0.00     0.167 HD
ATOM     46  C   UNL     1      -4.471   2.014   6.773  1.00  0.00     0.031 A 
ATOM     47  C   UNL     1      -2.666   8.712   6.153  1.00  0.00     0.031 A 
ATOM     48  C   UNL     1      -4.895   2.858   7.859  1.00  0.00     0.049 A 
ATOM     49  C   UNL     1      -3.468   8.222   7.320  1.00  0.00     0.074 A 
ATOM     50  C   UNL     1      -5.573   2.503   9.013  1.00  0.00     0.029 A 
ATOM     51  N   UNL     1      -4.686   4.226   7.924  1.00  0.00    -0.354 N 
ATOM     52  N   UNL     1      -3.867   7.005   7.593  1.00  0.00    -0.248 NA
ATOM     53  C   UNL     1      -3.882   9.231   8.305  1.00  0.00     0.031 C 
ATOM     54  C   UNL     1      -5.806   3.664   9.761  1.00  0.00     0.029 A 
ATOM     55  C   UNL     1      -5.237   4.733   9.089  1.00  0.00     0.049 A 
ATOM     56  H   UNL     1      -4.214   4.758   7.243  1.00  0.00     0.167 HD
ATOM     57  C   UNL     1      -4.575   7.099   8.782  1.00  0.00     0.074 A 
ATOM     58  C   UNL     1      -4.534   8.489   9.189  1.00  0.00     0.031 C 
ATOM     59  C   UNL     1      -5.204   6.119   9.474  1.00  0.00     0.031 A 
BRANCH  46  60
ATOM     60  C   UNL     1      -4.836   0.558   6.833  1.00  0.00    -0.014 A 
ATOM     61  C   UNL     1      -3.886  -0.417   7.173  1.00  0.00     0.009 A 
ATOM     62  C   UNL     1      -6.165   0.166   6.606  1.00  0.00     0.009 A 
ATOM     63  C   UNL     1      -4.258  -1.760   7.265  1.00  0.00     0.001 A 
ATOM     64  C   UNL     1      -6.536  -1.175   6.717  1.00  0.00     0.001 A 
ATOM     65  C   UNL     1      -5.582  -2.137   7.042  1.00  0.00     0.000 A 
ENDBRANCH  46  60
BRANCH  47  66
ATOM     66  C   UNL     1      -2.325  10.149   6.013  1.00  0.00    -0.014 A 
ATOM     67  C   UNL     1      -1.318  10.720   6.803  1.00  0.00     0.009 A 
ATOM     68  C   UNL     1      -2.987  10.946   5.066  1.00  0.00     0.009 A 
ATOM     69  C   UNL     1      -0.986  12.068   6.652  1.00  0.00     0.001 A 
ATOM     70  C   UNL     1      -2.636  12.286   4.901  1.00  0.00     0.001 A 
ATOM     71  C   UNL     1      -1.639  12.847   5.697  1.00  0.00     0.000 A 
ENDBRANCH  47  66
BRANCH  59  72
ATOM     72  C   UNL     1      -5.882   6.521  10.749  1.00  0.00    -0.014 A 
ATOM     73  C   UNL     1      -7.113   7.194  10.731  1.00  0.00     0.009 A 
ATOM     74  C   UNL     1      -5.286   6.217  11.983  1.00  0.00     0.009 A 
ATOM     75  C   UNL     1      -7.720   7.584  11.927  1.00  0.00     0.001 A 
ATOM     76  C   UNL     1      -5.905   6.590  13.176  1.00  0.00     0.001 A 
ATOM     77  C   UNL     1      -7.116   7.281  13.147  1.00  0.00     0.000 A 
ENDBRANCH  59  72
ENDBRANCH  33  34
ENDBRANCH  26  28
ENDBRANCH  25  26
ENDBRANCH  24  25
ENDBRANCH  23  24
ENDBRANCH   1  23
TORSDOF 16
