REMARK SMILES CCn1ccc(NC(=O)[C@H]2[C@@H](C(=O)OCCOC(=O)c3ccc(-c4c5nc(c(-c6ccccc6)c6ccc([nH]6)c(-c6ccccc6)c6nc(c(-c7ccccc7)c7ccc4[nH]7)C=C6)C=C5)cc3)[C@H]3C=C[C@@H]2C3)n1
REMARK SMILES IDX 15 1 14 2 12 3 13 4 11 5 10 6 71 7 68 8 70 9 72 10 69 11
REMARK SMILES IDX 8 12 7 13 9 15 6 16 3 17 4 18 73 19 5 20 2 21 1 22 16 23
REMARK SMILES IDX 17 24 18 25 19 26 20 27 21 28 67 29 22 30 66 31 23 32 24 33
REMARK SMILES IDX 25 34 60 35 26 36 65 37 59 38 61 39 27 40 64 41 58 42 57 43
REMARK SMILES IDX 28 45 50 46 35 47 49 48 36 49 39 50 48 51 62 52 37 53 38 54
REMARK SMILES IDX 47 56 63 57 40 58 29 59 30 60 34 61 31 62 33 63 32 64 51 65
REMARK SMILES IDX 52 66 56 67 53 68 55 69 54 70 41 71 42 72 46 73 43 74 45 75
REMARK SMILES IDX 44 76
REMARK H PARENT 7 14 61 44 39 55
REMARK Flexibility Score: inf
ROOT
ATOM      1  C   UNL     1       4.717  -7.072  -7.447  1.00  0.00     0.274 C 
ENDROOT
BRANCH   1   2
ATOM      2  O   UNL     1       4.630  -6.614  -6.096  1.00  0.00    -0.462 OA
BRANCH   2   3
ATOM      3  C   UNL     1       3.578  -7.048  -5.360  1.00  0.00     0.310 C 
ATOM      4  O   UNL     1       2.663  -7.760  -5.767  1.00  0.00    -0.252 OA
BRANCH   3   5
ATOM      5  C   UNL     1       3.649  -6.579  -3.929  1.00  0.00     0.119 C 
ATOM      6  C   UNL     1       2.773  -5.332  -3.598  1.00  0.00     0.100 C 
ATOM      7  C   UNL     1       3.803  -4.410  -2.882  1.00  0.00     0.025 C 
ATOM      8  C   UNL     1       5.046  -6.201  -3.354  1.00  0.00     0.027 C 
ATOM      9  C   UNL     1       4.867  -3.965  -3.852  1.00  0.00    -0.027 C 
ATOM     10  C   UNL     1       4.619  -5.443  -2.093  1.00  0.00     0.017 C 
ATOM     11  C   UNL     1       5.640  -5.029  -4.101  1.00  0.00    -0.027 C 
BRANCH   6  12
ATOM     12  C   UNL     1       2.034  -4.645  -4.742  1.00  0.00     0.230 C 
ATOM     13  N   UNL     1       1.174  -3.627  -4.492  1.00  0.00    -0.309 N 
ATOM     14  H   UNL     1       0.726  -3.276  -5.295  1.00  0.00     0.171 HD
ATOM     15  O   UNL     1       2.200  -4.940  -5.926  1.00  0.00    -0.274 OA
BRANCH  13  16
ATOM     16  C   UNL     1       0.813  -3.000  -3.336  1.00  0.00     0.154 A 
ATOM     17  N   UNL     1       0.195  -1.336  -2.196  1.00  0.00    -0.271 N 
ATOM     18  C   UNL     1       0.573  -2.253  -1.266  1.00  0.00     0.111 A 
ATOM     19  N   UNL     1       0.281  -1.784  -3.455  1.00  0.00    -0.155 NA
ATOM     20  C   UNL     1       0.910  -3.377  -1.980  1.00  0.00     0.068 A 
BRANCH  17  21
ATOM     21  C   UNL     1      -0.351  -0.020  -1.945  1.00  0.00     0.141 C 
ATOM     22  C   UNL     1      -1.851  -0.104  -1.752  1.00  0.00     0.029 C 
ENDBRANCH  17  21
ENDBRANCH  13  16
ENDBRANCH   6  12
ENDBRANCH   3   5
ENDBRANCH   2   3
ENDBRANCH   1   2
BRANCH   1  23
ATOM     23  C   UNL     1       5.494  -8.375  -7.493  1.00  0.00     0.275 C 
BRANCH  23  24
ATOM     24  O   UNL     1       4.688  -9.450  -7.022  1.00  0.00    -0.458 OA
BRANCH  24  25
ATOM     25  C   UNL     1       4.762  -9.753  -5.706  1.00  0.00     0.338 C 
ATOM     26  O   UNL     1       5.353  -9.151  -4.828  1.00  0.00    -0.246 OA
BRANCH  25  27
ATOM     27  C   UNL     1       4.136 -11.066  -5.516  1.00  0.00     0.060 A 
ATOM     28  C   UNL     1       4.050 -11.578  -4.218  1.00  0.00     0.016 A 
ATOM     29  C   UNL     1       3.882 -11.860  -6.644  1.00  0.00     0.016 A 
ATOM     30  C   UNL     1       3.883 -12.939  -4.062  1.00  0.00     0.010 A 
ATOM     31  C   UNL     1       3.748 -13.213  -6.489  1.00  0.00     0.010 A 
ATOM     32  C   UNL     1       3.822 -13.744  -5.205  1.00  0.00    -0.014 A 
BRANCH  32  33
ATOM     33  C   UNL     1       3.687 -15.175  -5.058  1.00  0.00     0.031 A 
ATOM     34  C   UNL     1       2.341 -15.569  -4.596  1.00  0.00     0.074 A 
ATOM     35  C   UNL     1       4.638 -16.036  -5.468  1.00  0.00     0.049 A 
ATOM     36  N   UNL     1       2.035 -16.113  -3.469  1.00  0.00    -0.248 NA
ATOM     37  C   UNL     1       1.180 -15.158  -5.407  1.00  0.00     0.031 C 
ATOM     38  C   UNL     1       5.878 -15.721  -6.188  1.00  0.00     0.029 A 
ATOM     39  N   UNL     1       4.641 -17.397  -5.431  1.00  0.00    -0.354 N 
ATOM     40  C   UNL     1       0.663 -16.317  -3.521  1.00  0.00     0.074 A 
ATOM     41  C   UNL     1       0.169 -15.541  -4.628  1.00  0.00     0.031 C 
ATOM     42  C   UNL     1       6.393 -16.857  -6.711  1.00  0.00     0.029 A 
ATOM     43  C   UNL     1       5.604 -17.985  -6.245  1.00  0.00     0.049 A 
ATOM     44  H   UNL     1       4.017 -17.919  -4.877  1.00  0.00     0.167 HD
ATOM     45  C   UNL     1       0.097 -17.360  -2.860  1.00  0.00     0.031 A 
ATOM     46  C   UNL     1       5.719 -19.303  -6.536  1.00  0.00     0.031 A 
ATOM     47  C   UNL     1       0.995 -17.910  -1.878  1.00  0.00     0.049 A 
ATOM     48  C   UNL     1       4.996 -20.053  -5.490  1.00  0.00     0.074 A 
ATOM     49  C   UNL     1       1.531 -17.488  -0.681  1.00  0.00     0.029 A 
ATOM     50  N   UNL     1       1.787 -18.928  -2.346  1.00  0.00    -0.354 N 
ATOM     51  N   UNL     1       5.404 -20.122  -4.257  1.00  0.00    -0.248 NA
ATOM     52  C   UNL     1       3.614 -20.456  -5.713  1.00  0.00     0.031 C 
ATOM     53  C   UNL     1       2.814 -18.105  -0.593  1.00  0.00     0.029 A 
ATOM     54  C   UNL     1       3.000 -18.922  -1.709  1.00  0.00     0.049 A 
ATOM     55  H   UNL     1       1.522 -19.572  -3.041  1.00  0.00     0.167 HD
ATOM     56  C   UNL     1       4.238 -20.117  -3.513  1.00  0.00     0.074 A 
ATOM     57  C   UNL     1       3.193 -20.518  -4.446  1.00  0.00     0.031 C 
ATOM     58  C   UNL     1       4.193 -19.486  -2.305  1.00  0.00     0.031 A 
BRANCH  45  59
ATOM     59  C   UNL     1      -1.013 -18.188  -3.462  1.00  0.00    -0.014 A 
ATOM     60  C   UNL     1      -1.588 -19.209  -2.688  1.00  0.00     0.009 A 
ATOM     61  C   UNL     1      -1.300 -18.200  -4.842  1.00  0.00     0.009 A 
ATOM     62  C   UNL     1      -2.376 -20.208  -3.275  1.00  0.00     0.001 A 
ATOM     63  C   UNL     1      -2.116 -19.172  -5.425  1.00  0.00     0.001 A 
ATOM     64  C   UNL     1      -2.637 -20.190  -4.643  1.00  0.00     0.000 A 
ENDBRANCH  45  59
BRANCH  46  65
ATOM     65  C   UNL     1       6.261 -19.984  -7.727  1.00  0.00    -0.014 A 
ATOM     66  C   UNL     1       6.673 -21.325  -7.657  1.00  0.00     0.009 A 
ATOM     67  C   UNL     1       6.092 -19.412  -9.000  1.00  0.00     0.009 A 
ATOM     68  C   UNL     1       6.852 -22.085  -8.820  1.00  0.00     0.001 A 
ATOM     69  C   UNL     1       6.271 -20.172 -10.161  1.00  0.00     0.001 A 
ATOM     70  C   UNL     1       6.632 -21.514 -10.071  1.00  0.00     0.000 A 
ENDBRANCH  46  65
BRANCH  58  71
ATOM     71  C   UNL     1       5.513 -19.188  -1.641  1.00  0.00    -0.014 A 
ATOM     72  C   UNL     1       6.477 -18.317  -2.177  1.00  0.00     0.009 A 
ATOM     73  C   UNL     1       5.756 -19.760  -0.384  1.00  0.00     0.009 A 
ATOM     74  C   UNL     1       7.667 -18.058  -1.488  1.00  0.00     0.001 A 
ATOM     75  C   UNL     1       6.932 -19.483   0.314  1.00  0.00     0.001 A 
ATOM     76  C   UNL     1       7.891 -18.639  -0.242  1.00  0.00     0.000 A 
ENDBRANCH  58  71
ENDBRANCH  32  33
ENDBRANCH  25  27
ENDBRANCH  24  25
ENDBRANCH  23  24
ENDBRANCH   1  23
TORSDOF 14
