REMARK SMILES O=C(OCCOC(=O)[C@@H]1CCCN(c2ccc3cc(S(=O)(=O)N4CCCCC4)ccc3n2)C1)c1ccc(-c2c3nc(c(-c4ccccc4)c4ccc([nH]4)c(-c4ccccc4)c4nc(c(-c5ccccc5)c5ccc2[nH]5)C=C4)C=C3)cc1
REMARK SMILES IDX 5 1 4 2 3 3 2 4 1 5 34 6 35 7 81 8 36 9 80 10 37 11 38 12
REMARK SMILES IDX 39 13 74 14 40 15 79 16 73 17 75 18 41 19 78 20 72 21 71 22
REMARK SMILES IDX 42 24 64 25 49 26 63 27 50 28 53 29 62 30 76 31 51 32 52 33
REMARK SMILES IDX 61 35 77 36 54 37 43 38 44 39 48 40 45 41 47 42 46 43 65 44
REMARK SMILES IDX 66 45 70 46 67 47 69 48 68 49 55 50 56 51 60 52 57 53 59 54
REMARK SMILES IDX 58 55 6 56 7 57 8 58 9 59 10 60 33 61 11 62 13 63 12 64
REMARK SMILES IDX 14 65 15 66 32 67 16 68 31 69 17 70 30 71 18 72 29 73 19 74
REMARK SMILES IDX 20 75 21 76 22 77 23 78 24 79 28 80 25 81 27 82 26 83
REMARK H PARENT 75 23 53 34
REMARK Flexibility Score: inf
ROOT
ATOM      1  C   UNL     1       3.649   0.187   1.897  1.00  0.00     0.274 C 
ENDROOT
BRANCH   1   2
ATOM      2  C   UNL     1       4.242   1.238   0.965  1.00  0.00     0.275 C 
BRANCH   2   3
ATOM      3  O   UNL     1       3.361   1.610  -0.118  1.00  0.00    -0.458 OA
BRANCH   3   4
ATOM      4  C   UNL     1       3.012   0.966  -1.255  1.00  0.00     0.338 C 
ATOM      5  O   UNL     1       2.042   1.390  -1.884  1.00  0.00    -0.246 OA
BRANCH   4   6
ATOM      6  C   UNL     1       3.702  -0.246  -1.815  1.00  0.00     0.060 A 
ATOM      7  C   UNL     1       5.022  -0.637  -1.566  1.00  0.00     0.016 A 
ATOM      8  C   UNL     1       2.960  -1.021  -2.731  1.00  0.00     0.016 A 
ATOM      9  C   UNL     1       5.562  -1.796  -2.158  1.00  0.00     0.010 A 
ATOM     10  C   UNL     1       3.500  -2.162  -3.341  1.00  0.00     0.010 A 
ATOM     11  C   UNL     1       4.809  -2.565  -3.052  1.00  0.00    -0.014 A 
BRANCH  11  12
ATOM     12  C   UNL     1       5.400  -3.724  -3.771  1.00  0.00     0.031 A 
ATOM     13  C   UNL     1       6.067  -3.500  -5.090  1.00  0.00     0.074 A 
ATOM     14  C   UNL     1       5.313  -4.975  -3.282  1.00  0.00     0.049 A 
ATOM     15  N   UNL     1       6.665  -4.372  -5.857  1.00  0.00    -0.248 NA
ATOM     16  C   UNL     1       6.097  -2.119  -5.594  1.00  0.00     0.031 C 
ATOM     17  C   UNL     1       4.780  -5.309  -1.977  1.00  0.00     0.029 A 
ATOM     18  N   UNL     1       5.643  -6.196  -3.812  1.00  0.00    -0.354 N 
ATOM     19  C   UNL     1       7.186  -3.642  -6.910  1.00  0.00     0.074 A 
ATOM     20  C   UNL     1       6.792  -2.263  -6.713  1.00  0.00     0.031 C 
ATOM     21  C   UNL     1       4.715  -6.639  -1.826  1.00  0.00     0.029 A 
ATOM     22  C   UNL     1       5.251  -7.259  -3.026  1.00  0.00     0.049 A 
ATOM     23  H   UNL     1       6.113  -6.304  -4.671  1.00  0.00     0.167 HD
ATOM     24  C   UNL     1       7.945  -4.085  -7.938  1.00  0.00     0.031 A 
ATOM     25  C   UNL     1       5.323  -8.585  -3.241  1.00  0.00     0.031 A 
ATOM     26  C   UNL     1       8.277  -5.466  -8.158  1.00  0.00     0.049 A 
ATOM     27  C   UNL     1       6.028  -9.060  -4.476  1.00  0.00     0.074 A 
ATOM     28  C   UNL     1       9.056  -6.016  -9.160  1.00  0.00     0.029 A 
ATOM     29  N   UNL     1       7.817  -6.520  -7.382  1.00  0.00    -0.354 N 
ATOM     30  N   UNL     1       6.622  -8.347  -5.402  1.00  0.00    -0.248 NA
ATOM     31  C   UNL     1       6.114 -10.512  -4.679  1.00  0.00     0.031 C 
ATOM     32  C   UNL     1       9.010  -7.409  -9.029  1.00  0.00     0.029 A 
ATOM     33  C   UNL     1       8.243  -7.723  -7.918  1.00  0.00     0.049 A 
ATOM     34  H   UNL     1       7.268  -6.426  -6.570  1.00  0.00     0.167 HD
ATOM     35  C   UNL     1       7.186  -9.260  -6.278  1.00  0.00     0.074 A 
ATOM     36  C   UNL     1       6.870 -10.580  -5.767  1.00  0.00     0.031 C 
ATOM     37  C   UNL     1       7.908  -9.024  -7.399  1.00  0.00     0.031 A 
BRANCH  24  38
ATOM     38  C   UNL     1       8.431  -3.054  -8.909  1.00  0.00    -0.014 A 
ATOM     39  C   UNL     1       9.477  -2.182  -8.570  1.00  0.00     0.009 A 
ATOM     40  C   UNL     1       7.833  -2.949 -10.172  1.00  0.00     0.009 A 
ATOM     41  C   UNL     1       9.897  -1.203  -9.472  1.00  0.00     0.001 A 
ATOM     42  C   UNL     1       8.266  -1.980 -11.077  1.00  0.00     0.001 A 
ATOM     43  C   UNL     1       9.292  -1.103 -10.724  1.00  0.00     0.000 A 
ENDBRANCH  24  38
BRANCH  25  44
ATOM     44  C   UNL     1       4.731  -9.546  -2.272  1.00  0.00    -0.014 A 
ATOM     45  C   UNL     1       5.543 -10.385  -1.494  1.00  0.00     0.009 A 
ATOM     46  C   UNL     1       3.336  -9.649  -2.141  1.00  0.00     0.009 A 
ATOM     47  C   UNL     1       4.972 -11.329  -0.635  1.00  0.00     0.001 A 
ATOM     48  C   UNL     1       2.768 -10.577  -1.264  1.00  0.00     0.001 A 
ATOM     49  C   UNL     1       3.586 -11.424  -0.520  1.00  0.00     0.000 A 
ENDBRANCH  25  44
BRANCH  37  50
ATOM     50  C   UNL     1       8.409 -10.226  -8.143  1.00  0.00    -0.014 A 
ATOM     51  C   UNL     1       7.534 -11.017  -8.902  1.00  0.00     0.009 A 
ATOM     52  C   UNL     1       9.774 -10.545  -8.115  1.00  0.00     0.009 A 
ATOM     53  C   UNL     1       8.015 -12.123  -9.602  1.00  0.00     0.001 A 
ATOM     54  C   UNL     1      10.257 -11.635  -8.839  1.00  0.00     0.001 A 
ATOM     55  C   UNL     1       9.377 -12.426  -9.576  1.00  0.00     0.000 A 
ENDBRANCH  37  50
ENDBRANCH  11  12
ENDBRANCH   4   6
ENDBRANCH   3   4
ENDBRANCH   2   3
ENDBRANCH   1   2
BRANCH   1  56
ATOM     56  O   UNL     1       3.184  -0.919   1.120  1.00  0.00    -0.462 OA
BRANCH  56  57
ATOM     57  C   UNL     1       1.999  -1.495   1.478  1.00  0.00     0.310 C 
ATOM     58  O   UNL     1       1.314  -1.149   2.429  1.00  0.00    -0.252 OA
BRANCH  57  59
ATOM     59  C   UNL     1       1.608  -2.536   0.446  1.00  0.00     0.118 C 
ATOM     60  C   UNL     1       0.446  -3.443   0.864  1.00  0.00     0.019 C 
ATOM     61  C   UNL     1       2.805  -3.391   0.069  1.00  0.00     0.133 C 
ATOM     62  C   UNL     1       0.852  -4.524   1.875  1.00  0.00     0.022 C 
ATOM     63  N   UNL     1       3.155  -4.295   1.162  1.00  0.00    -0.356 N 
ATOM     64  C   UNL     1       2.132  -5.279   1.487  1.00  0.00     0.118 C 
BRANCH  63  65
ATOM     65  C   UNL     1       4.484  -4.563   1.452  1.00  0.00     0.129 A 
ATOM     66  C   UNL     1       5.395  -3.516   1.586  1.00  0.00     0.047 A 
ATOM     67  N   UNL     1       4.890  -5.841   1.616  1.00  0.00    -0.231 NA
ATOM     68  C   UNL     1       6.719  -3.766   1.923  1.00  0.00     0.014 A 
ATOM     69  C   UNL     1       6.183  -6.098   1.915  1.00  0.00     0.073 A 
ATOM     70  C   UNL     1       7.132  -5.078   2.110  1.00  0.00     0.002 A 
ATOM     71  C   UNL     1       6.623  -7.410   2.048  1.00  0.00     0.030 A 
ATOM     72  C   UNL     1       8.448  -5.374   2.502  1.00  0.00     0.032 A 
ATOM     73  C   UNL     1       7.941  -7.723   2.424  1.00  0.00     0.024 A 
ATOM     74  C   UNL     1       8.845  -6.699   2.691  1.00  0.00     0.083 A 
BRANCH  74  75
ATOM     75  S   UNL     1      10.499  -6.941   3.321  1.00  0.00     0.243 S 
ATOM     76  O   UNL     1      11.383  -6.313   2.359  1.00  0.00    -0.207 OA
ATOM     77  O   UNL     1      10.461  -6.499   4.698  1.00  0.00    -0.207 OA
BRANCH  75  78
ATOM     78  N   UNL     1      10.836  -8.608   3.317  1.00  0.00    -0.198 NA
ATOM     79  C   UNL     1      10.192  -9.427   4.372  1.00  0.00     0.102 C 
ATOM     80  C   UNL     1      11.049  -9.235   1.993  1.00  0.00     0.102 C 
ATOM     81  C   UNL     1      10.784 -10.830   4.442  1.00  0.00     0.017 C 
ATOM     82  C   UNL     1      11.651 -10.627   2.128  1.00  0.00     0.017 C 
ATOM     83  C   UNL     1      10.825 -11.488   3.071  1.00  0.00     0.003 C 
ENDBRANCH  75  78
ENDBRANCH  74  75
ENDBRANCH  63  65
ENDBRANCH  57  59
ENDBRANCH  56  57
ENDBRANCH   1  56
TORSDOF 14
