REMARK SMILES CC1(C)CC[N@@H+]([C@H](CC(=O)OCCOC(=O)c2ccc(-c3c4nc(c(-c5ccccc5)c5ccc([nH]5)c(-c5ccccc5)c5nc(c(-c6ccccc6)c6ccc3[nH]6)C=C5)C=C4)cc2)C(F)(F)F)C1
REMARK SMILES IDX 12 1 11 2 9 3 10 4 8 5 7 6 6 7 1 8 2 9 3 10 4 11 69 12 5 13
REMARK SMILES IDX 65 15 66 16 67 17 68 18 13 19 14 20 15 21 16 22 17 23 18 24
REMARK SMILES IDX 64 25 19 26 63 27 20 28 21 29 22 30 57 31 23 32 62 33 56 34
REMARK SMILES IDX 58 35 24 36 61 37 55 38 54 39 25 41 47 42 32 43 46 44 33 45
REMARK SMILES IDX 36 46 45 47 59 48 34 49 35 50 44 52 60 53 37 54 26 55 27 56
REMARK SMILES IDX 31 57 28 58 30 59 29 60 48 61 49 62 53 63 50 64 52 65 51 66
REMARK SMILES IDX 38 67 39 68 43 69 40 70 42 71 41 72
REMARK H PARENT 6 14 58 40 36 51
REMARK Flexibility Score: inf
ROOT
ATOM      1  C   UNL     1       2.887  -2.628  -1.224  1.00  0.00     0.274 C 
ENDROOT
BRANCH   1   2
ATOM      2  O   UNL     1       3.178  -1.331  -0.657  1.00  0.00    -0.462 OA
BRANCH   2   3
ATOM      3  C   UNL     1       2.170  -0.430  -0.657  1.00  0.00     0.312 C 
ATOM      4  O   UNL     1       1.013  -0.694  -0.968  1.00  0.00    -0.252 OA
BRANCH   3   5
ATOM      5  C   UNL     1       2.636   0.995  -0.456  1.00  0.00     0.197 C 
BRANCH   5   6
ATOM      6  C   UNL     1       3.604   1.399   0.676  1.00  0.00     0.302 C 
BRANCH   6   7
ATOM      7  N   UNL     1       3.046   1.469   2.046  1.00  0.00    -0.324 N 
ATOM      8  C   UNL     1      -0.123   1.081   1.885  1.00  0.00     0.017 C 
ATOM      9  C   UNL     1       0.842   1.577   2.963  1.00  0.00     0.019 C 
ATOM     10  C   UNL     1       0.032   2.359   4.000  1.00  0.00     0.017 C 
ATOM     11  C   UNL     1       1.598   0.411   3.611  1.00  0.00     0.073 C 
ATOM     12  C   UNL     1       1.969   2.408   2.337  1.00  0.00     0.269 C 
ATOM     13  C   UNL     1       2.846   0.216   2.757  1.00  0.00     0.263 C 
ATOM     14  H   UNL     1       3.877   1.911   2.439  1.00  0.00     0.348 HD
ENDBRANCH   6   7
BRANCH   6  15
ATOM     15  C   UNL     1       4.981   0.689   0.549  1.00  0.00     0.441 C 
ATOM     16  F   UNL     1       5.417   0.720  -0.734  1.00  0.00    -0.165 F 
ATOM     17  F   UNL     1       5.918   1.326   1.294  1.00  0.00    -0.165 F 
ATOM     18  F   UNL     1       4.966  -0.598   0.949  1.00  0.00    -0.165 F 
ENDBRANCH   6  15
ENDBRANCH   5   6
ENDBRANCH   3   5
ENDBRANCH   2   3
ENDBRANCH   1   2
BRANCH   1  19
ATOM     19  C   UNL     1       2.493  -3.667  -0.177  1.00  0.00     0.275 C 
BRANCH  19  20
ATOM     20  O   UNL     1       1.109  -3.511   0.199  1.00  0.00    -0.458 OA
BRANCH  20  21
ATOM     21  C   UNL     1       0.910  -3.117   1.470  1.00  0.00     0.338 C 
ATOM     22  O   UNL     1       1.770  -2.890   2.316  1.00  0.00    -0.246 OA
BRANCH  21  23
ATOM     23  C   UNL     1      -0.516  -2.999   1.803  1.00  0.00     0.060 A 
ATOM     24  C   UNL     1      -1.303  -2.022   1.201  1.00  0.00     0.016 A 
ATOM     25  C   UNL     1      -0.985  -3.688   2.926  1.00  0.00     0.016 A 
ATOM     26  C   UNL     1      -2.492  -1.629   1.823  1.00  0.00     0.010 A 
ATOM     27  C   UNL     1      -2.211  -3.342   3.501  1.00  0.00     0.010 A 
ATOM     28  C   UNL     1      -2.943  -2.257   3.000  1.00  0.00    -0.014 A 
BRANCH  28  29
ATOM     29  C   UNL     1      -4.128  -1.726   3.735  1.00  0.00     0.031 A 
ATOM     30  C   UNL     1      -4.004  -1.199   5.148  1.00  0.00     0.074 A 
ATOM     31  C   UNL     1      -5.320  -1.636   3.115  1.00  0.00     0.049 A 
ATOM     32  N   UNL     1      -4.949  -0.775   5.954  1.00  0.00    -0.248 NA
ATOM     33  C   UNL     1      -2.655  -1.141   5.734  1.00  0.00     0.031 C 
ATOM     34  C   UNL     1      -5.591  -2.053   1.739  1.00  0.00     0.029 A 
ATOM     35  N   UNL     1      -6.515  -1.117   3.548  1.00  0.00    -0.354 N 
ATOM     36  C   UNL     1      -4.319  -0.453   7.151  1.00  0.00     0.074 A 
ATOM     37  C   UNL     1      -2.908  -0.715   6.966  1.00  0.00     0.031 C 
ATOM     38  C   UNL     1      -6.837  -1.683   1.409  1.00  0.00     0.029 A 
ATOM     39  C   UNL     1      -7.480  -1.082   2.574  1.00  0.00     0.049 A 
ATOM     40  H   UNL     1      -6.665  -0.800   4.469  1.00  0.00     0.167 HD
ATOM     41  C   UNL     1      -4.864   0.012   8.302  1.00  0.00     0.031 A 
ATOM     42  C   UNL     1      -8.748  -0.632   2.605  1.00  0.00     0.031 A 
ATOM     43  C   UNL     1      -6.257   0.325   8.489  1.00  0.00     0.049 A 
ATOM     44  C   UNL     1      -9.330  -0.125   3.888  1.00  0.00     0.074 A 
ATOM     45  C   UNL     1      -6.897   0.763   9.638  1.00  0.00     0.029 A 
ATOM     46  N   UNL     1      -7.219   0.264   7.497  1.00  0.00    -0.354 N 
ATOM     47  N   UNL     1      -8.744   0.046   5.046  1.00  0.00    -0.248 NA
ATOM     48  C   UNL     1     -10.761   0.209   3.875  1.00  0.00     0.031 C 
ATOM     49  C   UNL     1      -8.252   0.953   9.343  1.00  0.00     0.029 A 
ATOM     50  C   UNL     1      -8.447   0.657   8.005  1.00  0.00     0.049 A 
ATOM     51  H   UNL     1      -7.056  -0.016   6.568  1.00  0.00     0.167 HD
ATOM     52  C   UNL     1      -9.742   0.471   5.910  1.00  0.00     0.074 A 
ATOM     53  C   UNL     1     -10.960   0.578   5.133  1.00  0.00     0.031 C 
ATOM     54  C   UNL     1      -9.658   0.726   7.237  1.00  0.00     0.031 A 
BRANCH  41  55
ATOM     55  C   UNL     1      -3.955   0.187   9.484  1.00  0.00    -0.014 A 
ATOM     56  C   UNL     1      -3.177   1.342   9.638  1.00  0.00     0.009 A 
ATOM     57  C   UNL     1      -3.950  -0.783  10.500  1.00  0.00     0.009 A 
ATOM     58  C   UNL     1      -2.401   1.519  10.787  1.00  0.00     0.001 A 
ATOM     59  C   UNL     1      -3.185  -0.596  11.652  1.00  0.00     0.001 A 
ATOM     60  C   UNL     1      -2.409   0.554  11.794  1.00  0.00     0.000 A 
ENDBRANCH  41  55
BRANCH  42  61
ATOM     61  C   UNL     1      -9.566  -0.684   1.371  1.00  0.00    -0.014 A 
ATOM     62  C   UNL     1      -9.816   0.487   0.642  1.00  0.00     0.009 A 
ATOM     63  C   UNL     1     -10.063  -1.908   0.897  1.00  0.00     0.009 A 
ATOM     64  C   UNL     1     -10.549   0.432  -0.544  1.00  0.00     0.001 A 
ATOM     65  C   UNL     1     -10.777  -1.961  -0.300  1.00  0.00     0.001 A 
ATOM     66  C   UNL     1     -11.021  -0.792  -1.018  1.00  0.00     0.000 A 
ENDBRANCH  42  61
BRANCH  54  67
ATOM     67  C   UNL     1     -10.931   1.101   7.933  1.00  0.00    -0.014 A 
ATOM     68  C   UNL     1     -11.848   0.107   8.310  1.00  0.00     0.009 A 
ATOM     69  C   UNL     1     -11.217   2.443   8.219  1.00  0.00     0.009 A 
ATOM     70  C   UNL     1     -13.045   0.456   8.937  1.00  0.00     0.001 A 
ATOM     71  C   UNL     1     -12.410   2.786   8.857  1.00  0.00     0.001 A 
ATOM     72  C   UNL     1     -13.326   1.794   9.209  1.00  0.00     0.000 A 
ENDBRANCH  54  67
ENDBRANCH  28  29
ENDBRANCH  21  23
ENDBRANCH  20  21
ENDBRANCH  19  20
ENDBRANCH   1  19
TORSDOF 14
