REMARK SMILES COc1ccc2c(c1)c(CC(=O)OCCOC(=O)c1ccc(-c3c4nc(c(-c5ccccc5)c5ccc([nH]5)c(-c5ccccc5)c5nc(c(-c6ccccc6)c6ccc3[nH]6)C=C5)C=C4)cc1)c(C(F)(F)F)n2C(=O)c1ccc(Cl)cc1
REMARK SMILES IDX 14 1 13 2 11 3 12 4 10 5 9 6 3 7 4 8 8 9 5 10 7 11 6 12
REMARK SMILES IDX 72 13 67 14 2 15 1 16 73 17 74 18 75 19 76 20 81 21 77 22
REMARK SMILES IDX 80 23 78 24 79 25 68 26 69 27 70 28 71 29 15 30 16 31 17 32
REMARK SMILES IDX 18 33 19 34 20 35 66 36 21 37 65 38 22 39 23 40 24 41 59 42
REMARK SMILES IDX 25 43 64 44 58 45 60 46 26 47 63 48 57 49 56 50 27 52 49 53
REMARK SMILES IDX 34 54 48 55 35 56 38 57 47 58 61 59 36 60 37 61 46 63 62 64
REMARK SMILES IDX 39 65 28 66 29 67 33 68 30 69 32 70 31 71 50 72 51 73 55 74
REMARK SMILES IDX 52 75 54 76 53 77 40 78 41 79 45 80 42 81 44 82 43 83
REMARK H PARENT 60 51 38 62
REMARK Flexibility Score: inf
ROOT
ATOM      1  C   UNL     1      -1.630  -0.855   6.982  1.00  0.00     0.274 C 
ENDROOT
BRANCH   1   2
ATOM      2  O   UNL     1      -1.100  -1.991   6.264  1.00  0.00    -0.462 OA
BRANCH   2   3
ATOM      3  C   UNL     1      -1.986  -2.986   6.029  1.00  0.00     0.310 C 
ATOM      4  O   UNL     1      -3.163  -2.964   6.380  1.00  0.00    -0.252 OA
BRANCH   3   5
ATOM      5  C   UNL     1      -1.408  -4.213   5.390  1.00  0.00     0.161 C 
BRANCH   5   6
ATOM      6  C   UNL     1      -0.016  -4.252   4.810  1.00  0.00     0.002 A 
ATOM      7  C   UNL     1       1.048  -1.781   2.031  1.00  0.00     0.119 A 
ATOM      8  C   UNL     1       2.214  -2.438   1.694  1.00  0.00     0.048 A 
ATOM      9  C   UNL     1       0.288  -2.254   3.115  1.00  0.00     0.057 A 
ATOM     10  C   UNL     1       2.623  -3.563   2.416  1.00  0.00     0.031 A 
ATOM     11  C   UNL     1       0.625  -3.434   3.821  1.00  0.00     0.008 A 
ATOM     12  C   UNL     1       1.838  -4.051   3.487  1.00  0.00     0.057 A 
ATOM     13  N   UNL     1       2.049  -5.082   4.414  1.00  0.00    -0.271 N 
ATOM     14  C   UNL     1       0.830  -5.344   5.020  1.00  0.00     0.135 A 
BRANCH   7  15
ATOM     15  O   UNL     1       0.540  -0.685   1.390  1.00  0.00    -0.497 OA
ATOM     16  C   UNL     1       1.174  -0.265   0.185  1.00  0.00     0.278 C 
ENDBRANCH   7  15
BRANCH  13  17
ATOM     17  C   UNL     1       3.284  -5.712   4.709  1.00  0.00     0.262 C 
ATOM     18  O   UNL     1       3.328  -6.517   5.633  1.00  0.00    -0.268 OA
BRANCH  17  19
ATOM     19  C   UNL     1       4.551  -5.399   4.041  1.00  0.00     0.040 A 
ATOM     20  C   UNL     1       5.196  -4.192   4.332  1.00  0.00     0.015 A 
ATOM     21  C   UNL     1       5.047  -6.274   3.070  1.00  0.00     0.015 A 
ATOM     22  C   UNL     1       6.323  -3.830   3.598  1.00  0.00     0.021 A 
ATOM     23  C   UNL     1       6.180  -5.906   2.342  1.00  0.00     0.021 A 
ATOM     24  C   UNL     1       6.804  -4.682   2.600  1.00  0.00     0.041 A 
ATOM     25  Cl  UNL     1       8.162  -4.205   1.661  1.00  0.00    -0.084 Cl
ENDBRANCH  17  19
ENDBRANCH  13  17
BRANCH  14  26
ATOM     26  C   UNL     1       0.519  -6.590   5.787  1.00  0.00     0.432 C 
ATOM     27  F   UNL     1       0.572  -6.372   7.123  1.00  0.00    -0.165 F 
ATOM     28  F   UNL     1      -0.764  -6.979   5.522  1.00  0.00    -0.165 F 
ATOM     29  F   UNL     1       1.266  -7.673   5.487  1.00  0.00    -0.165 F 
ENDBRANCH  14  26
ENDBRANCH   5   6
ENDBRANCH   3   5
ENDBRANCH   2   3
ENDBRANCH   1   2
BRANCH   1  30
ATOM     30  C   UNL     1      -1.968   0.286   6.019  1.00  0.00     0.275 C 
BRANCH  30  31
ATOM     31  O   UNL     1      -3.128  -0.082   5.257  1.00  0.00    -0.458 OA
BRANCH  31  32
ATOM     32  C   UNL     1      -2.971  -0.228   3.919  1.00  0.00     0.338 C 
ATOM     33  O   UNL     1      -2.090   0.238   3.218  1.00  0.00    -0.246 OA
BRANCH  32  34
ATOM     34  C   UNL     1      -3.852  -1.349   3.546  1.00  0.00     0.060 A 
ATOM     35  C   UNL     1      -5.176  -1.381   3.981  1.00  0.00     0.016 A 
ATOM     36  C   UNL     1      -3.257  -2.482   2.985  1.00  0.00     0.016 A 
ATOM     37  C   UNL     1      -5.848  -2.596   3.987  1.00  0.00     0.010 A 
ATOM     38  C   UNL     1      -3.903  -3.703   3.054  1.00  0.00     0.010 A 
ATOM     39  C   UNL     1      -5.177  -3.768   3.604  1.00  0.00    -0.014 A 
BRANCH  39  40
ATOM     40  C   UNL     1      -5.925  -5.009   3.504  1.00  0.00     0.031 A 
ATOM     41  C   UNL     1      -6.666  -5.107   2.229  1.00  0.00     0.074 A 
ATOM     42  C   UNL     1      -5.930  -6.064   4.338  1.00  0.00     0.049 A 
ATOM     43  N   UNL     1      -7.931  -4.928   2.062  1.00  0.00    -0.248 NA
ATOM     44  C   UNL     1      -5.899  -5.282   0.989  1.00  0.00     0.031 C 
ATOM     45  C   UNL     1      -5.052  -6.388   5.459  1.00  0.00     0.029 A 
ATOM     46  N   UNL     1      -6.765  -7.141   4.274  1.00  0.00    -0.354 N 
ATOM     47  C   UNL     1      -8.157  -5.090   0.705  1.00  0.00     0.074 A 
ATOM     48  C   UNL     1      -6.861  -5.161   0.076  1.00  0.00     0.031 C 
ATOM     49  C   UNL     1      -5.286  -7.668   5.852  1.00  0.00     0.029 A 
ATOM     50  C   UNL     1      -6.439  -8.182   5.126  1.00  0.00     0.049 A 
ATOM     51  H   UNL     1      -7.541  -7.176   3.668  1.00  0.00     0.167 HD
ATOM     52  C   UNL     1      -9.399  -5.331   0.213  1.00  0.00     0.031 A 
ATOM     53  C   UNL     1      -7.082  -9.373   5.195  1.00  0.00     0.031 A 
ATOM     54  C   UNL     1     -10.426  -5.068   1.187  1.00  0.00     0.049 A 
ATOM     55  C   UNL     1      -8.445  -9.183   4.647  1.00  0.00     0.074 A 
ATOM     56  C   UNL     1     -10.837  -3.942   1.873  1.00  0.00     0.029 A 
ATOM     57  N   UNL     1     -10.912  -6.141   1.895  1.00  0.00    -0.354 N 
ATOM     58  N   UNL     1      -9.369  -8.474   5.226  1.00  0.00    -0.248 NA
ATOM     59  C   UNL     1      -8.697  -9.514   3.254  1.00  0.00     0.031 C 
ATOM     60  C   UNL     1     -11.149  -4.399   3.188  1.00  0.00     0.029 A 
ATOM     61  C   UNL     1     -10.962  -5.783   3.222  1.00  0.00     0.049 A 
ATOM     62  H   UNL     1     -11.178  -7.012   1.520  1.00  0.00     0.167 HD
ATOM     63  C   UNL     1     -10.081  -7.902   4.184  1.00  0.00     0.074 A 
ATOM     64  C   UNL     1      -9.716  -8.687   3.009  1.00  0.00     0.031 C 
ATOM     65  C   UNL     1     -10.683  -6.683   4.325  1.00  0.00     0.031 A 
BRANCH  52  66
ATOM     66  C   UNL     1      -9.638  -6.100  -1.052  1.00  0.00    -0.014 A 
ATOM     67  C   UNL     1      -8.681  -6.971  -1.611  1.00  0.00     0.009 A 
ATOM     68  C   UNL     1     -10.928  -6.137  -1.602  1.00  0.00     0.009 A 
ATOM     69  C   UNL     1      -8.978  -7.811  -2.685  1.00  0.00     0.001 A 
ATOM     70  C   UNL     1     -11.242  -7.011  -2.650  1.00  0.00     0.001 A 
ATOM     71  C   UNL     1     -10.267  -7.843  -3.194  1.00  0.00     0.000 A 
ENDBRANCH  52  66
BRANCH  53  72
ATOM     72  C   UNL     1      -6.558 -10.733   5.440  1.00  0.00    -0.014 A 
ATOM     73  C   UNL     1      -5.267 -11.072   5.003  1.00  0.00     0.009 A 
ATOM     74  C   UNL     1      -7.437 -11.778   5.774  1.00  0.00     0.009 A 
ATOM     75  C   UNL     1      -4.893 -12.410   4.835  1.00  0.00     0.001 A 
ATOM     76  C   UNL     1      -7.063 -13.117   5.604  1.00  0.00     0.001 A 
ATOM     77  C   UNL     1      -5.798 -13.431   5.112  1.00  0.00     0.000 A 
ENDBRANCH  53  72
BRANCH  65  78
ATOM     78  C   UNL     1     -10.818  -6.116   5.726  1.00  0.00    -0.014 A 
ATOM     79  C   UNL     1     -12.071  -5.628   6.131  1.00  0.00     0.009 A 
ATOM     80  C   UNL     1      -9.732  -5.938   6.603  1.00  0.00     0.009 A 
ATOM     81  C   UNL     1     -12.236  -4.991   7.365  1.00  0.00     0.001 A 
ATOM     82  C   UNL     1      -9.902  -5.330   7.853  1.00  0.00     0.001 A 
ATOM     83  C   UNL     1     -11.153  -4.850   8.230  1.00  0.00     0.000 A 
ENDBRANCH  65  78
ENDBRANCH  39  40
ENDBRANCH  32  34
ENDBRANCH  31  32
ENDBRANCH  30  31
ENDBRANCH   1  30
TORSDOF 16
