REMARK SMILES C[C@H](NC(=O)c1cccc(NC(=O)c2ccccc2C(=O)OCCOC(=O)c2ccc(-c3c4nc(c(-c5ccccc5)c5ccc([nH]5)c(-c5ccccc5)c5nc(c(-c6ccccc6)c6ccc3[nH]6)C=C5)C=C4)cc2)c1)c1ccccc1
REMARK SMILES IDX 22 1 20 2 21 3 19 4 14 5 15 6 16 7 18 8 17 9 12 10 11 11
REMARK SMILES IDX 13 13 10 14 6 15 7 16 76 17 8 18 9 19 4 20 3 21 5 23 2 24
REMARK SMILES IDX 1 25 77 26 78 27 82 28 79 29 81 30 80 31 23 32 24 33 25 34
REMARK SMILES IDX 26 35 27 36 28 37 29 38 75 39 30 40 74 41 31 42 32 43 33 44
REMARK SMILES IDX 68 45 34 46 73 47 67 48 69 49 35 50 72 51 66 52 65 53 36 55
REMARK SMILES IDX 58 56 43 57 57 58 44 59 47 60 56 61 70 62 45 63 46 64 55 66
REMARK SMILES IDX 71 67 48 68 37 69 38 70 42 71 39 72 41 73 40 74 59 75 60 76
REMARK SMILES IDX 64 77 61 78 63 79 62 80 49 81 50 82 54 83 51 84 53 85 52 86
REMARK H PARENT 11 12 3 22 69 54 47 65
REMARK Flexibility Score: inf
ROOT
ATOM      1  O   UNL     1       2.474  -5.524   1.625  1.00  0.00    -0.458 OA
ENDROOT
BRANCH   1   2
ATOM      2  C   UNL     1       3.767  -5.314   1.289  1.00  0.00     0.339 C 
ATOM      3  O   UNL     1       4.409  -4.308   1.535  1.00  0.00    -0.246 OA
BRANCH   2   4
ATOM      4  C   UNL     1       4.372  -6.433   0.540  1.00  0.00     0.072 A 
ATOM      5  C   UNL     1       3.889  -6.857  -0.700  1.00  0.00     0.054 A 
ATOM      6  C   UNL     1       4.595  -7.844  -1.415  1.00  0.00     0.015 A 
ATOM      7  C   UNL     1       5.806  -8.348  -0.936  1.00  0.00     0.001 A 
ATOM      8  C   UNL     1       5.585  -6.960   1.015  1.00  0.00     0.016 A 
ATOM      9  C   UNL     1       6.306  -7.900   0.279  1.00  0.00     0.001 A 
BRANCH   5  10
ATOM     10  C   UNL     1       2.633  -6.383  -1.307  1.00  0.00     0.256 C 
ATOM     11  N   UNL     1       2.332  -5.058  -1.517  1.00  0.00    -0.322 N 
ATOM     12  H   UNL     1       1.404  -4.913  -1.813  1.00  0.00     0.170 HD
ATOM     13  O   UNL     1       1.797  -7.236  -1.609  1.00  0.00    -0.269 OA
BRANCH  11  14
ATOM     14  C   UNL     1       3.068  -3.867  -1.397  1.00  0.00     0.042 A 
ATOM     15  C   UNL     1       2.961  -1.490  -0.901  1.00  0.00     0.041 A 
ATOM     16  C   UNL     1       4.355  -1.447  -0.810  1.00  0.00     0.014 A 
ATOM     17  C   UNL     1       2.325  -2.689  -1.239  1.00  0.00     0.040 A 
ATOM     18  C   UNL     1       5.103  -2.594  -1.069  1.00  0.00     0.003 A 
ATOM     19  C   UNL     1       4.462  -3.797  -1.383  1.00  0.00     0.026 A 
BRANCH  15  20
ATOM     20  C   UNL     1       2.204  -0.226  -0.751  1.00  0.00     0.251 C 
ATOM     21  N   UNL     1       1.028  -0.159  -0.048  1.00  0.00    -0.346 N 
ATOM     22  H   UNL     1       0.451   0.605  -0.275  1.00  0.00     0.164 HD
ATOM     23  O   UNL     1       2.639   0.791  -1.286  1.00  0.00    -0.269 OA
BRANCH  21  24
ATOM     24  C   UNL     1       0.500  -1.043   0.983  1.00  0.00     0.109 C 
ATOM     25  C   UNL     1       1.037  -0.640   2.359  1.00  0.00     0.036 C 
BRANCH  24  26
ATOM     26  C   UNL     1      -1.019  -1.063   0.992  1.00  0.00    -0.026 A 
ATOM     27  C   UNL     1      -1.777   0.117   1.081  1.00  0.00     0.006 A 
ATOM     28  C   UNL     1      -1.701  -2.292   0.971  1.00  0.00     0.006 A 
ATOM     29  C   UNL     1      -3.171   0.067   1.143  1.00  0.00     0.000 A 
ATOM     30  C   UNL     1      -3.095  -2.340   1.042  1.00  0.00     0.000 A 
ATOM     31  C   UNL     1      -3.830  -1.160   1.128  1.00  0.00     0.000 A 
ENDBRANCH  24  26
ENDBRANCH  21  24
ENDBRANCH  15  20
ENDBRANCH  11  14
ENDBRANCH   5  10
ENDBRANCH   2   4
ENDBRANCH   1   2
BRANCH   1  32
ATOM     32  C   UNL     1       1.828  -4.364   2.188  1.00  0.00     0.275 C 
BRANCH  32  33
ATOM     33  C   UNL     1       1.821  -4.334   3.717  1.00  0.00     0.275 C 
BRANCH  33  34
ATOM     34  O   UNL     1       3.136  -4.104   4.254  1.00  0.00    -0.458 OA
BRANCH  34  35
ATOM     35  C   UNL     1       3.804  -5.233   4.563  1.00  0.00     0.338 C 
ATOM     36  O   UNL     1       3.402  -6.384   4.467  1.00  0.00    -0.246 OA
BRANCH  35  37
ATOM     37  C   UNL     1       5.182  -4.946   4.972  1.00  0.00     0.060 A 
ATOM     38  C   UNL     1       6.160  -4.946   3.984  1.00  0.00     0.016 A 
ATOM     39  C   UNL     1       5.545  -4.976   6.314  1.00  0.00     0.016 A 
ATOM     40  C   UNL     1       7.486  -5.153   4.307  1.00  0.00     0.010 A 
ATOM     41  C   UNL     1       6.902  -5.038   6.647  1.00  0.00     0.010 A 
ATOM     42  C   UNL     1       7.879  -5.183   5.644  1.00  0.00    -0.014 A 
BRANCH  42  43
ATOM     43  C   UNL     1       9.305  -5.416   5.968  1.00  0.00     0.031 A 
ATOM     44  C   UNL     1       9.695  -6.595   6.813  1.00  0.00     0.074 A 
ATOM     45  C   UNL     1      10.246  -4.595   5.462  1.00  0.00     0.049 A 
ATOM     46  N   UNL     1      10.848  -6.869   7.363  1.00  0.00    -0.248 NA
ATOM     47  C   UNL     1       8.645  -7.590   7.091  1.00  0.00     0.031 C 
ATOM     48  C   UNL     1       9.998  -3.469   4.555  1.00  0.00     0.029 A 
ATOM     49  N   UNL     1      11.606  -4.586   5.630  1.00  0.00    -0.354 N 
ATOM     50  C   UNL     1      10.646  -8.025   8.107  1.00  0.00     0.074 A 
ATOM     51  C   UNL     1       9.260  -8.402   7.939  1.00  0.00     0.031 C 
ATOM     52  C   UNL     1      11.166  -2.907   4.217  1.00  0.00     0.029 A 
ATOM     53  C   UNL     1      12.229  -3.553   4.972  1.00  0.00     0.049 A 
ATOM     54  H   UNL     1      12.090  -5.254   6.167  1.00  0.00     0.167 HD
ATOM     55  C   UNL     1      11.540  -8.698   8.868  1.00  0.00     0.031 A 
ATOM     56  C   UNL     1      13.503  -3.128   5.023  1.00  0.00     0.031 A 
ATOM     57  C   UNL     1      12.923  -8.318   8.996  1.00  0.00     0.049 A 
ATOM     58  C   UNL     1      14.455  -3.847   5.931  1.00  0.00     0.074 A 
ATOM     59  C   UNL     1      13.922  -8.923   9.736  1.00  0.00     0.029 A 
ATOM     60  N   UNL     1      13.502  -7.231   8.354  1.00  0.00    -0.354 N 
ATOM     61  N   UNL     1      14.243  -4.902   6.681  1.00  0.00    -0.248 NA
ATOM     62  C   UNL     1      15.817  -3.309   6.011  1.00  0.00     0.031 C 
ATOM     63  C   UNL     1      15.091  -8.170   9.587  1.00  0.00     0.029 A 
ATOM     64  C   UNL     1      14.838  -7.135   8.700  1.00  0.00     0.049 A 
ATOM     65  H   UNL     1      13.031  -6.620   7.743  1.00  0.00     0.167 HD
ATOM     66  C   UNL     1      15.449  -5.165   7.312  1.00  0.00     0.074 A 
ATOM     67  C   UNL     1      16.394  -4.174   6.832  1.00  0.00     0.031 C 
ATOM     68  C   UNL     1      15.751  -6.133   8.211  1.00  0.00     0.031 A 
BRANCH  55  69
ATOM     69  C   UNL     1      11.035  -9.870   9.667  1.00  0.00    -0.014 A 
ATOM     70  C   UNL     1      10.639 -11.071   9.058  1.00  0.00     0.009 A 
ATOM     71  C   UNL     1      10.973  -9.770  11.067  1.00  0.00     0.009 A 
ATOM     72  C   UNL     1      10.158 -12.132   9.832  1.00  0.00     0.001 A 
ATOM     73  C   UNL     1      10.523 -10.842  11.839  1.00  0.00     0.001 A 
ATOM     74  C   UNL     1      10.105 -12.018  11.220  1.00  0.00     0.000 A 
ENDBRANCH  55  69
BRANCH  56  75
ATOM     75  C   UNL     1      13.920  -1.926   4.253  1.00  0.00    -0.014 A 
ATOM     76  C   UNL     1      14.832  -2.036   3.193  1.00  0.00     0.009 A 
ATOM     77  C   UNL     1      13.397  -0.660   4.567  1.00  0.00     0.009 A 
ATOM     78  C   UNL     1      15.225  -0.901   2.479  1.00  0.00     0.001 A 
ATOM     79  C   UNL     1      13.763   0.466   3.828  1.00  0.00     0.001 A 
ATOM     80  C   UNL     1      14.685   0.346   2.791  1.00  0.00     0.000 A 
ENDBRANCH  56  75
BRANCH  68  81
ATOM     81  C   UNL     1      17.172  -6.180   8.695  1.00  0.00    -0.014 A 
ATOM     82  C   UNL     1      17.683  -5.196   9.556  1.00  0.00     0.009 A 
ATOM     83  C   UNL     1      18.005  -7.234   8.290  1.00  0.00     0.009 A 
ATOM     84  C   UNL     1      19.016  -5.245   9.966  1.00  0.00     0.001 A 
ATOM     85  C   UNL     1      19.326  -7.299   8.730  1.00  0.00     0.001 A 
ATOM     86  C   UNL     1      19.834  -6.298   9.557  1.00  0.00     0.000 A 
ENDBRANCH  68  81
ENDBRANCH  42  43
ENDBRANCH  35  37
ENDBRANCH  34  35
ENDBRANCH  33  34
ENDBRANCH  32  33
ENDBRANCH   1  32
TORSDOF 16
