REMARK SMILES NC(=O)[C@@H]1CCCCN1c1cncc(C(=O)OCCOC(=O)c2ccc(-c3c4nc(c(-c5ccccc5)c5ccc([nH]5)c(-c5ccccc5)c5nc(c(-c6ccccc6)c6ccc3[nH]6)C=C5)C=C4)cc2)n1
REMARK SMILES IDX 18 1 17 2 15 3 16 4 14 5 10 6 11 7 71 8 12 9 13 10 9 11 4 12
REMARK SMILES IDX 5 13 6 14 8 15 7 16 2 17 1 18 3 21 19 22 20 23 21 24 22 25
REMARK SMILES IDX 23 26 24 27 70 28 25 29 69 30 26 31 27 32 28 33 63 34 29 35
REMARK SMILES IDX 68 36 62 37 64 38 30 39 67 40 61 41 60 42 31 44 53 45 38 46
REMARK SMILES IDX 52 47 39 48 42 49 51 50 65 51 40 52 41 53 50 55 66 56 43 57
REMARK SMILES IDX 32 58 33 59 37 60 34 61 36 62 35 63 54 64 55 65 59 66 56 67
REMARK SMILES IDX 58 68 57 69 44 70 45 71 49 72 46 73 48 74 47 75
REMARK H PARENT 1 19 1 20 64 43 42 54
REMARK Flexibility Score: inf
ROOT
ATOM      1  C   UNL     1       2.371   2.511   4.094  1.00  0.00     0.275 C 
ENDROOT
BRANCH   1   2
ATOM      2  O   UNL     1       1.887   2.798   2.765  1.00  0.00    -0.457 OA
BRANCH   2   3
ATOM      3  C   UNL     1       0.536   2.873   2.630  1.00  0.00     0.358 C 
ATOM      4  O   UNL     1      -0.287   2.690   3.511  1.00  0.00    -0.244 OA
BRANCH   3   5
ATOM      5  C   UNL     1       0.162   3.328   1.270  1.00  0.00     0.169 A 
ATOM      6  C   UNL     1       0.478   3.348  -1.005  1.00  0.00     0.148 A 
ATOM      7  C   UNL     1      -0.607   4.233  -1.104  1.00  0.00     0.157 A 
ATOM      8  N   UNL     1       0.905   2.924   0.206  1.00  0.00    -0.220 NA
ATOM      9  N   UNL     1      -1.347   4.649  -0.051  1.00  0.00    -0.258 NA
ATOM     10  C   UNL     1      -0.959   4.135   1.134  1.00  0.00     0.147 A 
BRANCH   6  11
ATOM     11  N   UNL     1       1.061   2.834  -2.138  1.00  0.00    -0.343 N 
ATOM     12  C   UNL     1       1.311   1.391  -2.300  1.00  0.00     0.172 C 
ATOM     13  C   UNL     1       2.821   1.141  -2.275  1.00  0.00     0.035 C 
ATOM     14  C   UNL     1       3.516   2.002  -3.334  1.00  0.00     0.004 C 
ATOM     15  C   UNL     1       1.669   3.727  -3.113  1.00  0.00     0.119 C 
ATOM     16  C   UNL     1       3.180   3.485  -3.147  1.00  0.00     0.022 C 
BRANCH  12  17
ATOM     17  C   UNL     1       0.484   0.468  -1.374  1.00  0.00     0.240 C 
ATOM     18  N   UNL     1       1.056   0.055  -0.206  1.00  0.00    -0.368 N 
ATOM     19  H   UNL     1       0.557  -0.533   0.406  1.00  0.00     0.159 HD
ATOM     20  H   UNL     1       1.968   0.345   0.025  1.00  0.00     0.159 HD
ATOM     21  O   UNL     1      -0.667   0.119  -1.639  1.00  0.00    -0.273 OA
ENDBRANCH  12  17
ENDBRANCH   6  11
ENDBRANCH   3   5
ENDBRANCH   2   3
ENDBRANCH   1   2
BRANCH   1  22
ATOM     22  C   UNL     1       2.789   3.791   4.818  1.00  0.00     0.275 C 
BRANCH  22  23
ATOM     23  O   UNL     1       1.634   4.621   5.043  1.00  0.00    -0.458 OA
BRANCH  23  24
ATOM     24  C   UNL     1       1.736   5.906   4.638  1.00  0.00     0.338 C 
ATOM     25  O   UNL     1       2.712   6.459   4.152  1.00  0.00    -0.246 OA
BRANCH  24  26
ATOM     26  C   UNL     1       0.448   6.593   4.832  1.00  0.00     0.060 A 
ATOM     27  C   UNL     1      -0.699   6.079   4.234  1.00  0.00     0.016 A 
ATOM     28  C   UNL     1       0.395   7.819   5.491  1.00  0.00     0.016 A 
ATOM     29  C   UNL     1      -1.872   6.829   4.195  1.00  0.00     0.010 A 
ATOM     30  C   UNL     1      -0.816   8.521   5.549  1.00  0.00     0.010 A 
ATOM     31  C   UNL     1      -1.955   8.057   4.865  1.00  0.00    -0.014 A 
BRANCH  31  32
ATOM     32  C   UNL     1      -3.207   8.868   4.813  1.00  0.00     0.031 A 
ATOM     33  C   UNL     1      -3.175  10.286   4.297  1.00  0.00     0.074 A 
ATOM     34  C   UNL     1      -4.386   8.346   5.213  1.00  0.00     0.049 A 
ATOM     35  N   UNL     1      -4.108  11.205   4.344  1.00  0.00    -0.248 NA
ATOM     36  C   UNL     1      -1.926  10.735   3.661  1.00  0.00     0.031 C 
ATOM     37  C   UNL     1      -4.594   6.979   5.696  1.00  0.00     0.029 A 
ATOM     38  N   UNL     1      -5.640   8.907   5.267  1.00  0.00    -0.354 N 
ATOM     39  C   UNL     1      -3.535  12.356   3.815  1.00  0.00     0.074 A 
ATOM     40  C   UNL     1      -2.177  12.019   3.446  1.00  0.00     0.031 C 
ATOM     41  C   UNL     1      -5.898   6.794   5.951  1.00  0.00     0.029 A 
ATOM     42  C   UNL     1      -6.606   8.052   5.740  1.00  0.00     0.049 A 
ATOM     43  H   UNL     1      -5.828   9.833   4.992  1.00  0.00     0.167 HD
ATOM     44  C   UNL     1      -4.086  13.583   3.657  1.00  0.00     0.031 A 
ATOM     45  C   UNL     1      -7.907   8.257   6.020  1.00  0.00     0.031 A 
ATOM     46  C   UNL     1      -5.455  13.908   3.957  1.00  0.00     0.049 A 
ATOM     47  C   UNL     1      -8.495   9.626   5.838  1.00  0.00     0.074 A 
ATOM     48  C   UNL     1      -6.107  15.120   3.801  1.00  0.00     0.029 A 
ATOM     49  N   UNL     1      -6.388  13.012   4.452  1.00  0.00    -0.354 N 
ATOM     50  N   UNL     1      -7.922  10.717   5.393  1.00  0.00    -0.248 NA
ATOM     51  C   UNL     1      -9.905   9.795   6.216  1.00  0.00     0.031 C 
ATOM     52  C   UNL     1      -7.428  14.965   4.235  1.00  0.00     0.029 A 
ATOM     53  C   UNL     1      -7.608  13.647   4.620  1.00  0.00     0.049 A 
ATOM     54  H   UNL     1      -6.211  12.065   4.654  1.00  0.00     0.167 HD
ATOM     55  C   UNL     1      -8.900  11.700   5.436  1.00  0.00     0.074 A 
ATOM     56  C   UNL     1     -10.110  11.072   5.924  1.00  0.00     0.031 C 
ATOM     57  C   UNL     1      -8.801  13.011   5.109  1.00  0.00     0.031 A 
BRANCH  44  58
ATOM     58  C   UNL     1      -3.192  14.691   3.174  1.00  0.00    -0.014 A 
ATOM     59  C   UNL     1      -2.791  14.786   1.834  1.00  0.00     0.009 A 
ATOM     60  C   UNL     1      -2.789  15.688   4.077  1.00  0.00     0.009 A 
ATOM     61  C   UNL     1      -1.979  15.844   1.415  1.00  0.00     0.001 A 
ATOM     62  C   UNL     1      -1.999  16.757   3.651  1.00  0.00     0.001 A 
ATOM     63  C   UNL     1      -1.589  16.830   2.321  1.00  0.00     0.000 A 
ENDBRANCH  44  58
BRANCH  45  64
ATOM     64  C   UNL     1      -8.730   7.146   6.565  1.00  0.00    -0.014 A 
ATOM     65  C   UNL     1      -9.740   6.556   5.790  1.00  0.00     0.009 A 
ATOM     66  C   UNL     1      -8.504   6.668   7.866  1.00  0.00     0.009 A 
ATOM     67  C   UNL     1     -10.515   5.519   6.314  1.00  0.00     0.001 A 
ATOM     68  C   UNL     1      -9.259   5.611   8.374  1.00  0.00     0.001 A 
ATOM     69  C   UNL     1     -10.269   5.042   7.601  1.00  0.00     0.000 A 
ENDBRANCH  45  64
BRANCH  57  70
ATOM     70  C   UNL     1     -10.041  13.845   5.250  1.00  0.00    -0.014 A 
ATOM     71  C   UNL     1     -10.495  14.258   6.512  1.00  0.00     0.009 A 
ATOM     72  C   UNL     1     -10.747  14.243   4.105  1.00  0.00     0.009 A 
ATOM     73  C   UNL     1     -11.651  15.031   6.625  1.00  0.00     0.001 A 
ATOM     74  C   UNL     1     -11.890  15.035   4.220  1.00  0.00     0.001 A 
ATOM     75  C   UNL     1     -12.346  15.421   5.480  1.00  0.00     0.000 A 
ENDBRANCH  57  70
ENDBRANCH  31  32
ENDBRANCH  24  26
ENDBRANCH  23  24
ENDBRANCH  22  23
ENDBRANCH   1  22
TORSDOF 13
