REMARK SMILES CNc1cc(C(=O)N2CCC[C@@](CCOC)(C(=O)OCCOC(=O)c3ccc(-c4c5nc(c(-c6ccccc6)c6ccc([nH]6)c(-c6ccccc6)c6nc(c(-c7ccccc7)c7ccc4[nH]7)C=C6)C=C5)cc3)C2)ccn1
REMARK SMILES IDX 20 1 19 2 17 3 18 4 12 5 8 6 9 7 73 8 10 9 11 10 6 11 7 12
REMARK SMILES IDX 5 13 3 14 4 15 76 16 75 17 74 18 2 19 1 20 13 22 14 23 15 24
REMARK SMILES IDX 16 25 21 26 22 27 23 28 24 29 25 30 26 31 72 32 27 33 71 34
REMARK SMILES IDX 28 35 29 36 30 37 65 38 31 39 70 40 64 41 66 42 32 43 69 44
REMARK SMILES IDX 63 45 62 46 33 48 55 49 40 50 54 51 41 52 44 53 53 54 67 55
REMARK SMILES IDX 42 56 43 57 52 59 68 60 45 61 34 62 35 63 39 64 36 65 38 66
REMARK SMILES IDX 37 67 56 68 57 69 61 70 58 71 60 72 59 73 46 74 47 75 51 76
REMARK SMILES IDX 48 77 50 78 49 79
REMARK H PARENT 2 21 66 47 44 58
REMARK Flexibility Score: inf
ROOT
ATOM      1  C   UNL     1      -6.656   1.325   2.882  1.00  0.00     0.274 C 
ENDROOT
BRANCH   1   2
ATOM      2  O   UNL     1      -6.216   0.046   2.377  1.00  0.00    -0.462 OA
BRANCH   2   3
ATOM      3  C   UNL     1      -5.771   0.004   1.092  1.00  0.00     0.314 C 
ATOM      4  O   UNL     1      -5.560   0.995   0.400  1.00  0.00    -0.252 OA
BRANCH   3   5
ATOM      5  C   UNL     1      -5.561  -1.428   0.576  1.00  0.00     0.088 C 
ATOM      6  N   UNL     1      -3.825  -2.799  -0.611  1.00  0.00    -0.337 N 
ATOM      7  C   UNL     1      -3.845  -3.854   0.393  1.00  0.00     0.120 C 
ATOM      8  C   UNL     1      -4.196  -1.447  -0.172  1.00  0.00     0.138 C 
ATOM      9  C   UNL     1      -5.129  -3.863   1.205  1.00  0.00     0.023 C 
ATOM     10  C   UNL     1      -5.468  -2.465   1.722  1.00  0.00     0.022 C 
BRANCH   6  11
ATOM     11  C   UNL     1      -3.346  -3.105  -1.879  1.00  0.00     0.254 C 
ATOM     12  O   UNL     1      -3.525  -4.190  -2.426  1.00  0.00    -0.269 OA
BRANCH  11  13
ATOM     13  C   UNL     1      -2.449  -2.133  -2.541  1.00  0.00     0.045 A 
ATOM     14  C   UNL     1      -0.423  -0.858  -2.485  1.00  0.00     0.126 A 
ATOM     15  C   UNL     1      -1.363  -1.629  -1.825  1.00  0.00     0.060 A 
ATOM     16  N   UNL     1      -0.560  -0.541  -3.786  1.00  0.00    -0.240 NA
ATOM     17  C   UNL     1      -1.603  -1.068  -4.468  1.00  0.00     0.114 A 
ATOM     18  C   UNL     1      -2.563  -1.881  -3.900  1.00  0.00     0.034 A 
BRANCH  14  19
ATOM     19  N   UNL     1       0.721  -0.407  -1.874  1.00  0.00    -0.373 N 
ATOM     20  C   UNL     1       1.427  -1.214  -0.909  1.00  0.00     0.141 C 
ATOM     21  H   UNL     1       1.067   0.486  -2.100  1.00  0.00     0.161 HD
ENDBRANCH  14  19
ENDBRANCH  11  13
ENDBRANCH   6  11
BRANCH   5  22
ATOM     22  C   UNL     1      -6.702  -1.731  -0.443  1.00  0.00     0.049 C 
BRANCH  22  23
ATOM     23  C   UNL     1      -8.069  -2.028   0.176  1.00  0.00     0.161 C 
BRANCH  23  24
ATOM     24  O   UNL     1      -8.508  -0.908   0.935  1.00  0.00    -0.385 OA
ATOM     25  C   UNL     1      -9.285  -1.293   2.061  1.00  0.00     0.194 C 
ENDBRANCH  23  24
ENDBRANCH  22  23
ENDBRANCH   5  22
ENDBRANCH   3   5
ENDBRANCH   2   3
ENDBRANCH   1   2
BRANCH   1  26
ATOM     26  C   UNL     1      -5.936   1.658   4.186  1.00  0.00     0.275 C 
BRANCH  26  27
ATOM     27  O   UNL     1      -4.575   2.013   3.890  1.00  0.00    -0.458 OA
BRANCH  27  28
ATOM     28  C   UNL     1      -3.665   1.039   4.092  1.00  0.00     0.338 C 
ATOM     29  O   UNL     1      -3.817  -0.043   4.635  1.00  0.00    -0.246 OA
BRANCH  28  30
ATOM     30  C   UNL     1      -2.441   1.411   3.377  1.00  0.00     0.060 A 
ATOM     31  C   UNL     1      -2.384   1.114   2.018  1.00  0.00     0.016 A 
ATOM     32  C   UNL     1      -1.333   1.932   4.040  1.00  0.00     0.016 A 
ATOM     33  C   UNL     1      -1.188   1.243   1.327  1.00  0.00     0.010 A 
ATOM     34  C   UNL     1      -0.150   2.140   3.322  1.00  0.00     0.010 A 
ATOM     35  C   UNL     1      -0.055   1.758   1.970  1.00  0.00    -0.014 A 
BRANCH  35  36
ATOM     36  C   UNL     1       1.242   1.779   1.244  1.00  0.00     0.031 A 
ATOM     37  C   UNL     1       2.365   0.890   1.707  1.00  0.00     0.074 A 
ATOM     38  C   UNL     1       1.370   2.463   0.089  1.00  0.00     0.049 A 
ATOM     39  N   UNL     1       3.580   0.774   1.232  1.00  0.00    -0.248 NA
ATOM     40  C   UNL     1       2.076  -0.014   2.833  1.00  0.00     0.031 C 
ATOM     41  C   UNL     1       0.311   3.244  -0.553  1.00  0.00     0.029 A 
ATOM     42  N   UNL     1       2.422   2.545  -0.790  1.00  0.00    -0.354 N 
ATOM     43  C   UNL     1       4.210  -0.173   2.029  1.00  0.00     0.074 A 
ATOM     44  C   UNL     1       3.246  -0.608   3.015  1.00  0.00     0.031 C 
ATOM     45  C   UNL     1       0.727   3.627  -1.770  1.00  0.00     0.029 A 
ATOM     46  C   UNL     1       2.112   3.211  -1.952  1.00  0.00     0.049 A 
ATOM     47  H   UNL     1       3.311   2.163  -0.607  1.00  0.00     0.167 HD
ATOM     48  C   UNL     1       5.479  -0.638   1.950  1.00  0.00     0.031 A 
ATOM     49  C   UNL     1       2.864   3.467  -3.040  1.00  0.00     0.031 A 
ATOM     50  C   UNL     1       6.430  -0.232   0.952  1.00  0.00     0.049 A 
ATOM     51  C   UNL     1       4.304   3.042  -3.041  1.00  0.00     0.074 A 
ATOM     52  C   UNL     1       7.765  -0.580   0.835  1.00  0.00     0.029 A 
ATOM     53  N   UNL     1       6.138   0.600  -0.116  1.00  0.00    -0.354 N 
ATOM     54  N   UNL     1       4.939   2.269  -2.194  1.00  0.00    -0.248 NA
ATOM     55  C   UNL     1       5.142   3.566  -4.129  1.00  0.00     0.031 C 
ATOM     56  C   UNL     1       8.289   0.074  -0.286  1.00  0.00     0.029 A 
ATOM     57  C   UNL     1       7.269   0.791  -0.890  1.00  0.00     0.049 A 
ATOM     58  H   UNL     1       5.255   0.997  -0.298  1.00  0.00     0.167 HD
ATOM     59  C   UNL     1       6.254   2.226  -2.637  1.00  0.00     0.074 A 
ATOM     60  C   UNL     1       6.316   3.017  -3.850  1.00  0.00     0.031 C 
ATOM     61  C   UNL     1       7.319   1.599  -2.080  1.00  0.00     0.031 A 
BRANCH  48  62
ATOM     62  C   UNL     1       5.923  -1.582   3.029  1.00  0.00    -0.014 A 
ATOM     63  C   UNL     1       5.526  -2.928   3.042  1.00  0.00     0.009 A 
ATOM     64  C   UNL     1       6.742  -1.102   4.063  1.00  0.00     0.009 A 
ATOM     65  C   UNL     1       5.912  -3.764   4.093  1.00  0.00     0.001 A 
ATOM     66  C   UNL     1       7.144  -1.945   5.099  1.00  0.00     0.001 A 
ATOM     67  C   UNL     1       6.721  -3.273   5.119  1.00  0.00     0.000 A 
ENDBRANCH  48  62
BRANCH  49  68
ATOM     68  C   UNL     1       2.289   4.197  -4.200  1.00  0.00    -0.014 A 
ATOM     69  C   UNL     1       2.130   3.550  -5.435  1.00  0.00     0.009 A 
ATOM     70  C   UNL     1       1.901   5.542  -4.086  1.00  0.00     0.009 A 
ATOM     71  C   UNL     1       1.601   4.236  -6.531  1.00  0.00     0.001 A 
ATOM     72  C   UNL     1       1.345   6.216  -5.174  1.00  0.00     0.001 A 
ATOM     73  C   UNL     1       1.201   5.565  -6.398  1.00  0.00     0.000 A 
ENDBRANCH  49  68
BRANCH  61  74
ATOM     74  C   UNL     1       8.641   1.757  -2.772  1.00  0.00    -0.014 A 
ATOM     75  C   UNL     1       9.360   2.958  -2.676  1.00  0.00     0.009 A 
ATOM     76  C   UNL     1       9.189   0.687  -3.494  1.00  0.00     0.009 A 
ATOM     77  C   UNL     1      10.594   3.093  -3.315  1.00  0.00     0.001 A 
ATOM     78  C   UNL     1      10.433   0.818  -4.113  1.00  0.00     0.001 A 
ATOM     79  C   UNL     1      11.131   2.022  -4.029  1.00  0.00     0.000 A 
ENDBRANCH  61  74
ENDBRANCH  35  36
ENDBRANCH  28  30
ENDBRANCH  27  28
ENDBRANCH  26  27
ENDBRANCH   1  26
TORSDOF 17
