REMARK SMILES CCCC(=O)Nc1cccc(C(=O)N[C@@H](C(=O)OCCOC(=O)c2ccc(-c3c4nc(c(-c5ccccc5)c5ccc([nH]5)c(-c5ccccc5)c5nc(c(-c6ccccc6)c6ccc3[nH]6)C=C5)C=C4)cc2)C2=C(C)N=N[C@@H]2C)c1
REMARK SMILES IDX 18 1 16 2 17 3 15 4 14 5 12 6 13 7 11 9 7 10 8 11 79 12 9 13
REMARK SMILES IDX 10 14 6 15 4 16 5 17 3 19 2 20 1 21 72 22 73 23 77 24 74 25
REMARK SMILES IDX 75 26 76 27 78 28 19 29 20 30 21 31 22 32 23 33 24 34 25 35
REMARK SMILES IDX 71 36 26 37 70 38 27 39 28 40 29 41 64 42 30 43 69 44 63 45
REMARK SMILES IDX 65 46 31 47 68 48 62 49 61 50 32 52 54 53 39 54 53 55 40 56
REMARK SMILES IDX 43 57 52 58 66 59 41 60 42 61 51 63 67 64 44 65 33 66 34 67
REMARK SMILES IDX 38 68 35 69 37 70 36 71 55 72 56 73 60 74 57 75 59 76 58 77
REMARK SMILES IDX 45 78 46 79 50 80 47 81 49 82 48 83
REMARK H PARENT 14 8 6 18 65 51 43 62
REMARK Flexibility Score: inf
ROOT
ATOM      1  O   UNL     1      -2.053  -1.542   1.440  1.00  0.00    -0.460 OA
ENDROOT
BRANCH   1   2
ATOM      2  C   UNL     1      -1.565  -0.279   1.274  1.00  0.00     0.333 C 
ATOM      3  O   UNL     1      -2.262   0.698   1.023  1.00  0.00    -0.249 OA
BRANCH   2   4
ATOM      4  C   UNL     1      -0.013  -0.230   1.400  1.00  0.00     0.223 C 
BRANCH   4   5
ATOM      5  N   UNL     1       0.517  -1.573   1.636  1.00  0.00    -0.335 N 
ATOM      6  C   UNL     1       1.139  -2.468   0.796  1.00  0.00     0.252 C 
ATOM      7  O   UNL     1       1.365  -3.605   1.200  1.00  0.00    -0.269 OA
ATOM      8  H   UNL     1       0.410  -1.893   2.561  1.00  0.00     0.165 HD
BRANCH   6   9
ATOM      9  C   UNL     1       1.641  -2.066  -0.540  1.00  0.00     0.041 A 
ATOM     10  C   UNL     1       1.551  -0.629  -2.461  1.00  0.00     0.041 A 
ATOM     11  C   UNL     1       2.863  -0.968  -2.792  1.00  0.00     0.026 A 
ATOM     12  C   UNL     1       0.897  -1.278  -1.416  1.00  0.00     0.040 A 
ATOM     13  C   UNL     1       3.548  -1.911  -2.027  1.00  0.00     0.003 A 
ATOM     14  C   UNL     1       2.950  -2.433  -0.879  1.00  0.00     0.014 A 
BRANCH  10  15
ATOM     15  N   UNL     1       0.873   0.422  -3.084  1.00  0.00    -0.326 N 
ATOM     16  C   UNL     1       1.232   1.747  -3.081  1.00  0.00     0.224 C 
ATOM     17  O   UNL     1       0.433   2.569  -3.537  1.00  0.00    -0.275 OA
ATOM     18  H   UNL     1       0.054   0.188  -3.576  1.00  0.00     0.169 HD
BRANCH  16  19
ATOM     19  C   UNL     1       2.516   2.209  -2.406  1.00  0.00     0.100 C 
BRANCH  19  20
ATOM     20  C   UNL     1       2.364   2.308  -0.886  1.00  0.00     0.006 C 
ATOM     21  C   UNL     1       3.416   1.536  -0.105  1.00  0.00     0.004 C 
ENDBRANCH  19  20
ENDBRANCH  16  19
ENDBRANCH  10  15
ENDBRANCH   6   9
ENDBRANCH   4   5
BRANCH   4  22
ATOM     22  C   UNL     1       0.479   0.761   2.405  1.00  0.00     0.012 C 
ATOM     23  C   UNL     1       0.402   2.102   2.359  1.00  0.00     0.064 C 
ATOM     24  C   UNL     1       1.154   0.466   3.707  1.00  0.00     0.156 C 
ATOM     25  C   UNL     1      -0.244   2.996   1.351  1.00  0.00     0.069 C 
ATOM     26  N   UNL     1       0.970   2.698   3.455  1.00  0.00    -0.160 NA
ATOM     27  N   UNL     1       1.369   1.828   4.270  1.00  0.00    -0.181 NA
ATOM     28  C   UNL     1       2.522  -0.198   3.630  1.00  0.00     0.040 C 
ENDBRANCH   4  22
ENDBRANCH   2   4
ENDBRANCH   1   2
BRANCH   1  29
ATOM     29  C   UNL     1      -3.476  -1.716   1.285  1.00  0.00     0.274 C 
BRANCH  29  30
ATOM     30  C   UNL     1      -4.150  -1.850   2.647  1.00  0.00     0.275 C 
BRANCH  30  31
ATOM     31  O   UNL     1      -4.003  -0.621   3.383  1.00  0.00    -0.458 OA
BRANCH  31  32
ATOM     32  C   UNL     1      -3.331  -0.705   4.548  1.00  0.00     0.338 C 
ATOM     33  O   UNL     1      -2.870  -1.722   5.068  1.00  0.00    -0.246 OA
BRANCH  32  34
ATOM     34  C   UNL     1      -3.119   0.629   5.129  1.00  0.00     0.060 A 
ATOM     35  C   UNL     1      -2.474   1.601   4.374  1.00  0.00     0.016 A 
ATOM     36  C   UNL     1      -3.355   0.854   6.484  1.00  0.00     0.016 A 
ATOM     37  C   UNL     1      -1.920   2.713   5.006  1.00  0.00     0.010 A 
ATOM     38  C   UNL     1      -2.888   2.031   7.089  1.00  0.00     0.010 A 
ATOM     39  C   UNL     1      -2.078   2.937   6.379  1.00  0.00    -0.014 A 
BRANCH  39  40
ATOM     40  C   UNL     1      -1.271   3.992   7.083  1.00  0.00     0.031 A 
ATOM     41  C   UNL     1      -0.469   3.624   8.316  1.00  0.00     0.074 A 
ATOM     42  C   UNL     1      -1.134   5.252   6.614  1.00  0.00     0.049 A 
ATOM     43  N   UNL     1       0.075   4.404   9.219  1.00  0.00    -0.248 NA
ATOM     44  C   UNL     1      -0.277   2.189   8.583  1.00  0.00     0.031 C 
ATOM     45  C   UNL     1      -1.718   5.785   5.383  1.00  0.00     0.029 A 
ATOM     46  N   UNL     1      -0.402   6.309   7.108  1.00  0.00    -0.354 N 
ATOM     47  C   UNL     1       0.548   3.558  10.216  1.00  0.00     0.074 A 
ATOM     48  C   UNL     1       0.260   2.205   9.794  1.00  0.00     0.031 C 
ATOM     49  C   UNL     1      -1.228   7.014   5.157  1.00  0.00     0.029 A 
ATOM     50  C   UNL     1      -0.404   7.414   6.292  1.00  0.00     0.049 A 
ATOM     51  H   UNL     1       0.078   6.275   7.966  1.00  0.00     0.167 HD
ATOM     52  C   UNL     1       1.152   3.878  11.387  1.00  0.00     0.031 A 
ATOM     53  C   UNL     1       0.158   8.629   6.447  1.00  0.00     0.031 A 
ATOM     54  C   UNL     1       1.573   5.204  11.753  1.00  0.00     0.049 A 
ATOM     55  C   UNL     1       0.855   8.968   7.734  1.00  0.00     0.074 A 
ATOM     56  C   UNL     1       2.174   5.630  12.925  1.00  0.00     0.029 A 
ATOM     57  N   UNL     1       1.495   6.307  10.920  1.00  0.00    -0.354 N 
ATOM     58  N   UNL     1       1.112   8.202   8.765  1.00  0.00    -0.248 NA
ATOM     59  C   UNL     1       1.299  10.362   7.894  1.00  0.00     0.031 C 
ATOM     60  C   UNL     1       2.451   6.998  12.804  1.00  0.00     0.029 A 
ATOM     61  C   UNL     1       2.052   7.410  11.544  1.00  0.00     0.049 A 
ATOM     62  H   UNL     1       1.102   6.307  10.017  1.00  0.00     0.167 HD
ATOM     63  C   UNL     1       1.742   9.019   9.694  1.00  0.00     0.074 A 
ATOM     64  C   UNL     1       1.859  10.331   9.095  1.00  0.00     0.031 C 
ATOM     65  C   UNL     1       2.170   8.710  10.942  1.00  0.00     0.031 A 
BRANCH  52  66
ATOM     66  C   UNL     1       1.328   2.775  12.392  1.00  0.00    -0.014 A 
ATOM     67  C   UNL     1       2.311   1.786  12.258  1.00  0.00     0.009 A 
ATOM     68  C   UNL     1       0.480   2.745  13.513  1.00  0.00     0.009 A 
ATOM     69  C   UNL     1       2.414   0.764  13.206  1.00  0.00     0.001 A 
ATOM     70  C   UNL     1       0.603   1.740  14.472  1.00  0.00     0.001 A 
ATOM     71  C   UNL     1       1.563   0.743  14.312  1.00  0.00     0.000 A 
ENDBRANCH  52  66
BRANCH  53  72
ATOM     72  C   UNL     1       0.038   9.653   5.375  1.00  0.00    -0.014 A 
ATOM     73  C   UNL     1       1.173  10.053   4.652  1.00  0.00     0.009 A 
ATOM     74  C   UNL     1      -1.198  10.249   5.084  1.00  0.00     0.009 A 
ATOM     75  C   UNL     1       1.072  11.039   3.667  1.00  0.00     0.001 A 
ATOM     76  C   UNL     1      -1.301  11.211   4.078  1.00  0.00     0.001 A 
ATOM     77  C   UNL     1      -0.166  11.611   3.376  1.00  0.00     0.000 A 
ENDBRANCH  53  72
BRANCH  65  78
ATOM     78  C   UNL     1       2.833   9.803  11.728  1.00  0.00    -0.014 A 
ATOM     79  C   UNL     1       2.080  10.832  12.314  1.00  0.00     0.009 A 
ATOM     80  C   UNL     1       4.226   9.794  11.895  1.00  0.00     0.009 A 
ATOM     81  C   UNL     1       2.716  11.851  13.027  1.00  0.00     0.001 A 
ATOM     82  C   UNL     1       4.856  10.804  12.625  1.00  0.00     0.001 A 
ATOM     83  C   UNL     1       4.101  11.835  13.182  1.00  0.00     0.000 A 
ENDBRANCH  65  78
ENDBRANCH  39  40
ENDBRANCH  32  34
ENDBRANCH  31  32
ENDBRANCH  30  31
ENDBRANCH  29  30
ENDBRANCH   1  29
TORSDOF 17
