REMARK SMILES O=C(CC1(NC(=O)c2ccc3cc[nH]c3c2)CCC1)OCCOC(=O)c1ccc(-c2c3nc(c(-c4ccccc4)c4ccc([nH]4)c(-c4ccccc4)c4nc(c(-c5ccccc5)c5ccc2[nH]5)C=C4)C=C3)cc1
REMARK SMILES IDX 21 1 20 2 2 3 1 4 3 5 4 6 17 7 19 8 18 9 5 10 6 11 7 13 8 14
REMARK SMILES IDX 9 15 16 16 10 17 15 18 11 19 14 20 12 21 13 22 22 24 23 25
REMARK SMILES IDX 24 26 25 27 26 28 27 29 73 30 28 31 72 32 29 33 30 34 31 35
REMARK SMILES IDX 66 36 32 37 71 38 65 39 67 40 33 41 70 42 64 43 63 44 34 46
REMARK SMILES IDX 56 47 41 48 55 49 42 50 45 51 54 52 68 53 43 54 44 55 53 57
REMARK SMILES IDX 69 58 46 59 35 60 36 61 40 62 37 63 39 64 38 65 57 66 58 67
REMARK SMILES IDX 62 68 59 69 61 70 60 71 47 72 48 73 52 74 49 75 51 76 50 77
REMARK H PARENT 5 12 14 23 67 45 45 56
REMARK Flexibility Score: inf
ROOT
ATOM      1  C   UNL     1       3.425  -1.212   0.979  1.00  0.00     0.274 C 
ENDROOT
BRANCH   1   2
ATOM      2  O   UNL     1       3.136  -0.077   1.803  1.00  0.00    -0.462 OA
BRANCH   2   3
ATOM      3  C   UNL     1       2.495   0.946   1.215  1.00  0.00     0.308 C 
ATOM      4  O   UNL     1       1.355   1.250   1.557  1.00  0.00    -0.252 OA
BRANCH   3   5
ATOM      5  C   UNL     1       3.225   1.709   0.141  1.00  0.00     0.151 C 
BRANCH   5   6
ATOM      6  C   UNL     1       4.742   1.847   0.077  1.00  0.00     0.051 C 
ATOM      7  C   UNL     1       5.089   3.313  -0.376  1.00  0.00     0.029 C 
ATOM      8  C   UNL     1       5.341   2.248   1.473  1.00  0.00     0.029 C 
ATOM      9  C   UNL     1       5.159   3.727   1.107  1.00  0.00     0.005 C 
BRANCH   6  10
ATOM     10  N   UNL     1       5.681   0.876  -0.611  1.00  0.00    -0.346 N 
ATOM     11  C   UNL     1       5.909   0.019  -1.673  1.00  0.00     0.251 C 
ATOM     12  H   UNL     1       6.491   0.839  -0.053  1.00  0.00     0.164 HD
ATOM     13  O   UNL     1       7.094  -0.284  -1.860  1.00  0.00    -0.269 OA
BRANCH  11  14
ATOM     14  C   UNL     1       4.960  -0.680  -2.553  1.00  0.00     0.041 A 
ATOM     15  C   UNL     1       4.663  -0.205  -3.834  1.00  0.00     0.014 A 
ATOM     16  C   UNL     1       4.598  -1.996  -2.220  1.00  0.00     0.040 A 
ATOM     17  C   UNL     1       3.728  -0.878  -4.652  1.00  0.00     0.011 A 
ATOM     18  C   UNL     1       3.639  -2.640  -3.021  1.00  0.00     0.046 A 
ATOM     19  C   UNL     1       3.135  -2.068  -4.187  1.00  0.00    -0.001 A 
ATOM     20  N   UNL     1       2.988  -3.844  -2.850  1.00  0.00    -0.361 N 
ATOM     21  C   UNL     1       2.046  -2.881  -4.611  1.00  0.00     0.028 A 
ATOM     22  C   UNL     1       1.948  -3.940  -3.736  1.00  0.00     0.083 A 
ATOM     23  H   UNL     1       3.234  -4.532  -2.189  1.00  0.00     0.166 HD
ENDBRANCH  11  14
ENDBRANCH   6  10
ENDBRANCH   5   6
ENDBRANCH   3   5
ENDBRANCH   2   3
ENDBRANCH   1   2
BRANCH   1  24
ATOM     24  C   UNL     1       2.281  -1.617   0.030  1.00  0.00     0.275 C 
BRANCH  24  25
ATOM     25  O   UNL     1       2.147  -0.644  -1.035  1.00  0.00    -0.458 OA
BRANCH  25  26
ATOM     26  C   UNL     1       0.907  -0.476  -1.580  1.00  0.00     0.338 C 
ATOM     27  O   UNL     1      -0.054  -1.176  -1.351  1.00  0.00    -0.246 OA
BRANCH  26  28
ATOM     28  C   UNL     1       0.843   0.767  -2.434  1.00  0.00     0.060 A 
ATOM     29  C   UNL     1      -0.381   1.403  -2.632  1.00  0.00     0.016 A 
ATOM     30  C   UNL     1       1.968   1.357  -3.013  1.00  0.00     0.016 A 
ATOM     31  C   UNL     1      -0.462   2.582  -3.400  1.00  0.00     0.010 A 
ATOM     32  C   UNL     1       1.905   2.506  -3.804  1.00  0.00     0.010 A 
ATOM     33  C   UNL     1       0.680   3.132  -4.006  1.00  0.00    -0.014 A 
BRANCH  33  34
ATOM     34  C   UNL     1       0.616   4.341  -4.862  1.00  0.00     0.031 A 
ATOM     35  C   UNL     1       0.173   4.223  -6.292  1.00  0.00     0.074 A 
ATOM     36  C   UNL     1       1.056   5.528  -4.399  1.00  0.00     0.049 A 
ATOM     37  N   UNL     1      -0.073   5.172  -7.160  1.00  0.00    -0.248 NA
ATOM     38  C   UNL     1       0.009   2.861  -6.824  1.00  0.00     0.031 C 
ATOM     39  C   UNL     1       1.624   5.764  -3.071  1.00  0.00     0.029 A 
ATOM     40  N   UNL     1       1.118   6.756  -5.011  1.00  0.00    -0.354 N 
ATOM     41  C   UNL     1      -0.462   4.526  -8.326  1.00  0.00     0.074 A 
ATOM     42  C   UNL     1      -0.366   3.104  -8.074  1.00  0.00     0.031 C 
ATOM     43  C   UNL     1       2.001   7.051  -2.979  1.00  0.00     0.029 A 
ATOM     44  C   UNL     1       1.675   7.736  -4.227  1.00  0.00     0.049 A 
ATOM     45  H   UNL     1       0.793   6.918  -5.927  1.00  0.00     0.167 HD
ATOM     46  C   UNL     1      -0.876   5.073  -9.493  1.00  0.00     0.031 A 
ATOM     47  C   UNL     1       1.883   9.043  -4.479  1.00  0.00     0.031 A 
ATOM     48  C   UNL     1      -0.924   6.489  -9.752  1.00  0.00     0.049 A 
ATOM     49  C   UNL     1       1.401   9.633  -5.776  1.00  0.00     0.074 A 
ATOM     50  C   UNL     1      -1.446   7.148 -10.852  1.00  0.00     0.029 A 
ATOM     51  N   UNL     1      -0.396   7.459  -8.917  1.00  0.00    -0.354 N 
ATOM     52  N   UNL     1       0.819   9.036  -6.788  1.00  0.00    -0.248 NA
ATOM     53  C   UNL     1       1.571  11.084  -5.951  1.00  0.00     0.031 C 
ATOM     54  C   UNL     1      -1.176   8.514 -10.711  1.00  0.00     0.029 A 
ATOM     55  C   UNL     1      -0.533   8.707  -9.499  1.00  0.00     0.049 A 
ATOM     56  H   UNL     1       0.017   7.287  -8.040  1.00  0.00     0.167 HD
ATOM     57  C   UNL     1       0.528  10.040  -7.704  1.00  0.00     0.074 A 
ATOM     58  C   UNL     1       0.984  11.285  -7.122  1.00  0.00     0.031 C 
ATOM     59  C   UNL     1      -0.066   9.938  -8.917  1.00  0.00     0.031 A 
BRANCH  46  60
ATOM     60  C   UNL     1      -1.332   4.147 -10.585  1.00  0.00    -0.014 A 
ATOM     61  C   UNL     1      -2.552   3.459 -10.479  1.00  0.00     0.009 A 
ATOM     62  C   UNL     1      -0.592   4.037 -11.773  1.00  0.00     0.009 A 
ATOM     63  C   UNL     1      -3.012   2.667 -11.532  1.00  0.00     0.001 A 
ATOM     64  C   UNL     1      -1.066   3.261 -12.833  1.00  0.00     0.001 A 
ATOM     65  C   UNL     1      -2.273   2.574 -12.710  1.00  0.00     0.000 A 
ENDBRANCH  46  60
BRANCH  47  66
ATOM     66  C   UNL     1       2.545   9.902  -3.463  1.00  0.00    -0.014 A 
ATOM     67  C   UNL     1       1.806  10.842  -2.729  1.00  0.00     0.009 A 
ATOM     68  C   UNL     1       3.926   9.797  -3.237  1.00  0.00     0.009 A 
ATOM     69  C   UNL     1       2.443  11.683  -1.813  1.00  0.00     0.001 A 
ATOM     70  C   UNL     1       4.556  10.622  -2.302  1.00  0.00     0.001 A 
ATOM     71  C   UNL     1       3.816  11.570  -1.598  1.00  0.00     0.000 A 
ENDBRANCH  47  66
BRANCH  59  72
ATOM     72  C   UNL     1      -0.266  11.206  -9.695  1.00  0.00    -0.014 A 
ATOM     73  C   UNL     1       0.815  11.853 -10.314  1.00  0.00     0.009 A 
ATOM     74  C   UNL     1      -1.556  11.737  -9.848  1.00  0.00     0.009 A 
ATOM     75  C   UNL     1       0.611  13.023 -11.048  1.00  0.00     0.001 A 
ATOM     76  C   UNL     1      -1.760  12.892 -10.604  1.00  0.00     0.001 A 
ATOM     77  C   UNL     1      -0.676  13.538 -11.197  1.00  0.00     0.000 A 
ENDBRANCH  59  72
ENDBRANCH  33  34
ENDBRANCH  26  28
ENDBRANCH  25  26
ENDBRANCH  24  25
ENDBRANCH   1  24
TORSDOF 14
