REMARK SMILES O=C(OCCOC(=O)[C@@H]1CC=CC[C@@H]1C(=O)Nc1sc2c(c1C(=O)N1CCCCC1)CCCC2)c1ccc(-c2c3nc(c(-c4ccccc4)c4ccc([nH]4)c(-c4ccccc4)c4nc(c(-c5ccccc5)c5ccc2[nH]5)C=C4)C=C3)cc1
REMARK SMILES IDX 5 1 4 2 3 3 2 4 1 5 35 6 36 7 82 8 37 9 81 10 38 11 39 12
REMARK SMILES IDX 40 13 75 14 41 15 80 16 74 17 76 18 42 19 79 20 73 21 72 22
REMARK SMILES IDX 43 24 65 25 50 26 64 27 51 28 54 29 63 30 77 31 52 32 53 33
REMARK SMILES IDX 62 35 78 36 55 37 44 38 45 39 49 40 46 41 48 42 47 43 66 44
REMARK SMILES IDX 67 45 71 46 68 47 70 48 69 49 56 50 57 51 61 52 58 53 60 54
REMARK SMILES IDX 59 55 6 56 7 57 8 58 9 59 10 60 14 61 11 62 13 63 12 64
REMARK SMILES IDX 15 65 16 66 17 67 18 69 19 70 22 71 20 72 21 73 34 74 31 75
REMARK SMILES IDX 33 76 32 77 23 78 24 79 25 80 26 81 30 82 27 83 29 84 28 85
REMARK H PARENT 76 23 54 34 17 68
REMARK Flexibility Score: inf
ROOT
ATOM      1  C   UNL     1       1.577  -5.632  -1.828  1.00  0.00     0.274 C 
ENDROOT
BRANCH   1   2
ATOM      2  C   UNL     1       1.346  -6.191  -0.418  1.00  0.00     0.275 C 
BRANCH   2   3
ATOM      3  O   UNL     1       0.884  -5.305   0.617  1.00  0.00    -0.458 OA
BRANCH   3   4
ATOM      4  C   UNL     1       1.587  -4.384   1.317  1.00  0.00     0.338 C 
ATOM      5  O   UNL     1       1.080  -3.769   2.249  1.00  0.00    -0.246 OA
BRANCH   4   6
ATOM      6  C   UNL     1       2.967  -4.038   0.908  1.00  0.00     0.060 A 
ATOM      7  C   UNL     1       3.912  -5.005   0.566  1.00  0.00     0.016 A 
ATOM      8  C   UNL     1       3.333  -2.681   0.907  1.00  0.00     0.016 A 
ATOM      9  C   UNL     1       5.164  -4.631   0.110  1.00  0.00     0.010 A 
ATOM     10  C   UNL     1       4.620  -2.299   0.521  1.00  0.00     0.010 A 
ATOM     11  C   UNL     1       5.535  -3.284   0.136  1.00  0.00    -0.014 A 
BRANCH  11  12
ATOM     12  C   UNL     1       6.984  -3.027   0.111  1.00  0.00     0.031 A 
ATOM     13  C   UNL     1       7.706  -3.205   1.416  1.00  0.00     0.074 A 
ATOM     14  C   UNL     1       7.634  -2.843  -1.049  1.00  0.00     0.049 A 
ATOM     15  N   UNL     1       8.987  -3.263   1.653  1.00  0.00    -0.248 NA
ATOM     16  C   UNL     1       6.860  -3.398   2.611  1.00  0.00     0.031 C 
ATOM     17  C   UNL     1       7.011  -2.760  -2.369  1.00  0.00     0.029 A 
ATOM     18  N   UNL     1       8.975  -2.732  -1.298  1.00  0.00    -0.354 N 
ATOM     19  C   UNL     1       9.096  -3.522   3.013  1.00  0.00     0.074 A 
ATOM     20  C   UNL     1       7.762  -3.600   3.555  1.00  0.00     0.031 C 
ATOM     21  C   UNL     1       7.975  -2.610  -3.295  1.00  0.00     0.029 A 
ATOM     22  C   UNL     1       9.274  -2.572  -2.628  1.00  0.00     0.049 A 
ATOM     23  H   UNL     1       9.659  -2.763  -0.591  1.00  0.00     0.167 HD
ATOM     24  C   UNL     1      10.218  -3.675   3.749  1.00  0.00     0.031 A 
ATOM     25  C   UNL     1      10.472  -2.404  -3.221  1.00  0.00     0.031 A 
ATOM     26  C   UNL     1      11.535  -3.521   3.208  1.00  0.00     0.049 A 
ATOM     27  C   UNL     1      11.704  -2.438  -2.353  1.00  0.00     0.074 A 
ATOM     28  C   UNL     1      12.751  -3.575   3.858  1.00  0.00     0.029 A 
ATOM     29  N   UNL     1      11.795  -3.248   1.872  1.00  0.00    -0.354 N 
ATOM     30  N   UNL     1      11.803  -2.701  -1.070  1.00  0.00    -0.248 NA
ATOM     31  C   UNL     1      12.986  -2.150  -3.009  1.00  0.00     0.031 C 
ATOM     32  C   UNL     1      13.747  -3.278   2.923  1.00  0.00     0.029 A 
ATOM     33  C   UNL     1      13.152  -3.090   1.683  1.00  0.00     0.049 A 
ATOM     34  H   UNL     1      11.113  -3.178   1.165  1.00  0.00     0.167 HD
ATOM     35  C   UNL     1      13.155  -2.618  -0.766  1.00  0.00     0.074 A 
ATOM     36  C   UNL     1      13.840  -2.305  -2.005  1.00  0.00     0.031 C 
ATOM     37  C   UNL     1      13.782  -2.776   0.426  1.00  0.00     0.031 A 
BRANCH  24  38
ATOM     38  C   UNL     1      10.033  -3.929   5.214  1.00  0.00    -0.014 A 
ATOM     39  C   UNL     1       9.615  -5.182   5.691  1.00  0.00     0.009 A 
ATOM     40  C   UNL     1      10.219  -2.879   6.125  1.00  0.00     0.009 A 
ATOM     41  C   UNL     1       9.355  -5.367   7.052  1.00  0.00     0.001 A 
ATOM     42  C   UNL     1       9.977  -3.072   7.486  1.00  0.00     0.001 A 
ATOM     43  C   UNL     1       9.537  -4.312   7.947  1.00  0.00     0.000 A 
ENDBRANCH  24  38
BRANCH  25  44
ATOM     44  C   UNL     1      10.561  -2.137  -4.682  1.00  0.00    -0.014 A 
ATOM     45  C   UNL     1      11.178  -3.044  -5.556  1.00  0.00     0.009 A 
ATOM     46  C   UNL     1      10.045  -0.941  -5.208  1.00  0.00     0.009 A 
ATOM     47  C   UNL     1      11.295  -2.749  -6.918  1.00  0.00     0.001 A 
ATOM     48  C   UNL     1      10.138  -0.660  -6.574  1.00  0.00     0.001 A 
ATOM     49  C   UNL     1      10.772  -1.560  -7.426  1.00  0.00     0.000 A 
ENDBRANCH  25  44
BRANCH  37  50
ATOM     50  C   UNL     1      15.272  -2.616   0.439  1.00  0.00    -0.014 A 
ATOM     51  C   UNL     1      15.857  -1.342   0.387  1.00  0.00     0.009 A 
ATOM     52  C   UNL     1      16.091  -3.745   0.594  1.00  0.00     0.009 A 
ATOM     53  C   UNL     1      17.242  -1.204   0.472  1.00  0.00     0.001 A 
ATOM     54  C   UNL     1      17.474  -3.600   0.703  1.00  0.00     0.001 A 
ATOM     55  C   UNL     1      18.047  -2.331   0.637  1.00  0.00     0.000 A 
ENDBRANCH  37  50
ENDBRANCH  11  12
ENDBRANCH   4   6
ENDBRANCH   3   4
ENDBRANCH   2   3
ENDBRANCH   1   2
BRANCH   1  56
ATOM     56  O   UNL     1       2.264  -4.388  -2.033  1.00  0.00    -0.462 OA
BRANCH  56  57
ATOM     57  C   UNL     1       1.484  -3.282  -1.857  1.00  0.00     0.310 C 
ATOM     58  O   UNL     1       0.425  -3.307  -1.266  1.00  0.00    -0.252 OA
BRANCH  57  59
ATOM     59  C   UNL     1       2.146  -2.007  -2.338  1.00  0.00     0.116 C 
ATOM     60  C   UNL     1       1.351  -0.789  -1.823  1.00  0.00     0.043 C 
ATOM     61  C   UNL     1       2.557  -1.908  -3.824  1.00  0.00     0.097 C 
ATOM     62  C   UNL     1       1.802   0.515  -2.397  1.00  0.00    -0.030 C 
ATOM     63  C   UNL     1       3.390  -0.604  -3.970  1.00  0.00     0.041 C 
ATOM     64  C   UNL     1       2.737   0.603  -3.352  1.00  0.00    -0.030 C 
BRANCH  61  65
ATOM     65  C   UNL     1       1.465  -1.947  -4.928  1.00  0.00     0.229 C 
ATOM     66  O   UNL     1       1.416  -1.111  -5.832  1.00  0.00    -0.274 OA
ATOM     67  N   UNL     1       0.770  -3.127  -5.051  1.00  0.00    -0.317 N 
ATOM     68  H   UNL     1       1.158  -3.838  -5.610  1.00  0.00     0.170 HD
BRANCH  67  69
ATOM     69  C   UNL     1      -0.446  -3.373  -4.432  1.00  0.00     0.108 A 
ATOM     70  S   UNL     1      -1.391  -2.079  -3.881  1.00  0.00    -0.122 S 
ATOM     71  C   UNL     1      -0.986  -4.621  -4.117  1.00  0.00     0.078 A 
ATOM     72  C   UNL     1      -2.108  -3.089  -2.720  1.00  0.00     0.011 A 
ATOM     73  C   UNL     1      -1.939  -4.436  -3.012  1.00  0.00    -0.019 A 
ATOM     74  C   UNL     1      -2.715  -2.528  -1.466  1.00  0.00     0.047 C 
ATOM     75  C   UNL     1      -2.478  -5.478  -2.064  1.00  0.00     0.037 C 
ATOM     76  C   UNL     1      -2.718  -3.591  -0.358  1.00  0.00     0.006 C 
ATOM     77  C   UNL     1      -3.282  -4.908  -0.884  1.00  0.00     0.005 C 
BRANCH  71  78
ATOM     78  C   UNL     1      -0.315  -5.850  -4.609  1.00  0.00     0.257 C 
ATOM     79  O   UNL     1       0.821  -5.774  -5.091  1.00  0.00    -0.269 OA
ATOM     80  N   UNL     1      -0.882  -7.098  -4.387  1.00  0.00    -0.339 N 
ATOM     81  C   UNL     1      -0.002  -8.245  -4.182  1.00  0.00     0.120 C 
ATOM     82  C   UNL     1      -2.290  -7.401  -4.609  1.00  0.00     0.120 C 
ATOM     83  C   UNL     1      -0.155  -9.293  -5.277  1.00  0.00     0.022 C 
ATOM     84  C   UNL     1      -2.460  -8.420  -5.734  1.00  0.00     0.022 C 
ATOM     85  C   UNL     1      -1.622  -9.669  -5.465  1.00  0.00     0.004 C 
ENDBRANCH  71  78
ENDBRANCH  67  69
ENDBRANCH  61  65
ENDBRANCH  57  59
ENDBRANCH  56  57
ENDBRANCH   1  56
TORSDOF 14
