REMARK SMILES COCC[N@H+](C)[C@H](C(=O)OCCOC(=O)c1ccc(-c2c3nc(c(-c4ccccc4)c4ccc([nH]4)c(-c4ccccc4)c4nc(c(-c5ccccc5)c5ccc2[nH]5)C=C4)C=C3)cc1)c1ccc(OC)nc1
REMARK SMILES IDX 11 1 10 2 8 3 9 4 7 5 5 6 6 7 4 9 3 10 2 11 1 12 64 13 65 14
REMARK SMILES IDX 71 15 66 16 70 17 67 18 68 19 69 20 12 21 13 22 14 23 15 24
REMARK SMILES IDX 16 25 17 26 63 27 18 28 62 29 19 30 20 31 21 32 56 33 22 34
REMARK SMILES IDX 61 35 55 36 57 37 23 38 60 39 54 40 53 41 24 43 46 44 31 45
REMARK SMILES IDX 45 46 32 47 35 48 44 49 58 50 33 51 34 52 43 54 59 55 36 56
REMARK SMILES IDX 25 57 26 58 30 59 27 60 29 61 28 62 47 63 48 64 52 65 49 66
REMARK SMILES IDX 51 67 50 68 37 69 38 70 42 71 39 72 41 73 40 74
REMARK H PARENT 5 8 57 42 35 53
REMARK Flexibility Score: inf
ROOT
ATOM      1  C   UNL     1       0.559  -2.124  -4.248  1.00  0.00     0.274 C 
ENDROOT
BRANCH   1   2
ATOM      2  O   UNL     1       0.095  -1.169  -3.275  1.00  0.00    -0.457 OA
BRANCH   2   3
ATOM      3  C   UNL     1       0.675  -1.242  -2.039  1.00  0.00     0.370 C 
ATOM      4  O   UNL     1       1.534  -2.068  -1.748  1.00  0.00    -0.245 OA
BRANCH   3   5
ATOM      5  C   UNL     1       0.207  -0.087  -1.103  1.00  0.00     0.327 C 
BRANCH   5   6
ATOM      6  N   UNL     1      -1.264   0.137  -1.181  1.00  0.00    -0.320 N 
ATOM      7  C   UNL     1      -2.052  -0.967  -0.635  1.00  0.00     0.333 C 
ATOM      8  H   UNL     1      -1.431   0.180  -2.187  1.00  0.00     0.348 HD
BRANCH   6   9
ATOM      9  C   UNL     1      -1.729   1.425  -0.623  1.00  0.00     0.291 C 
BRANCH   9  10
ATOM     10  C   UNL     1      -1.167   2.721  -1.249  1.00  0.00     0.221 C 
BRANCH  10  11
ATOM     11  O   UNL     1      -1.740   3.043  -2.516  1.00  0.00    -0.379 OA
ATOM     12  C   UNL     1      -1.171   2.310  -3.593  1.00  0.00     0.195 C 
ENDBRANCH  10  11
ENDBRANCH   9  10
ENDBRANCH   6   9
ENDBRANCH   5   6
BRANCH   5  13
ATOM     13  C   UNL     1       0.781  -0.191   0.308  1.00  0.00     0.039 A 
ATOM     14  C   UNL     1       1.303   0.927   0.968  1.00  0.00     0.018 A 
ATOM     15  C   UNL     1       0.833  -1.392   1.008  1.00  0.00     0.125 A 
ATOM     16  C   UNL     1       1.848   0.802   2.249  1.00  0.00     0.069 A 
ATOM     17  N   UNL     1       1.348  -1.536   2.251  1.00  0.00    -0.222 NA
ATOM     18  C   UNL     1       1.853  -0.444   2.857  1.00  0.00     0.212 A 
BRANCH  18  19
ATOM     19  O   UNL     1       2.362  -0.720   4.092  1.00  0.00    -0.481 OA
ATOM     20  C   UNL     1       2.690   0.386   4.917  1.00  0.00     0.280 C 
ENDBRANCH  18  19
ENDBRANCH   5  13
ENDBRANCH   3   5
ENDBRANCH   2   3
ENDBRANCH   1   2
BRANCH   1  21
ATOM     21  C   UNL     1       1.615  -1.524  -5.185  1.00  0.00     0.275 C 
BRANCH  21  22
ATOM     22  O   UNL     1       2.843  -1.206  -4.501  1.00  0.00    -0.458 OA
BRANCH  22  23
ATOM     23  C   UNL     1       2.896   0.042  -3.981  1.00  0.00     0.338 C 
ATOM     24  O   UNL     1       2.039   0.907  -4.064  1.00  0.00    -0.246 OA
BRANCH  23  25
ATOM     25  C   UNL     1       4.092   0.210  -3.134  1.00  0.00     0.060 A 
ATOM     26  C   UNL     1       3.902   0.787  -1.875  1.00  0.00     0.016 A 
ATOM     27  C   UNL     1       5.377  -0.110  -3.574  1.00  0.00     0.016 A 
ATOM     28  C   UNL     1       4.986   1.049  -1.047  1.00  0.00     0.010 A 
ATOM     29  C   UNL     1       6.473   0.167  -2.746  1.00  0.00     0.010 A 
ATOM     30  C   UNL     1       6.282   0.759  -1.484  1.00  0.00    -0.014 A 
BRANCH  30  31
ATOM     31  C   UNL     1       7.427   1.150  -0.630  1.00  0.00     0.031 A 
ATOM     32  C   UNL     1       8.200   2.398  -0.946  1.00  0.00     0.074 A 
ATOM     33  C   UNL     1       7.722   0.432   0.468  1.00  0.00     0.049 A 
ATOM     34  N   UNL     1       9.224   2.917  -0.317  1.00  0.00    -0.248 NA
ATOM     35  C   UNL     1       7.755   3.171  -2.117  1.00  0.00     0.031 C 
ATOM     36  C   UNL     1       7.002  -0.760   0.918  1.00  0.00     0.029 A 
ATOM     37  N   UNL     1       8.702   0.610   1.411  1.00  0.00    -0.354 N 
ATOM     38  C   UNL     1       9.547   4.074  -1.014  1.00  0.00     0.074 A 
ATOM     39  C   UNL     1       8.627   4.169  -2.128  1.00  0.00     0.031 C 
ATOM     40  C   UNL     1       7.567  -1.207   2.052  1.00  0.00     0.029 A 
ATOM     41  C   UNL     1       8.706  -0.357   2.386  1.00  0.00     0.049 A 
ATOM     42  H   UNL     1       9.341   1.358   1.390  1.00  0.00     0.167 HD
ATOM     43  C   UNL     1      10.519   4.979  -0.748  1.00  0.00     0.031 A 
ATOM     44  C   UNL     1       9.548  -0.545   3.419  1.00  0.00     0.031 A 
ATOM     45  C   UNL     1      11.447   4.877   0.346  1.00  0.00     0.049 A 
ATOM     46  C   UNL     1      10.677   0.423   3.636  1.00  0.00     0.074 A 
ATOM     47  C   UNL     1      12.480   5.735   0.686  1.00  0.00     0.029 A 
ATOM     48  N   UNL     1      11.457   3.851   1.278  1.00  0.00    -0.354 N 
ATOM     49  N   UNL     1      10.974   1.511   2.968  1.00  0.00    -0.248 NA
ATOM     50  C   UNL     1      11.585   0.138   4.757  1.00  0.00     0.031 C 
ATOM     51  C   UNL     1      13.141   5.204   1.799  1.00  0.00     0.029 A 
ATOM     52  C   UNL     1      12.489   4.043   2.182  1.00  0.00     0.049 A 
ATOM     53  H   UNL     1      10.824   3.097   1.294  1.00  0.00     0.167 HD
ATOM     54  C   UNL     1      12.086   2.052   3.600  1.00  0.00     0.074 A 
ATOM     55  C   UNL     1      12.400   1.183   4.715  1.00  0.00     0.031 C 
ATOM     56  C   UNL     1      12.786   3.169   3.286  1.00  0.00     0.031 A 
BRANCH  43  57
ATOM     57  C   UNL     1      10.644   6.147  -1.684  1.00  0.00    -0.014 A 
ATOM     58  C   UNL     1       9.713   7.198  -1.663  1.00  0.00     0.009 A 
ATOM     59  C   UNL     1      11.724   6.212  -2.578  1.00  0.00     0.009 A 
ATOM     60  C   UNL     1       9.845   8.276  -2.541  1.00  0.00     0.001 A 
ATOM     61  C   UNL     1      11.866   7.302  -3.438  1.00  0.00     0.001 A 
ATOM     62  C   UNL     1      10.923   8.329  -3.424  1.00  0.00     0.000 A 
ENDBRANCH  43  57
BRANCH  44  63
ATOM     63  C   UNL     1       9.378  -1.719   4.314  1.00  0.00    -0.014 A 
ATOM     64  C   UNL     1       8.974  -1.555   5.647  1.00  0.00     0.009 A 
ATOM     65  C   UNL     1       9.650  -3.013   3.841  1.00  0.00     0.009 A 
ATOM     66  C   UNL     1       8.871  -2.660   6.495  1.00  0.00     0.001 A 
ATOM     67  C   UNL     1       9.519  -4.118   4.683  1.00  0.00     0.001 A 
ATOM     68  C   UNL     1       9.140  -3.940   6.012  1.00  0.00     0.000 A 
ENDBRANCH  44  63
BRANCH  56  69
ATOM     69  C   UNL     1      13.936   3.531   4.183  1.00  0.00    -0.014 A 
ATOM     70  C   UNL     1      15.137   2.806   4.155  1.00  0.00     0.009 A 
ATOM     71  C   UNL     1      13.822   4.629   5.050  1.00  0.00     0.009 A 
ATOM     72  C   UNL     1      16.190   3.154   5.005  1.00  0.00     0.001 A 
ATOM     73  C   UNL     1      14.885   4.990   5.878  1.00  0.00     0.001 A 
ATOM     74  C   UNL     1      16.064   4.247   5.862  1.00  0.00     0.000 A 
ENDBRANCH  56  69
ENDBRANCH  30  31
ENDBRANCH  23  25
ENDBRANCH  22  23
ENDBRANCH  21  22
ENDBRANCH   1  21
TORSDOF 17
