REMARK SMILES CC[C@H](C(=O)OCCOC(=O)c1ccc(-c2c3nc(c(-c4ccccc4)c4ccc([nH]4)c(-c4ccccc4)c4nc(c(-c5ccccc5)c5ccc2[nH]5)C=C4)C=C3)cc1)N1C(=O)c2ccc([N+](=O)[O-])cc2C1=O
REMARK SMILES IDX 7 1 6 2 4 3 5 4 3 5 2 6 1 7 60 8 61 9 72 10 62 11 63 12
REMARK SMILES IDX 71 13 73 14 64 15 70 16 65 17 66 18 67 19 68 20 69 21 8 22
REMARK SMILES IDX 9 23 10 24 11 25 12 26 13 27 59 28 14 29 58 30 15 31 16 32
REMARK SMILES IDX 17 33 52 34 18 35 57 36 51 37 53 38 19 39 56 40 50 41 49 42
REMARK SMILES IDX 20 44 42 45 27 46 41 47 28 48 31 49 40 50 54 51 29 52 30 53
REMARK SMILES IDX 39 55 55 56 32 57 21 58 22 59 26 60 23 61 25 62 24 63 43 64
REMARK SMILES IDX 44 65 48 66 45 67 47 68 46 69 33 70 34 71 38 72 35 73 37 74
REMARK SMILES IDX 36 75
REMARK H PARENT 53 43 31 54
REMARK Flexibility Score: inf
ROOT
ATOM      1  C   UNL     1       0.897   1.246   0.670  1.00  0.00     0.274 C 
ENDROOT
BRANCH   1   2
ATOM      2  O   UNL     1       1.176   0.568  -0.576  1.00  0.00    -0.461 OA
BRANCH   2   3
ATOM      3  C   UNL     1       0.143   0.505  -1.467  1.00  0.00     0.329 C 
ATOM      4  O   UNL     1      -0.913   1.112  -1.336  1.00  0.00    -0.250 OA
BRANCH   3   5
ATOM      5  C   UNL     1       0.446  -0.476  -2.616  1.00  0.00     0.203 C 
BRANCH   5   6
ATOM      6  C   UNL     1       0.280  -1.948  -2.214  1.00  0.00     0.034 C 
ATOM      7  C   UNL     1      -0.779  -2.239  -1.156  1.00  0.00     0.007 C 
ENDBRANCH   5   6
BRANCH   5   8
ATOM      8  N   UNL     1      -0.313  -0.115  -3.831  1.00  0.00    -0.260 N 
ATOM      9  C   UNL     1      -1.671  -0.225  -3.984  1.00  0.00     0.262 C 
ATOM     10  C   UNL     1       0.259   0.448  -4.943  1.00  0.00     0.262 C 
ATOM     11  O   UNL     1      -2.506  -0.736  -3.272  1.00  0.00    -0.269 OA
ATOM     12  C   UNL     1      -2.009   0.429  -5.248  1.00  0.00     0.053 A 
ATOM     13  C   UNL     1      -0.827   0.811  -5.856  1.00  0.00     0.060 A 
ATOM     14  O   UNL     1       1.430   0.692  -5.163  1.00  0.00    -0.269 OA
ATOM     15  C   UNL     1      -3.246   0.783  -5.757  1.00  0.00     0.022 A 
ATOM     16  C   UNL     1      -0.809   1.558  -7.024  1.00  0.00     0.100 A 
ATOM     17  C   UNL     1      -3.267   1.556  -6.925  1.00  0.00     0.086 A 
ATOM     18  C   UNL     1      -2.056   1.936  -7.556  1.00  0.00     0.270 A 
BRANCH  18  19
ATOM     19  N   UNL     1      -2.106   2.781  -8.761  1.00  0.00     0.062 N 
ATOM     20  O   UNL     1      -3.220   3.111  -9.185  1.00  0.00    -0.258 OA
ATOM     21  O   UNL     1      -1.026   3.089  -9.284  1.00  0.00    -0.258 OA
ENDBRANCH  18  19
ENDBRANCH   5   8
ENDBRANCH   3   5
ENDBRANCH   2   3
ENDBRANCH   1   2
BRANCH   1  22
ATOM     22  C   UNL     1       1.385   2.699   0.704  1.00  0.00     0.275 C 
BRANCH  22  23
ATOM     23  O   UNL     1       0.610   3.536  -0.172  1.00  0.00    -0.458 OA
BRANCH  23  24
ATOM     24  C   UNL     1       1.214   3.880  -1.333  1.00  0.00     0.338 C 
ATOM     25  O   UNL     1       2.354   3.629  -1.680  1.00  0.00    -0.246 OA
BRANCH  24  26
ATOM     26  C   UNL     1       0.191   4.399  -2.253  1.00  0.00     0.060 A 
ATOM     27  C   UNL     1      -0.254   3.508  -3.221  1.00  0.00     0.016 A 
ATOM     28  C   UNL     1      -0.308   5.701  -2.215  1.00  0.00     0.016 A 
ATOM     29  C   UNL     1      -1.238   3.886  -4.115  1.00  0.00     0.010 A 
ATOM     30  C   UNL     1      -1.276   6.096  -3.157  1.00  0.00     0.010 A 
ATOM     31  C   UNL     1      -1.754   5.180  -4.106  1.00  0.00    -0.014 A 
BRANCH  31  32
ATOM     32  C   UNL     1      -2.717   5.520  -5.178  1.00  0.00     0.031 A 
ATOM     33  C   UNL     1      -2.218   6.140  -6.450  1.00  0.00     0.074 A 
ATOM     34  C   UNL     1      -3.986   5.070  -5.124  1.00  0.00     0.049 A 
ATOM     35  N   UNL     1      -2.896   6.548  -7.490  1.00  0.00    -0.248 NA
ATOM     36  C   UNL     1      -0.759   6.270  -6.586  1.00  0.00     0.031 C 
ATOM     37  C   UNL     1      -4.542   4.237  -4.057  1.00  0.00     0.029 A 
ATOM     38  N   UNL     1      -5.021   5.210  -6.014  1.00  0.00    -0.354 N 
ATOM     39  C   UNL     1      -1.951   7.015  -8.394  1.00  0.00     0.074 A 
ATOM     40  C   UNL     1      -0.651   6.809  -7.792  1.00  0.00     0.031 C 
ATOM     41  C   UNL     1      -5.813   3.926  -4.366  1.00  0.00     0.029 A 
ATOM     42  C   UNL     1      -6.186   4.606  -5.604  1.00  0.00     0.049 A 
ATOM     43  H   UNL     1      -4.938   5.696  -6.866  1.00  0.00     0.167 HD
ATOM     44  C   UNL     1      -2.153   7.595  -9.601  1.00  0.00     0.031 A 
ATOM     45  C   UNL     1      -7.421   4.642  -6.141  1.00  0.00     0.031 A 
ATOM     46  C   UNL     1      -3.448   7.824 -10.183  1.00  0.00     0.049 A 
ATOM     47  C   UNL     1      -7.656   5.474  -7.375  1.00  0.00     0.074 A 
ATOM     48  C   UNL     1      -3.770   8.523 -11.333  1.00  0.00     0.029 A 
ATOM     49  N   UNL     1      -4.638   7.345  -9.659  1.00  0.00    -0.354 N 
ATOM     50  N   UNL     1      -6.782   6.066  -8.150  1.00  0.00    -0.248 NA
ATOM     51  C   UNL     1      -9.055   5.676  -7.783  1.00  0.00     0.031 C 
ATOM     52  C   UNL     1      -5.163   8.524 -11.467  1.00  0.00     0.029 A 
ATOM     53  C   UNL     1      -5.701   7.774 -10.434  1.00  0.00     0.049 A 
ATOM     54  H   UNL     1      -4.715   6.783  -8.855  1.00  0.00     0.167 HD
ATOM     55  C   UNL     1      -7.521   6.701  -9.142  1.00  0.00     0.074 A 
ATOM     56  C   UNL     1      -8.914   6.402  -8.884  1.00  0.00     0.031 C 
ATOM     57  C   UNL     1      -7.084   7.473 -10.166  1.00  0.00     0.031 A 
BRANCH  44  58
ATOM     58  C   UNL     1      -0.943   8.136 -10.306  1.00  0.00    -0.014 A 
ATOM     59  C   UNL     1      -0.030   7.297 -10.960  1.00  0.00     0.009 A 
ATOM     60  C   UNL     1      -0.719   9.522 -10.304  1.00  0.00     0.009 A 
ATOM     61  C   UNL     1       1.104   7.838 -11.573  1.00  0.00     0.001 A 
ATOM     62  C   UNL     1       0.400  10.061 -10.938  1.00  0.00     0.001 A 
ATOM     63  C   UNL     1       1.316   9.218 -11.564  1.00  0.00     0.000 A 
ENDBRANCH  44  58
BRANCH  45  64
ATOM     64  C   UNL     1      -8.561   3.955  -5.474  1.00  0.00    -0.014 A 
ATOM     65  C   UNL     1      -9.255   2.922  -6.122  1.00  0.00     0.009 A 
ATOM     66  C   UNL     1      -8.997   4.368  -4.204  1.00  0.00     0.009 A 
ATOM     67  C   UNL     1     -10.369   2.330  -5.519  1.00  0.00     0.001 A 
ATOM     68  C   UNL     1     -10.090   3.753  -3.590  1.00  0.00     0.001 A 
ATOM     69  C   UNL     1     -10.782   2.742  -4.253  1.00  0.00     0.000 A 
ENDBRANCH  45  64
BRANCH  57  70
ATOM     70  C   UNL     1      -8.118   8.043 -11.095  1.00  0.00    -0.014 A 
ATOM     71  C   UNL     1      -8.944   9.104 -10.695  1.00  0.00     0.009 A 
ATOM     72  C   UNL     1      -8.224   7.556 -12.408  1.00  0.00     0.009 A 
ATOM     73  C   UNL     1      -9.873   9.651 -11.583  1.00  0.00     0.001 A 
ATOM     74  C   UNL     1      -9.134   8.122 -13.302  1.00  0.00     0.001 A 
ATOM     75  C   UNL     1      -9.962   9.164 -12.887  1.00  0.00     0.000 A 
ENDBRANCH  57  70
ENDBRANCH  31  32
ENDBRANCH  24  26
ENDBRANCH  23  24
ENDBRANCH  22  23
ENDBRANCH   1  22
TORSDOF 14
