REMARK SMILES CC[C@H](C)[C@H](C(=O)OCCOC(=O)c1ccc(-c2c3nc(c(-c4ccccc4)c4ccc([nH]4)c(-c4ccccc4)c4nc(c(-c5ccccc5)c5ccc2[nH]5)C=C4)C=C3)cc1)N1C(=O)/C(=C/c2ccc(C)o2)SC1=S
REMARK SMILES IDX 9 1 8 2 6 3 7 4 5 5 3 6 4 7 2 8 1 9 62 10 63 11 74 12 64 13
REMARK SMILES IDX 65 14 73 15 75 16 66 17 67 18 68 19 72 20 69 21 70 22 71 23
REMARK SMILES IDX 10 24 11 25 12 26 13 27 14 28 15 29 61 30 16 31 60 32 17 33
REMARK SMILES IDX 18 34 19 35 54 36 20 37 59 38 53 39 55 40 21 41 58 42 52 43
REMARK SMILES IDX 51 44 22 46 44 47 29 48 43 49 30 50 33 51 42 52 56 53 31 54
REMARK SMILES IDX 32 55 41 57 57 58 34 59 23 60 24 61 28 62 25 63 27 64 26 65
REMARK SMILES IDX 45 66 46 67 50 68 47 69 49 70 48 71 35 72 36 73 40 74 37 75
REMARK SMILES IDX 39 76 38 77
REMARK H PARENT 55 45 33 56
REMARK Flexibility Score: inf
ROOT
ATOM      1  C   UNL     1       3.371   1.505  -1.280  1.00  0.00     0.274 C 
ENDROOT
BRANCH   1   2
ATOM      2  O   UNL     1       2.736   2.772  -0.998  1.00  0.00    -0.461 OA
BRANCH   2   3
ATOM      3  C   UNL     1       1.378   2.761  -0.922  1.00  0.00     0.329 C 
ATOM      4  O   UNL     1       0.687   1.762  -1.079  1.00  0.00    -0.250 OA
BRANCH   3   5
ATOM      5  C   UNL     1       0.765   4.150  -0.662  1.00  0.00     0.204 C 
BRANCH   5   6
ATOM      6  C   UNL     1       0.960   4.536   0.864  1.00  0.00     0.020 C 
ATOM      7  C   UNL     1      -0.118   3.842   1.711  1.00  0.00     0.010 C 
BRANCH   6   8
ATOM      8  C   UNL     1       2.394   4.346   1.411  1.00  0.00     0.002 C 
ATOM      9  C   UNL     1       2.558   4.594   2.907  1.00  0.00     0.004 C 
ENDBRANCH   6   8
ENDBRANCH   5   6
BRANCH   5  10
ATOM     10  N   UNL     1       1.204   5.146  -1.684  1.00  0.00    -0.278 N 
ATOM     11  C   UNL     1       0.937   6.497  -1.482  1.00  0.00     0.267 C 
ATOM     12  C   UNL     1       1.361   4.854  -3.036  1.00  0.00     0.149 C 
ATOM     13  O   UNL     1       0.322   6.998  -0.550  1.00  0.00    -0.268 OA
ATOM     14  C   UNL     1       1.294   7.298  -2.679  1.00  0.00     0.084 C 
ATOM     15  S   UNL     1       1.948   6.272  -3.881  1.00  0.00    -0.054 SA
ATOM     16  S   UNL     1       1.023   3.477  -3.918  1.00  0.00    -0.052 S 
ATOM     17  C   UNL     1       1.012   8.603  -2.786  1.00  0.00     0.068 C 
BRANCH  17  18
ATOM     18  C   UNL     1       1.261   9.298  -3.996  1.00  0.00     0.128 A 
ATOM     19  C   UNL     1       0.584   9.222  -5.208  1.00  0.00     0.050 A 
ATOM     20  O   UNL     1       2.329  10.141  -4.161  1.00  0.00    -0.462 OA
ATOM     21  C   UNL     1       1.307   9.988  -6.150  1.00  0.00     0.046 A 
ATOM     22  C   UNL     1       2.370  10.524  -5.463  1.00  0.00     0.101 A 
ATOM     23  C   UNL     1       3.513  11.364  -5.863  1.00  0.00     0.087 C 
ENDBRANCH  17  18
ENDBRANCH   5  10
ENDBRANCH   3   5
ENDBRANCH   2   3
ENDBRANCH   1   2
BRANCH   1  24
ATOM     24  C   UNL     1       3.523   0.615  -0.040  1.00  0.00     0.275 C 
BRANCH  24  25
ATOM     25  O   UNL     1       2.318  -0.132   0.214  1.00  0.00    -0.458 OA
BRANCH  25  26
ATOM     26  C   UNL     1       1.556   0.294   1.247  1.00  0.00     0.338 C 
ATOM     27  O   UNL     1       1.804   1.186   2.036  1.00  0.00    -0.246 OA
BRANCH  26  28
ATOM     28  C   UNL     1       0.308  -0.482   1.278  1.00  0.00     0.060 A 
ATOM     29  C   UNL     1      -0.888   0.082   0.817  1.00  0.00     0.016 A 
ATOM     30  C   UNL     1       0.323  -1.753   1.847  1.00  0.00     0.016 A 
ATOM     31  C   UNL     1      -2.080  -0.628   0.907  1.00  0.00     0.010 A 
ATOM     32  C   UNL     1      -0.871  -2.462   1.944  1.00  0.00     0.010 A 
ATOM     33  C   UNL     1      -2.073  -1.899   1.480  1.00  0.00    -0.014 A 
BRANCH  33  34
ATOM     34  C   UNL     1      -3.324  -2.655   1.665  1.00  0.00     0.031 A 
ATOM     35  C   UNL     1      -3.922  -2.734   3.033  1.00  0.00     0.074 A 
ATOM     36  C   UNL     1      -3.855  -3.325   0.629  1.00  0.00     0.049 A 
ATOM     37  N   UNL     1      -4.825  -3.558   3.491  1.00  0.00    -0.248 NA
ATOM     38  C   UNL     1      -3.425  -1.761   4.020  1.00  0.00     0.031 C 
ATOM     39  C   UNL     1      -3.394  -3.249  -0.758  1.00  0.00     0.029 A 
ATOM     40  N   UNL     1      -4.878  -4.236   0.598  1.00  0.00    -0.354 N 
ATOM     41  C   UNL     1      -4.982  -3.227   4.830  1.00  0.00     0.074 A 
ATOM     42  C   UNL     1      -4.084  -2.128   5.109  1.00  0.00     0.031 C 
ATOM     43  C   UNL     1      -4.109  -4.111  -1.500  1.00  0.00     0.029 A 
ATOM     44  C   UNL     1      -5.027  -4.835  -0.627  1.00  0.00     0.049 A 
ATOM     45  H   UNL     1      -5.447  -4.439   1.376  1.00  0.00     0.167 HD
ATOM     46  C   UNL     1      -5.796  -3.808   5.741  1.00  0.00     0.031 A 
ATOM     47  C   UNL     1      -5.780  -5.892  -0.984  1.00  0.00     0.031 A 
ATOM     48  C   UNL     1      -6.666  -4.913   5.443  1.00  0.00     0.049 A 
ATOM     49  C   UNL     1      -6.606  -6.580   0.066  1.00  0.00     0.074 A 
ATOM     50  C   UNL     1      -7.517  -5.598   6.291  1.00  0.00     0.029 A 
ATOM     51  N   UNL     1      -6.792  -5.492   4.189  1.00  0.00    -0.354 N 
ATOM     52  N   UNL     1      -6.724  -6.296   1.341  1.00  0.00    -0.248 NA
ATOM     53  C   UNL     1      -7.397  -7.739  -0.370  1.00  0.00     0.031 C 
ATOM     54  C   UNL     1      -8.134  -6.615   5.555  1.00  0.00     0.029 A 
ATOM     55  C   UNL     1      -7.702  -6.532   4.240  1.00  0.00     0.049 A 
ATOM     56  H   UNL     1      -6.306  -5.205   3.382  1.00  0.00     0.167 HD
ATOM     57  C   UNL     1      -7.627  -7.218   1.853  1.00  0.00     0.074 A 
ATOM     58  C   UNL     1      -8.025  -8.069   0.750  1.00  0.00     0.031 C 
ATOM     59  C   UNL     1      -8.091  -7.346   3.119  1.00  0.00     0.031 A 
BRANCH  46  60
ATOM     60  C   UNL     1      -5.741  -3.285   7.146  1.00  0.00    -0.014 A 
ATOM     61  C   UNL     1      -6.303  -2.045   7.485  1.00  0.00     0.009 A 
ATOM     62  C   UNL     1      -5.134  -4.054   8.151  1.00  0.00     0.009 A 
ATOM     63  C   UNL     1      -6.233  -1.573   8.797  1.00  0.00     0.001 A 
ATOM     64  C   UNL     1      -5.086  -3.591   9.467  1.00  0.00     0.001 A 
ATOM     65  C   UNL     1      -5.628  -2.347   9.787  1.00  0.00     0.000 A 
ENDBRANCH  46  60
BRANCH  47  66
ATOM     66  C   UNL     1      -5.750  -6.388  -2.383  1.00  0.00    -0.014 A 
ATOM     67  C   UNL     1      -6.860  -6.212  -3.221  1.00  0.00     0.009 A 
ATOM     68  C   UNL     1      -4.613  -7.040  -2.888  1.00  0.00     0.009 A 
ATOM     69  C   UNL     1      -6.840  -6.695  -4.531  1.00  0.00     0.001 A 
ATOM     70  C   UNL     1      -4.587  -7.499  -4.206  1.00  0.00     0.001 A 
ATOM     71  C   UNL     1      -5.703  -7.334  -5.024  1.00  0.00     0.000 A 
ENDBRANCH  47  66
BRANCH  59  72
ATOM     72  C   UNL     1      -9.131  -8.399   3.362  1.00  0.00    -0.014 A 
ATOM     73  C   UNL     1      -8.789  -9.755   3.458  1.00  0.00     0.009 A 
ATOM     74  C   UNL     1     -10.467  -8.012   3.555  1.00  0.00     0.009 A 
ATOM     75  C   UNL     1      -9.773 -10.709   3.724  1.00  0.00     0.001 A 
ATOM     76  C   UNL     1     -11.443  -8.965   3.842  1.00  0.00     0.001 A 
ATOM     77  C   UNL     1     -11.097 -10.313   3.921  1.00  0.00     0.000 A 
ENDBRANCH  59  72
ENDBRANCH  33  34
ENDBRANCH  26  28
ENDBRANCH  25  26
ENDBRANCH  24  25
ENDBRANCH   1  24
TORSDOF 15
