REMARK SMILES O=C(Cn1c(-c2nc(-c3ccc(C(F)(F)F)cc3)no2)cc2ccccc21)OCCOC(=O)c1ccc(-c2c3nc(c(-c4ccccc4)c4ccc([nH]4)c(-c4ccccc4)c4nc(c(-c5ccccc5)c5ccc2[nH]5)C=C4)C=C3)cc1
REMARK SMILES IDX 29 1 28 2 2 3 1 4 3 5 4 6 5 7 27 8 21 9 22 10 26 11 23 12
REMARK SMILES IDX 25 13 24 14 6 15 7 16 20 17 8 18 19 19 9 20 10 21 18 22
REMARK SMILES IDX 11 23 17 24 12 25 13 26 14 27 15 28 16 29 30 30 31 31 32 32
REMARK SMILES IDX 33 33 34 34 35 35 81 36 36 37 80 38 37 39 38 40 39 41 74 42
REMARK SMILES IDX 40 43 79 44 73 45 75 46 41 47 78 48 72 49 71 50 42 52 64 53
REMARK SMILES IDX 49 54 63 55 50 56 53 57 62 58 76 59 51 60 52 61 61 63 77 64
REMARK SMILES IDX 54 65 43 66 44 67 48 68 45 69 47 70 46 71 65 72 66 73 70 74
REMARK SMILES IDX 67 75 69 76 68 77 55 78 56 79 60 80 57 81 59 82 58 83
REMARK H PARENT 75 51 53 62
REMARK Flexibility Score: inf
ROOT
ATOM      1  C   UNL     1       4.564   0.719   1.065  1.00  0.00     0.274 C 
ENDROOT
BRANCH   1   2
ATOM      2  O   UNL     1       3.297   1.170   0.542  1.00  0.00    -0.461 OA
BRANCH   2   3
ATOM      3  C   UNL     1       2.640   0.593  -0.495  1.00  0.00     0.326 C 
ATOM      4  O   UNL     1       1.578   1.080  -0.879  1.00  0.00    -0.250 OA
BRANCH   3   5
ATOM      5  C   UNL     1       3.151  -0.704  -1.048  1.00  0.00     0.245 C 
BRANCH   5   6
ATOM      6  N   UNL     1       4.074  -0.783  -2.171  1.00  0.00    -0.325 N 
ATOM      7  C   UNL     1       4.594   0.211  -2.954  1.00  0.00     0.109 A 
ATOM      8  C   UNL     1       4.552  -2.024  -2.595  1.00  0.00     0.049 A 
ATOM      9  C   UNL     1       5.257  -0.406  -4.002  1.00  0.00     0.042 A 
ATOM     10  C   UNL     1       5.232  -1.814  -3.791  1.00  0.00     0.000 A 
ATOM     11  C   UNL     1       4.432  -3.310  -2.031  1.00  0.00     0.027 A 
ATOM     12  C   UNL     1       5.762  -2.931  -4.471  1.00  0.00     0.010 A 
ATOM     13  C   UNL     1       4.954  -4.402  -2.724  1.00  0.00     0.002 A 
ATOM     14  C   UNL     1       5.603  -4.218  -3.936  1.00  0.00     0.001 A 
BRANCH   7  15
ATOM     15  C   UNL     1       4.612   1.588  -2.585  1.00  0.00     0.274 A 
ATOM     16  N   UNL     1       3.591   2.424  -2.563  1.00  0.00    -0.185 NA
ATOM     17  O   UNL     1       5.732   2.118  -2.013  1.00  0.00    -0.332 OA
ATOM     18  C   UNL     1       4.121   3.538  -1.937  1.00  0.00     0.202 A 
ATOM     19  N   UNL     1       5.404   3.377  -1.569  1.00  0.00    -0.057 NA
BRANCH  18  20
ATOM     20  C   UNL     1       3.426   4.806  -1.695  1.00  0.00     0.023 A 
ATOM     21  C   UNL     1       4.202   5.926  -1.345  1.00  0.00     0.013 A 
ATOM     22  C   UNL     1       2.039   4.970  -1.795  1.00  0.00     0.013 A 
ATOM     23  C   UNL     1       3.628   7.175  -1.121  1.00  0.00     0.014 A 
ATOM     24  C   UNL     1       1.455   6.234  -1.566  1.00  0.00     0.014 A 
ATOM     25  C   UNL     1       2.247   7.349  -1.237  1.00  0.00     0.056 A 
BRANCH  25  26
ATOM     26  C   UNL     1       1.675   8.729  -1.008  1.00  0.00     0.416 C 
ATOM     27  F   UNL     1       1.900   9.179   0.259  1.00  0.00    -0.166 F 
ATOM     28  F   UNL     1       2.234   9.661  -1.832  1.00  0.00    -0.166 F 
ATOM     29  F   UNL     1       0.332   8.814  -1.204  1.00  0.00    -0.166 F 
ENDBRANCH  25  26
ENDBRANCH  18  20
ENDBRANCH   7  15
ENDBRANCH   5   6
ENDBRANCH   3   5
ENDBRANCH   2   3
ENDBRANCH   1   2
BRANCH   1  30
ATOM     30  C   UNL     1       4.381  -0.123   2.336  1.00  0.00     0.275 C 
BRANCH  30  31
ATOM     31  O   UNL     1       3.576  -1.282   2.041  1.00  0.00    -0.458 OA
BRANCH  31  32
ATOM     32  C   UNL     1       2.325  -1.308   2.575  1.00  0.00     0.338 C 
ATOM     33  O   UNL     1       1.918  -0.660   3.524  1.00  0.00    -0.246 OA
BRANCH  32  34
ATOM     34  C   UNL     1       1.449  -1.982   1.587  1.00  0.00     0.060 A 
ATOM     35  C   UNL     1       1.889  -3.083   0.849  1.00  0.00     0.016 A 
ATOM     36  C   UNL     1       0.281  -1.304   1.214  1.00  0.00     0.016 A 
ATOM     37  C   UNL     1       1.254  -3.381  -0.356  1.00  0.00     0.010 A 
ATOM     38  C   UNL     1      -0.350  -1.607   0.008  1.00  0.00     0.010 A 
ATOM     39  C   UNL     1       0.187  -2.585  -0.826  1.00  0.00    -0.014 A 
BRANCH  39  40
ATOM     40  C   UNL     1      -0.388  -2.899  -2.150  1.00  0.00     0.031 A 
ATOM     41  C   UNL     1      -0.809  -4.329  -2.265  1.00  0.00     0.074 A 
ATOM     42  C   UNL     1      -0.642  -2.018  -3.148  1.00  0.00     0.049 A 
ATOM     43  N   UNL     1      -0.492  -5.201  -3.166  1.00  0.00    -0.248 NA
ATOM     44  C   UNL     1      -1.573  -4.882  -1.131  1.00  0.00     0.031 C 
ATOM     45  C   UNL     1      -0.519  -0.558  -3.133  1.00  0.00     0.029 A 
ATOM     46  N   UNL     1      -1.182  -2.245  -4.389  1.00  0.00    -0.354 N 
ATOM     47  C   UNL     1      -1.122  -6.384  -2.785  1.00  0.00     0.074 A 
ATOM     48  C   UNL     1      -1.655  -6.166  -1.466  1.00  0.00     0.031 C 
ATOM     49  C   UNL     1      -1.204  -0.029  -4.175  1.00  0.00     0.029 A 
ATOM     50  C   UNL     1      -1.702  -1.107  -5.008  1.00  0.00     0.049 A 
ATOM     51  H   UNL     1      -1.201  -3.136  -4.807  1.00  0.00     0.167 HD
ATOM     52  C   UNL     1      -1.319  -7.428  -3.634  1.00  0.00     0.031 A 
ATOM     53  C   UNL     1      -2.537  -1.054  -6.082  1.00  0.00     0.031 A 
ATOM     54  C   UNL     1      -0.433  -7.391  -4.759  1.00  0.00     0.049 A 
ATOM     55  C   UNL     1      -2.458  -2.354  -6.778  1.00  0.00     0.074 A 
ATOM     56  C   UNL     1       0.932  -7.523  -4.913  1.00  0.00     0.029 A 
ATOM     57  N   UNL     1      -0.893  -6.836  -5.926  1.00  0.00    -0.354 N 
ATOM     58  N   UNL     1      -1.409  -2.770  -7.421  1.00  0.00    -0.248 NA
ATOM     59  C   UNL     1      -3.408  -3.379  -6.380  1.00  0.00     0.031 C 
ATOM     60  C   UNL     1       1.276  -6.601  -5.939  1.00  0.00     0.029 A 
ATOM     61  C   UNL     1       0.098  -6.017  -6.406  1.00  0.00     0.049 A 
ATOM     62  H   UNL     1      -1.771  -6.995  -6.343  1.00  0.00     0.167 HD
ATOM     63  C   UNL     1      -1.335  -4.120  -7.120  1.00  0.00     0.074 A 
ATOM     64  C   UNL     1      -2.633  -4.453  -6.533  1.00  0.00     0.031 C 
ATOM     65  C   UNL     1      -0.141  -4.779  -7.113  1.00  0.00     0.031 A 
BRANCH  52  66
ATOM     66  C   UNL     1      -2.532  -8.315  -3.564  1.00  0.00    -0.014 A 
ATOM     67  C   UNL     1      -3.700  -7.958  -2.859  1.00  0.00     0.009 A 
ATOM     68  C   UNL     1      -2.627  -9.429  -4.413  1.00  0.00     0.009 A 
ATOM     69  C   UNL     1      -4.892  -8.675  -2.975  1.00  0.00     0.001 A 
ATOM     70  C   UNL     1      -3.833 -10.126  -4.566  1.00  0.00     0.001 A 
ATOM     71  C   UNL     1      -4.964  -9.749  -3.847  1.00  0.00     0.000 A 
ENDBRANCH  52  66
BRANCH  53  72
ATOM     72  C   UNL     1      -3.701  -0.155  -6.311  1.00  0.00    -0.014 A 
ATOM     73  C   UNL     1      -4.419   0.350  -5.213  1.00  0.00     0.009 A 
ATOM     74  C   UNL     1      -4.309  -0.069  -7.578  1.00  0.00     0.009 A 
ATOM     75  C   UNL     1      -5.710   0.872  -5.363  1.00  0.00     0.001 A 
ATOM     76  C   UNL     1      -5.603   0.456  -7.728  1.00  0.00     0.001 A 
ATOM     77  C   UNL     1      -6.310   0.909  -6.617  1.00  0.00     0.000 A 
ENDBRANCH  53  72
BRANCH  65  78
ATOM     78  C   UNL     1       1.084  -4.063  -7.638  1.00  0.00    -0.014 A 
ATOM     79  C   UNL     1       1.873  -4.726  -8.591  1.00  0.00     0.009 A 
ATOM     80  C   UNL     1       1.579  -2.870  -7.080  1.00  0.00     0.009 A 
ATOM     81  C   UNL     1       3.129  -4.234  -8.954  1.00  0.00     0.001 A 
ATOM     82  C   UNL     1       2.827  -2.363  -7.463  1.00  0.00     0.001 A 
ATOM     83  C   UNL     1       3.607  -3.054  -8.390  1.00  0.00     0.000 A 
ENDBRANCH  65  78
ENDBRANCH  39  40
ENDBRANCH  32  34
ENDBRANCH  31  32
ENDBRANCH  30  31
ENDBRANCH   1  30
TORSDOF 15
