REMARK SMILES C=CCOc1ccccc1/C=C/c1cc(C(=O)OCCOC(=O)c2ccc(-c3c4nc(c(-c5ccccc5)c5ccc([nH]5)c(-c5ccccc5)c5nc(c(-c6ccccc6)c6ccc3[nH]6)C=C5)C=C4)cc2)ncn1
REMARK SMILES IDX 18 1 16 2 17 3 15 4 13 5 14 6 74 7 73 8 72 9 12 10 11 11
REMARK SMILES IDX 10 12 5 13 6 14 7 15 9 16 8 17 4 18 3 19 2 20 1 21 19 22
REMARK SMILES IDX 20 23 21 24 22 25 23 26 24 27 25 28 71 29 26 30 70 31 27 32
REMARK SMILES IDX 28 33 29 34 64 35 30 36 69 37 63 38 65 39 31 40 68 41 62 42
REMARK SMILES IDX 61 43 32 45 54 46 39 47 53 48 40 49 43 50 52 51 66 52 41 53
REMARK SMILES IDX 42 54 51 56 67 57 44 58 33 59 34 60 38 61 35 62 37 63 36 64
REMARK SMILES IDX 55 65 56 66 60 67 57 68 59 69 58 70 45 71 46 72 50 73 47 74
REMARK SMILES IDX 49 75 48 76
REMARK H PARENT 65 44 43 55
REMARK Flexibility Score: inf
ROOT
ATOM      1  O   UNL     1       3.241  -3.811   2.245  1.00  0.00    -0.457 OA
ENDROOT
BRANCH   1   2
ATOM      2  C   UNL     1       3.506  -2.521   2.587  1.00  0.00     0.357 C 
ATOM      3  O   UNL     1       3.693  -2.116   3.722  1.00  0.00    -0.244 OA
BRANCH   2   4
ATOM      4  C   UNL     1       3.626  -1.655   1.368  1.00  0.00     0.152 A 
ATOM      5  C   UNL     1       3.163  -1.079  -0.840  1.00  0.00     0.067 A 
ATOM      6  C   UNL     1       3.091  -2.029   0.159  1.00  0.00     0.064 A 
ATOM      7  N   UNL     1       3.853   0.071  -0.706  1.00  0.00    -0.237 NA
ATOM      8  C   UNL     1       4.377   0.315   0.496  1.00  0.00     0.223 A 
ATOM      9  N   UNL     1       4.249  -0.468   1.566  1.00  0.00    -0.229 NA
BRANCH   5  10
ATOM     10  C   UNL     1       2.302  -1.097  -2.031  1.00  0.00     0.029 C 
ATOM     11  C   UNL     1       1.199  -1.857  -2.108  1.00  0.00     0.014 C 
BRANCH  11  12
ATOM     12  C   UNL     1       0.049  -1.546  -2.965  1.00  0.00     0.017 A 
ATOM     13  C   UNL     1      -1.244  -1.654  -2.417  1.00  0.00     0.126 A 
ATOM     14  C   UNL     1      -2.376  -1.402  -3.193  1.00  0.00     0.047 A 
ATOM     15  C   UNL     1      -2.223  -0.987  -4.514  1.00  0.00     0.004 A 
ATOM     16  C   UNL     1       0.187  -1.127  -4.292  1.00  0.00     0.012 A 
ATOM     17  C   UNL     1      -0.946  -0.841  -5.059  1.00  0.00     0.001 A 
BRANCH  13  18
ATOM     18  O   UNL     1      -1.414  -2.062  -1.113  1.00  0.00    -0.489 OA
BRANCH  18  19
ATOM     19  C   UNL     1      -1.657  -0.951  -0.237  1.00  0.00     0.257 C 
BRANCH  19  20
ATOM     20  C   UNL     1      -0.466  -0.746   0.657  1.00  0.00     0.006 C 
ATOM     21  C   UNL     1       0.221   0.401   0.752  1.00  0.00     0.007 C 
ENDBRANCH  19  20
ENDBRANCH  18  19
ENDBRANCH  13  18
ENDBRANCH  11  12
ENDBRANCH   5  10
ENDBRANCH   2   4
ENDBRANCH   1   2
BRANCH   1  22
ATOM     22  C   UNL     1       3.314  -4.772   3.318  1.00  0.00     0.275 C 
BRANCH  22  23
ATOM     23  C   UNL     1       4.656  -5.514   3.314  1.00  0.00     0.275 C 
BRANCH  23  24
ATOM     24  O   UNL     1       5.752  -4.657   3.692  1.00  0.00    -0.458 OA
BRANCH  24  25
ATOM     25  C   UNL     1       6.370  -4.033   2.663  1.00  0.00     0.338 C 
ATOM     26  O   UNL     1       6.115  -4.144   1.474  1.00  0.00    -0.246 OA
BRANCH  25  27
ATOM     27  C   UNL     1       7.335  -3.047   3.173  1.00  0.00     0.060 A 
ATOM     28  C   UNL     1       7.048  -1.702   2.954  1.00  0.00     0.016 A 
ATOM     29  C   UNL     1       8.550  -3.416   3.746  1.00  0.00     0.016 A 
ATOM     30  C   UNL     1       7.970  -0.713   3.265  1.00  0.00     0.010 A 
ATOM     31  C   UNL     1       9.476  -2.418   4.087  1.00  0.00     0.010 A 
ATOM     32  C   UNL     1       9.197  -1.061   3.830  1.00  0.00    -0.014 A 
BRANCH  32  33
ATOM     33  C   UNL     1      10.198   0.004   4.082  1.00  0.00     0.031 A 
ATOM     34  C   UNL     1      11.438   0.077   3.237  1.00  0.00     0.074 A 
ATOM     35  C   UNL     1       9.960   0.947   5.013  1.00  0.00     0.049 A 
ATOM     36  N   UNL     1      12.467   0.879   3.348  1.00  0.00    -0.248 NA
ATOM     37  C   UNL     1      11.533  -0.874   2.118  1.00  0.00     0.031 C 
ATOM     38  C   UNL     1       8.753   1.041   5.838  1.00  0.00     0.029 A 
ATOM     39  N   UNL     1      10.719   2.019   5.411  1.00  0.00    -0.354 N 
ATOM     40  C   UNL     1      13.343   0.509   2.336  1.00  0.00     0.074 A 
ATOM     41  C   UNL     1      12.732  -0.594   1.627  1.00  0.00     0.031 C 
ATOM     42  C   UNL     1       8.846   2.121   6.630  1.00  0.00     0.029 A 
ATOM     43  C   UNL     1      10.141   2.758   6.415  1.00  0.00     0.049 A 
ATOM     44  H   UNL     1      11.593   2.237   5.015  1.00  0.00     0.167 HD
ATOM     45  C   UNL     1      14.549   1.043   2.026  1.00  0.00     0.031 A 
ATOM     46  C   UNL     1      10.616   3.810   7.107  1.00  0.00     0.031 A 
ATOM     47  C   UNL     1      15.148   2.150   2.722  1.00  0.00     0.049 A 
ATOM     48  C   UNL     1      11.992   4.330   6.796  1.00  0.00     0.074 A 
ATOM     49  C   UNL     1      16.376   2.748   2.497  1.00  0.00     0.029 A 
ATOM     50  N   UNL     1      14.556   2.833   3.773  1.00  0.00    -0.354 N 
ATOM     51  N   UNL     1      12.834   3.939   5.870  1.00  0.00    -0.248 NA
ATOM     52  C   UNL     1      12.486   5.432   7.633  1.00  0.00     0.031 C 
ATOM     53  C   UNL     1      16.544   3.769   3.438  1.00  0.00     0.029 A 
ATOM     54  C   UNL     1      15.399   3.838   4.216  1.00  0.00     0.049 A 
ATOM     55  H   UNL     1      13.669   2.633   4.148  1.00  0.00     0.167 HD
ATOM     56  C   UNL     1      13.946   4.760   5.999  1.00  0.00     0.074 A 
ATOM     57  C   UNL     1      13.665   5.681   7.080  1.00  0.00     0.031 C 
ATOM     58  C   UNL     1      15.099   4.749   5.288  1.00  0.00     0.031 A 
BRANCH  45  59
ATOM     59  C   UNL     1      15.320   0.405   0.907  1.00  0.00    -0.014 A 
ATOM     60  C   UNL     1      14.955   0.596  -0.434  1.00  0.00     0.009 A 
ATOM     61  C   UNL     1      16.452  -0.371   1.201  1.00  0.00     0.009 A 
ATOM     62  C   UNL     1      15.695   0.000  -1.458  1.00  0.00     0.001 A 
ATOM     63  C   UNL     1      17.204  -0.945   0.174  1.00  0.00     0.001 A 
ATOM     64  C   UNL     1      16.821  -0.765  -1.153  1.00  0.00     0.000 A 
ENDBRANCH  45  59
BRANCH  46  65
ATOM     65  C   UNL     1       9.808   4.417   8.197  1.00  0.00    -0.014 A 
ATOM     66  C   UNL     1       9.292   5.715   8.069  1.00  0.00     0.009 A 
ATOM     67  C   UNL     1       9.572   3.707   9.385  1.00  0.00     0.009 A 
ATOM     68  C   UNL     1       8.579   6.298   9.120  1.00  0.00     0.001 A 
ATOM     69  C   UNL     1       8.834   4.281  10.421  1.00  0.00     0.001 A 
ATOM     70  C   UNL     1       8.347   5.580  10.292  1.00  0.00     0.000 A 
ENDBRANCH  46  65
BRANCH  58  71
ATOM     71  C   UNL     1      16.121   5.794   5.630  1.00  0.00    -0.014 A 
ATOM     72  C   UNL     1      16.894   5.700   6.798  1.00  0.00     0.009 A 
ATOM     73  C   UNL     1      16.335   6.869   4.753  1.00  0.00     0.009 A 
ATOM     74  C   UNL     1      17.840   6.683   7.096  1.00  0.00     0.001 A 
ATOM     75  C   UNL     1      17.299   7.835   5.042  1.00  0.00     0.001 A 
ATOM     76  C   UNL     1      18.044   7.746   6.216  1.00  0.00     0.000 A 
ENDBRANCH  58  71
ENDBRANCH  32  33
ENDBRANCH  25  27
ENDBRANCH  24  25
ENDBRANCH  23  24
ENDBRANCH  22  23
ENDBRANCH   1  22
TORSDOF 16
