REMARK SMILES C[C@@H](Oc1ccc(I)cc1)C(=O)NCc1ccc(C(=O)OCCOC(=O)c2ccc(-c3c4nc(c(-c5ccccc5)c5ccc([nH]5)c(-c5ccccc5)c5nc(c(-c6ccccc6)c6ccc3[nH]6)C=C5)C=C4)cc2)cc1
REMARK SMILES IDX 21 1 19 2 20 3 18 4 15 5 16 6 76 7 17 8 75 9 14 10 13 11
REMARK SMILES IDX 11 12 12 13 2 15 1 16 3 17 4 18 5 19 10 20 6 21 9 22 7 23
REMARK SMILES IDX 8 24 22 25 23 26 24 27 25 28 26 29 27 30 28 31 74 32 29 33
REMARK SMILES IDX 73 34 30 35 31 36 32 37 67 38 33 39 72 40 66 41 68 42 34 43
REMARK SMILES IDX 71 44 65 45 64 46 35 48 57 49 42 50 56 51 43 52 46 53 55 54
REMARK SMILES IDX 69 55 44 56 45 57 54 59 70 60 47 61 36 62 37 63 41 64 38 65
REMARK SMILES IDX 40 66 39 67 58 68 59 69 63 70 60 71 62 72 61 73 48 74 49 75
REMARK SMILES IDX 53 76 50 77 52 78 51 79
REMARK H PARENT 13 14 68 47 46 58
REMARK Flexibility Score: inf
ROOT
ATOM      1  O   UNL     1      -3.679   5.901   0.902  1.00  0.00    -0.458 OA
ENDROOT
BRANCH   1   2
ATOM      2  C   UNL     1      -2.479   5.407   0.506  1.00  0.00     0.338 C 
ATOM      3  O   UNL     1      -1.605   6.010  -0.097  1.00  0.00    -0.246 OA
BRANCH   2   4
ATOM      4  C   UNL     1      -2.297   4.020   0.995  1.00  0.00     0.060 A 
ATOM      5  C   UNL     1      -1.822   1.390   1.873  1.00  0.00    -0.029 A 
ATOM      6  C   UNL     1      -0.772   2.311   1.792  1.00  0.00     0.006 A 
ATOM      7  C   UNL     1      -3.118   1.808   1.528  1.00  0.00     0.006 A 
ATOM      8  C   UNL     1      -1.002   3.602   1.322  1.00  0.00     0.016 A 
ATOM      9  C   UNL     1      -3.360   3.122   1.106  1.00  0.00     0.016 A 
BRANCH   5  10
ATOM     10  C   UNL     1      -1.546  -0.025   2.312  1.00  0.00     0.151 C 
BRANCH  10  11
ATOM     11  N   UNL     1      -1.744  -0.974   1.236  1.00  0.00    -0.349 N 
ATOM     12  C   UNL     1      -0.859  -1.616   0.426  1.00  0.00     0.261 C 
ATOM     13  O   UNL     1      -1.328  -2.431  -0.378  1.00  0.00    -0.271 OA
ATOM     14  H   UNL     1      -2.687  -1.194   1.060  1.00  0.00     0.163 HD
BRANCH  12  15
ATOM     15  C   UNL     1       0.651  -1.306   0.418  1.00  0.00     0.258 C 
ATOM     16  C   UNL     1       0.898  -0.058  -0.427  1.00  0.00     0.064 C 
BRANCH  15  17
ATOM     17  O   UNL     1       1.174  -1.165   1.740  1.00  0.00    -0.481 OA
BRANCH  17  18
ATOM     18  C   UNL     1       2.497  -1.490   1.840  1.00  0.00     0.120 A 
ATOM     19  C   UNL     1       3.471  -0.522   1.605  1.00  0.00     0.047 A 
ATOM     20  C   UNL     1       2.853  -2.750   2.319  1.00  0.00     0.047 A 
ATOM     21  C   UNL     1       4.818  -0.825   1.812  1.00  0.00     0.018 A 
ATOM     22  C   UNL     1       4.200  -3.053   2.535  1.00  0.00     0.018 A 
ATOM     23  C   UNL     1       5.177  -2.089   2.279  1.00  0.00     0.013 A 
ATOM     24  I   UNL     1       7.180  -2.525   2.629  1.00  0.00    -0.044 I 
ENDBRANCH  17  18
ENDBRANCH  15  17
ENDBRANCH  12  15
ENDBRANCH  10  11
ENDBRANCH   5  10
ENDBRANCH   2   4
ENDBRANCH   1   2
BRANCH   1  25
ATOM     25  C   UNL     1      -3.912   7.291   0.589  1.00  0.00     0.275 C 
BRANCH  25  26
ATOM     26  C   UNL     1      -3.597   8.178   1.792  1.00  0.00     0.275 C 
BRANCH  26  27
ATOM     27  O   UNL     1      -2.193   8.098   2.095  1.00  0.00    -0.458 OA
BRANCH  27  28
ATOM     28  C   UNL     1      -1.876   7.961   3.403  1.00  0.00     0.338 C 
ATOM     29  O   UNL     1      -2.636   7.964   4.355  1.00  0.00    -0.246 OA
BRANCH  28  30
ATOM     30  C   UNL     1      -0.414   7.807   3.544  1.00  0.00     0.060 A 
ATOM     31  C   UNL     1       0.263   6.840   2.805  1.00  0.00     0.016 A 
ATOM     32  C   UNL     1       0.270   8.558   4.499  1.00  0.00     0.016 A 
ATOM     33  C   UNL     1       1.603   6.559   3.073  1.00  0.00     0.010 A 
ATOM     34  C   UNL     1       1.637   8.338   4.703  1.00  0.00     0.010 A 
ATOM     35  C   UNL     1       2.313   7.309   4.022  1.00  0.00    -0.014 A 
BRANCH  35  36
ATOM     36  C   UNL     1       3.734   6.988   4.347  1.00  0.00     0.031 A 
ATOM     37  C   UNL     1       4.126   6.633   5.760  1.00  0.00     0.074 A 
ATOM     38  C   UNL     1       4.685   6.997   3.391  1.00  0.00     0.049 A 
ATOM     39  N   UNL     1       5.321   6.502   6.281  1.00  0.00    -0.248 NA
ATOM     40  C   UNL     1       3.030   6.411   6.717  1.00  0.00     0.031 C 
ATOM     41  C   UNL     1       4.464   7.272   1.970  1.00  0.00     0.029 A 
ATOM     42  N   UNL     1       6.036   6.757   3.474  1.00  0.00    -0.354 N 
ATOM     43  C   UNL     1       5.121   6.254   7.634  1.00  0.00     0.074 A 
ATOM     44  C   UNL     1       3.691   6.245   7.854  1.00  0.00     0.031 C 
ATOM     45  C   UNL     1       5.625   7.138   1.310  1.00  0.00     0.029 A 
ATOM     46  C   UNL     1       6.688   6.854   2.269  1.00  0.00     0.049 A 
ATOM     47  H   UNL     1       6.492   6.536   4.318  1.00  0.00     0.167 HD
ATOM     48  C   UNL     1       6.042   6.057   8.608  1.00  0.00     0.031 A 
ATOM     49  C   UNL     1       7.997   6.764   1.966  1.00  0.00     0.031 A 
ATOM     50  C   UNL     1       7.463   6.007   8.391  1.00  0.00     0.049 A 
ATOM     51  C   UNL     1       9.002   6.557   3.062  1.00  0.00     0.074 A 
ATOM     52  C   UNL     1       8.471   5.800   9.319  1.00  0.00     0.029 A 
ATOM     53  N   UNL     1       8.077   6.140   7.157  1.00  0.00    -0.354 N 
ATOM     54  N   UNL     1       8.799   6.397   4.346  1.00  0.00    -0.248 NA
ATOM     55  C   UNL     1      10.418   6.542   2.666  1.00  0.00     0.031 C 
ATOM     56  C   UNL     1       9.699   5.836   8.648  1.00  0.00     0.029 A 
ATOM     57  C   UNL     1       9.450   6.028   7.299  1.00  0.00     0.049 A 
ATOM     58  H   UNL     1       7.607   6.293   6.306  1.00  0.00     0.167 HD
ATOM     59  C   UNL     1      10.060   6.263   4.912  1.00  0.00     0.074 A 
ATOM     60  C   UNL     1      11.019   6.333   3.829  1.00  0.00     0.031 C 
ATOM     61  C   UNL     1      10.393   6.106   6.216  1.00  0.00     0.031 A 
BRANCH  48  62
ATOM     62  C   UNL     1       5.538   5.923  10.017  1.00  0.00    -0.014 A 
ATOM     63  C   UNL     1       4.921   4.748  10.470  1.00  0.00     0.009 A 
ATOM     64  C   UNL     1       5.720   6.987  10.916  1.00  0.00     0.009 A 
ATOM     65  C   UNL     1       4.467   4.654  11.788  1.00  0.00     0.001 A 
ATOM     66  C   UNL     1       5.286   6.881  12.238  1.00  0.00     0.001 A 
ATOM     67  C   UNL     1       4.653   5.717  12.671  1.00  0.00     0.000 A 
ENDBRANCH  48  62
BRANCH  49  68
ATOM     68  C   UNL     1       8.440   6.919   0.556  1.00  0.00    -0.014 A 
ATOM     69  C   UNL     1       8.909   5.814  -0.168  1.00  0.00     0.009 A 
ATOM     70  C   UNL     1       8.386   8.173  -0.073  1.00  0.00     0.009 A 
ATOM     71  C   UNL     1       9.324   5.963  -1.494  1.00  0.00     0.001 A 
ATOM     72  C   UNL     1       8.775   8.313  -1.406  1.00  0.00     0.001 A 
ATOM     73  C   UNL     1       9.249   7.210  -2.113  1.00  0.00     0.000 A 
ENDBRANCH  49  68
BRANCH  61  74
ATOM     74  C   UNL     1      11.853   5.981   6.537  1.00  0.00    -0.014 A 
ATOM     75  C   UNL     1      12.689   7.108   6.544  1.00  0.00     0.009 A 
ATOM     76  C   UNL     1      12.392   4.727   6.860  1.00  0.00     0.009 A 
ATOM     77  C   UNL     1      14.046   6.975   6.842  1.00  0.00     0.001 A 
ATOM     78  C   UNL     1      13.745   4.601   7.177  1.00  0.00     0.001 A 
ATOM     79  C   UNL     1      14.572   5.724   7.160  1.00  0.00     0.000 A 
ENDBRANCH  61  74
ENDBRANCH  35  36
ENDBRANCH  28  30
ENDBRANCH  27  28
ENDBRANCH  26  27
ENDBRANCH  25  26
ENDBRANCH   1  25
TORSDOF 16
