REMARK SMILES C/C(=N\[NH+]=C1\NC(=O)[C@H](CC(=O)OCCOC(=O)c2ccc(-c3c4nc(c(-c5ccccc5)c5ccc([nH]5)c(-c5ccccc5)c5nc(c(-c6ccccc6)c6ccc3[nH]6)C=C5)C=C4)cc2)S1)c1ccc([N+](=O)[O-])cc1
REMARK SMILES IDX 14 1 13 2 11 3 12 4 10 5 9 6 4 7 5 8 6 10 67 11 7 12 8 14
REMARK SMILES IDX 3 15 1 16 2 17 68 18 69 19 76 20 70 21 75 22 71 23 72 24
REMARK SMILES IDX 73 25 74 26 15 27 16 28 17 29 18 30 19 31 20 32 66 33 21 34
REMARK SMILES IDX 65 35 22 36 23 37 24 38 59 39 25 40 64 41 58 42 60 43 26 44
REMARK SMILES IDX 63 45 57 46 56 47 27 49 49 50 34 51 48 52 35 53 38 54 47 55
REMARK SMILES IDX 61 56 36 57 37 58 46 60 62 61 39 62 28 63 29 64 33 65 30 66
REMARK SMILES IDX 32 67 31 68 50 69 51 70 55 71 52 72 54 73 53 74 40 75 41 76
REMARK SMILES IDX 45 77 42 78 44 79 43 80
REMARK H PARENT 4 9 6 13 60 48 38 59
REMARK Flexibility Score: inf
ROOT
ATOM      1  C   UNL     1      -4.318   4.942   4.032  1.00  0.00     0.274 C 
ENDROOT
BRANCH   1   2
ATOM      2  O   UNL     1      -4.041   3.696   3.369  1.00  0.00    -0.462 OA
BRANCH   2   3
ATOM      3  C   UNL     1      -4.230   3.630   2.034  1.00  0.00     0.307 C 
ATOM      4  O   UNL     1      -4.630   4.548   1.331  1.00  0.00    -0.252 OA
BRANCH   3   5
ATOM      5  C   UNL     1      -3.934   2.250   1.501  1.00  0.00     0.150 C 
BRANCH   5   6
ATOM      6  C   UNL     1      -2.482   1.852   1.684  1.00  0.00     0.184 C 
ATOM      7  N   UNL     1      -0.461  -1.443   1.541  1.00  0.00    -0.142 N 
ATOM      8  C   UNL     1      -1.223  -0.412   1.685  1.00  0.00     0.337 C 
ATOM      9  H   UNL     1      -0.011  -1.867   2.308  1.00  0.00     0.343 HD
ATOM     10  N   UNL     1      -1.446   0.086   2.918  1.00  0.00    -0.202 N 
ATOM     11  S   UNL     1      -2.038   0.535   0.480  1.00  0.00    -0.020 SA
ATOM     12  C   UNL     1      -2.170   1.232   3.040  1.00  0.00     0.322 C 
ATOM     13  H   UNL     1      -1.092  -0.371   3.715  1.00  0.00     0.316 HD
ATOM     14  O   UNL     1      -2.476   1.682   4.135  1.00  0.00    -0.246 OA
BRANCH   7  15
ATOM     15  N   UNL     1      -0.309  -1.920   0.246  1.00  0.00    -0.090 NA
ATOM     16  C   UNL     1       1.639  -0.367   0.068  1.00  0.00     0.071 C 
ATOM     17  C   UNL     1       0.713  -1.466  -0.422  1.00  0.00     0.088 C 
BRANCH  17  18
ATOM     18  C   UNL     1       0.961  -2.030  -1.787  1.00  0.00    -0.000 A 
ATOM     19  C   UNL     1      -0.101  -2.639  -2.476  1.00  0.00     0.017 A 
ATOM     20  C   UNL     1       2.233  -1.999  -2.372  1.00  0.00     0.017 A 
ATOM     21  C   UNL     1       0.102  -3.209  -3.736  1.00  0.00     0.086 A 
ATOM     22  C   UNL     1       2.447  -2.574  -3.630  1.00  0.00     0.086 A 
ATOM     23  C   UNL     1       1.380  -3.177  -4.308  1.00  0.00     0.269 A 
BRANCH  23  24
ATOM     24  N   UNL     1       1.608  -3.788  -5.623  1.00  0.00     0.062 N 
ATOM     25  O   UNL     1       0.639  -4.309  -6.194  1.00  0.00    -0.258 OA
ATOM     26  O   UNL     1       2.757  -3.746  -6.085  1.00  0.00    -0.258 OA
ENDBRANCH  23  24
ENDBRANCH  17  18
ENDBRANCH   7  15
ENDBRANCH   5   6
ENDBRANCH   3   5
ENDBRANCH   2   3
ENDBRANCH   1   2
BRANCH   1  27
ATOM     27  C   UNL     1      -3.057   5.794   4.189  1.00  0.00     0.275 C 
BRANCH  27  28
ATOM     28  O   UNL     1      -2.701   6.436   2.951  1.00  0.00    -0.458 OA
BRANCH  28  29
ATOM     29  C   UNL     1      -1.802   5.774   2.187  1.00  0.00     0.338 C 
ATOM     30  O   UNL     1      -1.224   4.735   2.452  1.00  0.00    -0.246 OA
BRANCH  29  31
ATOM     31  C   UNL     1      -1.692   6.439   0.879  1.00  0.00     0.060 A 
ATOM     32  C   UNL     1      -1.978   5.699  -0.274  1.00  0.00     0.016 A 
ATOM     33  C   UNL     1      -1.260   7.762   0.789  1.00  0.00     0.016 A 
ATOM     34  C   UNL     1      -1.836   6.287  -1.530  1.00  0.00     0.010 A 
ATOM     35  C   UNL     1      -1.119   8.348  -0.469  1.00  0.00     0.010 A 
ATOM     36  C   UNL     1      -1.401   7.614  -1.635  1.00  0.00    -0.014 A 
BRANCH  36  37
ATOM     37  C   UNL     1      -1.210   8.248  -2.959  1.00  0.00     0.031 A 
ATOM     38  C   UNL     1       0.178   8.486  -3.476  1.00  0.00     0.074 A 
ATOM     39  C   UNL     1      -2.278   8.649  -3.672  1.00  0.00     0.049 A 
ATOM     40  N   UNL     1       0.564   9.162  -4.528  1.00  0.00    -0.248 NA
ATOM     41  C   UNL     1       1.279   7.889  -2.703  1.00  0.00     0.031 C 
ATOM     42  C   UNL     1      -3.675   8.433  -3.296  1.00  0.00     0.029 A 
ATOM     43  N   UNL     1      -2.349   9.344  -4.853  1.00  0.00    -0.354 N 
ATOM     44  C   UNL     1       1.951   9.092  -4.532  1.00  0.00     0.074 A 
ATOM     45  C   UNL     1       2.340   8.318  -3.372  1.00  0.00     0.031 C 
ATOM     46  C   UNL     1      -4.467   8.997  -4.224  1.00  0.00     0.029 A 
ATOM     47  C   UNL     1      -3.634   9.656  -5.225  1.00  0.00     0.049 A 
ATOM     48  H   UNL     1      -1.557   9.594  -5.382  1.00  0.00     0.167 HD
ATOM     49  C   UNL     1       2.819   9.629  -5.421  1.00  0.00     0.031 A 
ATOM     50  C   UNL     1      -4.086  10.422  -6.236  1.00  0.00     0.031 A 
ATOM     51  C   UNL     1       2.427  10.405  -6.567  1.00  0.00     0.049 A 
ATOM     52  C   UNL     1      -3.099  11.076  -7.163  1.00  0.00     0.074 A 
ATOM     53  C   UNL     1       3.232  10.983  -7.534  1.00  0.00     0.029 A 
ATOM     54  N   UNL     1       1.117  10.715  -6.898  1.00  0.00    -0.354 N 
ATOM     55  N   UNL     1      -1.790  11.001  -7.160  1.00  0.00    -0.248 NA
ATOM     56  C   UNL     1      -3.651  11.923  -8.230  1.00  0.00     0.031 C 
ATOM     57  C   UNL     1       2.411  11.685  -8.422  1.00  0.00     0.029 A 
ATOM     58  C   UNL     1       1.092  11.497  -8.040  1.00  0.00     0.049 A 
ATOM     59  H   UNL     1       0.323  10.423  -6.395  1.00  0.00     0.167 HD
ATOM     60  C   UNL     1      -1.364  11.763  -8.241  1.00  0.00     0.074 A 
ATOM     61  C   UNL     1      -2.554  12.289  -8.878  1.00  0.00     0.031 C 
ATOM     62  C   UNL     1      -0.101  12.002  -8.668  1.00  0.00     0.031 A 
BRANCH  49  63
ATOM     63  C   UNL     1       4.286   9.429  -5.165  1.00  0.00    -0.014 A 
ATOM     64  C   UNL     1       4.899   8.182  -5.361  1.00  0.00     0.009 A 
ATOM     65  C   UNL     1       5.073  10.517  -4.757  1.00  0.00     0.009 A 
ATOM     66  C   UNL     1       6.266   8.022  -5.124  1.00  0.00     0.001 A 
ATOM     67  C   UNL     1       6.444  10.361  -4.545  1.00  0.00     0.001 A 
ATOM     68  C   UNL     1       7.037   9.112  -4.721  1.00  0.00     0.000 A 
ENDBRANCH  49  63
BRANCH  50  69
ATOM     69  C   UNL     1      -5.546  10.641  -6.404  1.00  0.00    -0.014 A 
ATOM     70  C   UNL     1      -6.232  10.071  -7.487  1.00  0.00     0.009 A 
ATOM     71  C   UNL     1      -6.260  11.423  -5.482  1.00  0.00     0.009 A 
ATOM     72  C   UNL     1      -7.601  10.297  -7.653  1.00  0.00     0.001 A 
ATOM     73  C   UNL     1      -7.633  11.623  -5.636  1.00  0.00     0.001 A 
ATOM     74  C   UNL     1      -8.301  11.067  -6.725  1.00  0.00     0.000 A 
ENDBRANCH  50  69
BRANCH  62  75
ATOM     75  C   UNL     1       0.065  12.826  -9.912  1.00  0.00    -0.014 A 
ATOM     76  C   UNL     1      -0.112  14.217  -9.896  1.00  0.00     0.009 A 
ATOM     77  C   UNL     1       0.471  12.202 -11.103  1.00  0.00     0.009 A 
ATOM     78  C   UNL     1       0.096  14.966 -11.057  1.00  0.00     0.001 A 
ATOM     79  C   UNL     1       0.702  12.956 -12.254  1.00  0.00     0.001 A 
ATOM     80  C   UNL     1       0.509  14.336 -12.231  1.00  0.00     0.000 A 
ENDBRANCH  62  75
ENDBRANCH  36  37
ENDBRANCH  29  31
ENDBRANCH  28  29
ENDBRANCH  27  28
ENDBRANCH   1  27
TORSDOF 15
