REMARK SMILES Cc1ccc(C(=O)N2C[C@H](C(=O)OCCOC(=O)c3ccc(-c4c5nc(c(-c6ccccc6)c6ccc([nH]6)c(-c6ccccc6)c6nc(c(-c7ccccc7)c7ccc4[nH]7)C=C6)C=C5)cc3)Oc3ccccc32)o1
REMARK SMILES IDX 14 1 13 2 11 3 12 4 10 5 8 6 9 7 73 8 68 9 72 10 67 11 69 12
REMARK SMILES IDX 71 13 70 14 6 15 7 16 5 17 1 18 2 19 3 20 74 21 4 22 15 23
REMARK SMILES IDX 16 24 17 25 18 26 19 27 20 28 66 29 21 30 65 31 22 32 23 33
REMARK SMILES IDX 24 34 59 35 25 36 64 37 58 38 60 39 26 40 63 41 57 42 56 43
REMARK SMILES IDX 27 45 49 46 34 47 48 48 35 49 38 50 47 51 61 52 36 53 37 54
REMARK SMILES IDX 46 56 62 57 39 58 28 59 29 60 33 61 30 62 32 63 31 64 50 65
REMARK SMILES IDX 51 66 55 67 52 68 54 69 53 70 40 71 41 72 45 73 42 74 44 75
REMARK SMILES IDX 43 76
REMARK H PARENT 60 44 38 55
REMARK Flexibility Score: inf
ROOT
ATOM      1  C   UNL     1      -6.970  -1.672   3.686  1.00  0.00     0.274 C 
ENDROOT
BRANCH   1   2
ATOM      2  O   UNL     1      -6.350  -1.093   2.517  1.00  0.00    -0.459 OA
BRANCH   2   3
ATOM      3  C   UNL     1      -6.605   0.228   2.315  1.00  0.00     0.349 C 
ATOM      4  O   UNL     1      -7.308   0.915   3.052  1.00  0.00    -0.248 OA
BRANCH   3   5
ATOM      5  C   UNL     1      -5.948   0.793   1.067  1.00  0.00     0.302 C 
ATOM      6  N   UNL     1      -3.981   0.982  -0.366  1.00  0.00    -0.298 N 
ATOM      7  C   UNL     1      -4.566   0.228   0.754  1.00  0.00     0.183 C 
ATOM      8  C   UNL     1      -4.914   1.425  -1.359  1.00  0.00     0.087 A 
ATOM      9  C   UNL     1      -6.290   1.178  -1.183  1.00  0.00     0.144 A 
ATOM     10  C   UNL     1      -4.499   2.051  -2.542  1.00  0.00     0.030 A 
ATOM     11  O   UNL     1      -6.817   0.594  -0.052  1.00  0.00    -0.475 OA
ATOM     12  C   UNL     1      -7.215   1.527  -2.168  1.00  0.00     0.049 A 
ATOM     13  C   UNL     1      -5.428   2.419  -3.519  1.00  0.00     0.002 A 
ATOM     14  C   UNL     1      -6.783   2.154  -3.334  1.00  0.00     0.004 A 
BRANCH   6  15
ATOM     15  C   UNL     1      -2.648   1.413  -0.355  1.00  0.00     0.294 C 
ATOM     16  O   UNL     1      -2.358   2.579  -0.635  1.00  0.00    -0.265 OA
BRANCH  15  17
ATOM     17  C   UNL     1      -1.623   0.419  -0.067  1.00  0.00     0.192 A 
ATOM     18  C   UNL     1       1.934   0.049   0.165  1.00  0.00     0.087 C 
ATOM     19  C   UNL     1       0.483  -0.222   0.139  1.00  0.00     0.101 A 
ATOM     20  C   UNL     1      -0.274  -1.369   0.196  1.00  0.00     0.046 A 
ATOM     21  O   UNL     1      -0.325   0.862   0.001  1.00  0.00    -0.456 OA
ATOM     22  C   UNL     1      -1.625  -0.960   0.059  1.00  0.00     0.056 A 
ENDBRANCH  15  17
ENDBRANCH   6  15
ENDBRANCH   3   5
ENDBRANCH   2   3
ENDBRANCH   1   2
BRANCH   1  23
ATOM     23  C   UNL     1      -6.026  -1.714   4.895  1.00  0.00     0.275 C 
BRANCH  23  24
ATOM     24  O   UNL     1      -5.706  -0.401   5.394  1.00  0.00    -0.458 OA
BRANCH  24  25
ATOM     25  C   UNL     1      -4.624   0.171   4.818  1.00  0.00     0.338 C 
ATOM     26  O   UNL     1      -3.912  -0.318   3.956  1.00  0.00    -0.246 OA
BRANCH  25  27
ATOM     27  C   UNL     1      -4.473   1.567   5.255  1.00  0.00     0.060 A 
ATOM     28  C   UNL     1      -4.450   2.557   4.268  1.00  0.00     0.016 A 
ATOM     29  C   UNL     1      -4.228   1.893   6.591  1.00  0.00     0.016 A 
ATOM     30  C   UNL     1      -4.154   3.873   4.602  1.00  0.00     0.010 A 
ATOM     31  C   UNL     1      -3.926   3.218   6.926  1.00  0.00     0.010 A 
ATOM     32  C   UNL     1      -3.862   4.208   5.929  1.00  0.00    -0.014 A 
BRANCH  32  33
ATOM     33  C   UNL     1      -3.385   5.576   6.238  1.00  0.00     0.031 A 
ATOM     34  C   UNL     1      -1.916   5.818   6.445  1.00  0.00     0.074 A 
ATOM     35  C   UNL     1      -4.250   6.604   6.271  1.00  0.00     0.049 A 
ATOM     36  N   UNL     1      -1.295   6.930   6.744  1.00  0.00    -0.248 NA
ATOM     37  C   UNL     1      -1.030   4.653   6.293  1.00  0.00     0.031 C 
ATOM     38  C   UNL     1      -5.689   6.509   6.026  1.00  0.00     0.029 A 
ATOM     39  N   UNL     1      -4.036   7.937   6.513  1.00  0.00    -0.354 N 
ATOM     40  C   UNL     1       0.050   6.598   6.833  1.00  0.00     0.074 A 
ATOM     41  C   UNL     1       0.155   5.178   6.573  1.00  0.00     0.031 C 
ATOM     42  C   UNL     1      -6.229   7.735   6.122  1.00  0.00     0.029 A 
ATOM     43  C   UNL     1      -5.181   8.693   6.469  1.00  0.00     0.049 A 
ATOM     44  H   UNL     1      -3.147   8.316   6.701  1.00  0.00     0.167 HD
ATOM     45  C   UNL     1       1.105   7.402   7.103  1.00  0.00     0.031 A 
ATOM     46  C   UNL     1      -5.366  10.006   6.697  1.00  0.00     0.031 A 
ATOM     47  C   UNL     1       1.007   8.815   7.355  1.00  0.00     0.049 A 
ATOM     48  C   UNL     1      -4.185  10.869   7.047  1.00  0.00     0.074 A 
ATOM     49  C   UNL     1       2.019   9.713   7.645  1.00  0.00     0.029 A 
ATOM     50  N   UNL     1      -0.177   9.535   7.338  1.00  0.00    -0.354 N 
ATOM     51  N   UNL     1      -2.921  10.538   7.147  1.00  0.00    -0.248 NA
ATOM     52  C   UNL     1      -4.460  12.288   7.314  1.00  0.00     0.031 C 
ATOM     53  C   UNL     1       1.442  10.973   7.840  1.00  0.00     0.029 A 
ATOM     54  C   UNL     1       0.077  10.865   7.628  1.00  0.00     0.049 A 
ATOM     55  H   UNL     1      -1.066   9.158   7.149  1.00  0.00     0.167 HD
ATOM     56  C   UNL     1      -2.247  11.710   7.467  1.00  0.00     0.074 A 
ATOM     57  C   UNL     1      -3.241  12.762   7.532  1.00  0.00     0.031 C 
ATOM     58  C   UNL     1      -0.924  11.898   7.687  1.00  0.00     0.031 A 
BRANCH  45  59
ATOM     59  C   UNL     1       2.458   6.757   7.178  1.00  0.00    -0.014 A 
ATOM     60  C   UNL     1       3.139   6.353   6.020  1.00  0.00     0.009 A 
ATOM     61  C   UNL     1       3.068   6.568   8.428  1.00  0.00     0.009 A 
ATOM     62  C   UNL     1       4.393   5.746   6.115  1.00  0.00     0.001 A 
ATOM     63  C   UNL     1       4.331   5.981   8.518  1.00  0.00     0.001 A 
ATOM     64  C   UNL     1       4.989   5.563   7.363  1.00  0.00     0.000 A 
ENDBRANCH  45  59
BRANCH  46  65
ATOM     65  C   UNL     1      -6.730  10.587   6.620  1.00  0.00    -0.014 A 
ATOM     66  C   UNL     1      -7.088  11.435   5.562  1.00  0.00     0.009 A 
ATOM     67  C   UNL     1      -7.678  10.301   7.615  1.00  0.00     0.009 A 
ATOM     68  C   UNL     1      -8.364  12.001   5.512  1.00  0.00     0.001 A 
ATOM     69  C   UNL     1      -8.960  10.849   7.549  1.00  0.00     0.001 A 
ATOM     70  C   UNL     1      -9.299  11.705   6.503  1.00  0.00     0.000 A 
ENDBRANCH  46  65
BRANCH  58  71
ATOM     71  C   UNL     1      -0.472  13.297   7.985  1.00  0.00    -0.014 A 
ATOM     72  C   UNL     1      -0.694  13.880   9.242  1.00  0.00     0.009 A 
ATOM     73  C   UNL     1       0.217  14.028   7.005  1.00  0.00     0.009 A 
ATOM     74  C   UNL     1      -0.260  15.181   9.502  1.00  0.00     0.001 A 
ATOM     75  C   UNL     1       0.669  15.321   7.275  1.00  0.00     0.001 A 
ATOM     76  C   UNL     1       0.424  15.898   8.520  1.00  0.00     0.000 A 
ENDBRANCH  58  71
ENDBRANCH  32  33
ENDBRANCH  25  27
ENDBRANCH  24  25
ENDBRANCH  23  24
ENDBRANCH   1  23
TORSDOF 13
