REMARK SMILES CC[NH2+][C@]1(C(=O)OCCOC(=O)c2ccc(-c3c4nc(c(-c5ccccc5)c5ccc([nH]5)c(-c5ccccc5)c5nc(c(-c6ccccc6)c6ccc3[nH]6)C=C5)C=C4)cc2)CCC[C@H]1CC[N@H+]1CCC[C@@H](CC)C1
REMARK SMILES IDX 8 1 7 2 5 3 6 4 4 5 61 6 64 7 62 8 63 9 3 10 2 13 1 14 65 15
REMARK SMILES IDX 66 16 67 17 68 18 74 19 69 21 71 22 70 23 72 24 73 25 9 26
REMARK SMILES IDX 10 27 11 28 12 29 13 30 14 31 60 32 15 33 59 34 16 35 17 36
REMARK SMILES IDX 18 37 53 38 19 39 58 40 52 41 54 42 20 43 57 44 51 45 50 46
REMARK SMILES IDX 21 48 43 49 28 50 42 51 29 52 32 53 41 54 55 55 30 56 31 57
REMARK SMILES IDX 40 59 56 60 33 61 22 62 23 63 27 64 24 65 26 66 25 67 44 68
REMARK SMILES IDX 45 69 49 70 46 71 48 72 47 73 34 74 35 75 39 76 36 77 38 78
REMARK SMILES IDX 37 79
REMARK H PARENT 3 11 3 12 67 20 54 47 32 58
REMARK Flexibility Score: inf
ROOT
ATOM      1  C   UNL     1       2.380   1.482   0.830  1.00  0.00     0.274 C 
ENDROOT
BRANCH   1   2
ATOM      2  O   UNL     1       1.985   0.582   1.893  1.00  0.00    -0.457 OA
BRANCH   2   3
ATOM      3  C   UNL     1       1.165   1.074   2.848  1.00  0.00     0.368 C 
ATOM      4  O   UNL     1       0.746   2.230   2.839  1.00  0.00    -0.245 OA
BRANCH   3   5
ATOM      5  C   UNL     1       0.889   0.082   4.019  1.00  0.00     0.197 C 
ATOM      6  C   UNL     1      -0.549   0.401   4.504  1.00  0.00     0.081 C 
ATOM      7  C   UNL     1       0.791  -1.472   3.845  1.00  0.00     0.068 C 
ATOM      8  C   UNL     1      -0.938  -0.710   5.461  1.00  0.00     0.008 C 
ATOM      9  C   UNL     1      -0.064  -1.899   5.077  1.00  0.00     0.011 C 
BRANCH   5  10
ATOM     10  N   UNL     1       1.826   0.461   5.125  1.00  0.00    -0.332 N 
ATOM     11  H   UNL     1       1.878   1.478   5.167  1.00  0.00     0.347 HD
ATOM     12  H   UNL     1       1.453   0.050   5.981  1.00  0.00     0.347 HD
BRANCH  10  13
ATOM     13  C   UNL     1       3.182  -0.062   4.963  1.00  0.00     0.257 C 
ATOM     14  C   UNL     1       4.144   0.760   5.802  1.00  0.00     0.071 C 
ENDBRANCH  10  13
ENDBRANCH   5  10
BRANCH   7  15
ATOM     15  C   UNL     1       0.140  -2.072   2.576  1.00  0.00     0.072 C 
BRANCH  15  16
ATOM     16  C   UNL     1       1.044  -2.275   1.348  1.00  0.00     0.262 C 
BRANCH  16  17
ATOM     17  N   UNL     1       2.353  -2.903   1.643  1.00  0.00    -0.335 N 
ATOM     18  C   UNL     1       2.413  -4.266   1.086  1.00  0.00     0.262 C 
ATOM     19  C   UNL     1       3.437  -2.072   1.089  1.00  0.00     0.265 C 
ATOM     20  H   UNL     1       2.468  -2.970   2.654  1.00  0.00     0.348 HD
ATOM     21  C   UNL     1       3.788  -4.917   1.272  1.00  0.00     0.062 C 
ATOM     22  C   UNL     1       4.844  -2.659   1.262  1.00  0.00     0.044 C 
ATOM     23  C   UNL     1       4.896  -4.063   0.659  1.00  0.00     0.015 C 
BRANCH  22  24
ATOM     24  C   UNL     1       5.945  -1.733   0.700  1.00  0.00     0.006 C 
ATOM     25  C   UNL     1       5.652  -1.096  -0.653  1.00  0.00     0.004 C 
ENDBRANCH  22  24
ENDBRANCH  16  17
ENDBRANCH  15  16
ENDBRANCH   7  15
ENDBRANCH   3   5
ENDBRANCH   2   3
ENDBRANCH   1   2
BRANCH   1  26
ATOM     26  C   UNL     1       1.601   1.183  -0.450  1.00  0.00     0.275 C 
BRANCH  26  27
ATOM     27  O   UNL     1       0.217   1.475  -0.211  1.00  0.00    -0.458 OA
BRANCH  27  28
ATOM     28  C   UNL     1      -0.688   0.557  -0.606  1.00  0.00     0.338 C 
ATOM     29  O   UNL     1      -0.488  -0.453  -1.268  1.00  0.00    -0.246 OA
BRANCH  28  30
ATOM     30  C   UNL     1      -2.011   0.955  -0.091  1.00  0.00     0.060 A 
ATOM     31  C   UNL     1      -2.132   1.474   1.201  1.00  0.00     0.016 A 
ATOM     32  C   UNL     1      -3.146   0.785  -0.880  1.00  0.00     0.016 A 
ATOM     33  C   UNL     1      -3.377   1.801   1.724  1.00  0.00     0.010 A 
ATOM     34  C   UNL     1      -4.387   1.196  -0.389  1.00  0.00     0.010 A 
ATOM     35  C   UNL     1      -4.511   1.709   0.915  1.00  0.00    -0.014 A 
BRANCH  35  36
ATOM     36  C   UNL     1      -5.829   2.185   1.396  1.00  0.00     0.031 A 
ATOM     37  C   UNL     1      -6.980   1.229   1.469  1.00  0.00     0.074 A 
ATOM     38  C   UNL     1      -6.002   3.488   1.691  1.00  0.00     0.049 A 
ATOM     39  N   UNL     1      -8.259   1.482   1.544  1.00  0.00    -0.248 NA
ATOM     40  C   UNL     1      -6.645  -0.203   1.432  1.00  0.00     0.031 C 
ATOM     41  C   UNL     1      -4.946   4.504   1.722  1.00  0.00     0.029 A 
ATOM     42  N   UNL     1      -7.142   4.187   1.997  1.00  0.00    -0.354 N 
ATOM     43  C   UNL     1      -8.888   0.245   1.503  1.00  0.00     0.074 A 
ATOM     44  C   UNL     1      -7.849  -0.758   1.409  1.00  0.00     0.031 C 
ATOM     45  C   UNL     1      -5.487   5.692   2.027  1.00  0.00     0.029 A 
ATOM     46  C   UNL     1      -6.932   5.539   2.120  1.00  0.00     0.049 A 
ATOM     47  H   UNL     1      -8.022   3.762   2.115  1.00  0.00     0.167 HD
ATOM     48  C   UNL     1     -10.216  -0.019   1.523  1.00  0.00     0.031 A 
ATOM     49  C   UNL     1      -7.809   6.554   2.226  1.00  0.00     0.031 A 
ATOM     50  C   UNL     1     -11.231   0.996   1.630  1.00  0.00     0.049 A 
ATOM     51  C   UNL     1      -9.276   6.245   2.191  1.00  0.00     0.074 A 
ATOM     52  C   UNL     1     -12.606   0.848   1.647  1.00  0.00     0.029 A 
ATOM     53  N   UNL     1     -10.971   2.353   1.750  1.00  0.00    -0.354 N 
ATOM     54  N   UNL     1      -9.868   5.080   2.075  1.00  0.00    -0.248 NA
ATOM     55  C   UNL     1     -10.194   7.387   2.279  1.00  0.00     0.031 C 
ATOM     56  C   UNL     1     -13.180   2.120   1.747  1.00  0.00     0.029 A 
ATOM     57  C   UNL     1     -12.160   3.056   1.835  1.00  0.00     0.049 A 
ATOM     58  H   UNL     1     -10.074   2.757   1.772  1.00  0.00     0.167 HD
ATOM     59  C   UNL     1     -11.229   5.347   2.089  1.00  0.00     0.074 A 
ATOM     60  C   UNL     1     -11.373   6.782   2.238  1.00  0.00     0.031 C 
ATOM     61  C   UNL     1     -12.268   4.483   1.984  1.00  0.00     0.031 A 
BRANCH  48  62
ATOM     62  C   UNL     1     -10.640  -1.452   1.371  1.00  0.00    -0.014 A 
ATOM     63  C   UNL     1     -10.484  -2.378   2.414  1.00  0.00     0.009 A 
ATOM     64  C   UNL     1     -11.226  -1.876   0.168  1.00  0.00     0.009 A 
ATOM     65  C   UNL     1     -10.880  -3.708   2.242  1.00  0.00     0.001 A 
ATOM     66  C   UNL     1     -11.641  -3.199   0.007  1.00  0.00     0.001 A 
ATOM     67  C   UNL     1     -11.460  -4.116   1.041  1.00  0.00     0.000 A 
ENDBRANCH  48  62
BRANCH  49  68
ATOM     68  C   UNL     1      -7.313   7.952   2.306  1.00  0.00    -0.014 A 
ATOM     69  C   UNL     1      -7.392   8.667   3.509  1.00  0.00     0.009 A 
ATOM     70  C   UNL     1      -6.716   8.563   1.191  1.00  0.00     0.009 A 
ATOM     71  C   UNL     1      -6.889   9.968   3.592  1.00  0.00     0.001 A 
ATOM     72  C   UNL     1      -6.190   9.852   1.284  1.00  0.00     0.001 A 
ATOM     73  C   UNL     1      -6.281  10.556   2.484  1.00  0.00     0.000 A 
ENDBRANCH  49  68
BRANCH  61  74
ATOM     74  C   UNL     1     -13.643   5.074   2.067  1.00  0.00    -0.014 A 
ATOM     75  C   UNL     1     -14.212   5.741   0.973  1.00  0.00     0.009 A 
ATOM     76  C   UNL     1     -14.386   4.931   3.249  1.00  0.00     0.009 A 
ATOM     77  C   UNL     1     -15.496   6.279   1.071  1.00  0.00     0.001 A 
ATOM     78  C   UNL     1     -15.676   5.453   3.336  1.00  0.00     0.001 A 
ATOM     79  C   UNL     1     -16.227   6.133   2.250  1.00  0.00     0.000 A 
ENDBRANCH  61  74
ENDBRANCH  35  36
ENDBRANCH  28  30
ENDBRANCH  27  28
ENDBRANCH  26  27
ENDBRANCH   1  26
TORSDOF 17
