REMARK SMILES COc1cccc(/C=C2/C(=O)N(c3cccc(C(=O)OCCOC(=O)c4ccc(-c5c6nc(c(-c7ccccc7)c7ccc([nH]7)c(-c7ccccc7)c7nc(c(-c8ccccc8)c8ccc5[nH]8)C=C7)C=C6)cc4)c3)N=C2C)c1
REMARK SMILES IDX 21 1 20 2 18 3 19 4 17 5 13 6 14 7 74 8 15 9 16 10 12 11
REMARK SMILES IDX 8 12 9 13 10 14 76 15 11 16 75 17 77 18 7 19 3 20 4 21 78 22
REMARK SMILES IDX 5 23 6 24 2 25 1 26 22 27 23 28 24 29 25 30 26 31 27 32
REMARK SMILES IDX 73 33 28 34 72 35 29 36 30 37 31 38 66 39 32 40 71 41 65 42
REMARK SMILES IDX 67 43 33 44 70 45 64 46 63 47 34 49 56 50 41 51 55 52 42 53
REMARK SMILES IDX 45 54 54 55 68 56 43 57 44 58 53 60 69 61 46 62 35 63 36 64
REMARK SMILES IDX 40 65 37 66 39 67 38 68 57 69 58 70 62 71 59 72 61 73 60 74
REMARK SMILES IDX 47 75 48 76 52 77 49 78 51 79 50 80
REMARK H PARENT 67 48 45 59
REMARK Flexibility Score: inf
ROOT
ATOM      1  C   UNL     1      11.907  -1.488  -2.150  1.00  0.00     0.275 C 
ENDROOT
BRANCH   1   2
ATOM      2  O   UNL     1      10.950  -2.452  -1.665  1.00  0.00    -0.458 OA
BRANCH   2   3
ATOM      3  C   UNL     1      11.271  -3.766  -1.790  1.00  0.00     0.338 C 
ATOM      4  O   UNL     1      12.300  -4.223  -2.259  1.00  0.00    -0.246 OA
BRANCH   3   5
ATOM      5  C   UNL     1      10.242  -4.595  -1.113  1.00  0.00     0.062 A 
ATOM      6  C   UNL     1       7.973  -4.926  -0.356  1.00  0.00     0.070 A 
ATOM      7  C   UNL     1       8.396  -5.968   0.475  1.00  0.00     0.028 A 
ATOM      8  C   UNL     1       8.904  -4.216  -1.121  1.00  0.00     0.044 A 
ATOM      9  C   UNL     1       9.714  -6.410   0.410  1.00  0.00     0.003 A 
ATOM     10  C   UNL     1      10.619  -5.757  -0.427  1.00  0.00     0.016 A 
BRANCH   6  11
ATOM     11  N   UNL     1       6.610  -4.626  -0.468  1.00  0.00    -0.196 N 
ATOM     12  C   UNL     1       3.617  -3.745  -2.079  1.00  0.00     0.024 C 
ATOM     13  C   UNL     1       4.570  -4.066  -1.198  1.00  0.00     0.065 C 
ATOM     14  C   UNL     1       5.971  -4.214  -1.641  1.00  0.00     0.280 C 
ATOM     15  C   UNL     1       4.604  -4.370   0.247  1.00  0.00     0.071 C 
ATOM     16  O   UNL     1       6.391  -4.040  -2.768  1.00  0.00    -0.267 OA
ATOM     17  N   UNL     1       5.794  -4.742   0.642  1.00  0.00    -0.169 NA
ATOM     18  C   UNL     1       3.455  -4.244   1.188  1.00  0.00     0.069 C 
BRANCH  12  19
ATOM     19  C   UNL     1       2.223  -3.526  -1.728  1.00  0.00    -0.021 A 
ATOM     20  C   UNL     1       0.571  -2.177  -0.587  1.00  0.00     0.119 A 
ATOM     21  C   UNL     1      -0.388  -3.154  -0.858  1.00  0.00     0.046 A 
ATOM     22  C   UNL     1       1.875  -2.360  -1.036  1.00  0.00     0.054 A 
ATOM     23  C   UNL     1      -0.057  -4.292  -1.598  1.00  0.00     0.004 A 
ATOM     24  C   UNL     1       1.252  -4.481  -2.034  1.00  0.00     0.008 A 
BRANCH  20  25
ATOM     25  O   UNL     1       0.144  -1.121   0.170  1.00  0.00    -0.497 OA
ATOM     26  C   UNL     1       0.911   0.074   0.061  1.00  0.00     0.278 C 
ENDBRANCH  20  25
ENDBRANCH  12  19
ENDBRANCH   6  11
ENDBRANCH   3   5
ENDBRANCH   2   3
ENDBRANCH   1   2
BRANCH   1  27
ATOM     27  C   UNL     1      12.636  -0.789  -0.999  1.00  0.00     0.275 C 
BRANCH  27  28
ATOM     28  O   UNL     1      13.509  -1.708  -0.315  1.00  0.00    -0.458 OA
BRANCH  28  29
ATOM     29  C   UNL     1      13.050  -2.147   0.877  1.00  0.00     0.338 C 
ATOM     30  O   UNL     1      12.028  -1.815   1.453  1.00  0.00    -0.246 OA
BRANCH  29  31
ATOM     31  C   UNL     1      13.902  -3.236   1.373  1.00  0.00     0.060 A 
ATOM     32  C   UNL     1      13.546  -4.524   0.999  1.00  0.00     0.016 A 
ATOM     33  C   UNL     1      14.881  -3.038   2.338  1.00  0.00     0.016 A 
ATOM     34  C   UNL     1      14.062  -5.629   1.661  1.00  0.00     0.010 A 
ATOM     35  C   UNL     1      15.484  -4.156   2.936  1.00  0.00     0.010 A 
ATOM     36  C   UNL     1      15.044  -5.464   2.643  1.00  0.00    -0.014 A 
BRANCH  36  37
ATOM     37  C   UNL     1      15.541  -6.647   3.404  1.00  0.00     0.031 A 
ATOM     38  C   UNL     1      15.404  -6.687   4.907  1.00  0.00     0.074 A 
ATOM     39  C   UNL     1      16.072  -7.709   2.763  1.00  0.00     0.049 A 
ATOM     40  N   UNL     1      15.903  -7.544   5.763  1.00  0.00    -0.248 NA
ATOM     41  C   UNL     1      14.610  -5.615   5.529  1.00  0.00     0.031 C 
ATOM     42  C   UNL     1      16.201  -7.853   1.310  1.00  0.00     0.029 A 
ATOM     43  N   UNL     1      16.596  -8.880   3.255  1.00  0.00    -0.354 N 
ATOM     44  C   UNL     1      15.530  -7.085   7.022  1.00  0.00     0.074 A 
ATOM     45  C   UNL     1      14.781  -5.864   6.820  1.00  0.00     0.031 C 
ATOM     46  C   UNL     1      16.727  -9.055   1.030  1.00  0.00     0.029 A 
ATOM     47  C   UNL     1      17.065  -9.727   2.278  1.00  0.00     0.049 A 
ATOM     48  H   UNL     1      16.633  -9.093   4.215  1.00  0.00     0.167 HD
ATOM     49  C   UNL     1      15.783  -7.630   8.236  1.00  0.00     0.031 A 
ATOM     50  C   UNL     1      17.734 -10.892   2.370  1.00  0.00     0.031 A 
ATOM     51  C   UNL     1      16.501  -8.862   8.437  1.00  0.00     0.049 A 
ATOM     52  C   UNL     1      18.076 -11.433   3.730  1.00  0.00     0.074 A 
ATOM     53  C   UNL     1      16.814  -9.495   9.628  1.00  0.00     0.029 A 
ATOM     54  N   UNL     1      17.004  -9.657   7.418  1.00  0.00    -0.354 N 
ATOM     55  N   UNL     1      17.765 -10.960   4.912  1.00  0.00    -0.248 NA
ATOM     56  C   UNL     1      18.869 -12.670   3.766  1.00  0.00     0.031 C 
ATOM     57  C   UNL     1      17.552 -10.645   9.332  1.00  0.00     0.029 A 
ATOM     58  C   UNL     1      17.638 -10.766   7.954  1.00  0.00     0.049 A 
ATOM     59  H   UNL     1      16.923  -9.462   6.457  1.00  0.00     0.167 HD
ATOM     60  C   UNL     1      18.293 -11.859   5.830  1.00  0.00     0.074 A 
ATOM     61  C   UNL     1      18.928 -12.913   5.067  1.00  0.00     0.031 C 
ATOM     62  C   UNL     1      18.255 -11.815   7.184  1.00  0.00     0.031 A 
BRANCH  49  63
ATOM     63  C   UNL     1      15.315  -6.874   9.451  1.00  0.00    -0.014 A 
ATOM     64  C   UNL     1      13.953  -6.765   9.773  1.00  0.00     0.009 A 
ATOM     65  C   UNL     1      16.261  -6.289  10.309  1.00  0.00     0.009 A 
ATOM     66  C   UNL     1      13.547  -6.053  10.905  1.00  0.00     0.001 A 
ATOM     67  C   UNL     1      15.855  -5.607  11.458  1.00  0.00     0.001 A 
ATOM     68  C   UNL     1      14.498  -5.480  11.749  1.00  0.00     0.000 A 
ENDBRANCH  49  63
BRANCH  50  69
ATOM     69  C   UNL     1      18.175 -11.608   1.141  1.00  0.00    -0.014 A 
ATOM     70  C   UNL     1      17.653 -12.870   0.821  1.00  0.00     0.009 A 
ATOM     71  C   UNL     1      19.148 -11.046   0.297  1.00  0.00     0.009 A 
ATOM     72  C   UNL     1      18.118 -13.567  -0.297  1.00  0.00     0.001 A 
ATOM     73  C   UNL     1      19.582 -11.728  -0.841  1.00  0.00     0.001 A 
ATOM     74  C   UNL     1      19.078 -12.993  -1.130  1.00  0.00     0.000 A 
ENDBRANCH  50  69
BRANCH  62  75
ATOM     75  C   UNL     1      18.856 -12.976   7.926  1.00  0.00    -0.014 A 
ATOM     76  C   UNL     1      20.242 -13.193   7.958  1.00  0.00     0.009 A 
ATOM     77  C   UNL     1      18.014 -13.858   8.623  1.00  0.00     0.009 A 
ATOM     78  C   UNL     1      20.768 -14.294   8.638  1.00  0.00     0.001 A 
ATOM     79  C   UNL     1      18.545 -14.936   9.330  1.00  0.00     0.001 A 
ATOM     80  C   UNL     1      19.920 -15.161   9.327  1.00  0.00     0.000 A 
ENDBRANCH  62  75
ENDBRANCH  36  37
ENDBRANCH  29  31
ENDBRANCH  28  29
ENDBRANCH  27  28
ENDBRANCH   1  27
TORSDOF 14
