REMARK SMILES Cc1ccc(NC(=O)c2ccc(SCC(=O)OCCOC(=O)c3ccc(-c4c5nc(c(-c6ccccc6)c6ccc([nH]6)c(-c6ccccc6)c6nc(c(-c7ccccc7)c7ccc4[nH]7)C=C6)C=C5)cc3)c([N+](=O)[O-])c2)cc1
REMARK SMILES IDX 18 1 17 2 15 3 16 4 14 5 13 6 12 7 9 8 10 9 75 10 11 11
REMARK SMILES IDX 71 12 7 13 6 14 8 16 5 17 1 18 2 19 3 20 77 21 4 22 76 23
REMARK SMILES IDX 72 24 73 25 74 26 19 27 20 28 21 29 22 30 23 31 24 32 70 33
REMARK SMILES IDX 25 34 69 35 26 36 27 37 28 38 63 39 29 40 68 41 62 42 64 43
REMARK SMILES IDX 30 44 67 45 61 46 60 47 31 49 53 50 38 51 52 52 39 53 42 54
REMARK SMILES IDX 51 55 65 56 40 57 41 58 50 60 66 61 43 62 32 63 33 64 37 65
REMARK SMILES IDX 34 66 36 67 35 68 54 69 55 70 59 71 56 72 58 73 57 74 44 75
REMARK SMILES IDX 45 76 49 77 46 78 48 79 47 80
REMARK H PARENT 6 15 64 48 42 59
REMARK Flexibility Score: inf
ROOT
ATOM      1  C   UNL     1       0.106  -6.125   1.016  1.00  0.00     0.274 C 
ENDROOT
BRANCH   1   2
ATOM      2  O   UNL     1      -0.996  -5.870   1.902  1.00  0.00    -0.461 OA
BRANCH   2   3
ATOM      3  C   UNL     1      -1.116  -6.808   2.882  1.00  0.00     0.316 C 
ATOM      4  O   UNL     1      -0.434  -7.831   2.917  1.00  0.00    -0.251 OA
BRANCH   3   5
ATOM      5  C   UNL     1      -2.009  -6.415   4.032  1.00  0.00     0.197 C 
BRANCH   5   6
ATOM      6  S   UNL     1      -3.661  -5.731   3.722  1.00  0.00    -0.107 SA
BRANCH   6   7
ATOM      7  C   UNL     1      -3.501  -4.267   2.694  1.00  0.00     0.086 A 
ATOM      8  C   UNL     1      -3.830  -2.177   0.780  1.00  0.00     0.047 A 
ATOM      9  C   UNL     1      -4.089  -3.499   0.430  1.00  0.00     0.015 A 
ATOM     10  C   UNL     1      -3.453  -1.877   2.091  1.00  0.00     0.100 A 
ATOM     11  C   UNL     1      -3.908  -4.522   1.367  1.00  0.00     0.023 A 
ATOM     12  C   UNL     1      -3.301  -2.912   3.051  1.00  0.00     0.283 A 
BRANCH   8  13
ATOM     13  C   UNL     1      -4.154  -1.093  -0.182  1.00  0.00     0.255 C 
ATOM     14  N   UNL     1      -3.304  -0.024  -0.346  1.00  0.00    -0.322 N 
ATOM     15  H   UNL     1      -3.744   0.842  -0.503  1.00  0.00     0.170 HD
ATOM     16  O   UNL     1      -5.263  -1.105  -0.713  1.00  0.00    -0.269 OA
BRANCH  14  17
ATOM     17  C   UNL     1      -1.899   0.015  -0.322  1.00  0.00     0.041 A 
ATOM     18  C   UNL     1       2.408   0.248  -0.161  1.00  0.00     0.044 C 
ATOM     19  C   UNL     1       0.916   0.218  -0.305  1.00  0.00    -0.051 A 
ATOM     20  C   UNL     1       0.282  -0.980  -0.631  1.00  0.00     0.005 A 
ATOM     21  C   UNL     1       0.125   1.341  -0.061  1.00  0.00     0.005 A 
ATOM     22  C   UNL     1      -1.113  -1.096  -0.604  1.00  0.00     0.026 A 
ATOM     23  C   UNL     1      -1.273   1.247  -0.107  1.00  0.00     0.026 A 
ENDBRANCH  14  17
ENDBRANCH   8  13
BRANCH  12  24
ATOM     24  N   UNL     1      -2.948  -2.479   4.412  1.00  0.00     0.063 N 
ATOM     25  O   UNL     1      -3.173  -3.241   5.359  1.00  0.00    -0.258 OA
ATOM     26  O   UNL     1      -2.424  -1.361   4.548  1.00  0.00    -0.258 OA
ENDBRANCH  12  24
ENDBRANCH   6   7
ENDBRANCH   5   6
ENDBRANCH   3   5
ENDBRANCH   2   3
ENDBRANCH   1   2
BRANCH   1  27
ATOM     27  C   UNL     1       0.422  -4.925   0.122  1.00  0.00     0.275 C 
BRANCH  27  28
ATOM     28  O   UNL     1       0.452  -3.576   0.663  1.00  0.00    -0.458 OA
BRANCH  28  29
ATOM     29  C   UNL     1       0.158  -3.186   1.915  1.00  0.00     0.338 C 
ATOM     30  O   UNL     1      -0.625  -2.282   2.189  1.00  0.00    -0.246 OA
BRANCH  29  31
ATOM     31  C   UNL     1       0.922  -3.835   2.960  1.00  0.00     0.060 A 
ATOM     32  C   UNL     1       0.399  -3.938   4.261  1.00  0.00     0.016 A 
ATOM     33  C   UNL     1       2.119  -4.424   2.589  1.00  0.00     0.016 A 
ATOM     34  C   UNL     1       1.065  -4.693   5.202  1.00  0.00     0.010 A 
ATOM     35  C   UNL     1       2.658  -5.330   3.438  1.00  0.00     0.010 A 
ATOM     36  C   UNL     1       2.195  -5.365   4.761  1.00  0.00    -0.014 A 
BRANCH  36  37
ATOM     37  C   UNL     1       3.205  -5.888   5.645  1.00  0.00     0.031 A 
ATOM     38  C   UNL     1       3.014  -7.209   6.245  1.00  0.00     0.074 A 
ATOM     39  C   UNL     1       4.334  -5.144   5.552  1.00  0.00     0.049 A 
ATOM     40  N   UNL     1       3.620  -7.619   7.299  1.00  0.00    -0.248 NA
ATOM     41  C   UNL     1       2.061  -8.192   5.717  1.00  0.00     0.031 C 
ATOM     42  C   UNL     1       5.713  -5.457   5.850  1.00  0.00     0.029 A 
ATOM     43  N   UNL     1       4.410  -3.800   5.132  1.00  0.00    -0.354 N 
ATOM     44  C   UNL     1       3.506  -8.994   7.280  1.00  0.00     0.074 A 
ATOM     45  C   UNL     1       2.371  -9.277   6.438  1.00  0.00     0.031 C 
ATOM     46  C   UNL     1       6.396  -4.297   5.961  1.00  0.00     0.029 A 
ATOM     47  C   UNL     1       5.423  -3.209   5.874  1.00  0.00     0.049 A 
ATOM     48  H   UNL     1       3.852  -3.366   4.446  1.00  0.00     0.167 HD
ATOM     49  C   UNL     1       4.557  -9.737   7.733  1.00  0.00     0.031 A 
ATOM     50  C   UNL     1       5.095  -2.332   6.874  1.00  0.00     0.031 A 
ATOM     51  C   UNL     1       5.639  -8.850   8.171  1.00  0.00     0.049 A 
ATOM     52  C   UNL     1       5.435  -2.970   8.203  1.00  0.00     0.074 A 
ATOM     53  C   UNL     1       6.800  -8.439   7.535  1.00  0.00     0.029 A 
ATOM     54  N   UNL     1       5.410  -7.942   9.200  1.00  0.00    -0.354 N 
ATOM     55  N   UNL     1       5.348  -4.255   8.435  1.00  0.00    -0.248 NA
ATOM     56  C   UNL     1       5.990  -2.225   9.327  1.00  0.00     0.031 C 
ATOM     57  C   UNL     1       7.208  -7.213   8.129  1.00  0.00     0.029 A 
ATOM     58  C   UNL     1       6.290  -6.878   9.112  1.00  0.00     0.049 A 
ATOM     59  H   UNL     1       4.719  -8.042   9.894  1.00  0.00     0.167 HD
ATOM     60  C   UNL     1       5.959  -4.530   9.626  1.00  0.00     0.074 A 
ATOM     61  C   UNL     1       6.288  -3.224  10.177  1.00  0.00     0.031 C 
ATOM     62  C   UNL     1       6.222  -5.791  10.076  1.00  0.00     0.031 A 
BRANCH  49  63
ATOM     63  C   UNL     1       4.768 -11.207   7.445  1.00  0.00    -0.014 A 
ATOM     64  C   UNL     1       6.075 -11.732   7.498  1.00  0.00     0.009 A 
ATOM     65  C   UNL     1       3.755 -12.121   7.110  1.00  0.00     0.009 A 
ATOM     66  C   UNL     1       6.364 -13.066   7.181  1.00  0.00     0.001 A 
ATOM     67  C   UNL     1       4.038 -13.456   6.773  1.00  0.00     0.001 A 
ATOM     68  C   UNL     1       5.344 -13.928   6.805  1.00  0.00     0.000 A 
ENDBRANCH  49  63
BRANCH  50  69
ATOM     69  C   UNL     1       3.860  -1.516   6.597  1.00  0.00    -0.014 A 
ATOM     70  C   UNL     1       3.874  -0.650   5.478  1.00  0.00     0.009 A 
ATOM     71  C   UNL     1       2.613  -1.840   7.153  1.00  0.00     0.009 A 
ATOM     72  C   UNL     1       2.687  -0.240   4.857  1.00  0.00     0.001 A 
ATOM     73  C   UNL     1       1.424  -1.404   6.542  1.00  0.00     0.001 A 
ATOM     74  C   UNL     1       1.460  -0.641   5.374  1.00  0.00     0.000 A 
ENDBRANCH  50  69
BRANCH  62  75
ATOM     75  C   UNL     1       6.530  -6.113  11.507  1.00  0.00    -0.014 A 
ATOM     76  C   UNL     1       6.080  -5.326  12.573  1.00  0.00     0.009 A 
ATOM     77  C   UNL     1       7.126  -7.353  11.822  1.00  0.00     0.009 A 
ATOM     78  C   UNL     1       6.274  -5.728  13.896  1.00  0.00     0.001 A 
ATOM     79  C   UNL     1       7.264  -7.786  13.139  1.00  0.00     0.001 A 
ATOM     80  C   UNL     1       6.854  -6.961  14.177  1.00  0.00     0.000 A 
ENDBRANCH  62  75
ENDBRANCH  36  37
ENDBRANCH  29  31
ENDBRANCH  28  29
ENDBRANCH  27  28
ENDBRANCH   1  27
TORSDOF 16
