REMARK SMILES O=C(OCCOC(=O)[C@@H]1C[NH2+]C[C@H]1c1ccncc1)c1ccc(-c2c3nc(c(-c4ccccc4)c4ccc([nH]4)c(-c4ccccc4)c4nc(c(-c5ccccc5)c5ccc2[nH]5)C=C4)C=C3)cc1
REMARK SMILES IDX 4 1 3 2 2 3 1 4 20 5 21 6 67 7 22 8 66 9 23 10 24 11 25 12
REMARK SMILES IDX 60 13 26 14 65 15 59 16 61 17 27 18 64 19 58 20 57 21 28 23
REMARK SMILES IDX 50 24 35 25 49 26 36 27 39 28 48 29 62 30 37 31 38 32 47 34
REMARK SMILES IDX 63 35 40 36 29 37 30 38 34 39 31 40 33 41 32 42 51 43 52 44
REMARK SMILES IDX 56 45 53 46 55 47 54 48 41 49 42 50 46 51 43 52 45 53 44 54
REMARK SMILES IDX 5 55 6 56 7 57 8 58 9 59 10 60 13 61 11 62 12 63 14 66 15 67
REMARK SMILES IDX 19 68 16 69 18 70 17 71
REMARK H PARENT 61 22 39 33 11 64 11 65
REMARK Flexibility Score: inf
ROOT
ATOM      1  C   UNL     1       4.273   1.504  -0.759  1.00  0.00     0.275 C 
ENDROOT
BRANCH   1   2
ATOM      2  O   UNL     1       3.293   0.571  -1.238  1.00  0.00    -0.458 OA
BRANCH   2   3
ATOM      3  C   UNL     1       3.240  -0.776  -1.133  1.00  0.00     0.338 C 
ATOM      4  O   UNL     1       2.330  -1.371  -1.708  1.00  0.00    -0.246 OA
BRANCH   3   5
ATOM      5  C   UNL     1       4.132  -1.580  -0.233  1.00  0.00     0.060 A 
ATOM      6  C   UNL     1       5.361  -1.182   0.297  1.00  0.00     0.016 A 
ATOM      7  C   UNL     1       3.614  -2.817   0.191  1.00  0.00     0.016 A 
ATOM      8  C   UNL     1       5.977  -1.903   1.323  1.00  0.00     0.010 A 
ATOM      9  C   UNL     1       4.195  -3.512   1.256  1.00  0.00     0.010 A 
ATOM     10  C   UNL     1       5.376  -3.046   1.848  1.00  0.00    -0.014 A 
BRANCH  10  11
ATOM     11  C   UNL     1       6.053  -3.801   2.928  1.00  0.00     0.031 A 
ATOM     12  C   UNL     1       6.601  -5.157   2.586  1.00  0.00     0.074 A 
ATOM     13  C   UNL     1       6.237  -3.272   4.157  1.00  0.00     0.049 A 
ATOM     14  N   UNL     1       7.361  -5.942   3.301  1.00  0.00    -0.248 NA
ATOM     15  C   UNL     1       6.267  -5.692   1.253  1.00  0.00     0.031 C 
ATOM     16  C   UNL     1       5.773  -1.957   4.610  1.00  0.00     0.029 A 
ATOM     17  N   UNL     1       6.882  -3.777   5.261  1.00  0.00    -0.354 N 
ATOM     18  C   UNL     1       7.632  -7.028   2.482  1.00  0.00     0.074 A 
ATOM     19  C   UNL     1       6.859  -6.872   1.276  1.00  0.00     0.031 C 
ATOM     20  C   UNL     1       6.119  -1.774   5.897  1.00  0.00     0.029 A 
ATOM     21  C   UNL     1       6.866  -2.937   6.352  1.00  0.00     0.049 A 
ATOM     22  H   UNL     1       7.317  -4.660   5.270  1.00  0.00     0.167 HD
ATOM     23  C   UNL     1       8.511  -8.034   2.677  1.00  0.00     0.031 A 
ATOM     24  C   UNL     1       7.425  -3.076   7.570  1.00  0.00     0.031 A 
ATOM     25  C   UNL     1       9.255  -8.210   3.886  1.00  0.00     0.049 A 
ATOM     26  C   UNL     1       8.303  -4.275   7.813  1.00  0.00     0.074 A 
ATOM     27  C   UNL     1      10.148  -9.210   4.216  1.00  0.00     0.029 A 
ATOM     28  N   UNL     1       9.174  -7.356   4.977  1.00  0.00    -0.354 N 
ATOM     29  N   UNL     1       8.624  -5.244   6.989  1.00  0.00    -0.248 NA
ATOM     30  C   UNL     1       8.939  -4.372   9.134  1.00  0.00     0.031 C 
ATOM     31  C   UNL     1      10.570  -8.988   5.532  1.00  0.00     0.029 A 
ATOM     32  C   UNL     1       9.985  -7.818   5.994  1.00  0.00     0.049 A 
ATOM     33  H   UNL     1       8.620  -6.543   5.019  1.00  0.00     0.167 HD
ATOM     34  C   UNL     1       9.532  -6.040   7.674  1.00  0.00     0.074 A 
ATOM     35  C   UNL     1       9.725  -5.427   8.973  1.00  0.00     0.031 C 
ATOM     36  C   UNL     1      10.155  -7.175   7.271  1.00  0.00     0.031 A 
BRANCH  23  37
ATOM     37  C   UNL     1       8.689  -8.986   1.531  1.00  0.00    -0.014 A 
ATOM     38  C   UNL     1       9.319  -8.563   0.346  1.00  0.00     0.009 A 
ATOM     39  C   UNL     1       8.153 -10.277   1.595  1.00  0.00     0.009 A 
ATOM     40  C   UNL     1       9.359  -9.397  -0.771  1.00  0.00     0.001 A 
ATOM     41  C   UNL     1       8.221 -11.121   0.484  1.00  0.00     0.001 A 
ATOM     42  C   UNL     1       8.810 -10.676  -0.700  1.00  0.00     0.000 A 
ENDBRANCH  23  37
BRANCH  24  43
ATOM     43  C   UNL     1       7.225  -2.055   8.639  1.00  0.00    -0.014 A 
ATOM     44  C   UNL     1       8.293  -1.270   9.104  1.00  0.00     0.009 A 
ATOM     45  C   UNL     1       5.971  -1.913   9.257  1.00  0.00     0.009 A 
ATOM     46  C   UNL     1       8.126  -0.413  10.197  1.00  0.00     0.001 A 
ATOM     47  C   UNL     1       5.799  -1.034  10.330  1.00  0.00     0.001 A 
ATOM     48  C   UNL     1       6.880  -0.297  10.811  1.00  0.00     0.000 A 
ENDBRANCH  24  43
BRANCH  36  49
ATOM     49  C   UNL     1      11.123  -7.800   8.234  1.00  0.00    -0.014 A 
ATOM     50  C   UNL     1      10.679  -8.430   9.406  1.00  0.00     0.009 A 
ATOM     51  C   UNL     1      12.493  -7.802   7.931  1.00  0.00     0.009 A 
ATOM     52  C   UNL     1      11.596  -9.019  10.276  1.00  0.00     0.001 A 
ATOM     53  C   UNL     1      13.403  -8.425   8.783  1.00  0.00     0.001 A 
ATOM     54  C   UNL     1      12.955  -9.023   9.960  1.00  0.00     0.000 A 
ENDBRANCH  36  49
ENDBRANCH  10  11
ENDBRANCH   3   5
ENDBRANCH   2   3
ENDBRANCH   1   2
BRANCH   1  55
ATOM     55  C   UNL     1       4.107   1.943   0.700  1.00  0.00     0.274 C 
BRANCH  55  56
ATOM     56  O   UNL     1       3.647   0.927   1.610  1.00  0.00    -0.462 OA
BRANCH  56  57
ATOM     57  C   UNL     1       2.291   0.868   1.775  1.00  0.00     0.315 C 
ATOM     58  O   UNL     1       1.496   1.519   1.103  1.00  0.00    -0.252 OA
BRANCH  57  59
ATOM     59  C   UNL     1       1.909   0.006   2.965  1.00  0.00     0.167 C 
ATOM     60  C   UNL     1       2.421  -1.399   2.829  1.00  0.00     0.276 C 
ATOM     61  C   UNL     1       0.390  -0.230   3.115  1.00  0.00     0.094 C 
ATOM     62  N   UNL     1       1.611  -2.212   3.733  1.00  0.00    -0.345 N 
ATOM     63  C   UNL     1       0.255  -1.740   3.428  1.00  0.00     0.269 C 
ATOM     64  H   UNL     1       1.854  -2.037   4.708  1.00  0.00     0.346 HD
ATOM     65  H   UNL     1       1.736  -3.216   3.609  1.00  0.00     0.346 HD
BRANCH  61  66
ATOM     66  C   UNL     1      -0.150   0.746   4.136  1.00  0.00    -0.035 A 
ATOM     67  C   UNL     1      -0.259   2.094   3.768  1.00  0.00     0.024 A 
ATOM     68  C   UNL     1      -0.463   0.402   5.451  1.00  0.00     0.024 A 
ATOM     69  C   UNL     1      -0.632   3.026   4.719  1.00  0.00     0.111 A 
ATOM     70  C   UNL     1      -0.855   1.404   6.325  1.00  0.00     0.111 A 
ATOM     71  N   UNL     1      -0.932   2.709   5.993  1.00  0.00    -0.265 NA
ENDBRANCH  61  66
ENDBRANCH  57  59
ENDBRANCH  56  57
ENDBRANCH  55  56
ENDBRANCH   1  55
TORSDOF 12
