REMARK SMILES O=C(Nc1ccc(O)c(C(=O)OCCOC(=O)c2ccc(-c3c4nc(c(-c5ccccc5)c5ccc([nH]5)c(-c5ccccc5)c5nc(c(-c6ccccc6)c6ccc3[nH]6)C=C5)C=C4)cc2)c1)c1cncc(Br)c1
REMARK SMILES IDX 13 1 12 2 10 3 11 4 9 5 4 6 5 7 66 8 6 9 7 10 3 11 1 12 2 13
REMARK SMILES IDX 67 15 68 16 73 17 69 18 71 19 70 20 72 21 8 22 14 24 15 25
REMARK SMILES IDX 16 26 17 27 18 28 19 29 65 30 20 31 64 32 21 33 22 34 23 35
REMARK SMILES IDX 58 36 24 37 63 38 57 39 59 40 25 41 62 42 56 43 55 44 26 46
REMARK SMILES IDX 48 47 33 48 47 49 34 50 37 51 46 52 60 53 35 54 36 55 45 57
REMARK SMILES IDX 61 58 38 59 27 60 28 61 32 62 29 63 31 64 30 65 49 66 50 67
REMARK SMILES IDX 54 68 51 69 53 70 52 71 39 72 40 73 44 74 41 75 43 76 42 77
REMARK H PARENT 3 14 8 23 59 45 37 56
REMARK Flexibility Score: inf
ROOT
ATOM      1  C   UNL     1       9.325  -0.594  -4.389  1.00  0.00     0.275 C 
ENDROOT
BRANCH   1   2
ATOM      2  O   UNL     1       8.672  -0.930  -3.150  1.00  0.00    -0.458 OA
BRANCH   2   3
ATOM      3  C   UNL     1       7.628  -0.141  -2.810  1.00  0.00     0.342 C 
ATOM      4  O   UNL     1       7.158   0.773  -3.473  1.00  0.00    -0.246 OA
BRANCH   3   5
ATOM      5  C   UNL     1       6.988  -0.586  -1.557  1.00  0.00     0.103 A 
ATOM      6  C   UNL     1       4.887  -0.852  -0.372  1.00  0.00     0.042 A 
ATOM      7  C   UNL     1       5.588  -1.077   0.812  1.00  0.00     0.030 A 
ATOM      8  C   UNL     1       5.588  -0.637  -1.551  1.00  0.00     0.045 A 
ATOM      9  C   UNL     1       6.989  -1.070   0.810  1.00  0.00     0.049 A 
ATOM     10  C   UNL     1       7.689  -0.807  -0.371  1.00  0.00     0.130 A 
BRANCH   6  11
ATOM     11  N   UNL     1       3.487  -0.786  -0.433  1.00  0.00    -0.322 N 
ATOM     12  O   UNL     1       1.427  -0.413   0.451  1.00  0.00    -0.269 OA
ATOM     13  C   UNL     1       2.631  -0.177   0.457  1.00  0.00     0.257 C 
ATOM     14  H   UNL     1       3.066  -1.229  -1.205  1.00  0.00     0.170 HD
BRANCH  13  15
ATOM     15  C   UNL     1       3.154   0.873   1.351  1.00  0.00     0.059 A 
ATOM     16  C   UNL     1       3.973   1.886   0.859  1.00  0.00     0.124 A 
ATOM     17  C   UNL     1       2.803   0.887   2.697  1.00  0.00     0.032 A 
ATOM     18  N   UNL     1       4.510   2.858   1.632  1.00  0.00    -0.263 NA
ATOM     19  C   UNL     1       3.341   1.879   3.510  1.00  0.00     0.037 A 
ATOM     20  C   UNL     1       4.186   2.827   2.946  1.00  0.00     0.126 A 
ATOM     21  Br  UNL     1       2.943   1.925   5.351  1.00  0.00    -0.049 Br
ENDBRANCH  13  15
ENDBRANCH   6  11
BRANCH  10  22
ATOM     22  O   UNL     1       9.050  -0.714  -0.342  1.00  0.00    -0.507 OA
ATOM     23  H   UNL     1       9.513  -0.865   0.458  1.00  0.00     0.293 HD
ENDBRANCH  10  22
ENDBRANCH   3   5
ENDBRANCH   2   3
ENDBRANCH   1   2
BRANCH   1  24
ATOM     24  C   UNL     1       8.934  -1.577  -5.489  1.00  0.00     0.275 C 
BRANCH  24  25
ATOM     25  O   UNL     1       7.537  -1.432  -5.807  1.00  0.00    -0.458 OA
BRANCH  25  26
ATOM     26  C   UNL     1       6.760  -2.503  -5.532  1.00  0.00     0.338 C 
ATOM     27  O   UNL     1       7.106  -3.588  -5.096  1.00  0.00    -0.246 OA
BRANCH  26  28
ATOM     28  C   UNL     1       5.350  -2.186  -5.812  1.00  0.00     0.060 A 
ATOM     29  C   UNL     1       4.718  -1.188  -5.078  1.00  0.00     0.016 A 
ATOM     30  C   UNL     1       4.612  -2.984  -6.681  1.00  0.00     0.016 A 
ATOM     31  C   UNL     1       3.329  -1.077  -5.099  1.00  0.00     0.010 A 
ATOM     32  C   UNL     1       3.232  -2.780  -6.803  1.00  0.00     0.010 A 
ATOM     33  C   UNL     1       2.562  -1.860  -5.975  1.00  0.00    -0.014 A 
BRANCH  33  34
ATOM     34  C   UNL     1       1.072  -1.746  -6.006  1.00  0.00     0.031 A 
ATOM     35  C   UNL     1       0.206  -2.971  -5.820  1.00  0.00     0.074 A 
ATOM     36  C   UNL     1       0.474  -0.551  -6.195  1.00  0.00     0.049 A 
ATOM     37  N   UNL     1      -1.082  -3.112  -6.014  1.00  0.00    -0.248 NA
ATOM     38  C   UNL     1       0.880  -4.202  -5.375  1.00  0.00     0.031 C 
ATOM     39  C   UNL     1       1.160   0.734  -6.346  1.00  0.00     0.029 A 
ATOM     40  N   UNL     1      -0.858  -0.223  -6.283  1.00  0.00    -0.354 N 
ATOM     41  C   UNL     1      -1.357  -4.457  -5.786  1.00  0.00     0.074 A 
ATOM     42  C   UNL     1      -0.103  -5.089  -5.436  1.00  0.00     0.031 C 
ATOM     43  C   UNL     1       0.249   1.712  -6.448  1.00  0.00     0.029 A 
ATOM     44  C   UNL     1      -1.083   1.119  -6.477  1.00  0.00     0.049 A 
ATOM     45  H   UNL     1      -1.583  -0.885  -6.213  1.00  0.00     0.167 HD
ATOM     46  C   UNL     1      -2.543  -5.108  -5.866  1.00  0.00     0.031 A 
ATOM     47  C   UNL     1      -2.221   1.802  -6.703  1.00  0.00     0.031 A 
ATOM     48  C   UNL     1      -3.803  -4.476  -6.155  1.00  0.00     0.049 A 
ATOM     49  C   UNL     1      -3.519   1.058  -6.809  1.00  0.00     0.074 A 
ATOM     50  C   UNL     1      -5.059  -5.054  -6.246  1.00  0.00     0.029 A 
ATOM     51  N   UNL     1      -3.972  -3.119  -6.376  1.00  0.00    -0.354 N 
ATOM     52  N   UNL     1      -3.749  -0.224  -6.668  1.00  0.00    -0.248 NA
ATOM     53  C   UNL     1      -4.712   1.855  -7.130  1.00  0.00     0.031 C 
ATOM     54  C   UNL     1      -5.983  -4.050  -6.556  1.00  0.00     0.029 A 
ATOM     55  C   UNL     1      -5.308  -2.842  -6.614  1.00  0.00     0.049 A 
ATOM     56  H   UNL     1      -3.249  -2.450  -6.366  1.00  0.00     0.167 HD
ATOM     57  C   UNL     1      -5.111  -0.388  -6.878  1.00  0.00     0.074 A 
ATOM     58  C   UNL     1      -5.660   0.928  -7.131  1.00  0.00     0.031 C 
ATOM     59  C   UNL     1      -5.840  -1.530  -6.869  1.00  0.00     0.031 A 
BRANCH  46  60
ATOM     60  C   UNL     1      -2.530  -6.601  -5.680  1.00  0.00    -0.014 A 
ATOM     61  C   UNL     1      -2.358  -7.186  -4.417  1.00  0.00     0.009 A 
ATOM     62  C   UNL     1      -2.735  -7.434  -6.792  1.00  0.00     0.009 A 
ATOM     63  C   UNL     1      -2.359  -8.577  -4.278  1.00  0.00     0.001 A 
ATOM     64  C   UNL     1      -2.762  -8.822  -6.646  1.00  0.00     0.001 A 
ATOM     65  C   UNL     1      -2.564  -9.393  -5.391  1.00  0.00     0.000 A 
ENDBRANCH  46  60
BRANCH  47  66
ATOM     66  C   UNL     1      -2.172   3.274  -6.903  1.00  0.00    -0.014 A 
ATOM     67  C   UNL     1      -2.696   4.143  -5.935  1.00  0.00     0.009 A 
ATOM     68  C   UNL     1      -1.591   3.817  -8.060  1.00  0.00     0.009 A 
ATOM     69  C   UNL     1      -2.647   5.526  -6.127  1.00  0.00     0.001 A 
ATOM     70  C   UNL     1      -1.515   5.199  -8.235  1.00  0.00     0.001 A 
ATOM     71  C   UNL     1      -2.050   6.053  -7.272  1.00  0.00     0.000 A 
ENDBRANCH  47  66
BRANCH  59  72
ATOM     72  C   UNL     1      -7.314  -1.398  -7.117  1.00  0.00    -0.014 A 
ATOM     73  C   UNL     1      -7.814  -1.157  -8.406  1.00  0.00     0.009 A 
ATOM     74  C   UNL     1      -8.214  -1.539  -6.050  1.00  0.00     0.009 A 
ATOM     75  C   UNL     1      -9.188  -1.029  -8.616  1.00  0.00     0.001 A 
ATOM     76  C   UNL     1      -9.589  -1.434  -6.267  1.00  0.00     0.001 A 
ATOM     77  C   UNL     1     -10.073  -1.171  -7.547  1.00  0.00     0.000 A 
ENDBRANCH  59  72
ENDBRANCH  33  34
ENDBRANCH  26  28
ENDBRANCH  25  26
ENDBRANCH  24  25
ENDBRANCH   1  24
TORSDOF 14
