REMARK SMILES O=C(OCCOC(=O)[C@H](c1c[nH]c2cc(F)ccc12)[NH+]1CC[NH+](Cc2cccc(Cl)c2)CC1)c1ccc(-c2c3nc(c(-c4ccccc4)c4ccc([nH]4)c(-c4ccccc4)c4nc(c(-c5ccccc5)c5ccc2[nH]5)C=C4)C=C3)cc1
REMARK SMILES IDX 5 1 4 2 3 3 2 4 1 5 34 6 35 7 81 8 36 9 80 10 37 11 38 12
REMARK SMILES IDX 39 13 74 14 40 15 79 16 73 17 75 18 41 19 78 20 72 21 71 22
REMARK SMILES IDX 42 24 64 25 49 26 63 27 50 28 53 29 62 30 76 31 51 32 52 33
REMARK SMILES IDX 61 35 77 36 54 37 43 38 44 39 48 40 45 41 47 42 46 43 65 44
REMARK SMILES IDX 66 45 70 46 67 47 69 48 68 49 55 50 56 51 60 52 57 53 59 54
REMARK SMILES IDX 58 55 6 56 7 57 8 58 9 59 20 60 21 61 33 62 22 64 32 65
REMARK SMILES IDX 23 66 24 68 25 69 26 70 31 71 27 72 29 73 28 74 30 75 10 76
REMARK SMILES IDX 11 77 19 78 12 79 13 80 18 81 14 83 17 84 15 85 16 86
REMARK H PARENT 75 23 53 34 20 63 23 67 12 82
REMARK Flexibility Score: inf
ROOT
ATOM      1  C   UNL     1       3.205  -5.088  -1.487  1.00  0.00     0.274 C 
ENDROOT
BRANCH   1   2
ATOM      2  C   UNL     1       1.913  -4.986  -2.288  1.00  0.00     0.275 C 
BRANCH   2   3
ATOM      3  O   UNL     1       1.502  -3.622  -2.522  1.00  0.00    -0.458 OA
BRANCH   3   4
ATOM      4  C   UNL     1       0.738  -2.748  -1.827  1.00  0.00     0.338 C 
ATOM      5  O   UNL     1       0.578  -1.630  -2.318  1.00  0.00    -0.246 OA
BRANCH   4   6
ATOM      6  C   UNL     1       0.127  -2.971  -0.463  1.00  0.00     0.060 A 
ATOM      7  C   UNL     1      -0.035  -4.171   0.216  1.00  0.00     0.016 A 
ATOM      8  C   UNL     1      -0.331  -1.818   0.212  1.00  0.00     0.016 A 
ATOM      9  C   UNL     1      -0.529  -4.190   1.544  1.00  0.00     0.010 A 
ATOM     10  C   UNL     1      -0.739  -1.817   1.564  1.00  0.00     0.010 A 
ATOM     11  C   UNL     1      -0.815  -3.013   2.266  1.00  0.00    -0.014 A 
BRANCH  11  12
ATOM     12  C   UNL     1      -1.434  -3.132   3.624  1.00  0.00     0.031 A 
ATOM     13  C   UNL     1      -2.898  -3.396   3.658  1.00  0.00     0.074 A 
ATOM     14  C   UNL     1      -0.805  -3.027   4.816  1.00  0.00     0.049 A 
ATOM     15  N   UNL     1      -3.644  -3.754   4.664  1.00  0.00    -0.248 NA
ATOM     16  C   UNL     1      -3.618  -3.131   2.405  1.00  0.00     0.031 C 
ATOM     17  C   UNL     1       0.496  -2.433   5.036  1.00  0.00     0.029 A 
ATOM     18  N   UNL     1      -1.158  -3.469   6.081  1.00  0.00    -0.354 N 
ATOM     19  C   UNL     1      -4.937  -3.706   4.181  1.00  0.00     0.074 A 
ATOM     20  C   UNL     1      -4.867  -3.305   2.792  1.00  0.00     0.031 C 
ATOM     21  C   UNL     1       0.931  -2.750   6.266  1.00  0.00     0.029 A 
ATOM     22  C   UNL     1      -0.092  -3.501   6.968  1.00  0.00     0.049 A 
ATOM     23  H   UNL     1      -2.074  -3.733   6.327  1.00  0.00     0.167 HD
ATOM     24  C   UNL     1      -6.089  -3.918   4.853  1.00  0.00     0.031 A 
ATOM     25  C   UNL     1       0.044  -4.060   8.194  1.00  0.00     0.031 A 
ATOM     26  C   UNL     1      -6.167  -4.182   6.260  1.00  0.00     0.049 A 
ATOM     27  C   UNL     1      -1.229  -4.458   8.889  1.00  0.00     0.074 A 
ATOM     28  C   UNL     1      -7.293  -4.341   7.044  1.00  0.00     0.029 A 
ATOM     29  N   UNL     1      -5.070  -4.291   7.105  1.00  0.00    -0.354 N 
ATOM     30  N   UNL     1      -2.447  -4.478   8.407  1.00  0.00    -0.248 NA
ATOM     31  C   UNL     1      -1.138  -4.788  10.320  1.00  0.00     0.031 C 
ATOM     32  C   UNL     1      -6.881  -4.508   8.371  1.00  0.00     0.029 A 
ATOM     33  C   UNL     1      -5.495  -4.520   8.404  1.00  0.00     0.049 A 
ATOM     34  H   UNL     1      -4.130  -4.216   6.824  1.00  0.00     0.167 HD
ATOM     35  C   UNL     1      -3.273  -4.745   9.486  1.00  0.00     0.074 A 
ATOM     36  C   UNL     1      -2.413  -4.982  10.628  1.00  0.00     0.031 C 
ATOM     37  C   UNL     1      -4.627  -4.735   9.533  1.00  0.00     0.031 A 
BRANCH  24  38
ATOM     38  C   UNL     1      -7.330  -3.734   4.037  1.00  0.00    -0.014 A 
ATOM     39  C   UNL     1      -7.658  -4.638   3.012  1.00  0.00     0.009 A 
ATOM     40  C   UNL     1      -8.079  -2.559   4.185  1.00  0.00     0.009 A 
ATOM     41  C   UNL     1      -8.674  -4.332   2.107  1.00  0.00     0.001 A 
ATOM     42  C   UNL     1      -9.116  -2.274   3.300  1.00  0.00     0.001 A 
ATOM     43  C   UNL     1      -9.400  -3.150   2.251  1.00  0.00     0.000 A 
ENDBRANCH  24  38
BRANCH  25  44
ATOM     44  C   UNL     1       1.366  -4.233   8.893  1.00  0.00    -0.014 A 
ATOM     45  C   UNL     1       1.778  -5.513   9.325  1.00  0.00     0.009 A 
ATOM     46  C   UNL     1       2.217  -3.156   9.182  1.00  0.00     0.009 A 
ATOM     47  C   UNL     1       2.986  -5.701  10.013  1.00  0.00     0.001 A 
ATOM     48  C   UNL     1       3.452  -3.352   9.815  1.00  0.00     0.001 A 
ATOM     49  C   UNL     1       3.833  -4.621  10.239  1.00  0.00     0.000 A 
ENDBRANCH  25  44
BRANCH  37  50
ATOM     50  C   UNL     1      -5.249  -5.002  10.871  1.00  0.00    -0.014 A 
ATOM     51  C   UNL     1      -5.199  -4.052  11.905  1.00  0.00     0.009 A 
ATOM     52  C   UNL     1      -5.894  -6.226  11.097  1.00  0.00     0.009 A 
ATOM     53  C   UNL     1      -5.747  -4.345  13.155  1.00  0.00     0.001 A 
ATOM     54  C   UNL     1      -6.466  -6.503  12.337  1.00  0.00     0.001 A 
ATOM     55  C   UNL     1      -6.382  -5.568  13.368  1.00  0.00     0.000 A 
ENDBRANCH  37  50
ENDBRANCH  11  12
ENDBRANCH   4   6
ENDBRANCH   3   4
ENDBRANCH   2   3
ENDBRANCH   1   2
BRANCH   1  56
ATOM     56  O   UNL     1       3.136  -4.224  -0.352  1.00  0.00    -0.457 OA
BRANCH  56  57
ATOM     57  C   UNL     1       3.987  -3.144  -0.359  1.00  0.00     0.370 C 
ATOM     58  O   UNL     1       4.862  -2.956  -1.183  1.00  0.00    -0.245 OA
BRANCH  57  59
ATOM     59  C   UNL     1       3.631  -2.251   0.839  1.00  0.00     0.328 C 
BRANCH  59  60
ATOM     60  N   UNL     1       4.016  -2.800   2.155  1.00  0.00    -0.310 N 
ATOM     61  C   UNL     1       2.840  -2.964   3.001  1.00  0.00     0.325 C 
ATOM     62  C   UNL     1       4.916  -3.969   2.235  1.00  0.00     0.325 C 
ATOM     63  H   UNL     1       4.641  -2.074   2.506  1.00  0.00     0.349 HD
ATOM     64  C   UNL     1       2.235  -4.377   3.023  1.00  0.00     0.324 C 
ATOM     65  C   UNL     1       4.298  -5.393   2.463  1.00  0.00     0.324 C 
ATOM     66  N   UNL     1       3.134  -5.470   3.347  1.00  0.00    -0.322 N 
ATOM     67  H   UNL     1       2.703  -6.370   3.138  1.00  0.00     0.348 HD
BRANCH  66  68
ATOM     68  C   UNL     1       3.339  -5.684   4.785  1.00  0.00     0.299 C 
BRANCH  68  69
ATOM     69  C   UNL     1       4.520  -4.992   5.420  1.00  0.00     0.008 A 
ATOM     70  C   UNL     1       4.435  -3.676   5.880  1.00  0.00     0.009 A 
ATOM     71  C   UNL     1       5.756  -5.638   5.496  1.00  0.00     0.030 A 
ATOM     72  C   UNL     1       5.559  -2.965   6.286  1.00  0.00     0.002 A 
ATOM     73  C   UNL     1       6.883  -4.939   5.930  1.00  0.00     0.041 A 
ATOM     74  C   UNL     1       6.794  -3.598   6.298  1.00  0.00     0.020 A 
ATOM     75  Cl  UNL     1       8.405  -5.735   5.968  1.00  0.00    -0.084 Cl
ENDBRANCH  68  69
ENDBRANCH  66  68
ENDBRANCH  59  60
BRANCH  59  76
ATOM     76  C   UNL     1       4.124  -0.825   0.680  1.00  0.00     0.046 A 
ATOM     77  C   UNL     1       5.429  -0.368   0.711  1.00  0.00     0.094 A 
ATOM     78  C   UNL     1       3.324   0.325   0.332  1.00  0.00     0.009 A 
ATOM     79  N   UNL     1       5.457   0.893   0.174  1.00  0.00    -0.361 N 
ATOM     80  C   UNL     1       4.189   1.292  -0.174  1.00  0.00     0.049 A 
ATOM     81  C   UNL     1       1.946   0.612   0.304  1.00  0.00     0.014 A 
ATOM     82  H   UNL     1       6.269   1.436   0.055  1.00  0.00     0.166 HD
ATOM     83  C   UNL     1       3.735   2.413  -0.886  1.00  0.00     0.065 A 
ATOM     84  C   UNL     1       1.462   1.720  -0.399  1.00  0.00     0.040 A 
ATOM     85  C   UNL     1       2.356   2.573  -1.023  1.00  0.00     0.125 A 
ATOM     86  F   UNL     1       1.882   3.595  -1.750  1.00  0.00    -0.207 F 
ENDBRANCH  59  76
ENDBRANCH  57  59
ENDBRANCH  56  57
ENDBRANCH   1  56
TORSDOF 15
