REMARK SMILES Cc1cccc(NC(=O)C[C@@H]2CCCCO2)c1C(=O)OCCOC(=O)c1ccc(-c2c3nc(c(-c4ccccc4)c4ccc([nH]4)c(-c4ccccc4)c4nc(c(-c5ccccc5)c5ccc2[nH]5)C=C4)C=C3)cc1
REMARK SMILES IDX 21 1 20 2 18 3 19 4 17 5 1 6 2 7 3 8 4 9 6 10 5 11 7 12 8 13
REMARK SMILES IDX 9 15 10 16 11 17 12 18 16 19 13 20 15 21 14 22 22 23 23 24
REMARK SMILES IDX 24 25 25 26 26 27 27 28 73 29 28 30 72 31 29 32 30 33 31 34
REMARK SMILES IDX 66 35 32 36 71 37 65 38 67 39 33 40 70 41 64 42 63 43 34 45
REMARK SMILES IDX 56 46 41 47 55 48 42 49 45 50 54 51 68 52 43 53 44 54 53 56
REMARK SMILES IDX 69 57 46 58 35 59 36 60 40 61 37 62 39 63 38 64 57 65 58 66
REMARK SMILES IDX 62 67 59 68 61 69 60 70 47 71 48 72 52 73 49 74 51 75 50 76
REMARK H PARENT 7 14 67 44 45 55
REMARK Flexibility Score: inf
ROOT
ATOM      1  C   UNL     1       3.096   2.812  -2.054  1.00  0.00     0.275 C 
ENDROOT
BRANCH   1   2
ATOM      2  O   UNL     1       1.865   2.057  -1.899  1.00  0.00    -0.458 OA
BRANCH   2   3
ATOM      3  C   UNL     1       1.836   1.423  -0.694  1.00  0.00     0.340 C 
ATOM      4  O   UNL     1       2.665   1.612   0.190  1.00  0.00    -0.246 OA
BRANCH   3   5
ATOM      5  C   UNL     1       0.899   0.295  -0.474  1.00  0.00     0.086 A 
ATOM      6  C   UNL     1       2.966  -1.239  -0.639  1.00  0.00     0.045 C 
ATOM      7  C   UNL     1       1.560  -0.932  -0.184  1.00  0.00    -0.034 A 
ATOM      8  C   UNL     1       0.901  -1.912   0.567  1.00  0.00     0.004 A 
ATOM      9  C   UNL     1      -0.319  -1.625   1.156  1.00  0.00     0.002 A 
ATOM     10  C   UNL     1      -0.441   0.491  -0.053  1.00  0.00     0.056 A 
ATOM     11  C   UNL     1      -0.957  -0.416   0.882  1.00  0.00     0.027 A 
BRANCH  10  12
ATOM     12  N   UNL     1      -1.255   1.503  -0.622  1.00  0.00    -0.325 N 
ATOM     13  C   UNL     1      -2.614   1.712  -0.706  1.00  0.00     0.227 C 
ATOM     14  H   UNL     1      -0.732   2.215  -1.055  1.00  0.00     0.169 HD
ATOM     15  O   UNL     1      -2.988   2.811  -1.135  1.00  0.00    -0.275 OA
BRANCH  13  16
ATOM     16  C   UNL     1      -3.675   0.677  -0.366  1.00  0.00     0.132 C 
BRANCH  16  17
ATOM     17  C   UNL     1      -4.289  -0.007  -1.603  1.00  0.00     0.127 C 
ATOM     18  C   UNL     1      -5.105  -1.262  -1.248  1.00  0.00     0.033 C 
ATOM     19  O   UNL     1      -3.342  -0.367  -2.612  1.00  0.00    -0.378 OA
ATOM     20  C   UNL     1      -4.212  -2.404  -0.768  1.00  0.00     0.005 C 
ATOM     21  C   UNL     1      -2.418  -1.378  -2.241  1.00  0.00     0.160 C 
ATOM     22  C   UNL     1      -3.064  -2.656  -1.739  1.00  0.00     0.029 C 
ENDBRANCH  16  17
ENDBRANCH  13  16
ENDBRANCH  10  12
ENDBRANCH   3   5
ENDBRANCH   2   3
ENDBRANCH   1   2
BRANCH   1  23
ATOM     23  C   UNL     1       3.050   4.074  -2.934  1.00  0.00     0.275 C 
BRANCH  23  24
ATOM     24  O   UNL     1       2.105   5.145  -2.699  1.00  0.00    -0.458 OA
BRANCH  24  25
ATOM     25  C   UNL     1       0.997   4.949  -1.964  1.00  0.00     0.338 C 
ATOM     26  O   UNL     1      -0.138   4.923  -2.428  1.00  0.00    -0.246 OA
BRANCH  25  27
ATOM     27  C   UNL     1       1.288   4.797  -0.531  1.00  0.00     0.060 A 
ATOM     28  C   UNL     1       0.356   4.107   0.253  1.00  0.00     0.016 A 
ATOM     29  C   UNL     1       2.533   5.167  -0.023  1.00  0.00     0.016 A 
ATOM     30  C   UNL     1       0.711   3.645   1.507  1.00  0.00     0.010 A 
ATOM     31  C   UNL     1       2.914   4.678   1.200  1.00  0.00     0.010 A 
ATOM     32  C   UNL     1       1.994   3.940   1.960  1.00  0.00    -0.014 A 
BRANCH  32  33
ATOM     33  C   UNL     1       2.308   3.899   3.371  1.00  0.00     0.031 A 
ATOM     34  C   UNL     1       2.791   2.651   3.996  1.00  0.00     0.074 A 
ATOM     35  C   UNL     1       2.146   5.133   3.908  1.00  0.00     0.049 A 
ATOM     36  N   UNL     1       2.664   2.365   5.244  1.00  0.00    -0.248 NA
ATOM     37  C   UNL     1       3.397   1.541   3.250  1.00  0.00     0.031 C 
ATOM     38  C   UNL     1       2.528   5.684   5.191  1.00  0.00     0.029 A 
ATOM     39  N   UNL     1       1.357   6.166   3.347  1.00  0.00    -0.354 N 
ATOM     40  C   UNL     1       3.510   1.299   5.499  1.00  0.00     0.074 A 
ATOM     41  C   UNL     1       3.765   0.699   4.222  1.00  0.00     0.031 C 
ATOM     42  C   UNL     1       1.704   6.720   5.459  1.00  0.00     0.029 A 
ATOM     43  C   UNL     1       0.682   6.745   4.412  1.00  0.00     0.049 A 
ATOM     44  H   UNL     1       1.298   6.420   2.398  1.00  0.00     0.167 HD
ATOM     45  C   UNL     1       4.098   1.215   6.726  1.00  0.00     0.031 A 
ATOM     46  C   UNL     1      -0.654   6.505   4.593  1.00  0.00     0.031 A 
ATOM     47  C   UNL     1       3.567   2.272   7.577  1.00  0.00     0.049 A 
ATOM     48  C   UNL     1      -0.842   5.762   5.895  1.00  0.00     0.074 A 
ATOM     49  C   UNL     1       4.025   3.555   7.823  1.00  0.00     0.029 A 
ATOM     50  N   UNL     1       2.217   2.255   7.896  1.00  0.00    -0.354 N 
ATOM     51  N   UNL     1      -0.042   4.824   6.331  1.00  0.00    -0.248 NA
ATOM     52  C   UNL     1      -1.901   6.103   6.836  1.00  0.00     0.031 C 
ATOM     53  C   UNL     1       2.898   4.346   8.176  1.00  0.00     0.029 A 
ATOM     54  C   UNL     1       1.772   3.540   8.143  1.00  0.00     0.049 A 
ATOM     55  H   UNL     1       1.658   1.446   7.941  1.00  0.00     0.167 HD
ATOM     56  C   UNL     1      -0.368   4.550   7.635  1.00  0.00     0.074 A 
ATOM     57  C   UNL     1      -1.567   5.335   7.885  1.00  0.00     0.031 C 
ATOM     58  C   UNL     1       0.376   3.767   8.469  1.00  0.00     0.031 A 
BRANCH  45  59
ATOM     59  C   UNL     1       5.367   0.458   7.054  1.00  0.00    -0.014 A 
ATOM     60  C   UNL     1       6.123   0.869   8.172  1.00  0.00     0.009 A 
ATOM     61  C   UNL     1       5.910  -0.602   6.308  1.00  0.00     0.009 A 
ATOM     62  C   UNL     1       7.364   0.303   8.495  1.00  0.00     0.001 A 
ATOM     63  C   UNL     1       7.159  -1.170   6.621  1.00  0.00     0.001 A 
ATOM     64  C   UNL     1       7.889  -0.712   7.710  1.00  0.00     0.000 A 
ENDBRANCH  45  59
BRANCH  46  65
ATOM     65  C   UNL     1      -1.500   6.275   3.371  1.00  0.00    -0.014 A 
ATOM     66  C   UNL     1      -1.485   7.232   2.330  1.00  0.00     0.009 A 
ATOM     67  C   UNL     1      -2.156   5.061   3.119  1.00  0.00     0.009 A 
ATOM     68  C   UNL     1      -2.010   6.949   1.061  1.00  0.00     0.001 A 
ATOM     69  C   UNL     1      -2.705   4.787   1.854  1.00  0.00     0.001 A 
ATOM     70  C   UNL     1      -2.608   5.718   0.819  1.00  0.00     0.000 A 
ENDBRANCH  46  65
BRANCH  58  71
ATOM     71  C   UNL     1      -0.129   3.184   9.759  1.00  0.00    -0.014 A 
ATOM     72  C   UNL     1      -1.485   2.968  10.023  1.00  0.00     0.009 A 
ATOM     73  C   UNL     1       0.799   2.656  10.684  1.00  0.00     0.009 A 
ATOM     74  C   UNL     1      -1.897   2.317  11.188  1.00  0.00     0.001 A 
ATOM     75  C   UNL     1       0.394   1.944  11.811  1.00  0.00     0.001 A 
ATOM     76  C   UNL     1      -0.959   1.795  12.073  1.00  0.00     0.000 A 
ENDBRANCH  58  71
ENDBRANCH  32  33
ENDBRANCH  25  27
ENDBRANCH  24  25
ENDBRANCH  23  24
ENDBRANCH   1  23
TORSDOF 14
