REMARK SMILES O=C(OCCOC(=O)[C@@H]1CCCCN1c1ccccc1[N+](=O)[O-])c1ccc(-c2c3nc(c(-c4ccccc4)c4ccc([nH]4)c(-c4ccccc4)c4nc(c(-c5ccccc5)c5ccc2[nH]5)C=C4)C=C3)cc1
REMARK SMILES IDX 4 1 3 2 2 3 1 4 24 5 25 6 71 7 26 8 70 9 27 10 28 11 29 12
REMARK SMILES IDX 64 13 30 14 69 15 63 16 65 17 31 18 68 19 62 20 61 21 32 23
REMARK SMILES IDX 54 24 39 25 53 26 40 27 43 28 52 29 66 30 41 31 42 32 51 34
REMARK SMILES IDX 67 35 44 36 33 37 34 38 38 39 35 40 37 41 36 42 55 43 56 44
REMARK SMILES IDX 60 45 57 46 59 47 58 48 45 49 46 50 50 51 47 52 49 53 48 54
REMARK SMILES IDX 5 55 6 56 7 57 8 58 9 59 10 60 14 61 11 62 13 63 12 64 15 65
REMARK SMILES IDX 16 66 20 67 17 68 19 69 18 70 21 71 22 72 23 73
REMARK H PARENT 65 22 43 33
REMARK Flexibility Score: inf
ROOT
ATOM      1  C   UNL     1       4.408  -1.590   0.155  1.00  0.00     0.275 C 
ENDROOT
BRANCH   1   2
ATOM      2  O   UNL     1       3.590  -0.858   1.077  1.00  0.00    -0.458 OA
BRANCH   2   3
ATOM      3  C   UNL     1       3.499   0.478   1.288  1.00  0.00     0.338 C 
ATOM      4  O   UNL     1       2.743   0.881   2.160  1.00  0.00    -0.246 OA
BRANCH   3   5
ATOM      5  C   UNL     1       4.182   1.500   0.428  1.00  0.00     0.060 A 
ATOM      6  C   UNL     1       5.353   1.328  -0.324  1.00  0.00     0.016 A 
ATOM      7  C   UNL     1       3.541   2.746   0.357  1.00  0.00     0.016 A 
ATOM      8  C   UNL     1       5.794   2.300  -1.236  1.00  0.00     0.010 A 
ATOM      9  C   UNL     1       3.971   3.715  -0.553  1.00  0.00     0.010 A 
ATOM     10  C   UNL     1       5.090   3.490  -1.381  1.00  0.00    -0.014 A 
BRANCH  10  11
ATOM     11  C   UNL     1       5.580   4.607  -2.229  1.00  0.00     0.031 A 
ATOM     12  C   UNL     1       6.000   5.844  -1.496  1.00  0.00     0.074 A 
ATOM     13  C   UNL     1       5.550   4.594  -3.579  1.00  0.00     0.049 A 
ATOM     14  N   UNL     1       6.269   7.034  -1.955  1.00  0.00    -0.248 NA
ATOM     15  C   UNL     1       6.086   5.722  -0.028  1.00  0.00     0.031 C 
ATOM     16  C   UNL     1       5.212   3.455  -4.430  1.00  0.00     0.029 A 
ATOM     17  N   UNL     1       5.746   5.616  -4.479  1.00  0.00    -0.354 N 
ATOM     18  C   UNL     1       6.551   7.792  -0.829  1.00  0.00     0.074 A 
ATOM     19  C   UNL     1       6.264   6.979   0.328  1.00  0.00     0.031 C 
ATOM     20  C   UNL     1       5.096   3.865  -5.707  1.00  0.00     0.029 A 
ATOM     21  C   UNL     1       5.418   5.284  -5.776  1.00  0.00     0.049 A 
ATOM     22  H   UNL     1       6.089   6.502  -4.221  1.00  0.00     0.167 HD
ATOM     23  C   UNL     1       7.095   9.025  -0.757  1.00  0.00     0.031 A 
ATOM     24  C   UNL     1       5.394   6.040  -6.892  1.00  0.00     0.031 A 
ATOM     25  C   UNL     1       7.397   9.816  -1.909  1.00  0.00     0.049 A 
ATOM     26  C   UNL     1       5.904   7.455  -6.803  1.00  0.00     0.074 A 
ATOM     27  C   UNL     1       8.000  11.055  -1.978  1.00  0.00     0.029 A 
ATOM     28  N   UNL     1       7.104   9.429  -3.209  1.00  0.00    -0.354 N 
ATOM     29  N   UNL     1       6.285   8.127  -5.743  1.00  0.00    -0.248 NA
ATOM     30  C   UNL     1       6.050   8.191  -8.067  1.00  0.00     0.031 C 
ATOM     31  C   UNL     1       8.030  11.440  -3.322  1.00  0.00     0.029 A 
ATOM     32  C   UNL     1       7.497  10.414  -4.091  1.00  0.00     0.049 A 
ATOM     33  H   UNL     1       6.679   8.578  -3.464  1.00  0.00     0.167 HD
ATOM     34  C   UNL     1       6.791   9.330  -6.217  1.00  0.00     0.074 A 
ATOM     35  C   UNL     1       6.639   9.307  -7.658  1.00  0.00     0.031 C 
ATOM     36  C   UNL     1       7.359  10.347  -5.524  1.00  0.00     0.031 A 
BRANCH  23  37
ATOM     37  C   UNL     1       7.394   9.526   0.626  1.00  0.00    -0.014 A 
ATOM     38  C   UNL     1       8.352   8.881   1.431  1.00  0.00     0.009 A 
ATOM     39  C   UNL     1       6.626  10.559   1.177  1.00  0.00     0.009 A 
ATOM     40  C   UNL     1       8.465   9.194   2.786  1.00  0.00     0.001 A 
ATOM     41  C   UNL     1       6.773  10.899   2.523  1.00  0.00     0.001 A 
ATOM     42  C   UNL     1       7.672  10.201   3.331  1.00  0.00     0.000 A 
ENDBRANCH  23  37
BRANCH  24  43
ATOM     43  C   UNL     1       4.966   5.465  -8.198  1.00  0.00    -0.014 A 
ATOM     44  C   UNL     1       5.916   5.130  -9.176  1.00  0.00     0.009 A 
ATOM     45  C   UNL     1       3.606   5.271  -8.488  1.00  0.00     0.009 A 
ATOM     46  C   UNL     1       5.515   4.646 -10.425  1.00  0.00     0.001 A 
ATOM     47  C   UNL     1       3.208   4.768  -9.732  1.00  0.00     0.001 A 
ATOM     48  C   UNL     1       4.161   4.465 -10.703  1.00  0.00     0.000 A 
ENDBRANCH  24  43
BRANCH  36  49
ATOM     49  C   UNL     1       7.937  11.489  -6.306  1.00  0.00    -0.014 A 
ATOM     50  C   UNL     1       7.120  12.457  -6.905  1.00  0.00     0.009 A 
ATOM     51  C   UNL     1       9.332  11.656  -6.331  1.00  0.00     0.009 A 
ATOM     52  C   UNL     1       7.692  13.572  -7.518  1.00  0.00     0.001 A 
ATOM     53  C   UNL     1       9.898  12.787  -6.916  1.00  0.00     0.001 A 
ATOM     54  C   UNL     1       9.077  13.743  -7.511  1.00  0.00     0.000 A 
ENDBRANCH  36  49
ENDBRANCH  10  11
ENDBRANCH   3   5
ENDBRANCH   2   3
ENDBRANCH   1   2
BRANCH   1  55
ATOM     55  C   UNL     1       3.854  -1.675  -1.270  1.00  0.00     0.274 C 
BRANCH  55  56
ATOM     56  O   UNL     1       3.272  -0.450  -1.758  1.00  0.00    -0.461 OA
BRANCH  56  57
ATOM     57  C   UNL     1       2.035  -0.563  -2.345  1.00  0.00     0.328 C 
ATOM     58  O   UNL     1       1.423  -1.625  -2.405  1.00  0.00    -0.250 OA
BRANCH  57  59
ATOM     59  C   UNL     1       1.518   0.765  -2.996  1.00  0.00     0.192 C 
ATOM     60  C   UNL     1       2.487   1.919  -2.818  1.00  0.00     0.037 C 
ATOM     61  N   UNL     1       0.215   1.258  -2.479  1.00  0.00    -0.353 N 
ATOM     62  C   UNL     1       2.003   3.247  -3.405  1.00  0.00     0.005 C 
ATOM     63  C   UNL     1      -0.344   2.464  -3.085  1.00  0.00     0.118 C 
ATOM     64  C   UNL     1       0.629   3.614  -2.857  1.00  0.00     0.022 C 
BRANCH  61  65
ATOM     65  C   UNL     1      -0.620   0.409  -1.787  1.00  0.00     0.116 A 
ATOM     66  C   UNL     1      -0.506   0.419  -0.385  1.00  0.00     0.033 A 
ATOM     67  C   UNL     1      -1.529  -0.495  -2.360  1.00  0.00     0.292 A 
ATOM     68  C   UNL     1      -1.242  -0.457   0.413  1.00  0.00     0.003 A 
ATOM     69  C   UNL     1      -2.272  -1.381  -1.563  1.00  0.00     0.088 A 
ATOM     70  C   UNL     1      -2.117  -1.364  -0.178  1.00  0.00     0.007 A 
BRANCH  67  71
ATOM     71  N   UNL     1      -1.753  -0.545  -3.802  1.00  0.00     0.064 N 
ATOM     72  O   UNL     1      -2.931  -0.648  -4.181  1.00  0.00    -0.258 OA
ATOM     73  O   UNL     1      -0.779  -0.497  -4.568  1.00  0.00    -0.258 OA
ENDBRANCH  67  71
ENDBRANCH  61  65
ENDBRANCH  57  59
ENDBRANCH  56  57
ENDBRANCH  55  56
ENDBRANCH   1  55
TORSDOF 13
