REMARK SMILES C[C@H](CNS(=O)(=O)CCC(=O)OCCOC(=O)c1ccc(-c2c3nc(c(-c4ccccc4)c4ccc([nH]4)c(-c4ccccc4)c4nc(c(-c5ccccc5)c5ccc2[nH]5)C=C4)C=C3)cc1)c1ccccc1
REMARK SMILES IDX 10 1 11 2 9 3 8 4 5 5 6 6 7 7 4 8 3 10 2 11 1 12 66 13 67 14
REMARK SMILES IDX 71 15 68 16 70 17 69 18 12 19 13 20 14 21 15 22 16 23 17 24
REMARK SMILES IDX 18 25 19 26 65 27 20 28 64 29 21 30 22 31 23 32 58 33 24 34
REMARK SMILES IDX 63 35 57 36 59 37 25 38 62 39 56 40 55 41 26 43 48 44 33 45
REMARK SMILES IDX 47 46 34 47 37 48 46 49 60 50 35 51 36 52 45 54 61 55 38 56
REMARK SMILES IDX 27 57 28 58 32 59 29 60 31 61 30 62 49 63 50 64 54 65 51 66
REMARK SMILES IDX 53 67 52 68 39 69 40 70 44 71 41 72 43 73 42 74
REMARK H PARENT 4 9 59 42 37 53
REMARK Flexibility Score: inf
ROOT
ATOM      1  C   UNL     1       4.646   1.279  -0.064  1.00  0.00     0.306 C 
ATOM      2  O   UNL     1       5.499   1.857   0.602  1.00  0.00    -0.252 OA
ENDROOT
BRANCH   1   3
ATOM      3  C   UNL     1       4.904  -0.071  -0.680  1.00  0.00     0.140 C 
BRANCH   3   4
ATOM      4  C   UNL     1       3.866  -1.139  -0.384  1.00  0.00     0.165 C 
BRANCH   4   5
ATOM      5  S   UNL     1       2.720  -1.447  -1.718  1.00  0.00     0.212 S 
ATOM      6  O   UNL     1       2.017  -2.683  -1.458  1.00  0.00    -0.212 OA
ATOM      7  O   UNL     1       3.416  -1.241  -2.970  1.00  0.00    -0.212 OA
BRANCH   5   8
ATOM      8  N   UNL     1       1.623  -0.199  -1.619  1.00  0.00    -0.215 NA
ATOM      9  H   UNL     1       2.112   0.590  -1.197  1.00  0.00     0.141 HD
BRANCH   8  10
ATOM     10  C   UNL     1       0.363  -0.380  -0.856  1.00  0.00     0.106 C 
BRANCH  10  11
ATOM     11  C   UNL     1      -0.266   0.990  -0.464  1.00  0.00     0.031 C 
ATOM     12  C   UNL     1      -0.025   2.061  -1.549  1.00  0.00     0.014 C 
BRANCH  11  13
ATOM     13  C   UNL     1      -1.735   0.981  -0.026  1.00  0.00    -0.044 A 
ATOM     14  C   UNL     1      -2.383   2.202   0.256  1.00  0.00     0.004 A 
ATOM     15  C   UNL     1      -2.475  -0.195   0.161  1.00  0.00     0.004 A 
ATOM     16  C   UNL     1      -3.726   2.254   0.636  1.00  0.00     0.000 A 
ATOM     17  C   UNL     1      -3.820  -0.145   0.555  1.00  0.00     0.000 A 
ATOM     18  C   UNL     1      -4.448   1.078   0.779  1.00  0.00     0.000 A 
ENDBRANCH  11  13
ENDBRANCH  10  11
ENDBRANCH   8  10
ENDBRANCH   5   8
ENDBRANCH   4   5
ENDBRANCH   3   4
ENDBRANCH   1   3
BRANCH   1  19
ATOM     19  O   UNL     1       3.430   1.791  -0.363  1.00  0.00    -0.462 OA
BRANCH  19  20
ATOM     20  C   UNL     1       3.175   3.125   0.124  1.00  0.00     0.274 C 
BRANCH  20  21
ATOM     21  C   UNL     1       2.358   3.140   1.418  1.00  0.00     0.275 C 
BRANCH  21  22
ATOM     22  O   UNL     1       3.050   2.501   2.497  1.00  0.00    -0.458 OA
BRANCH  22  23
ATOM     23  C   UNL     1       2.804   1.182   2.656  1.00  0.00     0.338 C 
ATOM     24  O   UNL     1       2.053   0.464   2.019  1.00  0.00    -0.246 OA
BRANCH  23  25
ATOM     25  C   UNL     1       3.698   0.696   3.704  1.00  0.00     0.060 A 
ATOM     26  C   UNL     1       4.878   0.044   3.340  1.00  0.00     0.016 A 
ATOM     27  C   UNL     1       3.376   0.930   5.040  1.00  0.00     0.016 A 
ATOM     28  C   UNL     1       5.776  -0.341   4.324  1.00  0.00     0.010 A 
ATOM     29  C   UNL     1       4.287   0.563   6.024  1.00  0.00     0.010 A 
ATOM     30  C   UNL     1       5.497  -0.056   5.667  1.00  0.00    -0.014 A 
BRANCH  30  31
ATOM     31  C   UNL     1       6.506  -0.354   6.699  1.00  0.00     0.031 A 
ATOM     32  C   UNL     1       6.285  -1.479   7.657  1.00  0.00     0.074 A 
ATOM     33  C   UNL     1       7.605   0.421   6.762  1.00  0.00     0.049 A 
ATOM     34  N   UNL     1       7.031  -1.866   8.657  1.00  0.00    -0.248 NA
ATOM     35  C   UNL     1       5.057  -2.269   7.473  1.00  0.00     0.031 C 
ATOM     36  C   UNL     1       7.903   1.536   5.857  1.00  0.00     0.029 A 
ATOM     37  N   UNL     1       8.672   0.392   7.617  1.00  0.00    -0.354 N 
ATOM     38  C   UNL     1       6.358  -2.935   9.233  1.00  0.00     0.074 A 
ATOM     39  C   UNL     1       5.130  -3.117   8.489  1.00  0.00     0.031 C 
ATOM     40  C   UNL     1       9.085   2.072   6.196  1.00  0.00     0.029 A 
ATOM     41  C   UNL     1       9.600   1.374   7.367  1.00  0.00     0.049 A 
ATOM     42  H   UNL     1       8.766  -0.268   8.342  1.00  0.00     0.167 HD
ATOM     43  C   UNL     1       6.739  -3.691  10.289  1.00  0.00     0.031 A 
ATOM     44  C   UNL     1      10.730   1.684   8.027  1.00  0.00     0.031 A 
ATOM     45  C   UNL     1       7.955  -3.471  11.026  1.00  0.00     0.049 A 
ATOM     46  C   UNL     1      11.103   0.857   9.224  1.00  0.00     0.074 A 
ATOM     47  C   UNL     1       8.453  -4.180  12.104  1.00  0.00     0.029 A 
ATOM     48  N   UNL     1       8.863  -2.454  10.761  1.00  0.00    -0.354 N 
ATOM     49  N   UNL     1      10.477  -0.173   9.742  1.00  0.00    -0.248 NA
ATOM     50  C   UNL     1      12.338   1.229   9.924  1.00  0.00     0.031 C 
ATOM     51  C   UNL     1       9.631  -3.554  12.528  1.00  0.00     0.029 A 
ATOM     52  C   UNL     1       9.903  -2.498  11.672  1.00  0.00     0.049 A 
ATOM     53  H   UNL     1       8.778  -1.798  10.031  1.00  0.00     0.167 HD
ATOM     54  C   UNL     1      11.251  -0.587  10.816  1.00  0.00     0.074 A 
ATOM     55  C   UNL     1      12.405   0.292  10.858  1.00  0.00     0.031 C 
ATOM     56  C   UNL     1      11.031  -1.599  11.691  1.00  0.00     0.031 A 
BRANCH  43  57
ATOM     57  C   UNL     1       5.805  -4.787  10.727  1.00  0.00    -0.014 A 
ATOM     58  C   UNL     1       5.590  -5.928   9.937  1.00  0.00     0.009 A 
ATOM     59  C   UNL     1       5.134  -4.679  11.955  1.00  0.00     0.009 A 
ATOM     60  C   UNL     1       4.692  -6.916  10.348  1.00  0.00     0.001 A 
ATOM     61  C   UNL     1       4.260  -5.683  12.378  1.00  0.00     0.001 A 
ATOM     62  C   UNL     1       4.031  -6.795  11.569  1.00  0.00     0.000 A 
ENDBRANCH  43  57
BRANCH  44  63
ATOM     63  C   UNL     1      11.569   2.825   7.576  1.00  0.00    -0.014 A 
ATOM     64  C   UNL     1      12.842   2.606   7.027  1.00  0.00     0.009 A 
ATOM     65  C   UNL     1      11.095   4.143   7.676  1.00  0.00     0.009 A 
ATOM     66  C   UNL     1      13.629   3.683   6.609  1.00  0.00     0.001 A 
ATOM     67  C   UNL     1      11.870   5.215   7.229  1.00  0.00     0.001 A 
ATOM     68  C   UNL     1      13.140   4.985   6.705  1.00  0.00     0.000 A 
ENDBRANCH  44  63
BRANCH  56  69
ATOM     69  C   UNL     1      12.079  -1.819  12.745  1.00  0.00    -0.014 A 
ATOM     70  C   UNL     1      12.244  -0.920  13.810  1.00  0.00     0.009 A 
ATOM     71  C   UNL     1      12.893  -2.961  12.684  1.00  0.00     0.009 A 
ATOM     72  C   UNL     1      13.230  -1.141  14.772  1.00  0.00     0.001 A 
ATOM     73  C   UNL     1      13.855  -3.197  13.665  1.00  0.00     0.001 A 
ATOM     74  C   UNL     1      14.031  -2.281  14.702  1.00  0.00     0.000 A 
ENDBRANCH  56  69
ENDBRANCH  30  31
ENDBRANCH  23  25
ENDBRANCH  22  23
ENDBRANCH  21  22
ENDBRANCH  20  21
ENDBRANCH  19  20
ENDBRANCH   1  19
TORSDOF 17
