REMARK SMILES C[C@@H](C(=O)OCCOC(=O)c1ccc(-c2c3nc(c(-c4ccccc4)c4ccc([nH]4)c(-c4ccccc4)c4nc(c(-c5ccccc5)c5ccc2[nH]5)C=C4)C=C3)cc1)c1ccc(O[C@H]2CCCC2=O)cc1F
REMARK SMILES IDX 6 1 5 2 3 3 4 4 2 5 1 6 59 7 60 8 71 9 61 10 70 11 72 12
REMARK SMILES IDX 62 13 63 14 64 15 65 16 68 17 66 18 67 19 69 20 7 21 8 22
REMARK SMILES IDX 9 23 10 24 11 25 12 26 58 27 13 28 57 29 14 30 15 31 16 32
REMARK SMILES IDX 51 33 17 34 56 35 50 36 52 37 18 38 55 39 49 40 48 41 19 43
REMARK SMILES IDX 41 44 26 45 40 46 27 47 30 48 39 49 53 50 28 51 29 52 38 54
REMARK SMILES IDX 54 55 31 56 20 57 21 58 25 59 22 60 24 61 23 62 42 63 43 64
REMARK SMILES IDX 47 65 44 66 46 67 45 68 32 69 33 70 37 71 34 72 36 73 35 74
REMARK H PARENT 52 42 30 53
REMARK Flexibility Score: inf
ROOT
ATOM      1  C   UNL     1       2.862  -1.341  -3.365  1.00  0.00     0.274 C 
ENDROOT
BRANCH   1   2
ATOM      2  O   UNL     1       2.313  -0.693  -2.194  1.00  0.00    -0.462 OA
BRANCH   2   3
ATOM      3  C   UNL     1       1.277   0.180  -2.357  1.00  0.00     0.313 C 
ATOM      4  O   UNL     1       0.816   0.486  -3.453  1.00  0.00    -0.252 OA
BRANCH   3   5
ATOM      5  C   UNL     1       0.786   0.801  -1.033  1.00  0.00     0.129 C 
ATOM      6  C   UNL     1       1.630   0.351   0.163  1.00  0.00     0.025 C 
BRANCH   5   7
ATOM      7  C   UNL     1      -0.729   0.678  -0.820  1.00  0.00     0.002 A 
ATOM      8  C   UNL     1      -1.613   1.551  -1.480  1.00  0.00     0.011 A 
ATOM      9  C   UNL     1      -1.315  -0.307  -0.012  1.00  0.00     0.130 A 
ATOM     10  C   UNL     1      -3.006   1.350  -1.422  1.00  0.00     0.047 A 
ATOM     11  C   UNL     1      -2.702  -0.497   0.063  1.00  0.00     0.086 A 
ATOM     12  F   UNL     1      -0.552  -1.147   0.697  1.00  0.00    -0.207 F 
ATOM     13  C   UNL     1      -3.550   0.260  -0.728  1.00  0.00     0.123 A 
BRANCH  13  14
ATOM     14  O   UNL     1      -4.858  -0.041  -1.014  1.00  0.00    -0.483 OA
BRANCH  14  15
ATOM     15  C   UNL     1      -5.345  -1.346  -0.704  1.00  0.00     0.239 C 
ATOM     16  C   UNL     1      -7.142  -1.493  -1.568  1.00  0.00     0.054 C 
ATOM     17  C   UNL     1      -4.461  -3.144  -0.866  1.00  0.00     0.173 C 
ATOM     18  C   UNL     1      -7.400  -3.441  -2.224  1.00  0.00     0.012 C 
ATOM     19  C   UNL     1      -5.740  -4.447  -1.746  1.00  0.00     0.080 C 
ATOM     20  O   UNL     1      -3.359  -3.440  -0.410  1.00  0.00    -0.296 OA
ENDBRANCH  14  15
ENDBRANCH  13  14
ENDBRANCH   5   7
ENDBRANCH   3   5
ENDBRANCH   2   3
ENDBRANCH   1   2
BRANCH   1  21
ATOM     21  C   UNL     1       2.493  -2.826  -3.403  1.00  0.00     0.275 C 
BRANCH  21  22
ATOM     22  O   UNL     1       1.102  -2.972  -3.736  1.00  0.00    -0.458 OA
BRANCH  22  23
ATOM     23  C   UNL     1       0.287  -3.001  -2.661  1.00  0.00     0.338 C 
ATOM     24  O   UNL     1       0.614  -3.028  -1.487  1.00  0.00    -0.246 OA
BRANCH  23  25
ATOM     25  C   UNL     1      -1.111  -2.923  -3.095  1.00  0.00     0.060 A 
ATOM     26  C   UNL     1      -1.726  -1.686  -3.213  1.00  0.00     0.016 A 
ATOM     27  C   UNL     1      -1.870  -4.074  -3.174  1.00  0.00     0.016 A 
ATOM     28  C   UNL     1      -3.119  -1.591  -3.152  1.00  0.00     0.010 A 
ATOM     29  C   UNL     1      -3.269  -3.972  -3.224  1.00  0.00     0.010 A 
ATOM     30  C   UNL     1      -3.935  -2.727  -3.023  1.00  0.00    -0.014 A 
BRANCH  30  31
ATOM     31  C   UNL     1      -5.578  -2.512  -2.466  1.00  0.00     0.031 A 
ATOM     32  C   UNL     1      -6.425  -3.057  -0.560  1.00  0.00     0.074 A 
ATOM     33  C   UNL     1      -6.124  -1.962  -3.713  1.00  0.00     0.049 A 
ATOM     34  N   UNL     1      -7.731  -2.977  -0.114  1.00  0.00    -0.248 NA
ATOM     35  C   UNL     1      -5.808  -3.789   0.802  1.00  0.00     0.031 C 
ATOM     36  C   UNL     1      -5.471  -1.403  -4.930  1.00  0.00     0.029 A 
ATOM     37  N   UNL     1      -7.465  -1.714  -4.064  1.00  0.00    -0.354 N 
ATOM     38  C   UNL     1      -8.057  -3.704   0.983  1.00  0.00     0.074 A 
ATOM     39  C   UNL     1      -6.835  -4.123   1.571  1.00  0.00     0.031 C 
ATOM     40  C   UNL     1      -6.377  -0.771  -5.712  1.00  0.00     0.029 A 
ATOM     41  C   UNL     1      -7.699  -0.973  -5.168  1.00  0.00     0.049 A 
ATOM     42  H   UNL     1      -8.206  -2.068  -3.522  1.00  0.00     0.167 HD
ATOM     43  C   UNL     1      -9.315  -4.073   1.327  1.00  0.00     0.031 A 
ATOM     44  C   UNL     1      -8.913  -0.560  -5.575  1.00  0.00     0.031 A 
ATOM     45  C   UNL     1     -10.504  -3.767   0.545  1.00  0.00     0.049 A 
ATOM     46  C   UNL     1     -10.155  -0.965  -4.768  1.00  0.00     0.074 A 
ATOM     47  C   UNL     1     -11.803  -4.165   0.802  1.00  0.00     0.029 A 
ATOM     48  N   UNL     1     -10.552  -3.029  -0.650  1.00  0.00    -0.354 N 
ATOM     49  N   UNL     1     -10.267  -1.602  -3.613  1.00  0.00    -0.248 NA
ATOM     50  C   UNL     1     -11.442  -0.592  -5.364  1.00  0.00     0.031 C 
ATOM     51  C   UNL     1     -12.610  -3.747  -0.263  1.00  0.00     0.029 A 
ATOM     52  C   UNL     1     -11.847  -3.000  -1.157  1.00  0.00     0.049 A 
ATOM     53  H   UNL     1      -9.776  -2.592  -1.070  1.00  0.00     0.167 HD
ATOM     54  C   UNL     1     -11.640  -1.696  -3.342  1.00  0.00     0.074 A 
ATOM     55  C   UNL     1     -12.300  -1.013  -4.446  1.00  0.00     0.031 C 
ATOM     56  C   UNL     1     -12.341  -2.281  -2.325  1.00  0.00     0.031 A 
BRANCH  43  57
ATOM     57  C   UNL     1      -9.389  -4.992   2.513  1.00  0.00    -0.014 A 
ATOM     58  C   UNL     1      -8.973  -4.557   3.781  1.00  0.00     0.009 A 
ATOM     59  C   UNL     1      -9.742  -6.340   2.339  1.00  0.00     0.009 A 
ATOM     60  C   UNL     1      -8.809  -5.470   4.823  1.00  0.00     0.001 A 
ATOM     61  C   UNL     1      -9.620  -7.243   3.397  1.00  0.00     0.001 A 
ATOM     62  C   UNL     1      -9.126  -6.813   4.628  1.00  0.00     0.000 A 
ENDBRANCH  43  57
BRANCH  44  63
ATOM     63  C   UNL     1      -9.008   0.267  -6.798  1.00  0.00    -0.014 A 
ATOM     64  C   UNL     1      -9.490   1.582  -6.742  1.00  0.00     0.009 A 
ATOM     65  C   UNL     1      -8.596  -0.254  -8.035  1.00  0.00     0.009 A 
ATOM     66  C   UNL     1      -9.575   2.352  -7.903  1.00  0.00     0.001 A 
ATOM     67  C   UNL     1      -8.648   0.528  -9.187  1.00  0.00     0.001 A 
ATOM     68  C   UNL     1      -9.146   1.827  -9.122  1.00  0.00     0.000 A 
ENDBRANCH  44  63
BRANCH  56  69
ATOM     69  C   UNL     1     -13.863  -2.182  -2.412  1.00  0.00    -0.014 A 
ATOM     70  C   UNL     1     -14.602  -2.914  -3.358  1.00  0.00     0.009 A 
ATOM     71  C   UNL     1     -14.564  -1.423  -1.459  1.00  0.00     0.009 A 
ATOM     72  C   UNL     1     -16.001  -2.859  -3.369  1.00  0.00     0.001 A 
ATOM     73  C   UNL     1     -15.962  -1.399  -1.449  1.00  0.00     0.001 A 
ATOM     74  C   UNL     1     -16.679  -2.109  -2.409  1.00  0.00     0.000 A 
ENDBRANCH  56  69
ENDBRANCH  30  31
ENDBRANCH  23  25
ENDBRANCH  22  23
ENDBRANCH  21  22
ENDBRANCH   1  21
TORSDOF 14
