REMARK SMILES O=C(OCCOC(=O)[C@H]1[C@H]2CC[C@H](C2)[C@@H]1C(=O)N1CCN(c2cccc(Cl)c2)CC1)c1ccc(-c2c3nc(c(-c4ccccc4)c4ccc([nH]4)c(-c4ccccc4)c4nc(c(-c5ccccc5)c5ccc2[nH]5)C=C4)C=C3)cc1
REMARK SMILES IDX 4 1 3 2 2 3 1 4 31 5 32 6 78 7 33 8 77 9 34 10 35 11 36 12
REMARK SMILES IDX 71 13 37 14 76 15 70 16 72 17 38 18 75 19 69 20 68 21 39 23
REMARK SMILES IDX 61 24 46 25 60 26 47 27 50 28 59 29 73 30 48 31 49 32 58 34
REMARK SMILES IDX 74 35 51 36 40 37 41 38 45 39 42 40 44 41 43 42 62 43 63 44
REMARK SMILES IDX 67 45 64 46 66 47 65 48 52 49 53 50 57 51 54 52 56 53 55 54
REMARK SMILES IDX 5 55 6 56 7 57 8 58 9 59 10 60 15 61 11 62 14 63 13 64 12 65
REMARK SMILES IDX 16 66 17 67 18 68 19 69 30 70 20 71 29 72 21 73 22 74 23 75
REMARK SMILES IDX 28 76 24 77 26 78 25 79 27 80
REMARK H PARENT 72 22 50 33
REMARK Flexibility Score: inf
ROOT
ATOM      1  C   UNL     1       5.371  -1.485   5.793  1.00  0.00     0.275 C 
ENDROOT
BRANCH   1   2
ATOM      2  O   UNL     1       5.980  -0.989   4.584  1.00  0.00    -0.458 OA
BRANCH   2   3
ATOM      3  C   UNL     1       5.996  -1.478   3.321  1.00  0.00     0.338 C 
ATOM      4  O   UNL     1       6.505  -0.780   2.442  1.00  0.00    -0.246 OA
BRANCH   3   5
ATOM      5  C   UNL     1       5.357  -2.768   2.884  1.00  0.00     0.060 A 
ATOM      6  C   UNL     1       5.008  -3.856   3.693  1.00  0.00     0.016 A 
ATOM      7  C   UNL     1       5.014  -2.850   1.521  1.00  0.00     0.016 A 
ATOM      8  C   UNL     1       4.232  -4.930   3.198  1.00  0.00     0.010 A 
ATOM      9  C   UNL     1       4.199  -3.888   1.042  1.00  0.00     0.010 A 
ATOM     10  C   UNL     1       3.777  -4.942   1.879  1.00  0.00    -0.014 A 
BRANCH  10  11
ATOM     11  C   UNL     1       2.963  -6.050   1.287  1.00  0.00     0.031 A 
ATOM     12  C   UNL     1       3.571  -6.830   0.159  1.00  0.00     0.074 A 
ATOM     13  C   UNL     1       1.704  -6.383   1.664  1.00  0.00     0.049 A 
ATOM     14  N   UNL     1       3.043  -7.818  -0.513  1.00  0.00    -0.248 NA
ATOM     15  C   UNL     1       4.972  -6.535  -0.195  1.00  0.00     0.031 C 
ATOM     16  C   UNL     1       1.001  -5.971   2.869  1.00  0.00     0.029 A 
ATOM     17  N   UNL     1       0.734  -7.096   0.988  1.00  0.00    -0.354 N 
ATOM     18  C   UNL     1       4.089  -8.353  -1.240  1.00  0.00     0.074 A 
ATOM     19  C   UNL     1       5.218  -7.463  -1.104  1.00  0.00     0.031 C 
ATOM     20  C   UNL     1      -0.321  -6.172   2.722  1.00  0.00     0.029 A 
ATOM     21  C   UNL     1      -0.541  -6.870   1.471  1.00  0.00     0.049 A 
ATOM     22  H   UNL     1       0.931  -7.703   0.238  1.00  0.00     0.167 HD
ATOM     23  C   UNL     1       4.145  -9.564  -1.836  1.00  0.00     0.031 A 
ATOM     24  C   UNL     1      -1.748  -7.219   0.984  1.00  0.00     0.031 A 
ATOM     25  C   UNL     1       3.013 -10.426  -2.002  1.00  0.00     0.049 A 
ATOM     26  C   UNL     1      -1.762  -8.349  -0.000  1.00  0.00     0.074 A 
ATOM     27  C   UNL     1       2.955 -11.674  -2.590  1.00  0.00     0.029 A 
ATOM     28  N   UNL     1       1.724 -10.107  -1.601  1.00  0.00    -0.354 N 
ATOM     29  N   UNL     1      -0.742  -8.935  -0.576  1.00  0.00    -0.248 NA
ATOM     30  C   UNL     1      -3.059  -8.986  -0.261  1.00  0.00     0.031 C 
ATOM     31  C   UNL     1       1.615 -12.077  -2.615  1.00  0.00     0.029 A 
ATOM     32  C   UNL     1       0.849 -11.107  -1.988  1.00  0.00     0.049 A 
ATOM     33  H   UNL     1       1.469  -9.290  -1.115  1.00  0.00     0.167 HD
ATOM     34  C   UNL     1      -1.251 -10.087  -1.150  1.00  0.00     0.074 A 
ATOM     35  C   UNL     1      -2.680 -10.082  -0.902  1.00  0.00     0.031 C 
ATOM     36  C   UNL     1      -0.574 -11.088  -1.763  1.00  0.00     0.031 A 
BRANCH  23  37
ATOM     37  C   UNL     1       5.505 -10.007  -2.275  1.00  0.00    -0.014 A 
ATOM     38  C   UNL     1       6.480 -10.342  -1.316  1.00  0.00     0.009 A 
ATOM     39  C   UNL     1       5.840 -10.035  -3.632  1.00  0.00     0.009 A 
ATOM     40  C   UNL     1       7.781 -10.653  -1.710  1.00  0.00     0.001 A 
ATOM     41  C   UNL     1       7.137 -10.371  -4.024  1.00  0.00     0.001 A 
ATOM     42  C   UNL     1       8.107 -10.668  -3.064  1.00  0.00     0.000 A 
ENDBRANCH  23  37
BRANCH  24  43
ATOM     43  C   UNL     1      -3.023  -6.657   1.511  1.00  0.00    -0.014 A 
ATOM     44  C   UNL     1      -3.819  -7.365   2.424  1.00  0.00     0.009 A 
ATOM     45  C   UNL     1      -3.506  -5.436   1.008  1.00  0.00     0.009 A 
ATOM     46  C   UNL     1      -5.086  -6.890   2.784  1.00  0.00     0.001 A 
ATOM     47  C   UNL     1      -4.768  -4.956   1.382  1.00  0.00     0.001 A 
ATOM     48  C   UNL     1      -5.562  -5.690   2.260  1.00  0.00     0.000 A 
ENDBRANCH  24  43
BRANCH  36  49
ATOM     49  C   UNL     1      -1.373 -12.286  -2.181  1.00  0.00    -0.014 A 
ATOM     50  C   UNL     1      -2.315 -12.209  -3.217  1.00  0.00     0.009 A 
ATOM     51  C   UNL     1      -1.161 -13.515  -1.538  1.00  0.00     0.009 A 
ATOM     52  C   UNL     1      -3.061 -13.333  -3.572  1.00  0.00     0.001 A 
ATOM     53  C   UNL     1      -1.879 -14.646  -1.922  1.00  0.00     0.001 A 
ATOM     54  C   UNL     1      -2.836 -14.551  -2.931  1.00  0.00     0.000 A 
ENDBRANCH  36  49
ENDBRANCH  10  11
ENDBRANCH   3   5
ENDBRANCH   2   3
ENDBRANCH   1   2
BRANCH   1  55
ATOM     55  C   UNL     1       3.862  -1.236   5.911  1.00  0.00     0.274 C 
BRANCH  55  56
ATOM     56  O   UNL     1       3.263  -1.127   4.618  1.00  0.00    -0.462 OA
BRANCH  56  57
ATOM     57  C   UNL     1       2.215  -0.260   4.414  1.00  0.00     0.310 C 
ATOM     58  O   UNL     1       1.772   0.507   5.242  1.00  0.00    -0.252 OA
BRANCH  57  59
ATOM     59  C   UNL     1       1.736  -0.405   2.966  1.00  0.00     0.115 C 
ATOM     60  C   UNL     1       1.944  -1.853   2.528  1.00  0.00     0.004 C 
ATOM     61  C   UNL     1       0.232  -0.237   2.618  1.00  0.00     0.096 C 
ATOM     62  C   UNL     1       1.152  -2.796   3.429  1.00  0.00     0.005 C 
ATOM     63  C   UNL     1       1.204  -1.949   1.219  1.00  0.00     0.009 C 
ATOM     64  C   UNL     1      -0.119  -1.553   1.869  1.00  0.00     0.003 C 
ATOM     65  C   UNL     1      -0.264  -2.687   2.882  1.00  0.00     0.005 C 
BRANCH  61  66
ATOM     66  C   UNL     1       0.005   1.019   1.774  1.00  0.00     0.226 C 
ATOM     67  O   UNL     1      -0.445   2.038   2.299  1.00  0.00    -0.275 OA
ATOM     68  N   UNL     1       0.565   1.044   0.507  1.00  0.00    -0.339 N 
ATOM     69  C   UNL     1       1.377   2.210   0.167  1.00  0.00     0.141 C 
ATOM     70  C   UNL     1      -0.058   0.412  -0.673  1.00  0.00     0.141 C 
ATOM     71  C   UNL     1       2.475   1.832  -0.843  1.00  0.00     0.138 C 
ATOM     72  C   UNL     1       0.969   0.062  -1.771  1.00  0.00     0.138 C 
ATOM     73  N   UNL     1       1.859   1.201  -2.021  1.00  0.00    -0.368 N 
BRANCH  73  74
ATOM     74  C   UNL     1       2.154   1.614  -3.300  1.00  0.00     0.038 A 
ATOM     75  C   UNL     1       1.141   1.731  -4.263  1.00  0.00     0.026 A 
ATOM     76  C   UNL     1       3.456   1.959  -3.681  1.00  0.00     0.046 A 
ATOM     77  C   UNL     1       1.407   2.188  -5.555  1.00  0.00     0.004 A 
ATOM     78  C   UNL     1       3.727   2.407  -4.975  1.00  0.00     0.043 A 
ATOM     79  C   UNL     1       2.706   2.528  -5.912  1.00  0.00     0.020 A 
ATOM     80  Cl  UNL     1       5.341   2.815  -5.415  1.00  0.00    -0.084 Cl
ENDBRANCH  73  74
ENDBRANCH  61  66
ENDBRANCH  57  59
ENDBRANCH  56  57
ENDBRANCH  55  56
ENDBRANCH   1  55
TORSDOF 13
