REMARK SMILES C[C@H]1SCCC[C@@]1(C(=O)OCCOC(=O)c1ccc(-c2c3nc(c(-c4ccccc4)c4ccc([nH]4)c(-c4ccccc4)c4nc(c(-c5ccccc5)c5ccc2[nH]5)C=C4)C=C3)cc1)[NH+]1CCCC1
REMARK SMILES IDX 12 1 11 2 10 3 8 4 9 5 7 6 1 7 2 8 3 9 4 10 6 11 5 12 64 13
REMARK SMILES IDX 65 14 68 15 66 17 67 18 13 19 14 20 15 21 16 22 17 23 63 24
REMARK SMILES IDX 18 25 62 26 19 27 20 28 21 29 56 30 22 31 61 32 55 33 57 34
REMARK SMILES IDX 23 35 60 36 54 37 53 38 24 40 46 41 31 42 45 43 32 44 35 45
REMARK SMILES IDX 44 46 58 47 33 48 34 49 43 51 59 52 36 53 25 54 26 55 30 56
REMARK SMILES IDX 27 57 29 58 28 59 47 60 48 61 52 62 49 63 51 64 50 65 37 66
REMARK SMILES IDX 38 67 42 68 39 69 41 70 40 71
REMARK H PARENT 64 16 57 39 35 50
REMARK Flexibility Score: inf
ROOT
ATOM      1  C   UNL     1       5.151   2.559   2.449  1.00  0.00     0.275 C 
ENDROOT
BRANCH   1   2
ATOM      2  C   UNL     1       4.573   2.676   1.040  1.00  0.00     0.274 C 
BRANCH   2   3
ATOM      3  O   UNL     1       3.158   2.961   1.099  1.00  0.00    -0.457 OA
BRANCH   3   4
ATOM      4  C   UNL     1       2.292   1.919   0.931  1.00  0.00     0.369 C 
ATOM      5  O   UNL     1       2.678   0.777   0.696  1.00  0.00    -0.245 OA
BRANCH   4   6
ATOM      6  C   UNL     1       0.765   2.368   0.922  1.00  0.00     0.207 C 
ATOM      7  C   UNL     1      -0.227   0.358   2.296  1.00  0.00     0.027 C 
ATOM      8  C   UNL     1      -0.047   0.989   0.908  1.00  0.00     0.117 C 
ATOM      9  S   UNL     1      -1.708   0.928   0.109  1.00  0.00    -0.152 SA
ATOM     10  C   UNL     1      -1.343   1.850  -1.392  1.00  0.00     0.070 C 
ATOM     11  C   UNL     1       0.613   3.124  -0.432  1.00  0.00     0.083 C 
ATOM     12  C   UNL     1      -0.785   3.213  -1.031  1.00  0.00     0.018 C 
BRANCH   6  13
ATOM     13  N   UNL     1       0.475   3.213   2.127  1.00  0.00    -0.320 N 
ATOM     14  C   UNL     1      -0.908   3.457   2.526  1.00  0.00     0.263 C 
ATOM     15  C   UNL     1       1.217   4.463   2.327  1.00  0.00     0.263 C 
ATOM     16  H   UNL     1       0.863   2.499   2.744  1.00  0.00     0.349 HD
ATOM     17  C   UNL     1      -1.142   4.943   2.358  1.00  0.00     0.067 C 
ATOM     18  C   UNL     1       0.207   5.559   2.637  1.00  0.00     0.067 C 
ENDBRANCH   6  13
ENDBRANCH   4   6
ENDBRANCH   3   4
ENDBRANCH   2   3
ENDBRANCH   1   2
BRANCH   1  19
ATOM     19  O   UNL     1       4.631   1.364   3.049  1.00  0.00    -0.458 OA
BRANCH  19  20
ATOM     20  C   UNL     1       4.405   1.405   4.382  1.00  0.00     0.338 C 
ATOM     21  O   UNL     1       4.708   2.301   5.149  1.00  0.00    -0.246 OA
BRANCH  20  22
ATOM     22  C   UNL     1       3.695   0.168   4.790  1.00  0.00     0.060 A 
ATOM     23  C   UNL     1       2.838  -0.482   3.903  1.00  0.00     0.016 A 
ATOM     24  C   UNL     1       3.814  -0.310   6.095  1.00  0.00     0.016 A 
ATOM     25  C   UNL     1       2.033  -1.534   4.336  1.00  0.00     0.010 A 
ATOM     26  C   UNL     1       3.082  -1.438   6.496  1.00  0.00     0.010 A 
ATOM     27  C   UNL     1       2.151  -2.044   5.632  1.00  0.00    -0.014 A 
BRANCH  27  28
ATOM     28  C   UNL     1       1.269  -3.157   6.094  1.00  0.00     0.031 A 
ATOM     29  C   UNL     1       0.447  -2.998   7.349  1.00  0.00     0.074 A 
ATOM     30  C   UNL     1       1.160  -4.306   5.395  1.00  0.00     0.049 A 
ATOM     31  N   UNL     1      -0.176  -3.911   8.052  1.00  0.00    -0.248 NA
ATOM     32  C   UNL     1       0.326  -1.637   7.894  1.00  0.00     0.031 C 
ATOM     33  C   UNL     1       1.820  -4.602   4.122  1.00  0.00     0.029 A 
ATOM     34  N   UNL     1       0.430  -5.443   5.656  1.00  0.00    -0.354 N 
ATOM     35  C   UNL     1      -0.683  -3.251   9.165  1.00  0.00     0.074 A 
ATOM     36  C   UNL     1      -0.312  -1.858   9.035  1.00  0.00     0.031 C 
ATOM     37  C   UNL     1       1.417  -5.803   3.683  1.00  0.00     0.029 A 
ATOM     38  C   UNL     1       0.565  -6.416   4.695  1.00  0.00     0.049 A 
ATOM     39  H   UNL     1      -0.135  -5.549   6.455  1.00  0.00     0.167 HD
ATOM     40  C   UNL     1      -1.383  -3.762  10.207  1.00  0.00     0.031 A 
ATOM     41  C   UNL     1       0.107  -7.682   4.649  1.00  0.00     0.031 A 
ATOM     42  C   UNL     1      -1.816  -5.130  10.304  1.00  0.00     0.049 A 
ATOM     43  C   UNL     1      -0.655  -8.234   5.817  1.00  0.00     0.074 A 
ATOM     44  C   UNL     1      -2.519  -5.744  11.327  1.00  0.00     0.029 A 
ATOM     45  N   UNL     1      -1.619  -6.089   9.324  1.00  0.00    -0.354 N 
ATOM     46  N   UNL     1      -1.014  -7.635   6.925  1.00  0.00    -0.248 NA
ATOM     47  C   UNL     1      -1.044  -9.650   5.741  1.00  0.00     0.031 C 
ATOM     48  C   UNL     1      -2.724  -7.083  10.976  1.00  0.00     0.029 A 
ATOM     49  C   UNL     1      -2.184  -7.290   9.718  1.00  0.00     0.049 A 
ATOM     50  H   UNL     1      -1.147  -5.939   8.473  1.00  0.00     0.167 HD
ATOM     51  C   UNL     1      -1.661  -8.601   7.683  1.00  0.00     0.074 A 
ATOM     52  C   UNL     1      -1.676  -9.816   6.895  1.00  0.00     0.031 C 
ATOM     53  C   UNL     1      -2.183  -8.493   8.929  1.00  0.00     0.031 A 
BRANCH  40  54
ATOM     54  C   UNL     1      -1.673  -2.843  11.359  1.00  0.00    -0.014 A 
ATOM     55  C   UNL     1      -2.655  -1.844  11.282  1.00  0.00     0.009 A 
ATOM     56  C   UNL     1      -0.961  -3.005  12.559  1.00  0.00     0.009 A 
ATOM     57  C   UNL     1      -2.893  -1.004  12.373  1.00  0.00     0.001 A 
ATOM     58  C   UNL     1      -1.219  -2.182  13.656  1.00  0.00     0.001 A 
ATOM     59  C   UNL     1      -2.179  -1.176  13.559  1.00  0.00     0.000 A 
ENDBRANCH  40  54
BRANCH  41  60
ATOM     60  C   UNL     1       0.433  -8.541   3.480  1.00  0.00    -0.014 A 
ATOM     61  C   UNL     1      -0.564  -8.917   2.569  1.00  0.00     0.009 A 
ATOM     62  C   UNL     1       1.752  -8.974   3.263  1.00  0.00     0.009 A 
ATOM     63  C   UNL     1      -0.247  -9.715   1.466  1.00  0.00     0.001 A 
ATOM     64  C   UNL     1       2.070  -9.744   2.144  1.00  0.00     0.001 A 
ATOM     65  C   UNL     1       1.070 -10.119   1.250  1.00  0.00     0.000 A 
ENDBRANCH  41  60
BRANCH  53  66
ATOM     66  C   UNL     1      -2.823  -9.721   9.506  1.00  0.00    -0.014 A 
ATOM     67  C   UNL     1      -2.041 -10.777  10.000  1.00  0.00     0.009 A 
ATOM     68  C   UNL     1      -4.221  -9.813   9.578  1.00  0.00     0.009 A 
ATOM     69  C   UNL     1      -2.651 -11.916  10.529  1.00  0.00     0.001 A 
ATOM     70  C   UNL     1      -4.826 -10.944  10.126  1.00  0.00     0.001 A 
ATOM     71  C   UNL     1      -4.041 -11.997  10.594  1.00  0.00     0.000 A 
ENDBRANCH  53  66
ENDBRANCH  27  28
ENDBRANCH  20  22
ENDBRANCH  19  20
ENDBRANCH   1  19
TORSDOF 12
