REMARK SMILES O=C(CCCN1C(=O)C(=O)/C(=C(/[O-])c2ccc(Cl)cc2)[C@@H]1c1ccccc1[N+](=O)[O-])OCCOC(=O)c1ccc(-c2c3nc(c(-c4ccccc4)c4ccc([nH]4)c(-c4ccccc4)c4nc(c(-c5ccccc5)c5ccc2[nH]5)C=C4)C=C3)cc1
REMARK SMILES IDX 31 1 2 2 1 3 3 4 4 5 5 6 6 7 7 8 21 9 8 10 9 11 11 12 10 13
REMARK SMILES IDX 12 14 13 15 22 16 23 17 27 18 24 19 26 20 25 21 28 22 29 23
REMARK SMILES IDX 30 24 14 25 15 26 20 27 16 28 19 29 17 30 18 31 32 32 33 33
REMARK SMILES IDX 34 34 35 35 36 36 37 37 38 38 84 39 39 40 83 41 40 42 41 43
REMARK SMILES IDX 42 44 77 45 43 46 82 47 76 48 78 49 44 50 81 51 75 52 74 53
REMARK SMILES IDX 45 55 67 56 52 57 66 58 53 59 56 60 65 61 79 62 54 63 55 64
REMARK SMILES IDX 64 66 80 67 57 68 46 69 47 70 51 71 48 72 50 73 49 74 68 75
REMARK SMILES IDX 69 76 73 77 70 78 72 79 71 80 58 81 59 82 63 83 60 84 62 85
REMARK SMILES IDX 61 86
REMARK H PARENT 78 54 56 65
REMARK Flexibility Score: inf
ROOT
ATOM      1  O   UNL     1       1.973   0.241  -0.484  1.00  0.00    -0.462 OA
ENDROOT
BRANCH   1   2
ATOM      2  C   UNL     1       2.320  -0.785   0.348  1.00  0.00     0.305 C 
ATOM      3  O   UNL     1       1.598  -1.771   0.473  1.00  0.00    -0.252 OA
BRANCH   2   4
ATOM      4  C   UNL     1       3.457  -0.497   1.304  1.00  0.00     0.124 C 
BRANCH   4   5
ATOM      5  C   UNL     1       4.375  -1.657   1.745  1.00  0.00     0.033 C 
BRANCH   5   6
ATOM      6  C   UNL     1       5.865  -1.688   1.265  1.00  0.00     0.121 C 
BRANCH   6   7
ATOM      7  N   UNL     1       6.326  -0.502   0.554  1.00  0.00    -0.324 N 
ATOM      8  C   UNL     1       6.286   0.682   1.283  1.00  0.00     0.295 C 
ATOM      9  C   UNL     1       7.375  -0.453  -0.501  1.00  0.00     0.157 C 
ATOM     10  O   UNL     1       5.919   0.872   2.430  1.00  0.00    -0.265 OA
ATOM     11  C   UNL     1       6.814   1.762   0.396  1.00  0.00     0.248 C 
ATOM     12  C   UNL     1       7.696   1.087  -0.576  1.00  0.00     0.025 C 
ATOM     13  O   UNL     1       6.519   2.936   0.517  1.00  0.00    -0.283 OA
ATOM     14  C   UNL     1       8.697   1.796  -1.138  1.00  0.00    -0.092 C 
ATOM     15  O   UNL     1       9.771   1.145  -1.702  1.00  0.00    -0.872 OA
BRANCH   9  16
ATOM     16  C   UNL     1       7.126  -1.109  -1.893  1.00  0.00     0.057 A 
ATOM     17  C   UNL     1       8.170  -1.000  -2.841  1.00  0.00     0.013 A 
ATOM     18  C   UNL     1       6.046  -1.854  -2.402  1.00  0.00     0.275 A 
ATOM     19  C   UNL     1       8.057  -1.348  -4.199  1.00  0.00     0.001 A 
ATOM     20  C   UNL     1       5.898  -2.209  -3.768  1.00  0.00     0.086 A 
ATOM     21  C   UNL     1       6.893  -1.911  -4.679  1.00  0.00     0.007 A 
BRANCH  18  22
ATOM     22  N   UNL     1       5.100  -2.546  -1.576  1.00  0.00     0.063 N 
ATOM     23  O   UNL     1       5.326  -3.738  -1.334  1.00  0.00    -0.258 OA
ATOM     24  O   UNL     1       4.104  -1.920  -1.239  1.00  0.00    -0.258 OA
ENDBRANCH  18  22
ENDBRANCH   9  16
BRANCH  14  25
ATOM     25  C   UNL     1       8.811   3.274  -1.252  1.00  0.00    -0.033 A 
ATOM     26  C   UNL     1       9.011   4.124  -0.156  1.00  0.00     0.009 A 
ATOM     27  C   UNL     1       8.733   3.849  -2.534  1.00  0.00     0.009 A 
ATOM     28  C   UNL     1       9.087   5.513  -0.331  1.00  0.00     0.021 A 
ATOM     29  C   UNL     1       8.831   5.236  -2.714  1.00  0.00     0.021 A 
ATOM     30  C   UNL     1       9.000   6.063  -1.608  1.00  0.00     0.041 A 
ATOM     31  Cl  UNL     1       9.108   7.767  -1.821  1.00  0.00    -0.084 Cl
ENDBRANCH  14  25
ENDBRANCH   6   7
ENDBRANCH   5   6
ENDBRANCH   4   5
ENDBRANCH   2   4
ENDBRANCH   1   2
BRANCH   1  32
ATOM     32  C   UNL     1       2.869   0.869  -1.438  1.00  0.00     0.274 C 
BRANCH  32  33
ATOM     33  C   UNL     1       3.567   2.168  -1.007  1.00  0.00     0.275 C 
BRANCH  33  34
ATOM     34  O   UNL     1       3.397   2.468   0.371  1.00  0.00    -0.458 OA
BRANCH  34  35
ATOM     35  C   UNL     1       2.134   2.826   0.694  1.00  0.00     0.338 C 
ATOM     36  O   UNL     1       1.238   3.123  -0.076  1.00  0.00    -0.246 OA
BRANCH  35  37
ATOM     37  C   UNL     1       1.955   2.576   2.134  1.00  0.00     0.060 A 
ATOM     38  C   UNL     1       0.786   1.923   2.538  1.00  0.00     0.016 A 
ATOM     39  C   UNL     1       2.926   2.949   3.069  1.00  0.00     0.016 A 
ATOM     40  C   UNL     1       0.541   1.726   3.893  1.00  0.00     0.010 A 
ATOM     41  C   UNL     1       2.680   2.749   4.428  1.00  0.00     0.010 A 
ATOM     42  C   UNL     1       1.459   2.192   4.845  1.00  0.00    -0.014 A 
BRANCH  42  43
ATOM     43  C   UNL     1       1.033   2.294   6.259  1.00  0.00     0.031 A 
ATOM     44  C   UNL     1       0.535   3.624   6.756  1.00  0.00     0.074 A 
ATOM     45  C   UNL     1       1.018   1.220   7.066  1.00  0.00     0.049 A 
ATOM     46  N   UNL     1       0.028   3.938   7.921  1.00  0.00    -0.248 NA
ATOM     47  C   UNL     1       0.613   4.751   5.811  1.00  0.00     0.031 C 
ATOM     48  C   UNL     1       1.444  -0.128   6.695  1.00  0.00     0.029 A 
ATOM     49  N   UNL     1       0.611   1.101   8.371  1.00  0.00    -0.354 N 
ATOM     50  C   UNL     1      -0.285   5.289   7.841  1.00  0.00     0.074 A 
ATOM     51  C   UNL     1       0.138   5.750   6.538  1.00  0.00     0.031 C 
ATOM     52  C   UNL     1       1.267  -0.944   7.750  1.00  0.00     0.029 A 
ATOM     53  C   UNL     1       0.735  -0.172   8.872  1.00  0.00     0.049 A 
ATOM     54  H   UNL     1       0.263   1.856   8.898  1.00  0.00     0.167 HD
ATOM     55  C   UNL     1      -0.890   6.076   8.761  1.00  0.00     0.031 A 
ATOM     56  C   UNL     1       0.452  -0.653  10.097  1.00  0.00     0.031 A 
ATOM     57  C   UNL     1      -1.286   5.632  10.069  1.00  0.00     0.049 A 
ATOM     58  C   UNL     1      -0.134   0.268  11.138  1.00  0.00     0.074 A 
ATOM     59  C   UNL     1      -1.907   6.353  11.073  1.00  0.00     0.029 A 
ATOM     60  N   UNL     1      -1.088   4.350  10.557  1.00  0.00    -0.354 N 
ATOM     61  N   UNL     1      -0.472   1.531  11.034  1.00  0.00    -0.248 NA
ATOM     62  C   UNL     1      -0.392  -0.313  12.464  1.00  0.00     0.031 C 
ATOM     63  C   UNL     1      -2.027   5.525  12.193  1.00  0.00     0.029 A 
ATOM     64  C   UNL     1      -1.546   4.268  11.861  1.00  0.00     0.049 A 
ATOM     65  H   UNL     1      -0.682   3.609  10.053  1.00  0.00     0.167 HD
ATOM     66  C   UNL     1      -1.014   1.883  12.265  1.00  0.00     0.074 A 
ATOM     67  C   UNL     1      -0.974   0.697  13.094  1.00  0.00     0.031 C 
ATOM     68  C   UNL     1      -1.503   3.080  12.674  1.00  0.00     0.031 A 
BRANCH  55  69
ATOM     69  C   UNL     1      -1.134   7.511   8.384  1.00  0.00    -0.014 A 
ATOM     70  C   UNL     1      -2.093   7.856   7.417  1.00  0.00     0.009 A 
ATOM     71  C   UNL     1      -0.412   8.532   9.019  1.00  0.00     0.009 A 
ATOM     72  C   UNL     1      -2.297   9.192   7.069  1.00  0.00     0.001 A 
ATOM     73  C   UNL     1      -0.640   9.869   8.691  1.00  0.00     0.001 A 
ATOM     74  C   UNL     1      -1.575  10.198   7.710  1.00  0.00     0.000 A 
ENDBRANCH  55  69
BRANCH  56  75
ATOM     75  C   UNL     1       0.721  -2.079  10.425  1.00  0.00    -0.014 A 
ATOM     76  C   UNL     1      -0.332  -2.967  10.693  1.00  0.00     0.009 A 
ATOM     77  C   UNL     1       2.041  -2.546  10.519  1.00  0.00     0.009 A 
ATOM     78  C   UNL     1      -0.068  -4.282  11.085  1.00  0.00     0.001 A 
ATOM     79  C   UNL     1       2.302  -3.870  10.879  1.00  0.00     0.001 A 
ATOM     80  C   UNL     1       1.248  -4.732  11.175  1.00  0.00     0.000 A 
ENDBRANCH  56  75
BRANCH  68  81
ATOM     81  C   UNL     1      -2.075   3.158  14.063  1.00  0.00    -0.014 A 
ATOM     82  C   UNL     1      -1.255   3.092  15.200  1.00  0.00     0.009 A 
ATOM     83  C   UNL     1      -3.457   3.345  14.234  1.00  0.00     0.009 A 
ATOM     84  C   UNL     1      -1.812   3.172  16.479  1.00  0.00     0.001 A 
ATOM     85  C   UNL     1      -4.006   3.459  15.511  1.00  0.00     0.001 A 
ATOM     86  C   UNL     1      -3.185   3.361  16.633  1.00  0.00     0.000 A 
ENDBRANCH  68  81
ENDBRANCH  42  43
ENDBRANCH  35  37
ENDBRANCH  34  35
ENDBRANCH  33  34
ENDBRANCH  32  33
ENDBRANCH   1  32
TORSDOF 17
