REMARK SMILES O=C(OCCOC(=O)[C@H]1CC1(c1ccccc1)c1ccccc1)c1ccc(-c2c3nc(c(-c4ccccc4)c4ccc([nH]4)c(-c4ccccc4)c4nc(c(-c5ccccc5)c5ccc2[nH]5)C=C4)C=C3)cc1
REMARK SMILES IDX 4 1 3 2 2 3 1 4 24 5 25 6 71 7 26 8 70 9 27 10 28 11 29 12
REMARK SMILES IDX 64 13 30 14 69 15 63 16 65 17 31 18 68 19 62 20 61 21 32 23
REMARK SMILES IDX 54 24 39 25 53 26 40 27 43 28 52 29 66 30 41 31 42 32 51 34
REMARK SMILES IDX 67 35 44 36 33 37 34 38 38 39 35 40 37 41 36 42 55 43 56 44
REMARK SMILES IDX 60 45 57 46 59 47 58 48 45 49 46 50 50 51 47 52 49 53 48 54
REMARK SMILES IDX 5 55 6 56 7 57 8 58 9 59 10 60 11 61 12 62 13 63 17 64 14 65
REMARK SMILES IDX 16 66 15 67 18 68 19 69 23 70 20 71 22 72 21 73
REMARK H PARENT 65 22 43 33
REMARK Flexibility Score: inf
ROOT
ATOM      1  C   UNL     1       3.382  -0.841   6.200  1.00  0.00     0.275 C 
ENDROOT
BRANCH   1   2
ATOM      2  O   UNL     1       4.528  -1.039   5.351  1.00  0.00    -0.458 OA
BRANCH   2   3
ATOM      3  C   UNL     1       4.860  -2.076   4.545  1.00  0.00     0.338 C 
ATOM      4  O   UNL     1       5.941  -2.033   3.956  1.00  0.00    -0.246 OA
BRANCH   3   5
ATOM      5  C   UNL     1       3.951  -3.227   4.226  1.00  0.00     0.060 A 
ATOM      6  C   UNL     1       2.902  -3.701   5.018  1.00  0.00     0.016 A 
ATOM      7  C   UNL     1       4.168  -3.865   2.990  1.00  0.00     0.016 A 
ATOM      8  C   UNL     1       2.017  -4.681   4.542  1.00  0.00     0.010 A 
ATOM      9  C   UNL     1       3.274  -4.828   2.501  1.00  0.00     0.010 A 
ATOM     10  C   UNL     1       2.165  -5.222   3.263  1.00  0.00    -0.014 A 
BRANCH  10  11
ATOM     11  C   UNL     1       1.218  -6.242   2.742  1.00  0.00     0.031 A 
ATOM     12  C   UNL     1       1.700  -7.648   2.542  1.00  0.00     0.074 A 
ATOM     13  C   UNL     1      -0.075  -5.956   2.479  1.00  0.00     0.049 A 
ATOM     14  N   UNL     1       1.034  -8.685   2.104  1.00  0.00    -0.248 NA
ATOM     15  C   UNL     1       3.086  -7.943   2.943  1.00  0.00     0.031 C 
ATOM     16  C   UNL     1      -0.747  -4.689   2.756  1.00  0.00     0.029 A 
ATOM     17  N   UNL     1      -1.057  -6.721   1.885  1.00  0.00    -0.354 N 
ATOM     18  C   UNL     1       1.874  -9.768   2.297  1.00  0.00     0.074 A 
ATOM     19  C   UNL     1       3.150  -9.249   2.738  1.00  0.00     0.031 C 
ATOM     20  C   UNL     1      -1.997  -4.743   2.261  1.00  0.00     0.029 A 
ATOM     21  C   UNL     1      -2.189  -6.001   1.568  1.00  0.00     0.049 A 
ATOM     22  H   UNL     1      -0.960  -7.684   1.705  1.00  0.00     0.167 HD
ATOM     23  C   UNL     1       1.575 -11.084   2.218  1.00  0.00     0.031 A 
ATOM     24  C   UNL     1      -3.221  -6.308   0.757  1.00  0.00     0.031 A 
ATOM     25  C   UNL     1       0.330 -11.605   1.730  1.00  0.00     0.049 A 
ATOM     26  C   UNL     1      -3.363  -7.721   0.291  1.00  0.00     0.074 A 
ATOM     27  C   UNL     1      -0.085 -12.921   1.638  1.00  0.00     0.029 A 
ATOM     28  N   UNL     1      -0.695 -10.825   1.219  1.00  0.00    -0.354 N 
ATOM     29  N   UNL     1      -2.571  -8.739   0.502  1.00  0.00    -0.248 NA
ATOM     30  C   UNL     1      -4.597  -8.043  -0.440  1.00  0.00     0.031 C 
ATOM     31  C   UNL     1      -1.338 -12.940   1.013  1.00  0.00     0.029 A 
ATOM     32  C   UNL     1      -1.722 -11.633   0.764  1.00  0.00     0.049 A 
ATOM     33  H   UNL     1      -0.693  -9.841   1.184  1.00  0.00     0.167 HD
ATOM     34  C   UNL     1      -3.260  -9.843   0.029  1.00  0.00     0.074 A 
ATOM     35  C   UNL     1      -4.496  -9.358  -0.551  1.00  0.00     0.031 C 
ATOM     36  C   UNL     1      -2.929 -11.149   0.148  1.00  0.00     0.031 A 
BRANCH  23  37
ATOM     37  C   UNL     1       2.618 -12.027   2.733  1.00  0.00    -0.014 A 
ATOM     38  C   UNL     1       2.862 -12.117   4.115  1.00  0.00     0.009 A 
ATOM     39  C   UNL     1       3.375 -12.807   1.852  1.00  0.00     0.009 A 
ATOM     40  C   UNL     1       3.876 -12.940   4.603  1.00  0.00     0.001 A 
ATOM     41  C   UNL     1       4.376 -13.647   2.345  1.00  0.00     0.001 A 
ATOM     42  C   UNL     1       4.632 -13.705   3.716  1.00  0.00     0.000 A 
ENDBRANCH  23  37
BRANCH  24  43
ATOM     43  C   UNL     1      -4.206  -5.307   0.264  1.00  0.00    -0.014 A 
ATOM     44  C   UNL     1      -5.346  -4.952   0.992  1.00  0.00     0.009 A 
ATOM     45  C   UNL     1      -4.059  -4.810  -1.046  1.00  0.00     0.009 A 
ATOM     46  C   UNL     1      -6.308  -4.105   0.425  1.00  0.00     0.001 A 
ATOM     47  C   UNL     1      -5.006  -3.944  -1.599  1.00  0.00     0.001 A 
ATOM     48  C   UNL     1      -6.133  -3.595  -0.863  1.00  0.00     0.000 A 
ENDBRANCH  24  43
BRANCH  36  49
ATOM     49  C   UNL     1      -3.967 -12.136  -0.288  1.00  0.00    -0.014 A 
ATOM     50  C   UNL     1      -4.270 -12.340  -1.641  1.00  0.00     0.009 A 
ATOM     51  C   UNL     1      -4.687 -12.839   0.691  1.00  0.00     0.009 A 
ATOM     52  C   UNL     1      -5.304 -13.204  -2.004  1.00  0.00     0.001 A 
ATOM     53  C   UNL     1      -5.696 -13.727   0.324  1.00  0.00     0.001 A 
ATOM     54  C   UNL     1      -6.012 -13.899  -1.022  1.00  0.00     0.000 A 
ENDBRANCH  36  49
ENDBRANCH  10  11
ENDBRANCH   3   5
ENDBRANCH   2   3
ENDBRANCH   1   2
BRANCH   1  55
ATOM     55  C   UNL     1       2.112  -0.382   5.477  1.00  0.00     0.274 C 
BRANCH  55  56
ATOM     56  O   UNL     1       2.105  -0.799   4.107  1.00  0.00    -0.462 OA
BRANCH  56  57
ATOM     57  C   UNL     1       2.058   0.193   3.171  1.00  0.00     0.310 C 
ATOM     58  O   UNL     1       1.877   1.374   3.393  1.00  0.00    -0.252 OA
BRANCH  57  59
ATOM     59  C   UNL     1       2.356  -0.299   1.806  1.00  0.00     0.115 C 
ATOM     60  C   UNL     1       2.315  -1.762   1.491  1.00  0.00     0.034 C 
ATOM     61  C   UNL     1       1.316  -0.827   0.830  1.00  0.00     0.034 C 
BRANCH  61  62
ATOM     62  C   UNL     1      -0.139  -1.181   1.182  1.00  0.00    -0.037 A 
ATOM     63  C   UNL     1      -0.738  -2.191   0.408  1.00  0.00     0.004 A 
ATOM     64  C   UNL     1      -0.975  -0.439   2.028  1.00  0.00     0.004 A 
ATOM     65  C   UNL     1      -2.114  -2.312   0.329  1.00  0.00     0.000 A 
ATOM     66  C   UNL     1      -2.360  -0.646   2.032  1.00  0.00     0.000 A 
ATOM     67  C   UNL     1      -2.934  -1.552   1.148  1.00  0.00     0.000 A 
ENDBRANCH  61  62
BRANCH  61  68
ATOM     68  C   UNL     1       1.463  -0.547  -0.700  1.00  0.00    -0.037 A 
ATOM     69  C   UNL     1       0.430   0.153  -1.368  1.00  0.00     0.004 A 
ATOM     70  C   UNL     1       2.421  -1.170  -1.520  1.00  0.00     0.004 A 
ATOM     71  C   UNL     1       0.269   0.095  -2.753  1.00  0.00     0.000 A 
ATOM     72  C   UNL     1       2.287  -1.196  -2.913  1.00  0.00     0.000 A 
ATOM     73  C   UNL     1       1.192  -0.597  -3.525  1.00  0.00     0.000 A 
ENDBRANCH  61  68
ENDBRANCH  57  59
ENDBRANCH  56  57
ENDBRANCH  55  56
ENDBRANCH   1  55
TORSDOF 13
