REMARK SMILES O=C(OCCOC(=O)c1ccc2c(c1)[C@@H]1C=CC[C@@H]1[C@H](c1ccncc1)N2)c1ccc(-c2c3nc(c(-c4ccccc4)c4ccc([nH]4)c(-c4ccccc4)c4nc(c(-c5ccccc5)c5ccc2[nH]5)C=C4)C=C3)cc1
REMARK SMILES IDX 4 1 3 2 2 3 1 4 28 5 29 6 75 7 30 8 74 9 31 10 32 11 33 12
REMARK SMILES IDX 68 13 34 14 73 15 67 16 69 17 35 18 72 19 66 20 65 21 36 23
REMARK SMILES IDX 58 24 43 25 57 26 44 27 47 28 56 29 70 30 45 31 46 32 55 34
REMARK SMILES IDX 71 35 48 36 37 37 38 38 42 39 39 40 41 41 40 42 59 43 60 44
REMARK SMILES IDX 64 45 61 46 63 47 62 48 49 49 50 50 54 51 51 52 53 53 52 54
REMARK SMILES IDX 5 55 6 56 7 57 8 58 9 59 10 60 14 61 11 62 13 63 12 64 15 65
REMARK SMILES IDX 27 66 16 67 19 68 20 69 17 71 18 72 21 73 22 74 26 75 23 76
REMARK SMILES IDX 25 77 24 78
REMARK H PARENT 69 22 47 33 27 70
REMARK Flexibility Score: inf
ROOT
ATOM      1  C   UNL     1       3.901   1.351  -0.808  1.00  0.00     0.275 C 
ENDROOT
BRANCH   1   2
ATOM      2  O   UNL     1       2.837   0.385  -0.912  1.00  0.00    -0.458 OA
BRANCH   2   3
ATOM      3  C   UNL     1       2.721  -0.849  -0.367  1.00  0.00     0.338 C 
ATOM      4  O   UNL     1       1.745  -1.543  -0.647  1.00  0.00    -0.246 OA
BRANCH   3   5
ATOM      5  C   UNL     1       3.664  -1.364   0.668  1.00  0.00     0.060 A 
ATOM      6  C   UNL     1       5.025  -1.064   0.723  1.00  0.00     0.016 A 
ATOM      7  C   UNL     1       3.132  -2.213   1.654  1.00  0.00     0.016 A 
ATOM      8  C   UNL     1       5.810  -1.494   1.789  1.00  0.00     0.010 A 
ATOM      9  C   UNL     1       3.913  -2.642   2.733  1.00  0.00     0.010 A 
ATOM     10  C   UNL     1       5.263  -2.272   2.809  1.00  0.00    -0.014 A 
BRANCH  10  11
ATOM     11  C   UNL     1       6.174  -2.832   3.833  1.00  0.00     0.031 A 
ATOM     12  C   UNL     1       6.493  -4.296   3.763  1.00  0.00     0.074 A 
ATOM     13  C   UNL     1       6.811  -2.039   4.720  1.00  0.00     0.049 A 
ATOM     14  N   UNL     1       7.236  -5.010   4.564  1.00  0.00    -0.248 NA
ATOM     15  C   UNL     1       5.972  -5.039   2.599  1.00  0.00     0.031 C 
ATOM     16  C   UNL     1       6.713  -0.578   4.788  1.00  0.00     0.029 A 
ATOM     17  N   UNL     1       7.605  -2.359   5.800  1.00  0.00    -0.354 N 
ATOM     18  C   UNL     1       7.377  -6.238   3.933  1.00  0.00     0.074 A 
ATOM     19  C   UNL     1       6.528  -6.229   2.765  1.00  0.00     0.031 C 
ATOM     20  C   UNL     1       7.277  -0.150   5.934  1.00  0.00     0.029 A 
ATOM     21  C   UNL     1       7.727  -1.307   6.689  1.00  0.00     0.049 A 
ATOM     22  H   UNL     1       8.035  -3.236   5.925  1.00  0.00     0.167 HD
ATOM     23  C   UNL     1       8.221  -7.243   4.258  1.00  0.00     0.031 A 
ATOM     24  C   UNL     1       8.006  -1.334   8.008  1.00  0.00     0.031 A 
ATOM     25  C   UNL     1       9.008  -7.251   5.458  1.00  0.00     0.049 A 
ATOM     26  C   UNL     1       8.538  -2.614   8.574  1.00  0.00     0.074 A 
ATOM     27  C   UNL     1       9.909  -8.197   5.905  1.00  0.00     0.029 A 
ATOM     28  N   UNL     1       8.953  -6.257   6.425  1.00  0.00    -0.354 N 
ATOM     29  N   UNL     1       8.686  -3.774   7.984  1.00  0.00    -0.248 NA
ATOM     30  C   UNL     1       9.030  -2.562   9.954  1.00  0.00     0.031 C 
ATOM     31  C   UNL     1      10.354  -7.804   7.173  1.00  0.00     0.029 A 
ATOM     32  C   UNL     1       9.777  -6.582   7.486  1.00  0.00     0.049 A 
ATOM     33  H   UNL     1       8.408  -5.440   6.364  1.00  0.00     0.167 HD
ATOM     34  C   UNL     1       9.411  -4.552   8.871  1.00  0.00     0.074 A 
ATOM     35  C   UNL     1       9.593  -3.756  10.070  1.00  0.00     0.031 C 
ATOM     36  C   UNL     1       9.947  -5.781   8.671  1.00  0.00     0.031 A 
BRANCH  23  37
ATOM     37  C   UNL     1       8.344  -8.371   3.276  1.00  0.00    -0.014 A 
ATOM     38  C   UNL     1       8.959  -8.164   2.027  1.00  0.00     0.009 A 
ATOM     39  C   UNL     1       7.852  -9.645   3.586  1.00  0.00     0.009 A 
ATOM     40  C   UNL     1       9.046  -9.201   1.097  1.00  0.00     0.001 A 
ATOM     41  C   UNL     1       7.962 -10.687   2.662  1.00  0.00     0.001 A 
ATOM     42  C   UNL     1       8.550 -10.463   1.416  1.00  0.00     0.000 A 
ENDBRANCH  23  37
BRANCH  24  43
ATOM     43  C   UNL     1       7.699  -0.193   8.917  1.00  0.00    -0.014 A 
ATOM     44  C   UNL     1       8.674   0.728   9.312  1.00  0.00     0.009 A 
ATOM     45  C   UNL     1       6.422  -0.098   9.498  1.00  0.00     0.009 A 
ATOM     46  C   UNL     1       8.373   1.710  10.267  1.00  0.00     0.001 A 
ATOM     47  C   UNL     1       6.110   0.903  10.420  1.00  0.00     0.001 A 
ATOM     48  C   UNL     1       7.092   1.804  10.813  1.00  0.00     0.000 A 
ENDBRANCH  24  43
BRANCH  36  49
ATOM     49  C   UNL     1      10.898  -6.268   9.721  1.00  0.00    -0.014 A 
ATOM     50  C   UNL     1      10.466  -6.674  10.991  1.00  0.00     0.009 A 
ATOM     51  C   UNL     1      12.270  -6.304   9.418  1.00  0.00     0.009 A 
ATOM     52  C   UNL     1      11.399  -7.063  11.953  1.00  0.00     0.001 A 
ATOM     53  C   UNL     1      13.194  -6.732  10.368  1.00  0.00     0.001 A 
ATOM     54  C   UNL     1      12.758  -7.098  11.639  1.00  0.00     0.000 A 
ENDBRANCH  36  49
ENDBRANCH  10  11
ENDBRANCH   3   5
ENDBRANCH   2   3
ENDBRANCH   1   2
BRANCH   1  55
ATOM     55  C   UNL     1       3.957   2.171   0.489  1.00  0.00     0.275 C 
BRANCH  55  56
ATOM     56  O   UNL     1       3.562   1.461   1.678  1.00  0.00    -0.458 OA
BRANCH  56  57
ATOM     57  C   UNL     1       2.239   1.553   1.970  1.00  0.00     0.338 C 
ATOM     58  O   UNL     1       1.407   2.189   1.336  1.00  0.00    -0.246 OA
BRANCH  57  59
ATOM     59  C   UNL     1       1.865   0.685   3.110  1.00  0.00     0.060 A 
ATOM     60  C   UNL     1       0.800  -0.201   2.934  1.00  0.00     0.018 A 
ATOM     61  C   UNL     1       2.486   0.767   4.356  1.00  0.00     0.022 A 
ATOM     62  C   UNL     1       0.355  -0.998   3.997  1.00  0.00     0.027 A 
ATOM     63  C   UNL     1       2.009  -0.013   5.442  1.00  0.00    -0.017 A 
ATOM     64  C   UNL     1       0.912  -0.881   5.275  1.00  0.00     0.038 A 
ATOM     65  C   UNL     1       2.667   0.101   6.796  1.00  0.00     0.049 C 
ATOM     66  N   UNL     1       0.409  -1.649   6.329  1.00  0.00    -0.378 N 
ATOM     67  C   UNL     1       4.111  -0.268   6.754  1.00  0.00    -0.023 C 
ATOM     68  C   UNL     1       2.188  -0.921   7.829  1.00  0.00     0.031 C 
ATOM     69  C   UNL     1       0.708  -1.242   7.698  1.00  0.00     0.114 C 
ATOM     70  H   UNL     1      -0.136  -2.449   6.151  1.00  0.00     0.161 HD
ATOM     71  C   UNL     1       4.332  -1.518   7.179  1.00  0.00    -0.030 C 
ATOM     72  C   UNL     1       3.097  -2.154   7.680  1.00  0.00     0.034 C 
BRANCH  69  73
ATOM     73  C   UNL     1       0.373  -2.276   8.769  1.00  0.00    -0.022 A 
ATOM     74  C   UNL     1       0.471  -1.889  10.120  1.00  0.00     0.026 A 
ATOM     75  C   UNL     1       0.164  -3.631   8.500  1.00  0.00     0.026 A 
ATOM     76  C   UNL     1       0.406  -2.853  11.112  1.00  0.00     0.111 A 
ATOM     77  C   UNL     1       0.089  -4.519   9.566  1.00  0.00     0.111 A 
ATOM     78  N   UNL     1       0.212  -4.162  10.863  1.00  0.00    -0.265 NA
ENDBRANCH  69  73
ENDBRANCH  57  59
ENDBRANCH  56  57
ENDBRANCH  55  56
ENDBRANCH   1  55
TORSDOF 12
