REMARK SMILES CC(C)c1cc(OCC(=O)OCCOC(=O)c2ccc(-c3c4nc(c(-c5ccccc5)c5ccc([nH]5)c(-c5ccccc5)c5nc(c(-c6ccccc6)c6ccc3[nH]6)C=C5)C=C4)cc2)nc(Nc2ccc(F)cc2F)n1
REMARK SMILES IDX 12 1 11 2 9 3 10 4 8 5 7 6 6 7 4 8 5 9 76 10 66 11 65 12
REMARK SMILES IDX 2 13 1 14 3 15 67 16 68 18 69 19 74 20 70 21 73 22 75 23
REMARK SMILES IDX 71 24 72 25 13 26 14 27 15 28 16 29 17 30 18 31 64 32 19 33
REMARK SMILES IDX 63 34 20 35 21 36 22 37 57 38 23 39 62 40 56 41 58 42 24 43
REMARK SMILES IDX 61 44 55 45 54 46 25 48 47 49 32 50 46 51 33 52 36 53 45 54
REMARK SMILES IDX 59 55 34 56 35 57 44 59 60 60 37 61 26 62 27 63 31 64 28 65
REMARK SMILES IDX 30 66 29 67 48 68 49 69 53 70 50 71 52 72 51 73 38 74 39 75
REMARK SMILES IDX 43 76 40 77 42 78 41 79
REMARK H PARENT 67 17 58 47 36 58
REMARK Flexibility Score: inf
ROOT
ATOM      1  C   UNL     1      -2.262  -3.411  -4.556  1.00  0.00     0.274 C 
ENDROOT
BRANCH   1   2
ATOM      2  O   UNL     1      -2.860  -2.513  -3.598  1.00  0.00    -0.460 OA
BRANCH   2   3
ATOM      3  C   UNL     1      -3.044  -3.015  -2.350  1.00  0.00     0.344 C 
ATOM      4  O   UNL     1      -2.665  -4.125  -1.984  1.00  0.00    -0.248 OA
BRANCH   3   5
ATOM      5  C   UNL     1      -3.769  -2.062  -1.403  1.00  0.00     0.353 C 
BRANCH   5   6
ATOM      6  O   UNL     1      -4.272  -0.847  -1.920  1.00  0.00    -0.466 OA
BRANCH   6   7
ATOM      7  C   UNL     1      -3.565   0.303  -1.710  1.00  0.00     0.218 A 
ATOM      8  C   UNL     1      -1.644   1.621  -1.433  1.00  0.00     0.052 A 
ATOM      9  C   UNL     1      -2.203   0.364  -1.486  1.00  0.00     0.092 A 
ATOM     10  N   UNL     1      -2.409   2.708  -1.550  1.00  0.00    -0.217 NA
ATOM     11  C   UNL     1      -3.727   2.579  -1.731  1.00  0.00     0.230 A 
ATOM     12  N   UNL     1      -4.344   1.399  -1.799  1.00  0.00    -0.177 NA
BRANCH   8  13
ATOM     13  C   UNL     1      -0.180   1.940  -1.259  1.00  0.00     0.032 C 
ATOM     14  C   UNL     1       0.456   1.220  -0.083  1.00  0.00     0.014 C 
ATOM     15  C   UNL     1       0.633   1.763  -2.539  1.00  0.00     0.014 C 
ENDBRANCH   8  13
BRANCH  11  16
ATOM     16  N   UNL     1      -4.482   3.752  -1.739  1.00  0.00    -0.322 N 
ATOM     17  H   UNL     1      -5.462   3.679  -1.809  1.00  0.00     0.170 HD
BRANCH  16  18
ATOM     18  C   UNL     1      -3.912   5.032  -1.652  1.00  0.00     0.077 A 
ATOM     19  C   UNL     1      -4.131   5.819  -0.515  1.00  0.00     0.032 A 
ATOM     20  C   UNL     1      -2.928   5.453  -2.572  1.00  0.00     0.149 A 
ATOM     21  C   UNL     1      -3.366   6.970  -0.297  1.00  0.00     0.041 A 
ATOM     22  C   UNL     1      -2.171   6.599  -2.368  1.00  0.00     0.080 A 
ATOM     23  F   UNL     1      -2.692   4.731  -3.680  1.00  0.00    -0.205 F 
ATOM     24  C   UNL     1      -2.390   7.341  -1.220  1.00  0.00     0.126 A 
ATOM     25  F   UNL     1      -1.640   8.425  -0.984  1.00  0.00    -0.207 F 
ENDBRANCH  16  18
ENDBRANCH  11  16
ENDBRANCH   6   7
ENDBRANCH   5   6
ENDBRANCH   3   5
ENDBRANCH   2   3
ENDBRANCH   1   2
BRANCH   1  26
ATOM     26  C   UNL     1      -0.752  -3.208  -4.709  1.00  0.00     0.275 C 
BRANCH  26  27
ATOM     27  O   UNL     1      -0.047  -3.429  -3.470  1.00  0.00    -0.458 OA
BRANCH  27  28
ATOM     28  C   UNL     1       0.193  -2.287  -2.792  1.00  0.00     0.338 C 
ATOM     29  O   UNL     1      -0.140  -1.167  -3.138  1.00  0.00    -0.246 OA
BRANCH  28  30
ATOM     30  C   UNL     1       0.894  -2.501  -1.518  1.00  0.00     0.060 A 
ATOM     31  C   UNL     1       0.179  -2.906  -0.387  1.00  0.00     0.016 A 
ATOM     32  C   UNL     1       2.215  -2.061  -1.399  1.00  0.00     0.016 A 
ATOM     33  C   UNL     1       0.785  -2.853   0.872  1.00  0.00     0.010 A 
ATOM     34  C   UNL     1       2.830  -2.042  -0.143  1.00  0.00     0.010 A 
ATOM     35  C   UNL     1       2.116  -2.426   1.004  1.00  0.00    -0.014 A 
BRANCH  35  36
ATOM     36  C   UNL     1       2.797  -2.480   2.322  1.00  0.00     0.031 A 
ATOM     37  C   UNL     1       3.072  -1.248   3.134  1.00  0.00     0.074 A 
ATOM     38  C   UNL     1       3.200  -3.679   2.777  1.00  0.00     0.049 A 
ATOM     39  N   UNL     1       3.735  -1.120   4.257  1.00  0.00    -0.248 NA
ATOM     40  C   UNL     1       2.525   0.009   2.620  1.00  0.00     0.031 C 
ATOM     41  C   UNL     1       2.978  -4.955   2.097  1.00  0.00     0.029 A 
ATOM     42  N   UNL     1       3.892  -4.011   3.910  1.00  0.00    -0.354 N 
ATOM     43  C   UNL     1       3.687   0.233   4.575  1.00  0.00     0.074 A 
ATOM     44  C   UNL     1       2.941   0.888   3.522  1.00  0.00     0.031 C 
ATOM     45  C   UNL     1       3.532  -5.936   2.825  1.00  0.00     0.029 A 
ATOM     46  C   UNL     1       4.180  -5.349   3.994  1.00  0.00     0.049 A 
ATOM     47  H   UNL     1       4.157  -3.356   4.596  1.00  0.00     0.167 HD
ATOM     48  C   UNL     1       4.215   0.871   5.648  1.00  0.00     0.031 A 
ATOM     49  C   UNL     1       4.912  -6.028   4.894  1.00  0.00     0.031 A 
ATOM     50  C   UNL     1       4.962   0.223   6.692  1.00  0.00     0.049 A 
ATOM     51  C   UNL     1       5.545  -5.296   6.036  1.00  0.00     0.074 A 
ATOM     52  C   UNL     1       5.519   0.780   7.831  1.00  0.00     0.029 A 
ATOM     53  N   UNL     1       5.260  -1.129   6.720  1.00  0.00    -0.354 N 
ATOM     54  N   UNL     1       5.494  -4.019   6.324  1.00  0.00    -0.248 NA
ATOM     55  C   UNL     1       6.340  -6.100   6.973  1.00  0.00     0.031 C 
ATOM     56  C   UNL     1       6.184  -0.233   8.533  1.00  0.00     0.029 A 
ATOM     57  C   UNL     1       6.012  -1.423   7.845  1.00  0.00     0.049 A 
ATOM     58  H   UNL     1       4.980  -1.784   6.041  1.00  0.00     0.167 HD
ATOM     59  C   UNL     1       6.242  -3.864   7.481  1.00  0.00     0.074 A 
ATOM     60  C   UNL     1       6.729  -5.180   7.846  1.00  0.00     0.031 C 
ATOM     61  C   UNL     1       6.501  -2.733   8.180  1.00  0.00     0.031 A 
BRANCH  48  62
ATOM     62  C   UNL     1       4.022   2.358   5.739  1.00  0.00    -0.014 A 
ATOM     63  C   UNL     1       2.804   2.904   6.171  1.00  0.00     0.009 A 
ATOM     64  C   UNL     1       5.089   3.221   5.444  1.00  0.00     0.009 A 
ATOM     65  C   UNL     1       2.653   4.288   6.290  1.00  0.00     0.001 A 
ATOM     66  C   UNL     1       4.940   4.603   5.578  1.00  0.00     0.001 A 
ATOM     67  C   UNL     1       3.721   5.136   5.996  1.00  0.00     0.000 A 
ENDBRANCH  48  62
BRANCH  49  68
ATOM     68  C   UNL     1       5.096  -7.485   4.709  1.00  0.00    -0.014 A 
ATOM     69  C   UNL     1       4.350  -8.396   5.467  1.00  0.00     0.009 A 
ATOM     70  C   UNL     1       5.966  -7.964   3.717  1.00  0.00     0.009 A 
ATOM     71  C   UNL     1       4.472  -9.767   5.233  1.00  0.00     0.001 A 
ATOM     72  C   UNL     1       6.072  -9.333   3.474  1.00  0.00     0.001 A 
ATOM     73  C   UNL     1       5.326 -10.233   4.233  1.00  0.00     0.000 A 
ENDBRANCH  49  68
BRANCH  61  74
ATOM     74  C   UNL     1       7.340  -2.880   9.412  1.00  0.00    -0.014 A 
ATOM     75  C   UNL     1       8.736  -2.990   9.320  1.00  0.00     0.009 A 
ATOM     76  C   UNL     1       6.731  -2.893  10.676  1.00  0.00     0.009 A 
ATOM     77  C   UNL     1       9.506  -3.138  10.474  1.00  0.00     0.001 A 
ATOM     78  C   UNL     1       7.506  -3.026  11.828  1.00  0.00     0.001 A 
ATOM     79  C   UNL     1       8.891  -3.155  11.726  1.00  0.00     0.000 A 
ENDBRANCH  61  74
ENDBRANCH  35  36
ENDBRANCH  28  30
ENDBRANCH  27  28
ENDBRANCH  26  27
ENDBRANCH   1  26
TORSDOF 16
