REMARK SMILES CCOc1cc(C(=O)OCCOC(=O)c2ccc(-c3c4nc(c(-c5ccccc5)c5ccc([nH]5)c(-c5ccccc5)c5nc(c(-c6ccccc6)c6ccc3[nH]6)C=C5)C=C4)cc2)cc(I)c1OCC
REMARK SMILES IDX 10 1 9 2 7 3 8 4 6 5 4 6 5 7 66 8 64 9 63 10 65 11 3 12 2 13
REMARK SMILES IDX 1 14 67 15 68 16 69 17 11 18 12 19 13 20 14 21 15 22 16 23
REMARK SMILES IDX 62 24 17 25 61 26 18 27 19 28 20 29 55 30 21 31 60 32 54 33
REMARK SMILES IDX 56 34 22 35 59 36 53 37 52 38 23 40 45 41 30 42 44 43 31 44
REMARK SMILES IDX 34 45 43 46 57 47 32 48 33 49 42 51 58 52 35 53 24 54 25 55
REMARK SMILES IDX 29 56 26 57 28 58 27 59 46 60 47 61 51 62 48 63 50 64 49 65
REMARK SMILES IDX 36 66 37 67 41 68 38 69 40 70 39 71
REMARK H PARENT 56 39 34 50
REMARK Flexibility Score: inf
ROOT
ATOM      1  C   UNL     1       7.652  -0.074   1.528  1.00  0.00     0.275 C 
ENDROOT
BRANCH   1   2
ATOM      2  O   UNL     1       6.825  -1.124   0.985  1.00  0.00    -0.458 OA
BRANCH   2   3
ATOM      3  C   UNL     1       5.627  -1.304   1.591  1.00  0.00     0.338 C 
ATOM      4  O   UNL     1       5.189  -0.687   2.549  1.00  0.00    -0.246 OA
BRANCH   3   5
ATOM      5  C   UNL     1       4.843  -2.330   0.871  1.00  0.00     0.065 A 
ATOM      6  C   UNL     1       2.714  -3.144   0.107  1.00  0.00     0.163 A 
ATOM      7  C   UNL     1       3.466  -2.180   0.777  1.00  0.00     0.066 A 
ATOM      8  C   UNL     1       3.286  -4.329  -0.417  1.00  0.00     0.174 A 
ATOM      9  C   UNL     1       4.673  -4.496  -0.252  1.00  0.00     0.060 A 
ATOM     10  C   UNL     1       5.444  -3.479   0.357  1.00  0.00     0.034 A 
ATOM     11  I   UNL     1       5.840  -6.205  -0.680  1.00  0.00    -0.040 I 
BRANCH   6  12
ATOM     12  O   UNL     1       1.350  -2.947   0.104  1.00  0.00    -0.490 OA
BRANCH  12  13
ATOM     13  C   UNL     1       0.888  -2.334  -1.106  1.00  0.00     0.226 C 
ATOM     14  C   UNL     1       0.668  -0.847  -0.881  1.00  0.00     0.049 C 
ENDBRANCH  12  13
ENDBRANCH   6  12
BRANCH   8  15
ATOM     15  O   UNL     1       2.336  -5.136  -0.972  1.00  0.00    -0.489 OA
BRANCH  15  16
ATOM     16  C   UNL     1       2.596  -6.276  -1.768  1.00  0.00     0.226 C 
ATOM     17  C   UNL     1       3.111  -5.919  -3.151  1.00  0.00     0.049 C 
ENDBRANCH  15  16
ENDBRANCH   8  15
ENDBRANCH   3   5
ENDBRANCH   2   3
ENDBRANCH   1   2
BRANCH   1  18
ATOM     18  C   UNL     1       7.524   1.197   0.691  1.00  0.00     0.275 C 
BRANCH  18  19
ATOM     19  O   UNL     1       6.192   1.726   0.825  1.00  0.00    -0.458 OA
BRANCH  19  20
ATOM     20  C   UNL     1       5.544   2.011  -0.324  1.00  0.00     0.338 C 
ATOM     21  O   UNL     1       5.979   1.934  -1.464  1.00  0.00    -0.246 OA
BRANCH  20  22
ATOM     22  C   UNL     1       4.167   2.447  -0.025  1.00  0.00     0.060 A 
ATOM     23  C   UNL     1       3.344   1.656   0.771  1.00  0.00     0.016 A 
ATOM     24  C   UNL     1       3.649   3.585  -0.642  1.00  0.00     0.016 A 
ATOM     25  C   UNL     1       1.981   1.940   0.866  1.00  0.00     0.010 A 
ATOM     26  C   UNL     1       2.301   3.921  -0.464  1.00  0.00     0.010 A 
ATOM     27  C   UNL     1       1.432   3.073   0.248  1.00  0.00    -0.014 A 
BRANCH  27  28
ATOM     28  C   UNL     1      -0.043   3.324   0.276  1.00  0.00     0.031 A 
ATOM     29  C   UNL     1      -0.807   3.524  -1.014  1.00  0.00     0.074 A 
ATOM     30  C   UNL     1      -0.735   3.335   1.435  1.00  0.00     0.049 A 
ATOM     31  N   UNL     1      -2.034   3.953  -1.193  1.00  0.00    -0.248 NA
ATOM     32  C   UNL     1      -0.096   3.220  -2.267  1.00  0.00     0.031 C 
ATOM     33  C   UNL     1      -0.177   3.096   2.767  1.00  0.00     0.029 A 
ATOM     34  N   UNL     1      -2.076   3.529   1.673  1.00  0.00    -0.354 N 
ATOM     35  C   UNL     1      -2.204   4.057  -2.569  1.00  0.00     0.074 A 
ATOM     36  C   UNL     1      -0.966   3.628  -3.180  1.00  0.00     0.031 C 
ATOM     37  C   UNL     1      -1.173   3.073   3.665  1.00  0.00     0.029 A 
ATOM     38  C   UNL     1      -2.425   3.408   2.996  1.00  0.00     0.049 A 
ATOM     39  H   UNL     1      -2.724   3.736   0.961  1.00  0.00     0.167 HD
ATOM     40  C   UNL     1      -3.289   4.482  -3.261  1.00  0.00     0.031 A 
ATOM     41  C   UNL     1      -3.607   3.583   3.619  1.00  0.00     0.031 A 
ATOM     42  C   UNL     1      -4.554   4.828  -2.670  1.00  0.00     0.049 A 
ATOM     43  C   UNL     1      -4.799   4.047   2.833  1.00  0.00     0.074 A 
ATOM     44  C   UNL     1      -5.709   5.266  -3.297  1.00  0.00     0.029 A 
ATOM     45  N   UNL     1      -4.844   4.737  -1.319  1.00  0.00    -0.354 N 
ATOM     46  N   UNL     1      -4.906   4.262   1.546  1.00  0.00    -0.248 NA
ATOM     47  C   UNL     1      -6.023   4.330   3.598  1.00  0.00     0.031 C 
ATOM     48  C   UNL     1      -6.692   5.464  -2.321  1.00  0.00     0.029 A 
ATOM     49  C   UNL     1      -6.158   5.112  -1.093  1.00  0.00     0.049 A 
ATOM     50  H   UNL     1      -4.210   4.449  -0.623  1.00  0.00     0.167 HD
ATOM     51  C   UNL     1      -6.203   4.715   1.347  1.00  0.00     0.074 A 
ATOM     52  C   UNL     1      -6.856   4.711   2.639  1.00  0.00     0.031 C 
ATOM     53  C   UNL     1      -6.794   5.115   0.196  1.00  0.00     0.031 A 
BRANCH  40  54
ATOM     54  C   UNL     1      -3.145   4.646  -4.748  1.00  0.00    -0.014 A 
ATOM     55  C   UNL     1      -3.144   3.546  -5.618  1.00  0.00     0.009 A 
ATOM     56  C   UNL     1      -3.064   5.941  -5.287  1.00  0.00     0.009 A 
ATOM     57  C   UNL     1      -3.038   3.740  -6.997  1.00  0.00     0.001 A 
ATOM     58  C   UNL     1      -2.983   6.133  -6.667  1.00  0.00     0.001 A 
ATOM     59  C   UNL     1      -2.963   5.032  -7.521  1.00  0.00     0.000 A 
ENDBRANCH  40  54
BRANCH  41  60
ATOM     60  C   UNL     1      -3.708   3.377   5.087  1.00  0.00    -0.014 A 
ATOM     61  C   UNL     1      -4.424   2.287   5.604  1.00  0.00     0.009 A 
ATOM     62  C   UNL     1      -3.088   4.268   5.978  1.00  0.00     0.009 A 
ATOM     63  C   UNL     1      -4.523   2.099   6.985  1.00  0.00     0.001 A 
ATOM     64  C   UNL     1      -3.163   4.059   7.355  1.00  0.00     0.001 A 
ATOM     65  C   UNL     1      -3.886   2.979   7.858  1.00  0.00     0.000 A 
ENDBRANCH  41  60
BRANCH  53  66
ATOM     66  C   UNL     1      -8.220   5.573   0.284  1.00  0.00    -0.014 A 
ATOM     67  C   UNL     1      -8.539   6.838   0.802  1.00  0.00     0.009 A 
ATOM     68  C   UNL     1      -9.253   4.742  -0.176  1.00  0.00     0.009 A 
ATOM     69  C   UNL     1      -9.870   7.250   0.884  1.00  0.00     0.001 A 
ATOM     70  C   UNL     1     -10.581   5.166  -0.111  1.00  0.00     0.001 A 
ATOM     71  C   UNL     1     -10.889   6.415   0.425  1.00  0.00     0.000 A 
ENDBRANCH  53  66
ENDBRANCH  27  28
ENDBRANCH  20  22
ENDBRANCH  19  20
ENDBRANCH  18  19
ENDBRANCH   1  18
TORSDOF 15
