REMARK SMILES O=C(C[C@H]1C[C@H]2CC[C@@H](C1)N2C(=O)NCc1ncn[nH]1)OCCOC(=O)c1ccc(-c2c3nc(c(-c4ccccc4)c4ccc([nH]4)c(-c4ccccc4)c4nc(c(-c5ccccc5)c5ccc2[nH]5)C=C4)C=C3)cc1
REMARK SMILES IDX 22 1 21 2 2 3 1 4 3 5 4 6 5 7 10 8 6 9 9 10 7 11 11 12 8 13
REMARK SMILES IDX 12 14 13 15 14 16 15 18 16 19 17 20 20 21 18 22 19 23 23 25
REMARK SMILES IDX 24 26 25 27 26 28 27 29 28 30 74 31 29 32 73 33 30 34 31 35
REMARK SMILES IDX 32 36 67 37 33 38 72 39 66 40 68 41 34 42 71 43 65 44 64 45
REMARK SMILES IDX 35 47 57 48 42 49 56 50 43 51 46 52 55 53 69 54 44 55 45 56
REMARK SMILES IDX 54 58 70 59 47 60 36 61 37 62 41 63 38 64 40 65 39 66 58 67
REMARK SMILES IDX 59 68 63 69 60 70 62 71 61 72 48 73 49 74 53 75 50 76 52 77
REMARK SMILES IDX 51 78
REMARK H PARENT 14 17 20 24 68 46 46 57
REMARK Flexibility Score: inf
ROOT
ATOM      1  C   UNL     1       3.394   0.941   1.421  1.00  0.00     0.274 C 
ENDROOT
BRANCH   1   2
ATOM      2  O   UNL     1       2.317   0.955   0.467  1.00  0.00    -0.462 OA
BRANCH   2   3
ATOM      3  C   UNL     1       2.643   0.923  -0.855  1.00  0.00     0.306 C 
ATOM      4  O   UNL     1       2.240   1.773  -1.639  1.00  0.00    -0.252 OA
BRANCH   3   5
ATOM      5  C   UNL     1       3.327  -0.353  -1.308  1.00  0.00     0.126 C 
BRANCH   5   6
ATOM      6  C   UNL     1       4.517  -0.164  -2.271  1.00  0.00     0.004 C 
ATOM      7  C   UNL     1       5.841   0.206  -1.553  1.00  0.00     0.029 C 
ATOM      8  C   UNL     1       4.721  -1.406  -3.181  1.00  0.00     0.029 C 
ATOM      9  C   UNL     1       6.729  -0.997  -1.157  1.00  0.00     0.087 C 
ATOM     10  C   UNL     1       5.705  -2.457  -2.622  1.00  0.00     0.087 C 
ATOM     11  C   UNL     1       6.040  -2.017  -0.253  1.00  0.00     0.027 C 
ATOM     12  N   UNL     1       6.968  -1.800  -2.345  1.00  0.00    -0.319 N 
ATOM     13  C   UNL     1       5.301  -2.947  -1.230  1.00  0.00     0.027 C 
BRANCH  12  14
ATOM     14  C   UNL     1       8.182  -1.794  -2.937  1.00  0.00     0.318 C 
ATOM     15  O   UNL     1       9.075  -1.029  -2.557  1.00  0.00    -0.249 OA
ATOM     16  N   UNL     1       8.523  -2.626  -3.928  1.00  0.00    -0.331 N 
ATOM     17  H   UNL     1       9.432  -2.451  -4.263  1.00  0.00     0.165 HD
BRANCH  16  18
ATOM     18  C   UNL     1       7.888  -3.716  -4.627  1.00  0.00     0.194 C 
BRANCH  18  19
ATOM     19  C   UNL     1       7.196  -3.209  -5.840  1.00  0.00     0.143 A 
ATOM     20  N   UNL     1       7.164  -1.984  -6.329  1.00  0.00    -0.218 NA
ATOM     21  N   UNL     1       6.511  -4.032  -6.688  1.00  0.00    -0.262 N 
ATOM     22  C   UNL     1       6.456  -2.120  -7.485  1.00  0.00     0.246 A 
ATOM     23  N   UNL     1       6.038  -3.360  -7.749  1.00  0.00    -0.162 NA
ATOM     24  H   UNL     1       6.381  -4.997  -6.540  1.00  0.00     0.192 HD
ENDBRANCH  18  19
ENDBRANCH  16  18
ENDBRANCH  12  14
ENDBRANCH   5   6
ENDBRANCH   3   5
ENDBRANCH   2   3
ENDBRANCH   1   2
BRANCH   1  25
ATOM     25  C   UNL     1       3.273  -0.189   2.449  1.00  0.00     0.275 C 
BRANCH  25  26
ATOM     26  O   UNL     1       3.114  -1.468   1.813  1.00  0.00    -0.458 OA
BRANCH  26  27
ATOM     27  C   UNL     1       1.829  -1.872   1.649  1.00  0.00     0.338 C 
ATOM     28  O   UNL     1       0.829  -1.337   2.096  1.00  0.00    -0.246 OA
BRANCH  27  29
ATOM     29  C   UNL     1       1.790  -2.992   0.684  1.00  0.00     0.060 A 
ATOM     30  C   UNL     1       0.817  -2.960  -0.324  1.00  0.00     0.016 A 
ATOM     31  C   UNL     1       2.701  -4.049   0.744  1.00  0.00     0.016 A 
ATOM     32  C   UNL     1       0.743  -3.991  -1.267  1.00  0.00     0.010 A 
ATOM     33  C   UNL     1       2.637  -5.070  -0.212  1.00  0.00     0.010 A 
ATOM     34  C   UNL     1       1.641  -5.065  -1.209  1.00  0.00    -0.014 A 
BRANCH  34  35
ATOM     35  C   UNL     1       1.440  -6.274  -2.052  1.00  0.00     0.031 A 
ATOM     36  C   UNL     1       0.933  -7.529  -1.389  1.00  0.00     0.074 A 
ATOM     37  C   UNL     1       1.703  -6.291  -3.373  1.00  0.00     0.049 A 
ATOM     38  N   UNL     1       0.767  -8.727  -1.890  1.00  0.00    -0.248 NA
ATOM     39  C   UNL     1       0.590  -7.418   0.038  1.00  0.00     0.031 C 
ATOM     40  C   UNL     1       2.167  -5.157  -4.170  1.00  0.00     0.029 A 
ATOM     41  N   UNL     1       1.615  -7.323  -4.278  1.00  0.00    -0.354 N 
ATOM     42  C   UNL     1       0.336  -9.516  -0.831  1.00  0.00     0.074 A 
ATOM     43  C   UNL     1       0.303  -8.672   0.343  1.00  0.00     0.031 C 
ATOM     44  C   UNL     1       2.316  -5.554  -5.448  1.00  0.00     0.029 A 
ATOM     45  C   UNL     1       1.986  -6.976  -5.554  1.00  0.00     0.049 A 
ATOM     46  H   UNL     1       1.313  -8.228  -4.034  1.00  0.00     0.167 HD
ATOM     47  C   UNL     1      -0.018 -10.823  -0.826  1.00  0.00     0.031 A 
ATOM     48  C   UNL     1       2.060  -7.721  -6.677  1.00  0.00     0.031 A 
ATOM     49  C   UNL     1      -0.023 -11.674  -1.982  1.00  0.00     0.049 A 
ATOM     50  C   UNL     1       1.689  -9.182  -6.648  1.00  0.00     0.074 A 
ATOM     51  C   UNL     1      -0.406 -13.001  -2.073  1.00  0.00     0.029 A 
ATOM     52  N   UNL     1       0.367 -11.280  -3.250  1.00  0.00    -0.354 N 
ATOM     53  N   UNL     1       1.264  -9.908  -5.644  1.00  0.00    -0.248 NA
ATOM     54  C   UNL     1       1.807  -9.924  -7.915  1.00  0.00     0.031 C 
ATOM     55  C   UNL     1      -0.206 -13.423  -3.391  1.00  0.00     0.029 A 
ATOM     56  C   UNL     1       0.255 -12.344  -4.127  1.00  0.00     0.049 A 
ATOM     57  H   UNL     1       0.678 -10.377  -3.492  1.00  0.00     0.167 HD
ATOM     58  C   UNL     1       1.031 -11.177  -6.164  1.00  0.00     0.074 A 
ATOM     59  C   UNL     1       1.363 -11.125  -7.571  1.00  0.00     0.031 C 
ATOM     60  C   UNL     1       0.576 -12.284  -5.529  1.00  0.00     0.031 A 
BRANCH  47  61
ATOM     61  C   UNL     1      -0.401 -11.413   0.500  1.00  0.00    -0.014 A 
ATOM     62  C   UNL     1      -1.612 -11.078   1.126  1.00  0.00     0.009 A 
ATOM     63  C   UNL     1       0.475 -12.304   1.138  1.00  0.00     0.009 A 
ATOM     64  C   UNL     1      -1.913 -11.583   2.391  1.00  0.00     0.001 A 
ATOM     65  C   UNL     1       0.157 -12.831   2.390  1.00  0.00     0.001 A 
ATOM     66  C   UNL     1      -1.030 -12.459   3.021  1.00  0.00     0.000 A 
ENDBRANCH  47  61
BRANCH  48  67
ATOM     67  C   UNL     1       2.513  -7.101  -7.950  1.00  0.00    -0.014 A 
ATOM     68  C   UNL     1       1.600  -6.856  -8.987  1.00  0.00     0.009 A 
ATOM     69  C   UNL     1       3.865  -6.783  -8.144  1.00  0.00     0.009 A 
ATOM     70  C   UNL     1       2.038  -6.321 -10.201  1.00  0.00     0.001 A 
ATOM     71  C   UNL     1       4.294  -6.221  -9.347  1.00  0.00     0.001 A 
ATOM     72  C   UNL     1       3.382  -5.999 -10.377  1.00  0.00     0.000 A 
ENDBRANCH  48  67
BRANCH  60  73
ATOM     73  C   UNL     1       0.361 -13.529  -6.344  1.00  0.00    -0.014 A 
ATOM     74  C   UNL     1       1.440 -14.320  -6.766  1.00  0.00     0.009 A 
ATOM     75  C   UNL     1      -0.947 -13.960  -6.617  1.00  0.00     0.009 A 
ATOM     76  C   UNL     1       1.211 -15.512  -7.460  1.00  0.00     0.001 A 
ATOM     77  C   UNL     1      -1.173 -15.162  -7.290  1.00  0.00     0.001 A 
ATOM     78  C   UNL     1      -0.093 -15.935  -7.715  1.00  0.00     0.000 A 
ENDBRANCH  60  73
ENDBRANCH  34  35
ENDBRANCH  27  29
ENDBRANCH  26  27
ENDBRANCH  25  26
ENDBRANCH   1  25
TORSDOF 15
