REMARK SMILES COc1ccc(C(=O)c2c(OC)cccc2C(=O)OCCOC(=O)c2ccc(-c3c4nc(c(-c5ccccc5)c5ccc([nH]5)c(-c5ccccc5)c5nc(c(-c6ccccc6)c6ccc3[nH]6)C=C5)C=C4)cc2)cc1
REMARK SMILES IDX 20 1 19 2 17 3 18 4 16 5 9 6 10 7 13 8 15 9 14 10 7 11 8 12
REMARK SMILES IDX 6 13 3 14 4 15 74 16 5 17 73 18 2 19 1 20 11 21 12 22 21 23
REMARK SMILES IDX 22 24 23 25 24 26 25 27 26 28 72 29 27 30 71 31 28 32 29 33
REMARK SMILES IDX 30 34 65 35 31 36 70 37 64 38 66 39 32 40 69 41 63 42 62 43
REMARK SMILES IDX 33 45 55 46 40 47 54 48 41 49 44 50 53 51 67 52 42 53 43 54
REMARK SMILES IDX 52 56 68 57 45 58 34 59 35 60 39 61 36 62 38 63 37 64 56 65
REMARK SMILES IDX 57 66 61 67 58 68 60 69 59 70 46 71 47 72 51 73 48 74 50 75
REMARK SMILES IDX 49 76
REMARK H PARENT 66 44 44 55
REMARK Flexibility Score: inf
ROOT
ATOM      1  C   UNL     1       3.024  -0.719   5.349  1.00  0.00     0.275 C 
ENDROOT
BRANCH   1   2
ATOM      2  O   UNL     1       3.238  -2.142   5.482  1.00  0.00    -0.458 OA
BRANCH   2   3
ATOM      3  C   UNL     1       4.145  -2.690   4.643  1.00  0.00     0.339 C 
ATOM      4  O   UNL     1       4.902  -2.095   3.893  1.00  0.00    -0.246 OA
BRANCH   3   5
ATOM      5  C   UNL     1       4.142  -4.170   4.710  1.00  0.00     0.075 A 
ATOM      6  C   UNL     1       2.976  -4.951   4.586  1.00  0.00     0.079 A 
ATOM      7  C   UNL     1       3.093  -6.356   4.576  1.00  0.00     0.130 A 
ATOM      8  C   UNL     1       4.358  -6.948   4.723  1.00  0.00     0.047 A 
ATOM      9  C   UNL     1       5.401  -4.792   4.790  1.00  0.00     0.017 A 
ATOM     10  C   UNL     1       5.508  -6.176   4.824  1.00  0.00     0.005 A 
BRANCH   6  11
ATOM     11  C   UNL     1       1.651  -4.298   4.552  1.00  0.00     0.197 C 
ATOM     12  O   UNL     1       0.857  -4.565   5.450  1.00  0.00    -0.288 OA
BRANCH  11  13
ATOM     13  C   UNL     1       1.268  -3.315   3.494  1.00  0.00     0.023 A 
ATOM     14  C   UNL     1       0.565  -1.256   1.711  1.00  0.00     0.118 A 
ATOM     15  C   UNL     1      -0.244  -1.547   2.811  1.00  0.00     0.047 A 
ATOM     16  C   UNL     1       1.709  -2.021   1.485  1.00  0.00     0.047 A 
ATOM     17  C   UNL     1       0.102  -2.568   3.697  1.00  0.00     0.016 A 
ATOM     18  C   UNL     1       2.049  -3.063   2.359  1.00  0.00     0.016 A 
BRANCH  14  19
ATOM     19  O   UNL     1       0.136  -0.204   0.952  1.00  0.00    -0.497 OA
ATOM     20  C   UNL     1       0.860   0.067  -0.241  1.00  0.00     0.278 C 
ENDBRANCH  14  19
ENDBRANCH  11  13
ENDBRANCH   6  11
BRANCH   7  21
ATOM     21  O   UNL     1       2.103  -7.296   4.468  1.00  0.00    -0.496 OA
ATOM     22  C   UNL     1       0.988  -7.005   3.636  1.00  0.00     0.278 C 
ENDBRANCH   7  21
ENDBRANCH   3   5
ENDBRANCH   2   3
ENDBRANCH   1   2
BRANCH   1  23
ATOM     23  C   UNL     1       3.494   0.032   6.590  1.00  0.00     0.275 C 
BRANCH  23  24
ATOM     24  O   UNL     1       4.920  -0.089   6.713  1.00  0.00    -0.458 OA
BRANCH  24  25
ATOM     25  C   UNL     1       5.337  -0.962   7.653  1.00  0.00     0.338 C 
ATOM     26  O   UNL     1       4.665  -1.575   8.468  1.00  0.00    -0.246 OA
BRANCH  25  27
ATOM     27  C   UNL     1       6.779  -1.173   7.508  1.00  0.00     0.060 A 
ATOM     28  C   UNL     1       7.219  -1.987   6.470  1.00  0.00     0.016 A 
ATOM     29  C   UNL     1       7.668  -0.716   8.474  1.00  0.00     0.016 A 
ATOM     30  C   UNL     1       8.528  -2.447   6.447  1.00  0.00     0.010 A 
ATOM     31  C   UNL     1       9.011  -1.093   8.391  1.00  0.00     0.010 A 
ATOM     32  C   UNL     1       9.446  -1.999   7.404  1.00  0.00    -0.014 A 
BRANCH  32  33
ATOM     33  C   UNL     1      10.839  -2.518   7.409  1.00  0.00     0.031 A 
ATOM     34  C   UNL     1      11.372  -3.215   8.631  1.00  0.00     0.074 A 
ATOM     35  C   UNL     1      11.627  -2.378   6.325  1.00  0.00     0.049 A 
ATOM     36  N   UNL     1      12.604  -3.544   8.926  1.00  0.00    -0.248 NA
ATOM     37  C   UNL     1      10.390  -3.573   9.668  1.00  0.00     0.031 C 
ATOM     38  C   UNL     1      11.223  -1.785   5.048  1.00  0.00     0.029 A 
ATOM     39  N   UNL     1      12.939  -2.729   6.126  1.00  0.00    -0.354 N 
ATOM     40  C   UNL     1      12.555  -4.078  10.208  1.00  0.00     0.074 A 
ATOM     41  C   UNL     1      11.173  -4.031  10.633  1.00  0.00     0.031 C 
ATOM     42  C   UNL     1      12.252  -1.845   4.190  1.00  0.00     0.029 A 
ATOM     43  C   UNL     1      13.414  -2.385   4.885  1.00  0.00     0.049 A 
ATOM     44  H   UNL     1      13.486  -3.184   6.807  1.00  0.00     0.167 HD
ATOM     45  C   UNL     1      13.573  -4.554  10.964  1.00  0.00     0.031 A 
ATOM     46  C   UNL     1      14.659  -2.440   4.375  1.00  0.00     0.031 A 
ATOM     47  C   UNL     1      14.939  -4.635  10.517  1.00  0.00     0.049 A 
ATOM     48  C   UNL     1      15.780  -2.932   5.241  1.00  0.00     0.074 A 
ATOM     49  C   UNL     1      16.046  -5.110  11.199  1.00  0.00     0.029 A 
ATOM     50  N   UNL     1      15.380  -4.242   9.262  1.00  0.00    -0.354 N 
ATOM     51  N   UNL     1      15.736  -3.369   6.476  1.00  0.00    -0.248 NA
ATOM     52  C   UNL     1      17.124  -2.920   4.649  1.00  0.00     0.031 C 
ATOM     53  C   UNL     1      17.164  -4.965  10.370  1.00  0.00     0.029 A 
ATOM     54  C   UNL     1      16.745  -4.449   9.154  1.00  0.00     0.049 A 
ATOM     55  H   UNL     1      14.807  -3.871   8.553  1.00  0.00     0.167 HD
ATOM     56  C   UNL     1      17.044  -3.692   6.809  1.00  0.00     0.074 A 
ATOM     57  C   UNL     1      17.853  -3.421   5.637  1.00  0.00     0.031 C 
ATOM     58  C   UNL     1      17.532  -4.165   7.982  1.00  0.00     0.031 A 
BRANCH  45  59
ATOM     59  C   UNL     1      13.251  -4.967  12.375  1.00  0.00    -0.014 A 
ATOM     60  C   UNL     1      12.505  -6.121  12.659  1.00  0.00     0.009 A 
ATOM     61  C   UNL     1      13.710  -4.178  13.443  1.00  0.00     0.009 A 
ATOM     62  C   UNL     1      12.188  -6.451  13.980  1.00  0.00     0.001 A 
ATOM     63  C   UNL     1      13.418  -4.526  14.762  1.00  0.00     0.001 A 
ATOM     64  C   UNL     1      12.647  -5.655  15.030  1.00  0.00     0.000 A 
ENDBRANCH  45  59
BRANCH  46  65
ATOM     65  C   UNL     1      14.906  -1.956   2.991  1.00  0.00    -0.014 A 
ATOM     66  C   UNL     1      15.213  -2.858   1.963  1.00  0.00     0.009 A 
ATOM     67  C   UNL     1      14.798  -0.589   2.686  1.00  0.00     0.009 A 
ATOM     68  C   UNL     1      15.410  -2.400   0.658  1.00  0.00     0.001 A 
ATOM     69  C   UNL     1      14.965  -0.138   1.376  1.00  0.00     0.001 A 
ATOM     70  C   UNL     1      15.276  -1.043   0.364  1.00  0.00     0.000 A 
ENDBRANCH  46  65
BRANCH  58  71
ATOM     71  C   UNL     1      19.006  -4.445   8.039  1.00  0.00    -0.014 A 
ATOM     72  C   UNL     1      19.942  -3.402   8.113  1.00  0.00     0.009 A 
ATOM     73  C   UNL     1      19.460  -5.773   8.046  1.00  0.00     0.009 A 
ATOM     74  C   UNL     1      21.308  -3.685   8.160  1.00  0.00     0.001 A 
ATOM     75  C   UNL     1      20.825  -6.053   8.119  1.00  0.00     0.001 A 
ATOM     76  C   UNL     1      21.748  -5.009   8.167  1.00  0.00     0.000 A 
ENDBRANCH  58  71
ENDBRANCH  32  33
ENDBRANCH  25  27
ENDBRANCH  24  25
ENDBRANCH  23  24
ENDBRANCH   1  23
TORSDOF 15
