REMARK SMILES O=C(COc1nc(-c2cccnc2)nc2c1CCCC2)OCCOC(=O)c1ccc(-c2c3nc(c(-c4ccccc4)c4ccc([nH]4)c(-c4ccccc4)c4nc(c(-c5ccccc5)c5ccc2[nH]5)C=C4)C=C3)cc1
REMARK SMILES IDX 22 1 21 2 2 3 1 4 3 5 4 6 5 7 6 8 16 9 7 10 15 11 17 12
REMARK SMILES IDX 14 13 20 14 18 15 19 16 8 17 9 18 13 19 10 20 12 21 11 22
REMARK SMILES IDX 23 23 24 24 25 25 26 26 27 27 28 28 74 29 29 30 73 31 30 32
REMARK SMILES IDX 31 33 32 34 67 35 33 36 72 37 66 38 68 39 34 40 71 41 65 42
REMARK SMILES IDX 64 43 35 45 57 46 42 47 56 48 43 49 46 50 55 51 69 52 44 53
REMARK SMILES IDX 45 54 54 56 70 57 47 58 36 59 37 60 41 61 38 62 40 63 39 64
REMARK SMILES IDX 58 65 59 66 63 67 60 68 62 69 61 70 48 71 49 72 53 73 50 74
REMARK SMILES IDX 52 75 51 76
REMARK H PARENT 68 44 46 55
REMARK Flexibility Score: inf
ROOT
ATOM      1  C   UNL     1       4.547  -0.446  -1.156  1.00  0.00     0.274 C 
ENDROOT
BRANCH   1   2
ATOM      2  O   UNL     1       3.197  -0.837  -0.831  1.00  0.00    -0.460 OA
BRANCH   2   3
ATOM      3  C   UNL     1       2.518  -0.383   0.251  1.00  0.00     0.344 C 
ATOM      4  O   UNL     1       1.292  -0.467   0.295  1.00  0.00    -0.248 OA
BRANCH   3   5
ATOM      5  C   UNL     1       3.306   0.279   1.381  1.00  0.00     0.353 C 
BRANCH   5   6
ATOM      6  O   UNL     1       4.294  -0.489   2.050  1.00  0.00    -0.465 OA
BRANCH   6   7
ATOM      7  C   UNL     1       3.670  -1.232   3.021  1.00  0.00     0.221 A 
ATOM      8  N   UNL     1       2.796  -2.141   2.581  1.00  0.00    -0.193 NA
ATOM      9  C   UNL     1       3.958  -0.983   4.343  1.00  0.00     0.036 A 
ATOM     10  C   UNL     1       2.111  -2.799   3.524  1.00  0.00     0.164 A 
ATOM     11  C   UNL     1       3.265  -1.777   5.239  1.00  0.00     0.051 A 
ATOM     12  C   UNL     1       4.956   0.056   4.757  1.00  0.00     0.043 C 
ATOM     13  N   UNL     1       2.310  -2.655   4.849  1.00  0.00    -0.232 NA
ATOM     14  C   UNL     1       3.505  -1.651   6.723  1.00  0.00     0.057 C 
ATOM     15  C   UNL     1       4.942   0.344   6.258  1.00  0.00     0.005 C 
ATOM     16  C   UNL     1       4.827  -0.954   7.048  1.00  0.00     0.007 C 
BRANCH  10  17
ATOM     17  C   UNL     1       1.031  -3.663   3.051  1.00  0.00     0.038 A 
ATOM     18  C   UNL     1       1.105  -4.339   1.822  1.00  0.00     0.015 A 
ATOM     19  C   UNL     1      -0.161  -3.806   3.756  1.00  0.00     0.123 A 
ATOM     20  C   UNL     1       0.028  -5.091   1.359  1.00  0.00     0.021 A 
ATOM     21  N   UNL     1      -1.232  -4.530   3.334  1.00  0.00    -0.264 NA
ATOM     22  C   UNL     1      -1.111  -5.148   2.140  1.00  0.00     0.111 A 
ENDBRANCH  10  17
ENDBRANCH   6   7
ENDBRANCH   5   6
ENDBRANCH   3   5
ENDBRANCH   2   3
ENDBRANCH   1   2
BRANCH   1  23
ATOM     23  C   UNL     1       4.554   0.804  -2.042  1.00  0.00     0.275 C 
BRANCH  23  24
ATOM     24  O   UNL     1       4.190   1.960  -1.261  1.00  0.00    -0.458 OA
BRANCH  24  25
ATOM     25  C   UNL     1       2.920   2.416  -1.412  1.00  0.00     0.338 C 
ATOM     26  O   UNL     1       2.100   2.047  -2.231  1.00  0.00    -0.246 OA
BRANCH  25  27
ATOM     27  C   UNL     1       2.609   3.300  -0.264  1.00  0.00     0.060 A 
ATOM     28  C   UNL     1       1.379   3.135   0.385  1.00  0.00     0.016 A 
ATOM     29  C   UNL     1       3.537   4.231   0.215  1.00  0.00     0.016 A 
ATOM     30  C   UNL     1       1.070   3.911   1.505  1.00  0.00     0.010 A 
ATOM     31  C   UNL     1       3.223   5.012   1.332  1.00  0.00     0.010 A 
ATOM     32  C   UNL     1       1.981   4.869   1.971  1.00  0.00    -0.014 A 
BRANCH  32  33
ATOM     33  C   UNL     1       1.584   5.805   3.049  1.00  0.00     0.031 A 
ATOM     34  C   UNL     1       1.008   7.141   2.678  1.00  0.00     0.074 A 
ATOM     35  C   UNL     1       1.726   5.477   4.346  1.00  0.00     0.049 A 
ATOM     36  N   UNL     1       0.515   8.073   3.454  1.00  0.00    -0.248 NA
ATOM     37  C   UNL     1       0.986   7.471   1.244  1.00  0.00     0.031 C 
ATOM     38  C   UNL     1       2.271   4.217   4.848  1.00  0.00     0.029 A 
ATOM     39  N   UNL     1       1.415   6.188   5.479  1.00  0.00    -0.354 N 
ATOM     40  C   UNL     1       0.104   9.089   2.602  1.00  0.00     0.074 A 
ATOM     41  C   UNL     1       0.451   8.683   1.257  1.00  0.00     0.031 C 
ATOM     42  C   UNL     1       2.252   4.242   6.192  1.00  0.00     0.029 A 
ATOM     43  C   UNL     1       1.700   5.520   6.644  1.00  0.00     0.049 A 
ATOM     44  H   UNL     1       1.024   7.091   5.458  1.00  0.00     0.167 HD
ATOM     45  C   UNL     1      -0.523  10.248   2.907  1.00  0.00     0.031 A 
ATOM     46  C   UNL     1       1.529   5.891   7.928  1.00  0.00     0.031 A 
ATOM     47  C   UNL     1      -0.847  10.673   4.240  1.00  0.00     0.049 A 
ATOM     48  C   UNL     1       0.901   7.219   8.252  1.00  0.00     0.074 A 
ATOM     49  C   UNL     1      -1.528  11.809   4.639  1.00  0.00     0.029 A 
ATOM     50  N   UNL     1      -0.493   9.990   5.392  1.00  0.00    -0.354 N 
ATOM     51  N   UNL     1       0.434   8.130   7.434  1.00  0.00    -0.248 NA
ATOM     52  C   UNL     1       0.765   7.566   9.676  1.00  0.00     0.031 C 
ATOM     53  C   UNL     1      -1.534  11.844   6.037  1.00  0.00     0.029 A 
ATOM     54  C   UNL     1      -0.902  10.703   6.505  1.00  0.00     0.049 A 
ATOM     55  H   UNL     1      -0.020   9.127   5.415  1.00  0.00     0.167 HD
ATOM     56  C   UNL     1      -0.074   9.143   8.240  1.00  0.00     0.074 A 
ATOM     57  C   UNL     1       0.144   8.737   9.612  1.00  0.00     0.031 C 
ATOM     58  C   UNL     1      -0.676  10.299   7.868  1.00  0.00     0.031 A 
BRANCH  45  59
ATOM     59  C   UNL     1      -0.889  11.149   1.764  1.00  0.00    -0.014 A 
ATOM     60  C   UNL     1      -1.944  10.822   0.898  1.00  0.00     0.009 A 
ATOM     61  C   UNL     1      -0.190  12.350   1.568  1.00  0.00     0.009 A 
ATOM     62  C   UNL     1      -2.270  11.666  -0.165  1.00  0.00     0.001 A 
ATOM     63  C   UNL     1      -0.534  13.202   0.519  1.00  0.00     0.001 A 
ATOM     64  C   UNL     1      -1.567  12.856  -0.352  1.00  0.00     0.000 A 
ENDBRANCH  45  59
BRANCH  46  65
ATOM     65  C   UNL     1       1.940   4.963   9.012  1.00  0.00    -0.014 A 
ATOM     66  C   UNL     1       0.977   4.234   9.724  1.00  0.00     0.009 A 
ATOM     67  C   UNL     1       3.298   4.777   9.315  1.00  0.00     0.009 A 
ATOM     68  C   UNL     1       1.366   3.339  10.723  1.00  0.00     0.001 A 
ATOM     69  C   UNL     1       3.684   3.869  10.302  1.00  0.00     0.001 A 
ATOM     70  C   UNL     1       2.719   3.152  11.007  1.00  0.00     0.000 A 
ENDBRANCH  46  65
BRANCH  58  71
ATOM     71  C   UNL     1      -1.161  11.225   8.947  1.00  0.00    -0.014 A 
ATOM     72  C   UNL     1      -0.267  12.052   9.643  1.00  0.00     0.009 A 
ATOM     73  C   UNL     1      -2.539  11.358   9.182  1.00  0.00     0.009 A 
ATOM     74  C   UNL     1      -0.746  12.995  10.556  1.00  0.00     0.001 A 
ATOM     75  C   UNL     1      -3.015  12.316  10.080  1.00  0.00     0.001 A 
ATOM     76  C   UNL     1      -2.118  13.133  10.766  1.00  0.00     0.000 A 
ENDBRANCH  58  71
ENDBRANCH  32  33
ENDBRANCH  25  27
ENDBRANCH  24  25
ENDBRANCH  23  24
ENDBRANCH   1  23
TORSDOF 14
