REMARK SMILES O=C(OCCOC(=O)c1cc(S(=O)(=O)Cc2cccc(O)c2)ccc1F)c1ccc(-c2c3nc(c(-c4ccccc4)c4ccc([nH]4)c(-c4ccccc4)c4nc(c(-c5ccccc5)c5ccc2[nH]5)C=C4)C=C3)cc1
REMARK SMILES IDX 5 1 4 2 3 3 2 4 1 5 27 6 28 7 74 8 29 9 73 10 30 11 31 12
REMARK SMILES IDX 32 13 67 14 33 15 72 16 66 17 68 18 34 19 71 20 65 21 64 22
REMARK SMILES IDX 35 24 57 25 42 26 56 27 43 28 46 29 55 30 69 31 44 32 45 33
REMARK SMILES IDX 54 35 70 36 47 37 36 38 37 39 41 40 38 41 40 42 39 43 58 44
REMARK SMILES IDX 59 45 63 46 60 47 62 48 61 49 48 50 49 51 53 52 50 53 52 54
REMARK SMILES IDX 51 55 6 56 7 57 8 58 9 59 10 60 25 61 11 62 24 63 26 64
REMARK SMILES IDX 23 65 12 66 13 67 14 68 15 69 16 70 17 71 22 72 18 73 20 74
REMARK SMILES IDX 19 75 21 76
REMARK H PARENT 68 23 46 34 21 77
REMARK Flexibility Score: inf
ROOT
ATOM      1  C   UNL     1       3.984  -2.063  -0.048  1.00  0.00     0.275 C 
ENDROOT
BRANCH   1   2
ATOM      2  C   UNL     1       4.274  -1.031   1.046  1.00  0.00     0.275 C 
BRANCH   2   3
ATOM      3  O   UNL     1       3.229  -0.067   1.251  1.00  0.00    -0.458 OA
BRANCH   3   4
ATOM      4  C   UNL     1       2.959   1.089   0.605  1.00  0.00     0.338 C 
ATOM      5  O   UNL     1       2.055   1.801   1.041  1.00  0.00    -0.246 OA
BRANCH   4   6
ATOM      6  C   UNL     1       3.616   1.516  -0.676  1.00  0.00     0.060 A 
ATOM      7  C   UNL     1       4.839   1.064  -1.181  1.00  0.00     0.016 A 
ATOM      8  C   UNL     1       2.903   2.448  -1.450  1.00  0.00     0.016 A 
ATOM      9  C   UNL     1       5.301   1.456  -2.441  1.00  0.00     0.010 A 
ATOM     10  C   UNL     1       3.356   2.846  -2.709  1.00  0.00     0.010 A 
ATOM     11  C   UNL     1       4.562   2.349  -3.209  1.00  0.00    -0.014 A 
BRANCH  11  12
ATOM     12  C   UNL     1       5.148   2.942  -4.425  1.00  0.00     0.031 A 
ATOM     13  C   UNL     1       5.689   4.333  -4.318  1.00  0.00     0.074 A 
ATOM     14  C   UNL     1       5.200   2.265  -5.584  1.00  0.00     0.049 A 
ATOM     15  N   UNL     1       6.188   5.100  -5.248  1.00  0.00    -0.248 NA
ATOM     16  C   UNL     1       5.690   4.927  -2.970  1.00  0.00     0.031 C 
ATOM     17  C   UNL     1       4.800   0.874  -5.770  1.00  0.00     0.029 A 
ATOM     18  N   UNL     1       5.580   2.673  -6.836  1.00  0.00    -0.354 N 
ATOM     19  C   UNL     1       6.579   6.258  -4.591  1.00  0.00     0.074 A 
ATOM     20  C   UNL     1       6.201   6.122  -3.205  1.00  0.00     0.031 C 
ATOM     21  C   UNL     1       4.854   0.572  -7.078  1.00  0.00     0.029 A 
ATOM     22  C   UNL     1       5.296   1.751  -7.814  1.00  0.00     0.049 A 
ATOM     23  H   UNL     1       6.013   3.538  -7.016  1.00  0.00     0.167 HD
ATOM     24  C   UNL     1       7.224   7.331  -5.100  1.00  0.00     0.031 A 
ATOM     25  C   UNL     1       5.347   1.870  -9.154  1.00  0.00     0.031 A 
ATOM     26  C   UNL     1       7.536   7.469  -6.493  1.00  0.00     0.049 A 
ATOM     27  C   UNL     1       5.895   3.142  -9.738  1.00  0.00     0.074 A 
ATOM     28  C   UNL     1       8.178   8.507  -7.138  1.00  0.00     0.029 A 
ATOM     29  N   UNL     1       7.199   6.533  -7.462  1.00  0.00    -0.354 N 
ATOM     30  N   UNL     1       6.290   4.226  -9.111  1.00  0.00    -0.248 NA
ATOM     31  C   UNL     1       6.042   3.199 -11.197  1.00  0.00     0.031 C 
ATOM     32  C   UNL     1       8.161   8.233  -8.510  1.00  0.00     0.029 A 
ATOM     33  C   UNL     1       7.576   6.990  -8.710  1.00  0.00     0.049 A 
ATOM     34  H   UNL     1       6.756   5.672  -7.286  1.00  0.00     0.167 HD
ATOM     35  C   UNL     1       6.799   5.067 -10.091  1.00  0.00     0.074 A 
ATOM     36  C   UNL     1       6.627   4.380 -11.357  1.00  0.00     0.031 C 
ATOM     37  C   UNL     1       7.385   6.281  -9.951  1.00  0.00     0.031 A 
BRANCH  24  38
ATOM     38  C   UNL     1       7.555   8.433  -4.135  1.00  0.00    -0.014 A 
ATOM     39  C   UNL     1       8.493   8.245  -3.104  1.00  0.00     0.009 A 
ATOM     40  C   UNL     1       6.862   9.649  -4.209  1.00  0.00     0.009 A 
ATOM     41  C   UNL     1       8.679   9.228  -2.130  1.00  0.00     0.001 A 
ATOM     42  C   UNL     1       7.075  10.643  -3.253  1.00  0.00     0.001 A 
ATOM     43  C   UNL     1       7.968  10.425  -2.205  1.00  0.00     0.000 A 
ENDBRANCH  24  38
BRANCH  25  44
ATOM     44  C   UNL     1       4.838   0.768 -10.011  1.00  0.00    -0.014 A 
ATOM     45  C   UNL     1       5.713  -0.065 -10.720  1.00  0.00     0.009 A 
ATOM     46  C   UNL     1       3.455   0.527 -10.095  1.00  0.00     0.009 A 
ATOM     47  C   UNL     1       5.214  -1.108 -11.507  1.00  0.00     0.001 A 
ATOM     48  C   UNL     1       2.961  -0.528 -10.865  1.00  0.00     0.001 A 
ATOM     49  C   UNL     1       3.841  -1.342 -11.574  1.00  0.00     0.000 A 
ENDBRANCH  25  44
BRANCH  37  50
ATOM     50  C   UNL     1       7.935   6.930 -11.188  1.00  0.00    -0.014 A 
ATOM     51  C   UNL     1       7.095   7.521 -12.142  1.00  0.00     0.009 A 
ATOM     52  C   UNL     1       9.328   7.039 -11.339  1.00  0.00     0.009 A 
ATOM     53  C   UNL     1       7.642   8.203 -13.231  1.00  0.00     0.001 A 
ATOM     54  C   UNL     1       9.870   7.746 -12.412  1.00  0.00     0.001 A 
ATOM     55  C   UNL     1       9.027   8.324 -13.358  1.00  0.00     0.000 A 
ENDBRANCH  37  50
ENDBRANCH  11  12
ENDBRANCH   4   6
ENDBRANCH   3   4
ENDBRANCH   2   3
ENDBRANCH   1   2
BRANCH   1  56
ATOM     56  O   UNL     1       3.492  -1.500  -1.277  1.00  0.00    -0.458 OA
BRANCH  56  57
ATOM     57  C   UNL     1       2.140  -1.454  -1.408  1.00  0.00     0.341 C 
ATOM     58  O   UNL     1       1.316  -1.808  -0.587  1.00  0.00    -0.246 OA
BRANCH  57  59
ATOM     59  C   UNL     1       1.775  -0.815  -2.685  1.00  0.00     0.097 A 
ATOM     60  C   UNL     1       0.872   0.262  -2.708  1.00  0.00     0.039 A 
ATOM     61  C   UNL     1       2.290  -1.307  -3.878  1.00  0.00     0.137 A 
ATOM     62  C   UNL     1       0.529   0.864  -3.934  1.00  0.00     0.068 A 
ATOM     63  C   UNL     1       1.883  -0.766  -5.095  1.00  0.00     0.041 A 
ATOM     64  F   UNL     1       3.168  -2.319  -3.892  1.00  0.00    -0.206 F 
ATOM     65  C   UNL     1       0.995   0.312  -5.125  1.00  0.00     0.023 A 
BRANCH  62  66
ATOM     66  S   UNL     1      -0.520   2.314  -3.897  1.00  0.00     0.182 S 
ATOM     67  O   UNL     1      -1.809   1.804  -3.463  1.00  0.00    -0.223 OA
ATOM     68  O   UNL     1       0.174   3.304  -3.097  1.00  0.00    -0.223 OA
BRANCH  66  69
ATOM     69  C   UNL     1      -0.758   2.953  -5.546  1.00  0.00     0.177 C 
BRANCH  69  70
ATOM     70  C   UNL     1       0.348   3.848  -6.060  1.00  0.00    -0.029 A 
ATOM     71  C   UNL     1       1.398   3.357  -6.850  1.00  0.00     0.005 A 
ATOM     72  C   UNL     1       0.276   5.239  -5.864  1.00  0.00     0.051 A 
ATOM     73  C   UNL     1       2.349   4.218  -7.409  1.00  0.00     0.004 A 
ATOM     74  C   UNL     1       1.216   6.091  -6.447  1.00  0.00     0.115 A 
ATOM     75  C   UNL     1       2.261   5.590  -7.210  1.00  0.00     0.046 A 
BRANCH  74  76
ATOM     76  O   UNL     1       1.059   7.435  -6.273  1.00  0.00    -0.508 OA
ATOM     77  H   UNL     1       1.673   8.032  -6.652  1.00  0.00     0.293 HD
ENDBRANCH  74  76
ENDBRANCH  69  70
ENDBRANCH  66  69
ENDBRANCH  62  66
ENDBRANCH  57  59
ENDBRANCH  56  57
ENDBRANCH   1  56
TORSDOF 15
