REMARK SMILES COCC[C@]1(C(=O)OCCOC(=O)c2ccc(-c3c4nc(c(-c5ccccc5)c5ccc([nH]5)c(-c5ccccc5)c5nc(c(-c6ccccc6)c6ccc3[nH]6)C=C5)C=C4)cc2)CCCN(C(=O)Cc2c(C)nc(C)[nH]c2=O)C1
REMARK SMILES IDX 9 1 8 2 6 3 7 4 5 5 62 6 78 7 63 8 65 9 64 10 4 11 3 12 2 13
REMARK SMILES IDX 1 14 66 15 67 16 68 17 69 18 70 19 76 20 71 21 72 22 75 23
REMARK SMILES IDX 77 24 73 25 74 27 10 28 11 29 12 30 13 31 14 32 15 33 61 34
REMARK SMILES IDX 16 35 60 36 17 37 18 38 19 39 54 40 20 41 59 42 53 43 55 44
REMARK SMILES IDX 21 45 58 46 52 47 51 48 22 50 44 51 29 52 43 53 30 54 33 55
REMARK SMILES IDX 42 56 56 57 31 58 32 59 41 61 57 62 34 63 23 64 24 65 28 66
REMARK SMILES IDX 25 67 27 68 26 69 45 70 46 71 50 72 47 73 49 74 48 75 35 76
REMARK SMILES IDX 36 77 40 78 37 79 39 80 38 81
REMARK H PARENT 75 26 55 49 33 60
REMARK Flexibility Score: inf
ROOT
ATOM      1  C   UNL     1       1.527  -2.961  -5.063  1.00  0.00     0.274 C 
ENDROOT
BRANCH   1   2
ATOM      2  O   UNL     1       1.754  -2.199  -3.858  1.00  0.00    -0.462 OA
BRANCH   2   3
ATOM      3  C   UNL     1       0.705  -2.116  -3.000  1.00  0.00     0.314 C 
ATOM      4  O   UNL     1      -0.360  -2.700  -3.180  1.00  0.00    -0.252 OA
BRANCH   3   5
ATOM      5  C   UNL     1       0.976  -1.249  -1.749  1.00  0.00     0.088 C 
ATOM      6  C   UNL     1       2.331  -0.515  -1.776  1.00  0.00     0.022 C 
ATOM      7  C   UNL     1      -0.161  -0.217  -1.791  1.00  0.00     0.138 C 
ATOM      8  C   UNL     1       2.372   0.902  -1.179  1.00  0.00     0.023 C 
ATOM      9  N   UNL     1      -0.102   0.709  -0.675  1.00  0.00    -0.341 N 
ATOM     10  C   UNL     1       1.096   1.523  -0.592  1.00  0.00     0.119 C 
BRANCH   5  11
ATOM     11  C   UNL     1       0.827  -2.241  -0.556  1.00  0.00     0.049 C 
BRANCH  11  12
ATOM     12  C   UNL     1       1.635  -2.091   0.726  1.00  0.00     0.161 C 
BRANCH  12  13
ATOM     13  O   UNL     1       1.591  -0.775   1.237  1.00  0.00    -0.385 OA
ATOM     14  C   UNL     1       2.708  -0.503   2.070  1.00  0.00     0.194 C 
ENDBRANCH  12  13
ENDBRANCH  11  12
ENDBRANCH   5  11
BRANCH   9  15
ATOM     15  C   UNL     1      -1.223   0.825   0.147  1.00  0.00     0.227 C 
ATOM     16  O   UNL     1      -2.233   0.145  -0.054  1.00  0.00    -0.275 OA
BRANCH  15  17
ATOM     17  C   UNL     1      -1.234   1.875   1.266  1.00  0.00     0.143 C 
BRANCH  17  18
ATOM     18  C   UNL     1      -0.580   1.436   2.547  1.00  0.00     0.048 A 
ATOM     19  C   UNL     1       0.328   2.128   3.271  1.00  0.00     0.049 A 
ATOM     20  C   UNL     1      -0.988   0.121   3.107  1.00  0.00     0.254 A 
ATOM     21  C   UNL     1       0.737   3.547   2.966  1.00  0.00     0.067 C 
ATOM     22  N   UNL     1       1.006   1.610   4.356  1.00  0.00    -0.240 NA
ATOM     23  N   UNL     1      -0.205  -0.365   4.110  1.00  0.00    -0.311 N 
ATOM     24  O   UNL     1      -1.993  -0.478   2.755  1.00  0.00    -0.269 OA
ATOM     25  C   UNL     1       0.753   0.392   4.702  1.00  0.00     0.105 A 
ATOM     26  H   UNL     1      -0.339  -1.292   4.414  1.00  0.00     0.171 HD
ATOM     27  C   UNL     1       1.544  -0.268   5.793  1.00  0.00     0.087 C 
ENDBRANCH  17  18
ENDBRANCH  15  17
ENDBRANCH   9  15
ENDBRANCH   3   5
ENDBRANCH   2   3
ENDBRANCH   1   2
BRANCH   1  28
ATOM     28  C   UNL     1       2.182  -4.337  -4.981  1.00  0.00     0.275 C 
BRANCH  28  29
ATOM     29  O   UNL     1       1.548  -5.152  -3.975  1.00  0.00    -0.458 OA
BRANCH  29  30
ATOM     30  C   UNL     1       2.291  -5.375  -2.873  1.00  0.00     0.338 C 
ATOM     31  O   UNL     1       3.423  -4.961  -2.646  1.00  0.00    -0.246 OA
BRANCH  30  32
ATOM     32  C   UNL     1       1.566  -6.178  -1.876  1.00  0.00     0.060 A 
ATOM     33  C   UNL     1       0.485  -5.614  -1.210  1.00  0.00     0.016 A 
ATOM     34  C   UNL     1       2.145  -7.351  -1.393  1.00  0.00     0.016 A 
ATOM     35  C   UNL     1       0.144  -6.083   0.059  1.00  0.00     0.010 A 
ATOM     36  C   UNL     1       1.673  -7.919  -0.202  1.00  0.00     0.010 A 
ATOM     37  C   UNL     1       0.729  -7.245   0.592  1.00  0.00    -0.014 A 
BRANCH  37  38
ATOM     38  C   UNL     1       0.413  -7.707   1.984  1.00  0.00     0.031 A 
ATOM     39  C   UNL     1       1.524  -8.035   2.965  1.00  0.00     0.074 A 
ATOM     40  C   UNL     1      -0.863  -7.811   2.414  1.00  0.00     0.049 A 
ATOM     41  N   UNL     1       1.452  -8.635   4.131  1.00  0.00    -0.248 NA
ATOM     42  C   UNL     1       2.895  -7.662   2.580  1.00  0.00     0.031 C 
ATOM     43  C   UNL     1      -2.059  -7.497   1.631  1.00  0.00     0.029 A 
ATOM     44  N   UNL     1      -1.366  -8.192   3.637  1.00  0.00    -0.354 N 
ATOM     45  C   UNL     1       2.765  -8.794   4.564  1.00  0.00     0.074 A 
ATOM     46  C   UNL     1       3.614  -8.218   3.545  1.00  0.00     0.031 C 
ATOM     47  C   UNL     1      -3.142  -7.609   2.412  1.00  0.00     0.029 A 
ATOM     48  C   UNL     1      -2.737  -8.123   3.713  1.00  0.00     0.049 A 
ATOM     49  H   UNL     1      -0.798  -8.485   4.386  1.00  0.00     0.167 HD
ATOM     50  C   UNL     1       3.226  -9.372   5.702  1.00  0.00     0.031 A 
ATOM     51  C   UNL     1      -3.590  -8.473   4.694  1.00  0.00     0.031 A 
ATOM     52  C   UNL     1       2.390  -9.871   6.764  1.00  0.00     0.049 A 
ATOM     53  C   UNL     1      -3.060  -9.094   5.952  1.00  0.00     0.074 A 
ATOM     54  C   UNL     1       2.772 -10.463   7.958  1.00  0.00     0.029 A 
ATOM     55  N   UNL     1       1.007  -9.805   6.777  1.00  0.00    -0.354 N 
ATOM     56  N   UNL     1      -1.818  -9.330   6.296  1.00  0.00    -0.248 NA
ATOM     57  C   UNL     1      -4.056  -9.519   6.945  1.00  0.00     0.031 C 
ATOM     58  C   UNL     1       1.616 -10.777   8.683  1.00  0.00     0.029 A 
ATOM     59  C   UNL     1       0.520 -10.341   7.959  1.00  0.00     0.049 A 
ATOM     60  H   UNL     1       0.452  -9.432   6.055  1.00  0.00     0.167 HD
ATOM     61  C   UNL     1      -1.884  -9.932   7.545  1.00  0.00     0.074 A 
ATOM     62  C   UNL     1      -3.283  -9.993   7.912  1.00  0.00     0.031 C 
ATOM     63  C   UNL     1      -0.872 -10.403   8.314  1.00  0.00     0.031 A 
BRANCH  50  64
ATOM     64  C   UNL     1       4.715  -9.539   5.846  1.00  0.00    -0.014 A 
ATOM     65  C   UNL     1       5.560  -8.454   6.124  1.00  0.00     0.009 A 
ATOM     66  C   UNL     1       5.274 -10.824   5.744  1.00  0.00     0.009 A 
ATOM     67  C   UNL     1       6.938  -8.649   6.261  1.00  0.00     0.001 A 
ATOM     68  C   UNL     1       6.646 -11.020   5.910  1.00  0.00     0.001 A 
ATOM     69  C   UNL     1       7.479  -9.931   6.159  1.00  0.00     0.000 A 
ENDBRANCH  50  64
BRANCH  51  70
ATOM     70  C   UNL     1      -5.053  -8.295   4.499  1.00  0.00    -0.014 A 
ATOM     71  C   UNL     1      -5.757  -7.328   5.231  1.00  0.00     0.009 A 
ATOM     72  C   UNL     1      -5.750  -9.086   3.571  1.00  0.00     0.009 A 
ATOM     73  C   UNL     1      -7.132  -7.165   5.046  1.00  0.00     0.001 A 
ATOM     74  C   UNL     1      -7.117  -8.899   3.365  1.00  0.00     0.001 A 
ATOM     75  C   UNL     1      -7.808  -7.944   4.108  1.00  0.00     0.000 A 
ENDBRANCH  51  70
BRANCH  63  76
ATOM     76  C   UNL     1      -1.250 -10.996   9.640  1.00  0.00    -0.014 A 
ATOM     77  C   UNL     1      -1.859 -12.258   9.724  1.00  0.00     0.009 A 
ATOM     78  C   UNL     1      -0.994 -10.282  10.820  1.00  0.00     0.009 A 
ATOM     79  C   UNL     1      -2.244 -12.774  10.963  1.00  0.00     0.001 A 
ATOM     80  C   UNL     1      -1.357 -10.811  12.059  1.00  0.00     0.001 A 
ATOM     81  C   UNL     1      -1.992 -12.051  12.129  1.00  0.00     0.000 A 
ENDBRANCH  63  76
ENDBRANCH  37  38
ENDBRANCH  30  32
ENDBRANCH  29  30
ENDBRANCH  28  29
ENDBRANCH   1  28
TORSDOF 17
