REMARK SMILES O=C(OCCOC(=O)c1c(F)cccc1NS(=O)(=O)C(F)(F)F)c1ccc(-c2c3nc(c(-c4ccccc4)c4ccc([nH]4)c(-c4ccccc4)c4nc(c(-c5ccccc5)c5ccc2[nH]5)C=C4)C=C3)cc1
REMARK SMILES IDX 5 1 4 2 3 3 2 4 1 5 24 6 25 7 71 8 26 9 70 10 27 11 28 12
REMARK SMILES IDX 29 13 64 14 30 15 69 16 63 17 65 18 31 19 68 20 62 21 61 22
REMARK SMILES IDX 32 24 54 25 39 26 53 27 40 28 43 29 52 30 66 31 41 32 42 33
REMARK SMILES IDX 51 35 67 36 44 37 33 38 34 39 38 40 35 41 37 42 36 43 55 44
REMARK SMILES IDX 56 45 60 46 57 47 59 48 58 49 45 50 46 51 50 52 47 53 49 54
REMARK SMILES IDX 48 55 6 56 7 57 8 58 9 59 10 60 15 61 11 62 12 63 14 64
REMARK SMILES IDX 13 65 16 66 17 68 18 69 19 70 20 71 21 72 22 73 23 74
REMARK H PARENT 65 23 43 34 16 67
REMARK Flexibility Score: inf
ROOT
ATOM      1  C   UNL     1       3.695   1.883   1.028  1.00  0.00     0.275 C 
ENDROOT
BRANCH   1   2
ATOM      2  C   UNL     1       4.045   1.572  -0.431  1.00  0.00     0.275 C 
BRANCH   2   3
ATOM      3  O   UNL     1       3.108   0.726  -1.112  1.00  0.00    -0.458 OA
BRANCH   3   4
ATOM      4  C   UNL     1       2.834  -0.586  -0.946  1.00  0.00     0.338 C 
ATOM      5  O   UNL     1       1.788  -1.017  -1.428  1.00  0.00    -0.246 OA
BRANCH   4   6
ATOM      6  C   UNL     1       3.681  -1.536  -0.145  1.00  0.00     0.060 A 
ATOM      7  C   UNL     1       4.950  -1.293   0.375  1.00  0.00     0.016 A 
ATOM      8  C   UNL     1       3.107  -2.785   0.142  1.00  0.00     0.016 A 
ATOM      9  C   UNL     1       5.571  -2.210   1.224  1.00  0.00     0.010 A 
ATOM     10  C   UNL     1       3.689  -3.690   1.029  1.00  0.00     0.010 A 
ATOM     11  C   UNL     1       4.937  -3.402   1.576  1.00  0.00    -0.014 A 
BRANCH  11  12
ATOM     12  C   UNL     1       5.668  -4.382   2.402  1.00  0.00     0.031 A 
ATOM     13  C   UNL     1       6.234  -5.596   1.733  1.00  0.00     0.074 A 
ATOM     14  C   UNL     1       5.915  -4.122   3.700  1.00  0.00     0.049 A 
ATOM     15  N   UNL     1       7.039  -6.499   2.226  1.00  0.00    -0.248 NA
ATOM     16  C   UNL     1       5.894  -5.796   0.314  1.00  0.00     0.031 C 
ATOM     17  C   UNL     1       5.491  -2.917   4.410  1.00  0.00     0.029 A 
ATOM     18  N   UNL     1       6.598  -4.836   4.649  1.00  0.00    -0.354 N 
ATOM     19  C   UNL     1       7.346  -7.335   1.164  1.00  0.00     0.074 A 
ATOM     20  C   UNL     1       6.579  -6.891   0.024  1.00  0.00     0.031 C 
ATOM     21  C   UNL     1       5.879  -2.992   5.693  1.00  0.00     0.029 A 
ATOM     22  C   UNL     1       6.603  -4.240   5.888  1.00  0.00     0.049 A 
ATOM     23  H   UNL     1       7.042  -5.694   4.461  1.00  0.00     0.167 HD
ATOM     24  C   UNL     1       8.230  -8.357   1.132  1.00  0.00     0.031 A 
ATOM     25  C   UNL     1       7.148  -4.651   7.047  1.00  0.00     0.031 A 
ATOM     26  C   UNL     1       8.952  -8.816   2.285  1.00  0.00     0.049 A 
ATOM     27  C   UNL     1       7.998  -5.890   7.020  1.00  0.00     0.074 A 
ATOM     28  C   UNL     1       9.836  -9.872   2.386  1.00  0.00     0.029 A 
ATOM     29  N   UNL     1       8.856  -8.244   3.546  1.00  0.00    -0.354 N 
ATOM     30  N   UNL     1       8.308  -6.652   5.998  1.00  0.00    -0.248 NA
ATOM     31  C   UNL     1       8.613  -6.298   8.288  1.00  0.00     0.031 C 
ATOM     32  C   UNL     1      10.231  -9.977   3.724  1.00  0.00     0.029 A 
ATOM     33  C   UNL     1       9.643  -8.945   4.442  1.00  0.00     0.049 A 
ATOM     34  H   UNL     1       8.309  -7.457   3.770  1.00  0.00     0.167 HD
ATOM     35  C   UNL     1       9.186  -7.605   6.489  1.00  0.00     0.074 A 
ATOM     36  C   UNL     1       9.373  -7.311   7.897  1.00  0.00     0.031 C 
ATOM     37  C   UNL     1       9.792  -8.630   5.840  1.00  0.00     0.031 A 
BRANCH  24  38
ATOM     38  C   UNL     1       8.428  -9.039  -0.189  1.00  0.00    -0.014 A 
ATOM     39  C   UNL     1       9.102  -8.395  -1.241  1.00  0.00     0.009 A 
ATOM     40  C   UNL     1       7.922 -10.330  -0.395  1.00  0.00     0.009 A 
ATOM     41  C   UNL     1       9.235  -9.019  -2.483  1.00  0.00     0.001 A 
ATOM     42  C   UNL     1       8.079 -10.961  -1.630  1.00  0.00     0.001 A 
ATOM     43  C   UNL     1       8.727 -10.302  -2.675  1.00  0.00     0.000 A 
ENDBRANCH  24  38
BRANCH  25  44
ATOM     44  C   UNL     1       6.918  -3.897   8.309  1.00  0.00    -0.014 A 
ATOM     45  C   UNL     1       7.966  -3.247   8.979  1.00  0.00     0.009 A 
ATOM     46  C   UNL     1       5.634  -3.866   8.880  1.00  0.00     0.009 A 
ATOM     47  C   UNL     1       7.744  -2.627  10.213  1.00  0.00     0.001 A 
ATOM     48  C   UNL     1       5.409  -3.220  10.098  1.00  0.00     0.001 A 
ATOM     49  C   UNL     1       6.467  -2.614  10.771  1.00  0.00     0.000 A 
ENDBRANCH  25  44
BRANCH  37  50
ATOM     50  C   UNL     1      10.724  -9.481   6.652  1.00  0.00    -0.014 A 
ATOM     51  C   UNL     1      10.241 -10.344   7.648  1.00  0.00     0.009 A 
ATOM     52  C   UNL     1      12.104  -9.431   6.401  1.00  0.00     0.009 A 
ATOM     53  C   UNL     1      11.127 -11.104   8.410  1.00  0.00     0.001 A 
ATOM     54  C   UNL     1      12.984 -10.222   7.138  1.00  0.00     0.001 A 
ATOM     55  C   UNL     1      12.497 -11.046   8.151  1.00  0.00     0.000 A 
ENDBRANCH  37  50
ENDBRANCH  11  12
ENDBRANCH   4   6
ENDBRANCH   3   4
ENDBRANCH   2   3
ENDBRANCH   1   2
BRANCH   1  56
ATOM     56  O   UNL     1       3.302   0.741   1.809  1.00  0.00    -0.458 OA
BRANCH  56  57
ATOM     57  C   UNL     1       1.967   0.518   1.960  1.00  0.00     0.343 C 
ATOM     58  O   UNL     1       1.061   1.123   1.410  1.00  0.00    -0.246 OA
BRANCH  57  59
ATOM     59  C   UNL     1       1.756  -0.671   2.807  1.00  0.00     0.119 A 
ATOM     60  C   UNL     1       2.479  -0.745   4.003  1.00  0.00     0.139 A 
ATOM     61  C   UNL     1       0.868  -1.714   2.444  1.00  0.00     0.066 A 
ATOM     62  F   UNL     1       3.278   0.261   4.392  1.00  0.00    -0.206 F 
ATOM     63  C   UNL     1       2.378  -1.850   4.835  1.00  0.00     0.040 A 
ATOM     64  C   UNL     1       0.847  -2.849   3.264  1.00  0.00     0.028 A 
ATOM     65  C   UNL     1       1.598  -2.925   4.442  1.00  0.00     0.005 A 
BRANCH  61  66
ATOM     66  N   UNL     1      -0.151  -1.495   1.447  1.00  0.00    -0.275 N 
ATOM     67  H   UNL     1      -0.402  -0.557   1.288  1.00  0.00     0.180 HD
BRANCH  66  68
ATOM     68  S   UNL     1      -0.971  -2.645   0.519  1.00  0.00     0.333 S 
ATOM     69  O   UNL     1      -1.958  -1.858  -0.203  1.00  0.00    -0.197 OA
ATOM     70  O   UNL     1       0.015  -3.395  -0.234  1.00  0.00    -0.197 OA
BRANCH  68  71
ATOM     71  C   UNL     1      -1.864  -3.831   1.644  1.00  0.00     0.516 C 
ATOM     72  F   UNL     1      -1.104  -4.941   1.901  1.00  0.00    -0.155 F 
ATOM     73  F   UNL     1      -2.172  -3.288   2.855  1.00  0.00    -0.155 F 
ATOM     74  F   UNL     1      -3.025  -4.295   1.104  1.00  0.00    -0.155 F 
ENDBRANCH  68  71
ENDBRANCH  66  68
ENDBRANCH  61  66
ENDBRANCH  57  59
ENDBRANCH  56  57
ENDBRANCH   1  56
TORSDOF 14
