REMARK SMILES CC(C)N(c1cc2c(cc1Cl)C=C(C(=O)OCCOC(=O)c1ccc(-c3c4nc(c(-c5ccccc5)c5ccc([nH]5)c(-c5ccccc5)c5nc(c(-c6ccccc6)c6ccc3[nH]6)C=C5)C=C4)cc1)[C@@H](C(F)(F)F)O2)C(C)C
REMARK SMILES IDX 17 1 16 2 14 3 15 4 13 5 5 6 6 7 10 8 7 9 9 10 11 11 8 12
REMARK SMILES IDX 75 13 12 14 70 15 4 16 2 17 1 18 3 19 76 20 77 21 78 22
REMARK SMILES IDX 71 23 72 24 73 25 74 26 18 27 19 28 20 29 21 30 22 31 23 32
REMARK SMILES IDX 69 33 24 34 68 35 25 36 26 37 27 38 62 39 28 40 67 41 61 42
REMARK SMILES IDX 63 43 29 44 66 45 60 46 59 47 30 49 52 50 37 51 51 52 38 53
REMARK SMILES IDX 41 54 50 55 64 56 39 57 40 58 49 60 65 61 42 62 31 63 32 64
REMARK SMILES IDX 36 65 33 66 35 67 34 68 53 69 54 70 58 71 55 72 57 73 56 74
REMARK SMILES IDX 43 75 44 76 48 77 45 78 47 79 46 80
REMARK H PARENT 63 48 41 59
REMARK Flexibility Score: inf
ROOT
ATOM      1  C   UNL     1      -7.305  -8.014   1.232  1.00  0.00     0.275 C 
ENDROOT
BRANCH   1   2
ATOM      2  O   UNL     1      -6.460  -6.889   0.898  1.00  0.00    -0.459 OA
BRANCH   2   3
ATOM      3  C   UNL     1      -6.148  -6.072   1.930  1.00  0.00     0.338 C 
ATOM      4  O   UNL     1      -6.510  -6.196   3.090  1.00  0.00    -0.246 OA
BRANCH   3   5
ATOM      5  C   UNL     1      -5.231  -5.003   1.493  1.00  0.00     0.087 C 
ATOM      6  C   UNL     1      -1.730  -1.353   1.489  1.00  0.00     0.060 A 
ATOM      7  C   UNL     1      -2.763  -1.750   0.602  1.00  0.00     0.074 A 
ATOM      8  C   UNL     1      -1.513  -2.170   2.622  1.00  0.00     0.065 A 
ATOM      9  C   UNL     1      -3.571  -2.865   0.850  1.00  0.00     0.130 A 
ATOM     10  C   UNL     1      -2.288  -3.310   2.844  1.00  0.00     0.034 A 
ATOM     11  Cl  UNL     1      -0.388  -1.795   3.886  1.00  0.00    -0.082 Cl
ATOM     12  C   UNL     1      -3.327  -3.636   1.974  1.00  0.00     0.019 A 
ATOM     13  O   UNL     1      -4.570  -3.141  -0.044  1.00  0.00    -0.475 OA
ATOM     14  C   UNL     1      -4.183  -4.755   2.283  1.00  0.00     0.027 C 
ATOM     15  C   UNL     1      -5.573  -4.147   0.306  1.00  0.00     0.316 C 
BRANCH   6  16
ATOM     16  N   UNL     1      -1.011  -0.170   1.226  1.00  0.00    -0.365 N 
BRANCH  16  17
ATOM     17  C   UNL     1       0.467  -0.260   1.177  1.00  0.00     0.076 C 
ATOM     18  C   UNL     1       1.022  -0.099  -0.236  1.00  0.00     0.030 C 
ATOM     19  C   UNL     1       1.174   0.687   2.145  1.00  0.00     0.030 C 
ENDBRANCH  16  17
BRANCH  16  20
ATOM     20  C   UNL     1      -1.823   1.042   0.975  1.00  0.00     0.076 C 
ATOM     21  C   UNL     1      -1.611   2.130   2.024  1.00  0.00     0.030 C 
ATOM     22  C   UNL     1      -1.666   1.586  -0.440  1.00  0.00     0.030 C 
ENDBRANCH  16  20
ENDBRANCH   6  16
BRANCH  15  23
ATOM     23  C   UNL     1      -6.932  -3.455   0.510  1.00  0.00     0.430 C 
ATOM     24  F   UNL     1      -7.251  -2.663  -0.539  1.00  0.00    -0.167 F 
ATOM     25  F   UNL     1      -7.935  -4.360   0.630  1.00  0.00    -0.167 F 
ATOM     26  F   UNL     1      -6.951  -2.686   1.623  1.00  0.00    -0.167 F 
ENDBRANCH  15  23
ENDBRANCH   3   5
ENDBRANCH   2   3
ENDBRANCH   1   2
BRANCH   1  27
ATOM     27  C   UNL     1      -6.500  -9.310   1.329  1.00  0.00     0.275 C 
BRANCH  27  28
ATOM     28  O   UNL     1      -5.623  -9.272   2.470  1.00  0.00    -0.458 OA
BRANCH  28  29
ATOM     29  C   UNL     1      -4.302  -9.206   2.190  1.00  0.00     0.338 C 
ATOM     30  O   UNL     1      -3.770  -9.201   1.094  1.00  0.00    -0.246 OA
BRANCH  29  31
ATOM     31  C   UNL     1      -3.544  -9.046   3.440  1.00  0.00     0.060 A 
ATOM     32  C   UNL     1      -2.659 -10.021   3.882  1.00  0.00     0.016 A 
ATOM     33  C   UNL     1      -3.607  -7.821   4.092  1.00  0.00     0.016 A 
ATOM     34  C   UNL     1      -1.849  -9.752   4.994  1.00  0.00     0.010 A 
ATOM     35  C   UNL     1      -2.692  -7.498   5.089  1.00  0.00     0.010 A 
ATOM     36  C   UNL     1      -1.821  -8.471   5.587  1.00  0.00    -0.014 A 
BRANCH  36  37
ATOM     37  C   UNL     1      -0.894  -8.153   6.714  1.00  0.00     0.031 A 
ATOM     38  C   UNL     1      -1.408  -7.594   8.022  1.00  0.00     0.074 A 
ATOM     39  C   UNL     1       0.434  -8.340   6.559  1.00  0.00     0.049 A 
ATOM     40  N   UNL     1      -0.742  -7.315   9.117  1.00  0.00    -0.248 NA
ATOM     41  C   UNL     1      -2.841  -7.266   8.108  1.00  0.00     0.031 C 
ATOM     42  C   UNL     1       1.089  -8.772   5.322  1.00  0.00     0.029 A 
ATOM     43  N   UNL     1       1.470  -8.218   7.454  1.00  0.00    -0.354 N 
ATOM     44  C   UNL     1      -1.665  -6.757   9.995  1.00  0.00     0.074 A 
ATOM     45  C   UNL     1      -2.920  -6.668   9.286  1.00  0.00     0.031 C 
ATOM     46  C   UNL     1       2.393  -8.975   5.562  1.00  0.00     0.029 A 
ATOM     47  C   UNL     1       2.679  -8.644   6.954  1.00  0.00     0.049 A 
ATOM     48  H   UNL     1       1.358  -7.861   8.364  1.00  0.00     0.167 HD
ATOM     49  C   UNL     1      -1.504  -6.393  11.289  1.00  0.00     0.031 A 
ATOM     50  C   UNL     1       3.879  -8.786   7.551  1.00  0.00     0.031 A 
ATOM     51  C   UNL     1      -0.273  -6.534  12.018  1.00  0.00     0.049 A 
ATOM     52  C   UNL     1       4.025  -8.445   9.006  1.00  0.00     0.074 A 
ATOM     53  C   UNL     1      -0.034  -6.275  13.356  1.00  0.00     0.029 A 
ATOM     54  N   UNL     1       0.918  -6.984  11.475  1.00  0.00    -0.354 N 
ATOM     55  N   UNL     1       3.118  -8.002   9.842  1.00  0.00    -0.248 NA
ATOM     56  C   UNL     1       5.355  -8.635   9.605  1.00  0.00     0.031 C 
ATOM     57  C   UNL     1       1.315  -6.531  13.614  1.00  0.00     0.029 A 
ATOM     58  C   UNL     1       1.900  -7.001  12.449  1.00  0.00     0.049 A 
ATOM     59  H   UNL     1       1.047  -7.252  10.536  1.00  0.00     0.167 HD
ATOM     60  C   UNL     1       3.761  -7.874  11.066  1.00  0.00     0.074 A 
ATOM     61  C   UNL     1       5.130  -8.305  10.871  1.00  0.00     0.031 C 
ATOM     62  C   UNL     1       3.258  -7.434  12.245  1.00  0.00     0.031 A 
BRANCH  49  63
ATOM     63  C   UNL     1      -2.700  -5.845  12.022  1.00  0.00    -0.014 A 
ATOM     64  C   UNL     1      -2.705  -4.513  12.465  1.00  0.00     0.009 A 
ATOM     65  C   UNL     1      -3.793  -6.667  12.339  1.00  0.00     0.009 A 
ATOM     66  C   UNL     1      -3.778  -4.017  13.209  1.00  0.00     0.001 A 
ATOM     67  C   UNL     1      -4.880  -6.160  13.053  1.00  0.00     0.001 A 
ATOM     68  C   UNL     1      -4.868  -4.838  13.495  1.00  0.00     0.000 A 
ENDBRANCH  49  63
BRANCH  50  69
ATOM     69  C   UNL     1       5.011  -9.362   6.778  1.00  0.00    -0.014 A 
ATOM     70  C   UNL     1       5.631  -8.633   5.751  1.00  0.00     0.009 A 
ATOM     71  C   UNL     1       5.431 -10.679   7.023  1.00  0.00     0.009 A 
ATOM     72  C   UNL     1       6.630  -9.220   4.970  1.00  0.00     0.001 A 
ATOM     73  C   UNL     1       6.449 -11.254   6.258  1.00  0.00     0.001 A 
ATOM     74  C   UNL     1       7.040 -10.527   5.225  1.00  0.00     0.000 A 
ENDBRANCH  50  69
BRANCH  62  75
ATOM     75  C   UNL     1       4.175  -7.396  13.433  1.00  0.00    -0.014 A 
ATOM     76  C   UNL     1       3.971  -8.287  14.499  1.00  0.00     0.009 A 
ATOM     77  C   UNL     1       5.159  -6.403  13.553  1.00  0.00     0.009 A 
ATOM     78  C   UNL     1       4.722  -8.175  15.669  1.00  0.00     0.001 A 
ATOM     79  C   UNL     1       5.927  -6.311  14.715  1.00  0.00     0.001 A 
ATOM     80  C   UNL     1       5.701  -7.189  15.775  1.00  0.00     0.000 A 
ENDBRANCH  62  75
ENDBRANCH  36  37
ENDBRANCH  29  31
ENDBRANCH  28  29
ENDBRANCH  27  28
ENDBRANCH   1  27
TORSDOF 15
