REMARK SMILES Cc1ccc(C)c(S(=O)(=O)N[C@H](CC2=c3ccccc3=NC2)C(=O)OCCOC(=O)c2ccc(-c3c4nc(c(-c5ccccc5)c5ccc([nH]5)c(-c5ccccc5)c5nc(c(-c6ccccc6)c6ccc3[nH]6)C=C5)C=C4)cc2)c1
REMARK SMILES IDX 26 1 25 2 23 3 24 4 12 5 11 6 8 8 9 9 10 10 7 11 1 12 2 13
REMARK SMILES IDX 3 14 79 15 4 16 5 17 6 18 13 19 14 20 15 21 22 22 16 23
REMARK SMILES IDX 20 24 21 25 17 26 19 27 18 28 27 29 28 30 29 31 30 32 31 33
REMARK SMILES IDX 32 34 78 35 33 36 77 37 34 38 35 39 36 40 71 41 37 42 76 43
REMARK SMILES IDX 70 44 72 45 38 46 75 47 69 48 68 49 39 51 61 52 46 53 60 54
REMARK SMILES IDX 47 55 50 56 59 57 73 58 48 59 49 60 58 62 74 63 51 64 40 65
REMARK SMILES IDX 41 66 45 67 42 68 44 69 43 70 62 71 63 72 67 73 64 74 66 75
REMARK SMILES IDX 65 76 52 77 53 78 57 79 54 80 56 81 55 82
REMARK H PARENT 11 7 72 50 50 61
REMARK Flexibility Score: inf
ROOT
ATOM      1  C   UNL     1       3.597   8.381  -0.691  1.00  0.00     0.274 C 
ENDROOT
BRANCH   1   2
ATOM      2  O   UNL     1       2.507   7.900  -1.489  1.00  0.00    -0.461 OA
BRANCH   2   3
ATOM      3  C   UNL     1       2.602   6.511  -1.932  1.00  0.00     0.324 C 
ATOM      4  O   UNL     1       3.817   6.387  -2.237  1.00  0.00    -0.250 OA
BRANCH   3   5
ATOM      5  C   UNL     1       0.896   5.114  -1.914  1.00  0.00     0.183 C 
BRANCH   5   6
ATOM      6  N   UNL     1      -0.109   4.500  -3.114  1.00  0.00    -0.197 NA
ATOM      7  H   UNL     1      -1.049   4.565  -2.725  1.00  0.00     0.142 HD
BRANCH   6   8
ATOM      8  S   UNL     1      -0.038   2.932  -3.844  1.00  0.00     0.241 S 
ATOM      9  O   UNL     1       1.324   2.737  -4.290  1.00  0.00    -0.207 OA
ATOM     10  O   UNL     1      -1.129   2.972  -4.801  1.00  0.00    -0.207 OA
BRANCH   8  11
ATOM     11  C   UNL     1      -0.419   1.437  -2.850  1.00  0.00     0.085 A 
ATOM     12  C   UNL     1      -1.630   0.259   0.619  1.00  0.00     0.044 C 
ATOM     13  C   UNL     1      -1.125   0.270  -0.799  1.00  0.00    -0.050 A 
ATOM     14  C   UNL     1      -0.812  -0.968  -1.364  1.00  0.00     0.004 A 
ATOM     15  C   UNL     1      -0.961   1.464  -1.556  1.00  0.00     0.025 A 
ATOM     16  C   UNL     1      -0.349  -1.026  -2.666  1.00  0.00     0.005 A 
ATOM     17  C   UNL     1      -0.153   0.152  -3.425  1.00  0.00    -0.031 A 
ATOM     18  C   UNL     1       0.315  -0.112  -4.835  1.00  0.00     0.046 C 
ENDBRANCH   8  11
ENDBRANCH   6   8
ENDBRANCH   5   6
BRANCH   5  19
ATOM     19  C   UNL     1      -0.402   4.794  -0.568  1.00  0.00     0.065 C 
BRANCH  19  20
ATOM     20  C   UNL     1      -0.781   5.553   0.732  1.00  0.00    -0.037 C 
ATOM     21  C   UNL     1      -0.319   5.394   1.983  1.00  0.00     0.001 A 
ATOM     22  C   UNL     1      -1.623   6.806   0.681  1.00  0.00     0.174 C 
ATOM     23  C   UNL     1       0.435   4.418   2.707  1.00  0.00     0.010 A 
ATOM     24  C   UNL     1      -0.496   6.759   2.544  1.00  0.00     0.065 A 
ATOM     25  N   UNL     1      -1.199   7.606   1.855  1.00  0.00    -0.280 NA
ATOM     26  C   UNL     1       1.007   4.759   3.877  1.00  0.00     0.001 A 
ATOM     27  C   UNL     1       0.278   7.093   3.764  1.00  0.00     0.028 A 
ATOM     28  C   UNL     1       0.984   6.125   4.369  1.00  0.00     0.002 A 
ENDBRANCH  19  20
ENDBRANCH   5  19
ENDBRANCH   3   5
ENDBRANCH   2   3
ENDBRANCH   1   2
BRANCH   1  29
ATOM     29  C   UNL     1       3.593   7.757   0.717  1.00  0.00     0.275 C 
BRANCH  29  30
ATOM     30  O   UNL     1       4.046   6.372   0.837  1.00  0.00    -0.458 OA
BRANCH  30  31
ATOM     31  C   UNL     1       3.275   5.253   0.768  1.00  0.00     0.338 C 
ATOM     32  O   UNL     1       3.457   4.237   1.417  1.00  0.00    -0.246 OA
BRANCH  31  33
ATOM     33  C   UNL     1       2.360   5.230  -0.373  1.00  0.00     0.060 A 
ATOM     34  C   UNL     1       2.942   4.452  -1.903  1.00  0.00     0.016 A 
ATOM     35  C   UNL     1       1.160   6.574  -0.480  1.00  0.00     0.016 A 
ATOM     36  C   UNL     1       2.424   5.170  -3.498  1.00  0.00     0.010 A 
ATOM     37  C   UNL     1       0.579   7.181  -2.081  1.00  0.00     0.010 A 
ATOM     38  C   UNL     1       1.379   6.628  -3.568  1.00  0.00    -0.014 A 
BRANCH  38  39
ATOM     39  C   UNL     1       1.552   7.844  -4.582  1.00  0.00     0.031 A 
ATOM     40  C   UNL     1       0.258   7.854  -5.273  1.00  0.00     0.074 A 
ATOM     41  C   UNL     1       2.387   8.931  -4.866  1.00  0.00     0.049 A 
ATOM     42  N   UNL     1      -0.014   7.000  -6.199  1.00  0.00    -0.248 NA
ATOM     43  C   UNL     1      -0.920   8.507  -4.681  1.00  0.00     0.031 C 
ATOM     44  C   UNL     1       3.653   9.399  -4.259  1.00  0.00     0.029 A 
ATOM     45  N   UNL     1       2.240   9.942  -5.855  1.00  0.00    -0.354 N 
ATOM     46  C   UNL     1      -1.327   7.244  -6.514  1.00  0.00     0.074 A 
ATOM     47  C   UNL     1      -1.891   7.874  -5.349  1.00  0.00     0.031 C 
ATOM     48  C   UNL     1       4.024  10.635  -4.723  1.00  0.00     0.029 A 
ATOM     49  C   UNL     1       3.117  11.077  -5.779  1.00  0.00     0.049 A 
ATOM     50  H   UNL     1       1.562   9.867  -6.565  1.00  0.00     0.167 HD
ATOM     51  C   UNL     1      -1.708   7.291  -7.817  1.00  0.00     0.031 A 
ATOM     52  C   UNL     1       3.307  12.144  -6.655  1.00  0.00     0.031 A 
ATOM     53  C   UNL     1      -0.602   6.932  -8.682  1.00  0.00     0.049 A 
ATOM     54  C   UNL     1       2.807  11.700  -7.963  1.00  0.00     0.074 A 
ATOM     55  C   UNL     1       0.180   5.811  -8.874  1.00  0.00     0.029 A 
ATOM     56  N   UNL     1       0.132   8.005  -9.126  1.00  0.00    -0.354 N 
ATOM     57  N   UNL     1       3.391  10.799  -8.687  1.00  0.00    -0.248 NA
ATOM     58  C   UNL     1       1.413  11.965  -8.246  1.00  0.00     0.031 C 
ATOM     59  C   UNL     1       1.495   6.298  -9.136  1.00  0.00     0.029 A 
ATOM     60  C   UNL     1       1.458   7.688  -9.229  1.00  0.00     0.049 A 
ATOM     61  H   UNL     1      -0.247   8.888  -9.341  1.00  0.00     0.167 HD
ATOM     62  C   UNL     1       2.336  10.014  -9.109  1.00  0.00     0.074 A 
ATOM     63  C   UNL     1       1.139  10.833  -8.894  1.00  0.00     0.031 C 
ATOM     64  C   UNL     1       2.518   8.674  -9.273  1.00  0.00     0.031 A 
BRANCH  51  65
ATOM     65  C   UNL     1      -2.876   8.096  -8.312  1.00  0.00    -0.014 A 
ATOM     66  C   UNL     1      -3.495   9.133  -7.588  1.00  0.00     0.009 A 
ATOM     67  C   UNL     1      -3.270   7.936  -9.648  1.00  0.00     0.009 A 
ATOM     68  C   UNL     1      -4.498   9.930  -8.141  1.00  0.00     0.001 A 
ATOM     69  C   UNL     1      -4.247   8.758 -10.220  1.00  0.00     0.001 A 
ATOM     70  C   UNL     1      -4.871   9.744  -9.462  1.00  0.00     0.000 A 
ENDBRANCH  51  65
BRANCH  52  71
ATOM     71  C   UNL     1       3.436  13.666  -6.527  1.00  0.00    -0.014 A 
ATOM     72  C   UNL     1       2.882  14.327  -5.423  1.00  0.00     0.009 A 
ATOM     73  C   UNL     1       3.723  14.499  -7.655  1.00  0.00     0.009 A 
ATOM     74  C   UNL     1       2.572  15.708  -5.454  1.00  0.00     0.001 A 
ATOM     75  C   UNL     1       3.418  15.883  -7.684  1.00  0.00     0.001 A 
ATOM     76  C   UNL     1       2.820  16.483  -6.585  1.00  0.00     0.000 A 
ENDBRANCH  52  71
BRANCH  64  77
ATOM     77  C   UNL     1       3.938   8.146  -9.346  1.00  0.00    -0.014 A 
ATOM     78  C   UNL     1       4.264   7.375 -10.472  1.00  0.00     0.009 A 
ATOM     79  C   UNL     1       4.888   8.235  -8.310  1.00  0.00     0.009 A 
ATOM     80  C   UNL     1       5.462   6.665 -10.544  1.00  0.00     0.001 A 
ATOM     81  C   UNL     1       6.107   7.546  -8.396  1.00  0.00     0.001 A 
ATOM     82  C   UNL     1       6.383   6.746  -9.504  1.00  0.00     0.000 A 
ENDBRANCH  64  77
ENDBRANCH  38  39
ENDBRANCH  31  33
ENDBRANCH  30  31
ENDBRANCH  29  30
ENDBRANCH   1  29
TORSDOF 16
