REMARK SMILES O=C(N[C@@H](Cc1ccccc1)C(=O)N[C@@H](CS)C(=O)N[C@@H](CO)C(=O)OCCOC(=O)c1ccc(-c2c3nc(c(-c4ccccc4)c4ccc([nH]4)c(-c4ccccc4)c4nc(c(-c5ccccc5)c5ccc2[nH]5)C=C4)C=C3)cc1)c1ccc(F)cc1
REMARK SMILES IDX 24 1 25 2 21 3 20 4 18 5 19 6 15 8 14 9 12 10 13 11 4 13
REMARK SMILES IDX 3 14 1 15 2 16 80 18 81 19 86 20 82 21 85 22 83 23 84 24
REMARK SMILES IDX 5 25 6 26 7 27 11 28 8 29 10 30 9 31 16 32 17 33 22 35 23 36
REMARK SMILES IDX 26 38 27 39 28 40 29 41 30 42 31 43 32 44 33 45 79 46 34 47
REMARK SMILES IDX 78 48 35 49 36 50 37 51 72 52 38 53 77 54 71 55 73 56 39 57
REMARK SMILES IDX 76 58 70 59 69 60 40 62 62 63 47 64 61 65 48 66 51 67 60 68
REMARK SMILES IDX 74 69 49 70 50 71 59 73 75 74 52 75 41 76 42 77 46 78 43 79
REMARK SMILES IDX 45 80 44 81 63 82 64 83 68 84 65 85 67 86 66 87 53 88 54 89
REMARK SMILES IDX 58 90 55 91 57 92 56 93
REMARK H PARENT 20 7 14 12 3 17 17 34 23 37 73 61 51 72
REMARK Flexibility Score: inf
ROOT
ATOM      1  C   UNL     1       4.843   5.111   6.946  1.00  0.00     0.331 C 
ATOM      2  O   UNL     1       4.703   4.675   8.084  1.00  0.00    -0.250 OA
ENDROOT
BRANCH   1   3
ATOM      3  C   UNL     1       5.636   4.365   5.872  1.00  0.00     0.218 C 
BRANCH   3   4
ATOM      4  N   UNL     1       5.465   4.881   4.505  1.00  0.00    -0.339 N 
ATOM      5  C   UNL     1       5.718   4.149   3.382  1.00  0.00     0.244 C 
ATOM      6  O   UNL     1       6.645   4.532   2.662  1.00  0.00    -0.273 OA
ATOM      7  H   UNL     1       5.151   5.807   4.394  1.00  0.00     0.164 HD
BRANCH   5   8
ATOM      8  C   UNL     1       4.824   2.940   2.978  1.00  0.00     0.181 C 
BRANCH   8   9
ATOM      9  N   UNL     1       5.669   1.844   2.513  1.00  0.00    -0.342 N 
ATOM     10  C   UNL     1       5.726   1.169   1.340  1.00  0.00     0.243 C 
ATOM     11  O   UNL     1       6.640   0.341   1.240  1.00  0.00    -0.273 OA
ATOM     12  H   UNL     1       6.324   1.537   3.181  1.00  0.00     0.164 HD
BRANCH  10  13
ATOM     13  C   UNL     1       4.720   1.341   0.181  1.00  0.00     0.176 C 
BRANCH  13  14
ATOM     14  N   UNL     1       3.342   1.024   0.559  1.00  0.00    -0.340 N 
ATOM     15  O   UNL     1       1.373  -0.046   0.342  1.00  0.00    -0.269 OA
ATOM     16  C   UNL     1       2.586  -0.055   0.165  1.00  0.00     0.251 C 
ATOM     17  H   UNL     1       2.903   1.660   1.169  1.00  0.00     0.164 HD
BRANCH  16  18
ATOM     18  C   UNL     1       3.232  -1.214  -0.491  1.00  0.00     0.040 A 
ATOM     19  C   UNL     1       4.234  -1.934   0.174  1.00  0.00     0.017 A 
ATOM     20  C   UNL     1       2.819  -1.595  -1.773  1.00  0.00     0.017 A 
ATOM     21  C   UNL     1       4.857  -3.006  -0.467  1.00  0.00     0.040 A 
ATOM     22  C   UNL     1       3.446  -2.670  -2.409  1.00  0.00     0.040 A 
ATOM     23  C   UNL     1       4.462  -3.360  -1.753  1.00  0.00     0.123 A 
ATOM     24  F   UNL     1       5.069  -4.384  -2.369  1.00  0.00    -0.207 F 
ENDBRANCH  16  18
ENDBRANCH  13  14
BRANCH  13  25
ATOM     25  C   UNL     1       4.877   2.578  -0.731  1.00  0.00     0.070 C 
BRANCH  25  26
ATOM     26  C   UNL     1       4.411   3.947  -0.293  1.00  0.00    -0.045 A 
ATOM     27  C   UNL     1       5.329   5.011  -0.293  1.00  0.00     0.004 A 
ATOM     28  C   UNL     1       3.080   4.223   0.054  1.00  0.00     0.004 A 
ATOM     29  C   UNL     1       4.945   6.293   0.104  1.00  0.00     0.000 A 
ATOM     30  C   UNL     1       2.706   5.498   0.492  1.00  0.00     0.000 A 
ATOM     31  C   UNL     1       3.639   6.531   0.520  1.00  0.00     0.000 A 
ENDBRANCH  25  26
ENDBRANCH  13  25
ENDBRANCH  10  13
ENDBRANCH   8   9
BRANCH   8  32
ATOM     32  C   UNL     1       3.704   2.499   3.921  1.00  0.00     0.101 C 
BRANCH  32  33
ATOM     33  S   UNL     1       4.100   1.097   5.026  1.00  0.00    -0.177 SA
ATOM     34  H   UNL     1       4.349  -0.012   4.279  1.00  0.00     0.102 HD
ENDBRANCH  32  33
ENDBRANCH   8  32
ENDBRANCH   5   8
ENDBRANCH   3   4
BRANCH   3  35
ATOM     35  C   UNL     1       7.120   4.394   6.271  1.00  0.00     0.193 C 
BRANCH  35  36
ATOM     36  O   UNL     1       7.692   5.675   5.997  1.00  0.00    -0.394 OA
ATOM     37  H   UNL     1       7.627   5.862   5.047  1.00  0.00     0.210 HD
ENDBRANCH  35  36
ENDBRANCH   3  35
ENDBRANCH   1   3
BRANCH   1  38
ATOM     38  O   UNL     1       4.370   6.308   6.504  1.00  0.00    -0.460 OA
BRANCH  38  39
ATOM     39  C   UNL     1       3.667   7.109   7.474  1.00  0.00     0.274 C 
BRANCH  39  40
ATOM     40  C   UNL     1       2.276   7.437   6.946  1.00  0.00     0.275 C 
BRANCH  40  41
ATOM     41  O   UNL     1       1.548   6.209   6.758  1.00  0.00    -0.458 OA
BRANCH  41  42
ATOM     42  C   UNL     1       0.998   6.040   5.534  1.00  0.00     0.338 C 
ATOM     43  O   UNL     1       1.015   6.821   4.598  1.00  0.00    -0.246 OA
BRANCH  42  44
ATOM     44  C   UNL     1       0.347   4.718   5.445  1.00  0.00     0.060 A 
ATOM     45  C   UNL     1       1.015   3.566   5.851  1.00  0.00     0.016 A 
ATOM     46  C   UNL     1      -0.889   4.617   4.805  1.00  0.00     0.016 A 
ATOM     47  C   UNL     1       0.503   2.312   5.498  1.00  0.00     0.010 A 
ATOM     48  C   UNL     1      -1.444   3.357   4.552  1.00  0.00     0.010 A 
ATOM     49  C   UNL     1      -0.731   2.180   4.839  1.00  0.00    -0.014 A 
BRANCH  49  50
ATOM     50  C   UNL     1      -1.248   0.849   4.378  1.00  0.00     0.031 A 
ATOM     51  C   UNL     1      -1.717   0.670   2.949  1.00  0.00     0.074 A 
ATOM     52  C   UNL     1      -1.295  -0.228   5.190  1.00  0.00     0.049 A 
ATOM     53  N   UNL     1      -2.481  -0.265   2.437  1.00  0.00    -0.248 NA
ATOM     54  C   UNL     1      -1.291   1.690   1.977  1.00  0.00     0.031 C 
ATOM     55  C   UNL     1      -0.824  -0.285   6.574  1.00  0.00     0.029 A 
ATOM     56  N   UNL     1      -1.759  -1.502   4.951  1.00  0.00    -0.354 N 
ATOM     57  C   UNL     1      -2.688   0.099   1.110  1.00  0.00     0.074 A 
ATOM     58  C   UNL     1      -1.966   1.333   0.893  1.00  0.00     0.031 C 
ATOM     59  C   UNL     1      -0.955  -1.539   7.034  1.00  0.00     0.029 A 
ATOM     60  C   UNL     1      -1.636  -2.346   6.028  1.00  0.00     0.049 A 
ATOM     61  H   UNL     1      -2.143  -1.782   4.089  1.00  0.00     0.167 HD
ATOM     62  C   UNL     1      -3.422  -0.531   0.160  1.00  0.00     0.031 A 
ATOM     63  C   UNL     1      -2.070  -3.607   6.224  1.00  0.00     0.031 A 
ATOM     64  C   UNL     1      -4.064  -1.808   0.335  1.00  0.00     0.049 A 
ATOM     65  C   UNL     1      -2.889  -4.288   5.166  1.00  0.00     0.074 A 
ATOM     66  C   UNL     1      -4.864  -2.504  -0.557  1.00  0.00     0.029 A 
ATOM     67  N   UNL     1      -3.929  -2.607   1.456  1.00  0.00    -0.354 N 
ATOM     68  N   UNL     1      -3.238  -3.850   3.982  1.00  0.00    -0.248 NA
ATOM     69  C   UNL     1      -3.407  -5.626   5.490  1.00  0.00     0.031 C 
ATOM     70  C   UNL     1      -5.225  -3.720   0.033  1.00  0.00     0.029 A 
ATOM     71  C   UNL     1      -4.619  -3.793   1.275  1.00  0.00     0.049 A 
ATOM     72  H   UNL     1      -3.417  -2.367   2.263  1.00  0.00     0.167 HD
ATOM     73  C   UNL     1      -4.020  -4.853   3.425  1.00  0.00     0.074 A 
ATOM     74  C   UNL     1      -4.068  -5.936   4.383  1.00  0.00     0.031 C 
ATOM     75  C   UNL     1      -4.657  -4.865   2.230  1.00  0.00     0.031 A 
BRANCH  62  76
ATOM     76  C   UNL     1      -3.613   0.167  -1.157  1.00  0.00    -0.014 A 
ATOM     77  C   UNL     1      -2.599   0.210  -2.124  1.00  0.00     0.009 A 
ATOM     78  C   UNL     1      -4.867   0.728  -1.458  1.00  0.00     0.009 A 
ATOM     79  C   UNL     1      -2.833   0.815  -3.361  1.00  0.00     0.001 A 
ATOM     80  C   UNL     1      -5.104   1.310  -2.703  1.00  0.00     0.001 A 
ATOM     81  C   UNL     1      -4.086   1.357  -3.653  1.00  0.00     0.000 A 
ENDBRANCH  62  76
BRANCH  63  82
ATOM     82  C   UNL     1      -1.816  -4.283   7.523  1.00  0.00    -0.014 A 
ATOM     83  C   UNL     1      -0.936  -5.372   7.603  1.00  0.00     0.009 A 
ATOM     84  C   UNL     1      -2.460  -3.842   8.691  1.00  0.00     0.009 A 
ATOM     85  C   UNL     1      -0.716  -6.012   8.825  1.00  0.00     0.001 A 
ATOM     86  C   UNL     1      -2.211  -4.461   9.916  1.00  0.00     0.001 A 
ATOM     87  C   UNL     1      -1.346  -5.551   9.981  1.00  0.00     0.000 A 
ENDBRANCH  63  82
BRANCH  75  88
ATOM     88  C   UNL     1      -5.436  -6.099   1.883  1.00  0.00    -0.014 A 
ATOM     89  C   UNL     1      -6.694  -6.343   2.455  1.00  0.00     0.009 A 
ATOM     90  C   UNL     1      -4.916  -7.015   0.957  1.00  0.00     0.009 A 
ATOM     91  C   UNL     1      -7.404  -7.500   2.128  1.00  0.00     0.001 A 
ATOM     92  C   UNL     1      -5.636  -8.162   0.618  1.00  0.00     0.001 A 
ATOM     93  C   UNL     1      -6.875  -8.407   1.209  1.00  0.00     0.000 A 
ENDBRANCH  75  88
ENDBRANCH  49  50
ENDBRANCH  42  44
ENDBRANCH  41  42
ENDBRANCH  40  41
ENDBRANCH  39  40
ENDBRANCH  38  39
ENDBRANCH   1  38
TORSDOF 23
