REMARK SMILES CC(C)(C)OC(=O)N[C@H](Cc1ccc(N=[N+]=[N-])cc1)C(=O)OCCOC(=O)c1ccc(-c2c3nc(c(-c4ccccc4)c4ccc([nH]4)c(-c4ccccc4)c4nc(c(-c5ccccc5)c5ccc2[nH]5)C=C4)C=C3)cc1
REMARK SMILES IDX 23 1 22 2 20 3 21 4 9 5 8 6 6 7 7 8 5 10 2 11 1 12 3 13 4 14
REMARK SMILES IDX 10 15 11 16 12 17 19 18 13 19 18 20 14 21 15 22 16 23 17 24
REMARK SMILES IDX 24 25 25 26 26 27 27 28 28 29 29 30 75 31 30 32 74 33 31 34
REMARK SMILES IDX 32 35 33 36 68 37 34 38 73 39 67 40 69 41 35 42 72 43 66 44
REMARK SMILES IDX 65 45 36 47 58 48 43 49 57 50 44 51 47 52 56 53 70 54 45 55
REMARK SMILES IDX 46 56 55 58 71 59 48 60 37 61 38 62 42 63 39 64 41 65 40 66
REMARK SMILES IDX 59 67 60 68 64 69 61 70 63 71 62 72 49 73 50 74 54 75 51 76
REMARK SMILES IDX 53 77 52 78
REMARK H PARENT 8 9 69 46 47 57
REMARK Flexibility Score: inf
ROOT
ATOM      1  C   UNL     1       0.163   7.975  -1.481  1.00  0.00     0.274 C 
ENDROOT
BRANCH   1   2
ATOM      2  O   UNL     1       0.882   6.916  -2.143  1.00  0.00    -0.461 OA
BRANCH   2   3
ATOM      3  C   UNL     1       1.623   6.117  -1.329  1.00  0.00     0.329 C 
ATOM      4  O   UNL     1       1.682   6.253  -0.110  1.00  0.00    -0.250 OA
BRANCH   3   5
ATOM      5  C   UNL     1       2.438   5.052  -2.090  1.00  0.00     0.199 C 
BRANCH   5   6
ATOM      6  N   UNL     1       3.730   5.550  -2.578  1.00  0.00    -0.308 N 
ATOM      7  C   UNL     1       4.666   6.250  -1.880  1.00  0.00     0.408 C 
ATOM      8  O   UNL     1       5.799   6.390  -2.317  1.00  0.00    -0.225 OA
ATOM      9  H   UNL     1       3.945   5.356  -3.519  1.00  0.00     0.168 HD
BRANCH   7  10
ATOM     10  O   UNL     1       4.173   6.797  -0.757  1.00  0.00    -0.444 OA
BRANCH  10  11
ATOM     11  C   UNL     1       4.875   7.839  -0.040  1.00  0.00     0.106 C 
ATOM     12  C   UNL     1       3.930   8.238   1.105  1.00  0.00     0.056 C 
ATOM     13  C   UNL     1       5.078   9.056  -0.948  1.00  0.00     0.056 C 
ATOM     14  C   UNL     1       6.185   7.326   0.558  1.00  0.00     0.056 C 
ENDBRANCH  10  11
ENDBRANCH   7  10
ENDBRANCH   5   6
BRANCH   5  15
ATOM     15  C   UNL     1       1.551   4.406  -3.190  1.00  0.00     0.072 C 
BRANCH  15  16
ATOM     16  C   UNL     1       2.274   3.490  -4.151  1.00  0.00    -0.045 A 
ATOM     17  C   UNL     1       2.223   2.100  -4.025  1.00  0.00     0.004 A 
ATOM     18  C   UNL     1       3.025   4.043  -5.197  1.00  0.00     0.004 A 
ATOM     19  C   UNL     1       2.962   1.289  -4.896  1.00  0.00     0.010 A 
ATOM     20  C   UNL     1       3.785   3.233  -6.040  1.00  0.00     0.010 A 
ATOM     21  C   UNL     1       3.777   1.840  -5.893  1.00  0.00     0.038 A 
BRANCH  21  22
ATOM     22  N   UNL     1       4.507   0.946  -6.699  1.00  0.00    -0.061 NA
ATOM     23  N   UNL     1       5.441   1.448  -7.358  1.00  0.00     0.005 N 
ATOM     24  N   UNL     1       6.287   1.902  -7.967  1.00  0.00    -0.003 NA
ENDBRANCH  21  22
ENDBRANCH  15  16
ENDBRANCH   5  15
ENDBRANCH   3   5
ENDBRANCH   2   3
ENDBRANCH   1   2
BRANCH   1  25
ATOM     25  C   UNL     1      -1.216   7.544  -0.956  1.00  0.00     0.275 C 
BRANCH  25  26
ATOM     26  O   UNL     1      -1.139   6.633   0.162  1.00  0.00    -0.458 OA
BRANCH  26  27
ATOM     27  C   UNL     1      -1.105   5.321  -0.174  1.00  0.00     0.338 C 
ATOM     28  O   UNL     1      -1.201   4.856  -1.300  1.00  0.00    -0.246 OA
BRANCH  27  29
ATOM     29  C   UNL     1      -0.736   4.482   0.984  1.00  0.00     0.060 A 
ATOM     30  C   UNL     1       0.340   3.602   0.818  1.00  0.00     0.016 A 
ATOM     31  C   UNL     1      -1.467   4.479   2.171  1.00  0.00     0.016 A 
ATOM     32  C   UNL     1       0.687   2.707   1.822  1.00  0.00     0.010 A 
ATOM     33  C   UNL     1      -1.129   3.564   3.178  1.00  0.00     0.010 A 
ATOM     34  C   UNL     1      -0.065   2.660   2.999  1.00  0.00    -0.014 A 
BRANCH  34  35
ATOM     35  C   UNL     1       0.205   1.575   3.972  1.00  0.00     0.031 A 
ATOM     36  C   UNL     1      -0.728   0.398   4.037  1.00  0.00     0.074 A 
ATOM     37  C   UNL     1       1.314   1.601   4.733  1.00  0.00     0.049 A 
ATOM     38  N   UNL     1      -0.694  -0.644   4.827  1.00  0.00    -0.248 NA
ATOM     39  C   UNL     1      -1.847   0.394   3.081  1.00  0.00     0.031 C 
ATOM     40  C   UNL     1       2.336   2.648   4.705  1.00  0.00     0.029 A 
ATOM     41  N   UNL     1       1.769   0.712   5.673  1.00  0.00    -0.354 N 
ATOM     42  C   UNL     1      -1.798  -1.414   4.482  1.00  0.00     0.074 A 
ATOM     43  C   UNL     1      -2.491  -0.712   3.424  1.00  0.00     0.031 C 
ATOM     44  C   UNL     1       3.301   2.338   5.587  1.00  0.00     0.029 A 
ATOM     45  C   UNL     1       2.942   1.100   6.273  1.00  0.00     0.049 A 
ATOM     46  H   UNL     1       1.300  -0.124   5.897  1.00  0.00     0.167 HD
ATOM     47  C   UNL     1      -2.198  -2.599   5.001  1.00  0.00     0.031 A 
ATOM     48  C   UNL     1       3.635   0.533   7.279  1.00  0.00     0.031 A 
ATOM     49  C   UNL     1      -1.506  -3.295   6.054  1.00  0.00     0.049 A 
ATOM     50  C   UNL     1       3.130  -0.748   7.887  1.00  0.00     0.074 A 
ATOM     51  C   UNL     1      -1.832  -4.501   6.650  1.00  0.00     0.029 A 
ATOM     52  N   UNL     1      -0.346  -2.846   6.667  1.00  0.00    -0.354 N 
ATOM     53  N   UNL     1       2.078  -1.460   7.562  1.00  0.00    -0.248 NA
ATOM     54  C   UNL     1       3.915  -1.306   8.998  1.00  0.00     0.031 C 
ATOM     55  C   UNL     1      -0.900  -4.754   7.662  1.00  0.00     0.029 A 
ATOM     56  C   UNL     1       0.044  -3.740   7.650  1.00  0.00     0.049 A 
ATOM     57  H   UNL     1       0.129  -2.015   6.438  1.00  0.00     0.167 HD
ATOM     58  C   UNL     1       2.094  -2.566   8.404  1.00  0.00     0.074 A 
ATOM     59  C   UNL     1       3.267  -2.436   9.243  1.00  0.00     0.031 C 
ATOM     60  C   UNL     1       1.217  -3.598   8.474  1.00  0.00     0.031 A 
BRANCH  47  61
ATOM     61  C   UNL     1      -3.474  -3.192   4.470  1.00  0.00    -0.014 A 
ATOM     62  C   UNL     1      -3.552  -3.738   3.180  1.00  0.00     0.009 A 
ATOM     63  C   UNL     1      -4.612  -3.227   5.291  1.00  0.00     0.009 A 
ATOM     64  C   UNL     1      -4.753  -4.276   2.711  1.00  0.00     0.001 A 
ATOM     65  C   UNL     1      -5.803  -3.791   4.832  1.00  0.00     0.001 A 
ATOM     66  C   UNL     1      -5.875  -4.306   3.539  1.00  0.00     0.000 A 
ENDBRANCH  47  61
BRANCH  48  67
ATOM     67  C   UNL     1       4.865   1.186   7.800  1.00  0.00    -0.014 A 
ATOM     68  C   UNL     1       6.125   0.590   7.631  1.00  0.00     0.009 A 
ATOM     69  C   UNL     1       4.781   2.405   8.493  1.00  0.00     0.009 A 
ATOM     70  C   UNL     1       7.268   1.187   8.168  1.00  0.00     0.001 A 
ATOM     71  C   UNL     1       5.929   3.015   9.000  1.00  0.00     0.001 A 
ATOM     72  C   UNL     1       7.170   2.401   8.848  1.00  0.00     0.000 A 
ENDBRANCH  48  67
BRANCH  60  73
ATOM     73  C   UNL     1       1.527  -4.696   9.454  1.00  0.00    -0.014 A 
ATOM     74  C   UNL     1       1.417  -4.499  10.840  1.00  0.00     0.009 A 
ATOM     75  C   UNL     1       1.913  -5.958   8.976  1.00  0.00     0.009 A 
ATOM     76  C   UNL     1       1.730  -5.533  11.726  1.00  0.00     0.001 A 
ATOM     77  C   UNL     1       2.193  -6.999   9.863  1.00  0.00     0.001 A 
ATOM     78  C   UNL     1       2.113  -6.781  11.237  1.00  0.00     0.000 A 
ENDBRANCH  60  73
ENDBRANCH  34  35
ENDBRANCH  27  29
ENDBRANCH  26  27
ENDBRANCH  25  26
ENDBRANCH   1  25
TORSDOF 17
