REMARK SMILES COc1ccc(-c2ccc(CCC(=O)OCCOC(=O)c3ccc(-c4c5nc(c(-c6ccccc6)c6ccc([nH]6)c(-c6ccccc6)c6nc(c(-c7ccccc7)c7ccc4[nH]7)C=C6)C=C5)cc3)n2-c2ccc(C(C)=O)cc2)cc1
REMARK SMILES IDX 16 1 15 2 13 3 14 4 12 5 11 6 10 7 7 8 8 9 69 10 9 11 6 12
REMARK SMILES IDX 3 13 4 14 80 15 5 16 79 17 2 18 1 19 70 20 71 21 78 22 72 23
REMARK SMILES IDX 77 24 73 25 74 26 75 27 76 28 17 29 18 30 19 31 20 32 21 33
REMARK SMILES IDX 22 34 68 35 23 36 67 37 24 38 25 39 26 40 61 41 27 42 66 43
REMARK SMILES IDX 60 44 62 45 28 46 65 47 59 48 58 49 29 51 51 52 36 53 50 54
REMARK SMILES IDX 37 55 40 56 49 57 63 58 38 59 39 60 48 62 64 63 41 64 30 65
REMARK SMILES IDX 31 66 35 67 32 68 34 69 33 70 52 71 53 72 57 73 54 74 56 75
REMARK SMILES IDX 55 76 42 77 43 78 47 79 44 80 46 81 45 82
REMARK H PARENT 62 50 40 61
REMARK Flexibility Score: inf
ROOT
ATOM      1  C   UNL     1       5.987  -3.463   9.528  1.00  0.00     0.274 C 
ENDROOT
BRANCH   1   2
ATOM      2  O   UNL     1       4.774  -3.867   8.863  1.00  0.00    -0.462 OA
BRANCH   2   3
ATOM      3  C   UNL     1       4.090  -4.915   9.392  1.00  0.00     0.306 C 
ATOM      4  O   UNL     1       4.455  -5.564  10.366  1.00  0.00    -0.252 OA
BRANCH   3   5
ATOM      5  C   UNL     1       2.836  -5.241   8.610  1.00  0.00     0.129 C 
BRANCH   5   6
ATOM      6  C   UNL     1       1.699  -4.221   8.689  1.00  0.00     0.066 C 
BRANCH   6   7
ATOM      7  C   UNL     1       1.879  -3.038   7.773  1.00  0.00     0.024 A 
ATOM      8  C   UNL     1       1.838  -1.829   5.866  1.00  0.00     0.053 A 
ATOM      9  C   UNL     1       2.696  -1.198   6.742  1.00  0.00     0.029 A 
ATOM     10  N   UNL     1       1.266  -2.909   6.533  1.00  0.00    -0.314 N 
ATOM     11  C   UNL     1       2.679  -1.921   7.939  1.00  0.00     0.024 A 
BRANCH   8  12
ATOM     12  C   UNL     1       1.447  -1.324   4.560  1.00  0.00    -0.001 A 
ATOM     13  C   UNL     1       0.753  -0.210   2.096  1.00  0.00     0.118 A 
ATOM     14  C   UNL     1      -0.171  -0.230   3.142  1.00  0.00     0.047 A 
ATOM     15  C   UNL     1       2.036  -0.726   2.292  1.00  0.00     0.047 A 
ATOM     16  C   UNL     1       0.172  -0.788   4.370  1.00  0.00     0.014 A 
ATOM     17  C   UNL     1       2.383  -1.280   3.524  1.00  0.00     0.014 A 
BRANCH  13  18
ATOM     18  O   UNL     1       0.308   0.377   0.945  1.00  0.00    -0.497 OA
ATOM     19  C   UNL     1       0.946  -0.064  -0.247  1.00  0.00     0.278 C 
ENDBRANCH  13  18
ENDBRANCH   8  12
BRANCH  10  20
ATOM     20  C   UNL     1       0.194  -3.701   6.056  1.00  0.00     0.046 A 
ATOM     21  C   UNL     1      -0.975  -3.791   6.820  1.00  0.00     0.027 A 
ATOM     22  C   UNL     1       0.289  -4.339   4.822  1.00  0.00     0.027 A 
ATOM     23  C   UNL     1      -2.061  -4.529   6.345  1.00  0.00     0.014 A 
ATOM     24  C   UNL     1      -0.793  -5.093   4.363  1.00  0.00     0.014 A 
ATOM     25  C   UNL     1      -1.980  -5.188   5.112  1.00  0.00     0.017 A 
BRANCH  25  26
ATOM     26  C   UNL     1      -3.097  -6.000   4.539  1.00  0.00     0.159 C 
ATOM     27  C   UNL     1      -4.465  -6.005   5.173  1.00  0.00     0.093 C 
ATOM     28  O   UNL     1      -2.896  -6.658   3.517  1.00  0.00    -0.295 OA
ENDBRANCH  25  26
ENDBRANCH  10  20
ENDBRANCH   6   7
ENDBRANCH   5   6
ENDBRANCH   3   5
ENDBRANCH   2   3
ENDBRANCH   1   2
BRANCH   1  29
ATOM     29  C   UNL     1       5.780  -2.436  10.646  1.00  0.00     0.275 C 
BRANCH  29  30
ATOM     30  O   UNL     1       5.138  -2.972  11.813  1.00  0.00    -0.458 OA
BRANCH  30  31
ATOM     31  C   UNL     1       3.798  -2.919  11.709  1.00  0.00     0.338 C 
ATOM     32  O   UNL     1       3.152  -2.609  10.728  1.00  0.00    -0.246 OA
BRANCH  31  33
ATOM     33  C   UNL     1       3.076  -3.007  12.960  1.00  0.00     0.060 A 
ATOM     34  C   UNL     1       1.771  -3.518  12.873  1.00  0.00     0.016 A 
ATOM     35  C   UNL     1       3.481  -2.127  13.963  1.00  0.00     0.016 A 
ATOM     36  C   UNL     1       0.817  -3.047  13.744  1.00  0.00     0.010 A 
ATOM     37  C   UNL     1       2.520  -1.641  14.823  1.00  0.00     0.010 A 
ATOM     38  C   UNL     1       1.195  -2.090  14.691  1.00  0.00    -0.014 A 
BRANCH  38  39
ATOM     39  C   UNL     1       0.222  -1.740  15.725  1.00  0.00     0.031 A 
ATOM     40  C   UNL     1       0.274  -2.759  16.864  1.00  0.00     0.074 A 
ATOM     41  C   UNL     1      -0.543  -0.632  15.505  1.00  0.00     0.049 A 
ATOM     42  N   UNL     1      -0.588  -2.987  17.800  1.00  0.00    -0.248 NA
ATOM     43  C   UNL     1       1.433  -3.697  16.958  1.00  0.00     0.031 C 
ATOM     44  C   UNL     1      -0.464   0.228  14.301  1.00  0.00     0.029 A 
ATOM     45  N   UNL     1      -1.534  -0.004  16.227  1.00  0.00    -0.354 N 
ATOM     46  C   UNL     1      -0.014  -3.929  18.675  1.00  0.00     0.074 A 
ATOM     47  C   UNL     1       1.185  -4.402  18.059  1.00  0.00     0.031 C 
ATOM     48  C   UNL     1      -1.397   1.204  14.347  1.00  0.00     0.029 A 
ATOM     49  C   UNL     1      -2.145   1.100  15.586  1.00  0.00     0.049 A 
ATOM     50  H   UNL     1      -1.798  -0.303  17.127  1.00  0.00     0.167 HD
ATOM     51  C   UNL     1      -0.486  -4.161  19.928  1.00  0.00     0.031 A 
ATOM     52  C   UNL     1      -3.198   1.861  16.012  1.00  0.00     0.031 A 
ATOM     53  C   UNL     1      -1.701  -3.455  20.148  1.00  0.00     0.049 A 
ATOM     54  C   UNL     1      -3.474   1.446  17.395  1.00  0.00     0.074 A 
ATOM     55  C   UNL     1      -2.960  -3.603  19.625  1.00  0.00     0.029 A 
ATOM     56  N   UNL     1      -1.588  -2.202  20.700  1.00  0.00    -0.354 N 
ATOM     57  N   UNL     1      -2.728   1.732  18.417  1.00  0.00    -0.248 NA
ATOM     58  C   UNL     1      -4.649   0.610  17.669  1.00  0.00     0.031 C 
ATOM     59  C   UNL     1      -3.404  -2.274  19.454  1.00  0.00     0.029 A 
ATOM     60  C   UNL     1      -2.484  -1.398  20.040  1.00  0.00     0.049 A 
ATOM     61  H   UNL     1      -0.982  -1.933  21.427  1.00  0.00     0.167 HD
ATOM     62  C   UNL     1      -3.118   0.789  19.334  1.00  0.00     0.074 A 
ATOM     63  C   UNL     1      -4.461   0.392  18.968  1.00  0.00     0.031 C 
ATOM     64  C   UNL     1      -2.177   0.010  19.929  1.00  0.00     0.031 A 
BRANCH  51  65
ATOM     65  C   UNL     1       0.195  -4.789  21.101  1.00  0.00    -0.014 A 
ATOM     66  C   UNL     1      -0.613  -5.161  22.197  1.00  0.00     0.009 A 
ATOM     67  C   UNL     1       1.579  -4.725  21.306  1.00  0.00     0.009 A 
ATOM     68  C   UNL     1      -0.075  -5.354  23.469  1.00  0.00     0.001 A 
ATOM     69  C   UNL     1       2.124  -4.956  22.576  1.00  0.00     0.001 A 
ATOM     70  C   UNL     1       1.295  -5.235  23.661  1.00  0.00     0.000 A 
ENDBRANCH  51  65
BRANCH  52  71
ATOM     71  C   UNL     1      -4.120   2.915  15.455  1.00  0.00    -0.014 A 
ATOM     72  C   UNL     1      -4.042   3.488  14.185  1.00  0.00     0.009 A 
ATOM     73  C   UNL     1      -5.236   3.319  16.241  1.00  0.00     0.009 A 
ATOM     74  C   UNL     1      -5.062   4.340  13.707  1.00  0.00     0.001 A 
ATOM     75  C   UNL     1      -6.272   4.122  15.758  1.00  0.00     0.001 A 
ATOM     76  C   UNL     1      -6.189   4.627  14.477  1.00  0.00     0.000 A 
ENDBRANCH  52  71
BRANCH  64  77
ATOM     77  C   UNL     1      -0.776   0.606  19.962  1.00  0.00    -0.014 A 
ATOM     78  C   UNL     1      -0.544   1.843  20.582  1.00  0.00     0.009 A 
ATOM     79  C   UNL     1       0.308   0.024  19.281  1.00  0.00     0.009 A 
ATOM     80  C   UNL     1       0.703   2.480  20.502  1.00  0.00     0.001 A 
ATOM     81  C   UNL     1       1.559   0.654  19.198  1.00  0.00     0.001 A 
ATOM     82  C   UNL     1       1.754   1.888  19.806  1.00  0.00     0.000 A 
ENDBRANCH  64  77
ENDBRANCH  38  39
ENDBRANCH  31  33
ENDBRANCH  30  31
ENDBRANCH  29  30
ENDBRANCH   1  29
TORSDOF 17
