REMARK SMILES N#CCSCC(=O)N1Cc2ccccc2C[C@@H]1C(=O)OCCOC(=O)c1ccc(-c2c3nc(c(-c4ccccc4)c4ccc([nH]4)c(-c4ccccc4)c4nc(c(-c5ccccc5)c5ccc2[nH]5)C=C4)C=C3)cc1
REMARK SMILES IDX 20 1 18 2 19 3 17 4 8 5 9 6 10 7 16 8 11 9 15 10 12 11 14 12
REMARK SMILES IDX 13 13 6 14 7 15 5 16 4 17 3 18 2 19 1 20 21 21 22 22 23 23
REMARK SMILES IDX 24 24 25 25 26 26 27 27 73 28 28 29 72 30 29 31 30 32 31 33
REMARK SMILES IDX 66 34 32 35 71 36 65 37 67 38 33 39 70 40 64 41 63 42 34 44
REMARK SMILES IDX 56 45 41 46 55 47 42 48 45 49 54 50 68 51 43 52 44 53 53 55
REMARK SMILES IDX 69 56 46 57 35 58 36 59 40 60 37 61 39 62 38 63 57 64 58 65
REMARK SMILES IDX 62 66 59 67 61 68 60 69 47 70 48 71 52 72 49 73 51 74 50 75
REMARK H PARENT 67 43 45 54
REMARK Flexibility Score: inf
ROOT
ATOM      1  O   UNL     1       6.690  -2.358   1.713  1.00  0.00    -0.461 OA
ENDROOT
BRANCH   1   2
ATOM      2  C   UNL     1       6.689  -1.627   0.571  1.00  0.00     0.329 C 
ATOM      3  O   UNL     1       6.596  -0.404   0.565  1.00  0.00    -0.250 OA
BRANCH   2   4
ATOM      4  C   UNL     1       6.745  -2.457  -0.731  1.00  0.00     0.199 C 
ATOM      5  N   UNL     1       5.639  -3.421  -0.724  1.00  0.00    -0.323 N 
ATOM      6  C   UNL     1       5.913  -4.784  -0.225  1.00  0.00     0.156 C 
ATOM      7  C   UNL     1       7.294  -5.021   0.348  1.00  0.00    -0.025 A 
ATOM      8  C   UNL     1       8.116  -3.085  -0.975  1.00  0.00     0.073 C 
ATOM      9  C   UNL     1       7.526  -6.070   1.246  1.00  0.00     0.006 A 
ATOM     10  C   UNL     1       8.369  -4.197  -0.010  1.00  0.00    -0.040 A 
ATOM     11  C   UNL     1       8.791  -6.254   1.811  1.00  0.00     0.000 A 
ATOM     12  C   UNL     1       9.637  -4.386   0.550  1.00  0.00     0.004 A 
ATOM     13  C   UNL     1       9.843  -5.406   1.472  1.00  0.00     0.000 A 
BRANCH   5  14
ATOM     14  C   UNL     1       4.315  -3.076  -0.976  1.00  0.00     0.233 C 
ATOM     15  O   UNL     1       3.401  -3.786  -0.538  1.00  0.00    -0.274 OA
BRANCH  14  16
ATOM     16  C   UNL     1       3.941  -1.950  -1.945  1.00  0.00     0.170 C 
BRANCH  16  17
ATOM     17  S   UNL     1       4.458  -0.238  -1.627  1.00  0.00    -0.137 SA
BRANCH  17  18
ATOM     18  C   UNL     1       3.802   0.081   0.054  1.00  0.00     0.189 C 
BRANCH  18  19
ATOM     19  C   UNL     1       2.282   0.081   0.054  1.00  0.00     0.073 C 
ATOM     20  N   UNL     1       1.021   0.081   0.054  1.00  0.00    -0.197 NA
ENDBRANCH  18  19
ENDBRANCH  17  18
ENDBRANCH  16  17
ENDBRANCH  14  16
ENDBRANCH   5  14
ENDBRANCH   2   4
ENDBRANCH   1   2
BRANCH   1  21
ATOM     21  C   UNL     1       6.496  -1.618   2.934  1.00  0.00     0.274 C 
BRANCH  21  22
ATOM     22  C   UNL     1       7.789  -1.013   3.499  1.00  0.00     0.275 C 
BRANCH  22  23
ATOM     23  O   UNL     1       8.278   0.089   2.704  1.00  0.00    -0.458 OA
BRANCH  23  24
ATOM     24  C   UNL     1       9.265  -0.225   1.832  1.00  0.00     0.338 C 
ATOM     25  O   UNL     1       9.828  -1.301   1.714  1.00  0.00    -0.246 OA
BRANCH  24  26
ATOM     26  C   UNL     1       9.479   0.863   0.861  1.00  0.00     0.060 A 
ATOM     27  C   UNL     1       9.139   0.608  -0.471  1.00  0.00     0.016 A 
ATOM     28  C   UNL     1      10.126   2.048   1.200  1.00  0.00     0.016 A 
ATOM     29  C   UNL     1       9.444   1.507  -1.475  1.00  0.00     0.010 A 
ATOM     30  C   UNL     1      10.454   2.957   0.185  1.00  0.00     0.010 A 
ATOM     31  C   UNL     1      10.134   2.674  -1.156  1.00  0.00    -0.014 A 
BRANCH  31  32
ATOM     32  C   UNL     1      10.619   3.503  -2.276  1.00  0.00     0.031 A 
ATOM     33  C   UNL     1      12.039   3.346  -2.733  1.00  0.00     0.074 A 
ATOM     34  C   UNL     1       9.758   4.277  -2.959  1.00  0.00     0.049 A 
ATOM     35  N   UNL     1      12.673   3.977  -3.686  1.00  0.00    -0.248 NA
ATOM     36  C   UNL     1      12.847   2.333  -2.034  1.00  0.00     0.031 C 
ATOM     37  C   UNL     1       8.327   4.403  -2.679  1.00  0.00     0.029 A 
ATOM     38  N   UNL     1       9.963   5.082  -4.048  1.00  0.00    -0.354 N 
ATOM     39  C   UNL     1      13.961   3.458  -3.684  1.00  0.00     0.074 A 
ATOM     40  C   UNL     1      14.019   2.459  -2.639  1.00  0.00     0.031 C 
ATOM     41  C   UNL     1       7.781   5.237  -3.579  1.00  0.00     0.029 A 
ATOM     42  C   UNL     1       8.829   5.734  -4.465  1.00  0.00     0.049 A 
ATOM     43  H   UNL     1      10.838   5.185  -4.487  1.00  0.00     0.167 HD
ATOM     44  C   UNL     1      15.003   3.793  -4.479  1.00  0.00     0.031 A 
ATOM     45  C   UNL     1       8.667   6.648  -5.438  1.00  0.00     0.031 A 
ATOM     46  C   UNL     1      14.938   4.788  -5.514  1.00  0.00     0.049 A 
ATOM     47  C   UNL     1       9.859   7.064  -6.252  1.00  0.00     0.074 A 
ATOM     48  C   UNL     1      15.947   5.237  -6.347  1.00  0.00     0.029 A 
ATOM     49  N   UNL     1      13.790   5.484  -5.860  1.00  0.00    -0.354 N 
ATOM     50  N   UNL     1      11.091   6.618  -6.198  1.00  0.00    -0.248 NA
ATOM     51  C   UNL     1       9.639   8.114  -7.255  1.00  0.00     0.031 C 
ATOM     52  C   UNL     1      15.415   6.232  -7.176  1.00  0.00     0.029 A 
ATOM     53  C   UNL     1      14.067   6.369  -6.886  1.00  0.00     0.049 A 
ATOM     54  H   UNL     1      12.908   5.365  -5.438  1.00  0.00     0.167 HD
ATOM     55  C   UNL     1      11.791   7.323  -7.167  1.00  0.00     0.074 A 
ATOM     56  C   UNL     1      10.841   8.212  -7.806  1.00  0.00     0.031 C 
ATOM     57  C   UNL     1      13.103   7.245  -7.499  1.00  0.00     0.031 A 
BRANCH  44  58
ATOM     58  C   UNL     1      16.313   3.116  -4.207  1.00  0.00    -0.014 A 
ATOM     59  C   UNL     1      16.549   1.790  -4.602  1.00  0.00     0.009 A 
ATOM     60  C   UNL     1      17.329   3.821  -3.543  1.00  0.00     0.009 A 
ATOM     61  C   UNL     1      17.769   1.175  -4.312  1.00  0.00     0.001 A 
ATOM     62  C   UNL     1      18.554   3.211  -3.272  1.00  0.00     0.001 A 
ATOM     63  C   UNL     1      18.770   1.886  -3.650  1.00  0.00     0.000 A 
ENDBRANCH  44  58
BRANCH  45  64
ATOM     64  C   UNL     1       7.335   7.263  -5.663  1.00  0.00    -0.014 A 
ATOM     65  C   UNL     1       6.592   6.966  -6.814  1.00  0.00     0.009 A 
ATOM     66  C   UNL     1       6.802   8.156  -4.720  1.00  0.00     0.009 A 
ATOM     67  C   UNL     1       5.347   7.565  -7.024  1.00  0.00     0.001 A 
ATOM     68  C   UNL     1       5.547   8.734  -4.921  1.00  0.00     0.001 A 
ATOM     69  C   UNL     1       4.824   8.444  -6.076  1.00  0.00     0.000 A 
ENDBRANCH  45  64
BRANCH  57  70
ATOM     70  C   UNL     1      13.571   8.128  -8.617  1.00  0.00    -0.014 A 
ATOM     71  C   UNL     1      13.773   9.502  -8.418  1.00  0.00     0.009 A 
ATOM     72  C   UNL     1      13.837   7.572  -9.877  1.00  0.00     0.009 A 
ATOM     73  C   UNL     1      14.203  10.309  -9.472  1.00  0.00     0.001 A 
ATOM     74  C   UNL     1      14.288   8.377 -10.923  1.00  0.00     0.001 A 
ATOM     75  C   UNL     1      14.463   9.746 -10.722  1.00  0.00     0.000 A 
ENDBRANCH  57  70
ENDBRANCH  31  32
ENDBRANCH  24  26
ENDBRANCH  23  24
ENDBRANCH  22  23
ENDBRANCH  21  22
ENDBRANCH   1  21
TORSDOF 16
