REMARK SMILES O=C(N/N=C\c1ccccc1C(=O)OCCOC(=O)c1ccc(-c2c3nc(c(-c4ccccc4)c4ccc([nH]4)c(-c4ccccc4)c4nc(c(-c5ccccc5)c5ccc2[nH]5)C=C4)C=C3)cc1)C(=O)N1CCCCC1
REMARK SMILES IDX 15 1 14 2 12 3 13 4 11 5 6 6 7 7 8 8 10 9 9 10 5 11 4 12
REMARK SMILES IDX 3 13 1 14 2 15 68 17 69 18 70 19 71 20 75 21 72 22 74 23
REMARK SMILES IDX 73 24 16 25 17 26 18 27 19 28 20 29 21 30 67 31 22 32 66 33
REMARK SMILES IDX 23 34 24 35 25 36 60 37 26 38 65 39 59 40 61 41 27 42 64 43
REMARK SMILES IDX 58 44 57 45 28 47 50 48 35 49 49 50 36 51 39 52 48 53 62 54
REMARK SMILES IDX 37 55 38 56 47 58 63 59 40 60 29 61 30 62 34 63 31 64 33 65
REMARK SMILES IDX 32 66 51 67 52 68 56 69 53 70 55 71 54 72 41 73 42 74 46 75
REMARK SMILES IDX 43 76 45 77 44 78
REMARK H PARENT 3 16 61 46 39 57
REMARK Flexibility Score: inf
ROOT
ATOM      1  C   UNL     1       3.708   3.616  -1.764  1.00  0.00     0.275 C 
ENDROOT
BRANCH   1   2
ATOM      2  O   UNL     1       4.249   2.313  -1.460  1.00  0.00    -0.458 OA
BRANCH   2   3
ATOM      3  C   UNL     1       3.312   1.352  -1.311  1.00  0.00     0.338 C 
ATOM      4  O   UNL     1       2.104   1.482  -1.404  1.00  0.00    -0.246 OA
BRANCH   3   5
ATOM      5  C   UNL     1       3.936   0.077  -0.949  1.00  0.00     0.068 A 
ATOM      6  C   UNL     1       4.219  -0.217   0.807  1.00  0.00     0.009 A 
ATOM      7  C   UNL     1       4.321  -1.940   1.483  1.00  0.00     0.010 A 
ATOM      8  C   UNL     1       4.075  -3.344   0.355  1.00  0.00     0.001 A 
ATOM      9  C   UNL     1       3.696  -1.323  -2.062  1.00  0.00     0.016 A 
ATOM     10  C   UNL     1       3.739  -3.044  -1.399  1.00  0.00     0.001 A 
BRANCH   6  11
ATOM     11  C   UNL     1       3.749   0.831   1.677  1.00  0.00     0.142 C 
ATOM     12  N   UNL     1       2.616   0.717   2.277  1.00  0.00    -0.180 NA
BRANCH  12  13
ATOM     13  N   UNL     1       1.888  -0.427   2.095  1.00  0.00    -0.239 N 
ATOM     14  O   UNL     1       1.477  -2.597   1.652  1.00  0.00    -0.262 OA
ATOM     15  C   UNL     1       2.104  -1.580   1.330  1.00  0.00     0.329 C 
ATOM     16  H   UNL     1       1.045  -0.443   2.603  1.00  0.00     0.194 HD
BRANCH  15  17
ATOM     17  C   UNL     1       3.030  -1.608  -0.086  1.00  0.00     0.313 C 
ATOM     18  O   UNL     1       2.007  -1.635  -0.867  1.00  0.00    -0.263 OA
ATOM     19  N   UNL     1       4.992  -1.657  -0.441  1.00  0.00    -0.334 N 
ATOM     20  C   UNL     1       5.915  -2.054  -1.834  1.00  0.00     0.120 C 
ATOM     21  C   UNL     1       6.365  -1.309   0.524  1.00  0.00     0.120 C 
ATOM     22  C   UNL     1       6.829  -3.269  -1.601  1.00  0.00     0.022 C 
ATOM     23  C   UNL     1       7.264  -2.535   0.737  1.00  0.00     0.022 C 
ATOM     24  C   UNL     1       7.891  -3.006  -0.557  1.00  0.00     0.004 C 
ENDBRANCH  15  17
ENDBRANCH  12  13
ENDBRANCH   6  11
ENDBRANCH   3   5
ENDBRANCH   2   3
ENDBRANCH   1   2
BRANCH   1  25
ATOM     25  C   UNL     1       3.582   3.879  -3.270  1.00  0.00     0.275 C 
BRANCH  25  26
ATOM     26  O   UNL     1       2.512   3.136  -3.884  1.00  0.00    -0.458 OA
BRANCH  26  27
ATOM     27  C   UNL     1       2.867   1.931  -4.383  1.00  0.00     0.338 C 
ATOM     28  O   UNL     1       3.977   1.423  -4.370  1.00  0.00    -0.246 OA
BRANCH  27  29
ATOM     29  C   UNL     1       1.701   1.239  -4.952  1.00  0.00     0.060 A 
ATOM     30  C   UNL     1       1.187   0.129  -4.280  1.00  0.00     0.016 A 
ATOM     31  C   UNL     1       1.250   1.560  -6.233  1.00  0.00     0.016 A 
ATOM     32  C   UNL     1       0.294  -0.725  -4.920  1.00  0.00     0.010 A 
ATOM     33  C   UNL     1       0.309   0.732  -6.854  1.00  0.00     0.010 A 
ATOM     34  C   UNL     1      -0.144  -0.440  -6.218  1.00  0.00    -0.014 A 
BRANCH  34  35
ATOM     35  C   UNL     1      -1.022  -1.391  -6.944  1.00  0.00     0.031 A 
ATOM     36  C   UNL     1      -0.506  -2.102  -8.163  1.00  0.00     0.074 A 
ATOM     37  C   UNL     1      -2.272  -1.641  -6.512  1.00  0.00     0.049 A 
ATOM     38  N   UNL     1      -1.168  -2.783  -9.065  1.00  0.00    -0.248 NA
ATOM     39  C   UNL     1       0.945  -2.036  -8.402  1.00  0.00     0.031 C 
ATOM     40  C   UNL     1      -2.880  -1.097  -5.298  1.00  0.00     0.029 A 
ATOM     41  N   UNL     1      -3.255  -2.428  -7.056  1.00  0.00    -0.354 N 
ATOM     42  C   UNL     1      -0.226  -3.174 -10.007  1.00  0.00     0.074 A 
ATOM     43  C   UNL     1       1.058  -2.679  -9.556  1.00  0.00     0.031 C 
ATOM     44  C   UNL     1      -4.127  -1.580  -5.179  1.00  0.00     0.029 A 
ATOM     45  C   UNL     1      -4.427  -2.408  -6.343  1.00  0.00     0.049 A 
ATOM     46  H   UNL     1      -3.132  -2.955  -7.879  1.00  0.00     0.167 HD
ATOM     47  C   UNL     1      -0.418  -3.869 -11.153  1.00  0.00     0.031 A 
ATOM     48  C   UNL     1      -5.625  -2.957  -6.616  1.00  0.00     0.031 A 
ATOM     49  C   UNL     1      -1.684  -4.395 -11.584  1.00  0.00     0.049 A 
ATOM     50  C   UNL     1      -5.825  -3.698  -7.905  1.00  0.00     0.074 A 
ATOM     51  C   UNL     1      -1.989  -5.069 -12.754  1.00  0.00     0.029 A 
ATOM     52  N   UNL     1      -2.852  -4.328 -10.843  1.00  0.00    -0.354 N 
ATOM     53  N   UNL     1      -4.958  -3.949  -8.854  1.00  0.00    -0.248 NA
ATOM     54  C   UNL     1      -7.180  -4.202  -8.173  1.00  0.00     0.031 C 
ATOM     55  C   UNL     1      -3.349  -5.404 -12.723  1.00  0.00     0.029 A 
ATOM     56  C   UNL     1      -3.880  -4.953 -11.526  1.00  0.00     0.049 A 
ATOM     57  H   UNL     1      -2.937  -3.900  -9.960  1.00  0.00     0.167 HD
ATOM     58  C   UNL     1      -5.663  -4.628  -9.838  1.00  0.00     0.074 A 
ATOM     59  C   UNL     1      -7.023  -4.771  -9.361  1.00  0.00     0.031 C 
ATOM     60  C   UNL     1      -5.224  -5.081 -11.036  1.00  0.00     0.031 A 
BRANCH  47  61
ATOM     61  C   UNL     1       0.769  -4.051 -12.048  1.00  0.00    -0.014 A 
ATOM     62  C   UNL     1       1.703  -5.071 -11.821  1.00  0.00     0.009 A 
ATOM     63  C   UNL     1       0.939  -3.197 -13.149  1.00  0.00     0.009 A 
ATOM     64  C   UNL     1       2.799  -5.221 -12.674  1.00  0.00     0.001 A 
ATOM     65  C   UNL     1       2.028  -3.358 -14.006  1.00  0.00     0.001 A 
ATOM     66  C   UNL     1       2.960  -4.367 -13.765  1.00  0.00     0.000 A 
ENDBRANCH  47  61
BRANCH  48  67
ATOM     67  C   UNL     1      -6.752  -2.758  -5.675  1.00  0.00    -0.014 A 
ATOM     68  C   UNL     1      -7.155  -3.794  -4.822  1.00  0.00     0.009 A 
ATOM     69  C   UNL     1      -7.417  -1.524  -5.617  1.00  0.00     0.009 A 
ATOM     70  C   UNL     1      -8.212  -3.599  -3.930  1.00  0.00     0.001 A 
ATOM     71  C   UNL     1      -8.461  -1.327  -4.713  1.00  0.00     0.001 A 
ATOM     72  C   UNL     1      -8.860  -2.365  -3.873  1.00  0.00     0.000 A 
ENDBRANCH  48  67
BRANCH  60  73
ATOM     73  C   UNL     1      -6.227  -5.773 -11.906  1.00  0.00    -0.014 A 
ATOM     74  C   UNL     1      -7.092  -5.031 -12.724  1.00  0.00     0.009 A 
ATOM     75  C   UNL     1      -6.289  -7.173 -11.931  1.00  0.00     0.009 A 
ATOM     76  C   UNL     1      -8.017  -5.682 -13.541  1.00  0.00     0.001 A 
ATOM     77  C   UNL     1      -7.208  -7.821 -12.756  1.00  0.00     0.001 A 
ATOM     78  C   UNL     1      -8.073  -7.076 -13.557  1.00  0.00     0.000 A 
ENDBRANCH  60  73
ENDBRANCH  34  35
ENDBRANCH  27  29
ENDBRANCH  26  27
ENDBRANCH  25  26
ENDBRANCH   1  25
TORSDOF 14
