REMARK SMILES O=C(OCCOC(=O)c1ccccc1C[NH2+]C1CCCC1)c1ccc(-c2c3nc(c(-c4ccccc4)c4ccc([nH]4)c(-c4ccccc4)c4nc(c(-c5ccccc5)c5ccc2[nH]5)C=C4)C=C3)cc1
REMARK SMILES IDX 5 1 4 2 3 3 2 4 1 5 22 6 23 7 69 8 24 9 68 10 25 11 26 12
REMARK SMILES IDX 27 13 62 14 28 15 67 16 61 17 63 18 29 19 66 20 60 21 59 22
REMARK SMILES IDX 30 24 52 25 37 26 51 27 38 28 41 29 50 30 64 31 39 32 40 33
REMARK SMILES IDX 49 35 65 36 42 37 31 38 32 39 36 40 33 41 35 42 34 43 53 44
REMARK SMILES IDX 54 45 58 46 55 47 57 48 56 49 43 50 44 51 48 52 45 53 47 54
REMARK SMILES IDX 46 55 6 56 7 57 8 58 9 59 10 60 14 61 11 62 13 63 12 64
REMARK SMILES IDX 15 65 16 66 17 69 18 70 21 71 19 72 20 73
REMARK H PARENT 63 23 41 34 16 67 16 68
REMARK Flexibility Score: inf
ROOT
ATOM      1  C   UNL     1       3.893  -1.078   1.706  1.00  0.00     0.275 C 
ENDROOT
BRANCH   1   2
ATOM      2  C   UNL     1       4.196   0.406   1.508  1.00  0.00     0.275 C 
BRANCH   2   3
ATOM      3  O   UNL     1       3.163   1.130   0.817  1.00  0.00    -0.458 OA
BRANCH   3   4
ATOM      4  C   UNL     1       2.908   1.279  -0.503  1.00  0.00     0.338 C 
ATOM      5  O   UNL     1       1.989   2.033  -0.829  1.00  0.00    -0.246 OA
BRANCH   4   6
ATOM      6  C   UNL     1       3.605   0.537  -1.609  1.00  0.00     0.060 A 
ATOM      7  C   UNL     1       4.847  -0.098  -1.537  1.00  0.00     0.016 A 
ATOM      8  C   UNL     1       2.922   0.485  -2.841  1.00  0.00     0.016 A 
ATOM      9  C   UNL     1       5.372  -0.799  -2.630  1.00  0.00     0.010 A 
ATOM     10  C   UNL     1       3.437  -0.216  -3.936  1.00  0.00     0.010 A 
ATOM     11  C   UNL     1       4.674  -0.859  -3.836  1.00  0.00    -0.014 A 
BRANCH  11  12
ATOM     12  C   UNL     1       5.300  -1.473  -5.027  1.00  0.00     0.031 A 
ATOM     13  C   UNL     1       5.937  -0.577  -6.036  1.00  0.00     0.074 A 
ATOM     14  C   UNL     1       5.327  -2.807  -5.192  1.00  0.00     0.049 A 
ATOM     15  N   UNL     1       6.550  -0.898  -7.143  1.00  0.00    -0.248 NA
ATOM     16  C   UNL     1       5.908   0.866  -5.748  1.00  0.00     0.031 C 
ATOM     17  C   UNL     1       4.829  -3.762  -4.219  1.00  0.00     0.029 A 
ATOM     18  N   UNL     1       5.771  -3.595  -6.223  1.00  0.00    -0.354 N 
ATOM     19  C   UNL     1       7.000   0.300  -7.673  1.00  0.00     0.074 A 
ATOM     20  C   UNL     1       6.551   1.358  -6.795  1.00  0.00     0.031 C 
ATOM     21  C   UNL     1       4.923  -5.006  -4.712  1.00  0.00     0.029 A 
ATOM     22  C   UNL     1       5.503  -4.934  -6.043  1.00  0.00     0.049 A 
ATOM     23  H   UNL     1       6.236  -3.239  -7.013  1.00  0.00     0.167 HD
ATOM     24  C   UNL     1       7.738   0.490  -8.789  1.00  0.00     0.031 A 
ATOM     25  C   UNL     1       5.693  -5.982  -6.864  1.00  0.00     0.031 A 
ATOM     26  C   UNL     1       8.133  -0.571  -9.671  1.00  0.00     0.049 A 
ATOM     27  C   UNL     1       6.384  -5.726  -8.171  1.00  0.00     0.074 A 
ATOM     28  C   UNL     1       8.876  -0.495 -10.834  1.00  0.00     0.029 A 
ATOM     29  N   UNL     1       7.792  -1.906  -9.497  1.00  0.00    -0.354 N 
ATOM     30  N   UNL     1       6.853  -4.593  -8.639  1.00  0.00    -0.248 NA
ATOM     31  C   UNL     1       6.600  -6.880  -9.051  1.00  0.00     0.031 C 
ATOM     32  C   UNL     1       8.927  -1.774 -11.398  1.00  0.00     0.029 A 
ATOM     33  C   UNL     1       8.269  -2.658 -10.556  1.00  0.00     0.049 A 
ATOM     34  H   UNL     1       7.285  -2.264  -8.733  1.00  0.00     0.167 HD
ATOM     35  C   UNL     1       7.453  -4.902  -9.849  1.00  0.00     0.074 A 
ATOM     36  C   UNL     1       7.294  -6.331 -10.039  1.00  0.00     0.031 C 
ATOM     37  C   UNL     1       8.086  -4.079 -10.719  1.00  0.00     0.031 A 
BRANCH  24  38
ATOM     38  C   UNL     1       8.099   1.907  -9.121  1.00  0.00    -0.014 A 
ATOM     39  C   UNL     1       9.038   2.619  -8.356  1.00  0.00     0.009 A 
ATOM     40  C   UNL     1       7.462   2.550 -10.191  1.00  0.00     0.009 A 
ATOM     41  C   UNL     1       9.300   3.962  -8.633  1.00  0.00     0.001 A 
ATOM     42  C   UNL     1       7.745   3.885 -10.481  1.00  0.00     0.001 A 
ATOM     43  C   UNL     1       8.654   4.593  -9.696  1.00  0.00     0.000 A 
ENDBRANCH  24  38
BRANCH  25  44
ATOM     44  C   UNL     1       5.217  -7.342  -6.486  1.00  0.00    -0.014 A 
ATOM     45  C   UNL     1       6.119  -8.384  -6.225  1.00  0.00     0.009 A 
ATOM     46  C   UNL     1       3.840  -7.609  -6.402  1.00  0.00     0.009 A 
ATOM     47  C   UNL     1       5.653  -9.669  -5.923  1.00  0.00     0.001 A 
ATOM     48  C   UNL     1       3.377  -8.887  -6.074  1.00  0.00     0.001 A 
ATOM     49  C   UNL     1       4.284  -9.919  -5.846  1.00  0.00     0.000 A 
ENDBRANCH  25  44
BRANCH  37  50
ATOM     50  C   UNL     1       8.674  -4.715 -11.943  1.00  0.00    -0.014 A 
ATOM     51  C   UNL     1       7.857  -5.161 -12.992  1.00  0.00     0.009 A 
ATOM     52  C   UNL     1      10.068  -4.816 -12.068  1.00  0.00     0.009 A 
ATOM     53  C   UNL     1       8.427  -5.720 -14.136  1.00  0.00     0.001 A 
ATOM     54  C   UNL     1      10.635  -5.347 -13.225  1.00  0.00     0.001 A 
ATOM     55  C   UNL     1       9.814  -5.805 -14.255  1.00  0.00     0.000 A 
ENDBRANCH  37  50
ENDBRANCH  11  12
ENDBRANCH   4   6
ENDBRANCH   3   4
ENDBRANCH   2   3
ENDBRANCH   1   2
BRANCH   1  56
ATOM     56  O   UNL     1       3.400  -1.702   0.514  1.00  0.00    -0.458 OA
BRANCH  56  57
ATOM     57  C   UNL     1       2.053  -1.883   0.456  1.00  0.00     0.338 C 
ATOM     58  O   UNL     1       1.243  -1.588   1.307  1.00  0.00    -0.246 OA
BRANCH  57  59
ATOM     59  C   UNL     1       1.686  -2.414  -0.879  1.00  0.00     0.068 A 
ATOM     60  C   UNL     1       0.686  -1.709  -1.571  1.00  0.00     0.016 A 
ATOM     61  C   UNL     1       2.299  -3.549  -1.449  1.00  0.00     0.021 A 
ATOM     62  C   UNL     1       0.320  -2.091  -2.860  1.00  0.00     0.001 A 
ATOM     63  C   UNL     1       1.867  -3.942  -2.731  1.00  0.00     0.010 A 
ATOM     64  C   UNL     1       0.911  -3.208  -3.438  1.00  0.00     0.001 A 
BRANCH  61  65
ATOM     65  C   UNL     1       3.461  -4.232  -0.748  1.00  0.00     0.298 C 
BRANCH  65  66
ATOM     66  N   UNL     1       3.818  -5.548  -1.286  1.00  0.00    -0.340 N 
ATOM     67  H   UNL     1       3.956  -5.465  -2.293  1.00  0.00     0.346 HD
ATOM     68  H   UNL     1       3.060  -6.194  -1.069  1.00  0.00     0.346 HD
BRANCH  66  69
ATOM     69  C   UNL     1       5.044  -6.072  -0.684  1.00  0.00     0.182 C 
ATOM     70  C   UNL     1       5.348  -7.485  -1.180  1.00  0.00     0.065 C 
ATOM     71  C   UNL     1       6.330  -5.328  -1.059  1.00  0.00     0.065 C 
ATOM     72  C   UNL     1       6.793  -7.707  -0.749  1.00  0.00     0.006 C 
ATOM     73  C   UNL     1       7.454  -6.329  -0.796  1.00  0.00     0.006 C 
ENDBRANCH  66  69
ENDBRANCH  65  66
ENDBRANCH  61  65
ENDBRANCH  57  59
ENDBRANCH  56  57
ENDBRANCH   1  56
TORSDOF 14
