REMARK SMILES Cc1ccc(C[C@@H](Cc2cc(F)cc(Br)c2)C(=O)OCCOC(=O)c2ccc(-c3c4nc(c(-c5ccccc5)c5ccc([nH]5)c(-c5ccccc5)c5nc(c(-c6ccccc6)c6ccc3[nH]6)C=C5)C=C4)cc2)cc1
REMARK SMILES IDX 20 1 19 2 17 3 18 4 7 5 6 6 5 7 1 8 2 9 3 10 74 11 4 12
REMARK SMILES IDX 73 13 8 14 9 15 10 16 16 17 11 18 14 19 12 20 13 21 15 22
REMARK SMILES IDX 21 23 22 24 23 25 24 26 25 27 26 28 72 29 27 30 71 31 28 32
REMARK SMILES IDX 29 33 30 34 65 35 31 36 70 37 64 38 66 39 32 40 69 41 63 42
REMARK SMILES IDX 62 43 33 45 55 46 40 47 54 48 41 49 44 50 53 51 67 52 42 53
REMARK SMILES IDX 43 54 52 56 68 57 45 58 34 59 35 60 39 61 36 62 38 63 37 64
REMARK SMILES IDX 56 65 57 66 61 67 58 68 60 69 59 70 46 71 47 72 51 73 48 74
REMARK SMILES IDX 50 75 49 76
REMARK H PARENT 66 44 44 55
REMARK Flexibility Score: inf
ROOT
ATOM      1  C   UNL     1      -8.590   0.286  -0.785  1.00  0.00     0.274 C 
ENDROOT
BRANCH   1   2
ATOM      2  O   UNL     1      -7.463  -0.570  -0.847  1.00  0.00    -0.462 OA
BRANCH   2   3
ATOM      3  C   UNL     1      -6.301  -0.089  -1.578  1.00  0.00     0.309 C 
ATOM      4  O   UNL     1      -6.804   0.625  -2.501  1.00  0.00    -0.252 OA
BRANCH   3   5
ATOM      5  C   UNL     1      -4.253  -0.661  -1.085  1.00  0.00     0.108 C 
BRANCH   5   6
ATOM      6  C   UNL     1      -3.118  -0.140   0.212  1.00  0.00     0.051 C 
BRANCH   6   7
ATOM      7  C   UNL     1      -1.586  -0.153   0.001  1.00  0.00    -0.047 A 
ATOM      8  C   UNL     1       2.772   0.084  -0.066  1.00  0.00     0.044 C 
ATOM      9  C   UNL     1       1.272   0.010  -0.053  1.00  0.00    -0.051 A 
ATOM     10  C   UNL     1       0.629  -1.222   0.063  1.00  0.00     0.004 A 
ATOM     11  C   UNL     1       0.483   1.158  -0.150  1.00  0.00     0.004 A 
ATOM     12  C   UNL     1      -0.774  -1.300   0.112  1.00  0.00     0.004 A 
ATOM     13  C   UNL     1      -0.920   1.076  -0.133  1.00  0.00     0.004 A 
ENDBRANCH   6   7
ENDBRANCH   5   6
BRANCH   5  14
ATOM     14  C   UNL     1      -3.606  -2.355  -0.919  1.00  0.00     0.051 C 
BRANCH  14  15
ATOM     15  C   UNL     1      -4.476  -3.574  -1.159  1.00  0.00    -0.043 A 
ATOM     16  C   UNL     1      -4.215  -4.206  -2.828  1.00  0.00     0.043 A 
ATOM     17  C   UNL     1      -6.096  -3.949  -0.277  1.00  0.00     0.019 A 
ATOM     18  C   UNL     1      -5.470  -5.179  -3.602  1.00  0.00     0.124 A 
ATOM     19  C   UNL     1      -7.305  -5.016  -1.055  1.00  0.00     0.021 A 
ATOM     20  F   UNL     1      -5.111  -5.772  -4.745  1.00  0.00    -0.207 F 
ATOM     21  C   UNL     1      -6.974  -5.644  -2.705  1.00  0.00     0.055 A 
ATOM     22  Br  UNL     1      -8.955  -5.273  -0.161  1.00  0.00    -0.051 Br
ENDBRANCH  14  15
ENDBRANCH   5  14
ENDBRANCH   3   5
ENDBRANCH   2   3
ENDBRANCH   1   2
BRANCH   1  23
ATOM     23  C   UNL     1      -8.222   1.528   0.036  1.00  0.00     0.275 C 
BRANCH  23  24
ATOM     24  O   UNL     1      -7.296   2.540  -0.540  1.00  0.00    -0.458 OA
BRANCH  24  25
ATOM     25  C   UNL     1      -5.949   2.655  -0.795  1.00  0.00     0.338 C 
ATOM     26  O   UNL     1      -5.443   3.736  -1.069  1.00  0.00    -0.246 OA
BRANCH  25  27
ATOM     27  C   UNL     1      -5.078   1.425  -0.876  1.00  0.00     0.060 A 
ATOM     28  C   UNL     1      -4.685   0.879  -2.541  1.00  0.00     0.016 A 
ATOM     29  C   UNL     1      -5.543   0.269   0.358  1.00  0.00     0.016 A 
ATOM     30  C   UNL     1      -5.051  -0.834  -3.042  1.00  0.00     0.010 A 
ATOM     31  C   UNL     1      -5.799  -1.432  -0.071  1.00  0.00     0.010 A 
ATOM     32  C   UNL     1      -5.750  -1.985  -1.848  1.00  0.00    -0.014 A 
BRANCH  32  33
ATOM     33  C   UNL     1      -6.235  -3.611  -2.319  1.00  0.00     0.031 A 
ATOM     34  C   UNL     1      -5.315  -5.364  -1.470  1.00  0.00     0.074 A 
ATOM     35  C   UNL     1      -7.414  -3.247  -3.107  1.00  0.00     0.049 A 
ATOM     36  N   UNL     1      -5.022  -6.595  -1.966  1.00  0.00    -0.248 NA
ATOM     37  C   UNL     1      -4.592  -5.627   0.054  1.00  0.00     0.031 C 
ATOM     38  C   UNL     1      -8.698  -3.984  -3.433  1.00  0.00     0.029 A 
ATOM     39  N   UNL     1      -7.362  -2.397  -4.244  1.00  0.00    -0.354 N 
ATOM     40  C   UNL     1      -4.895  -7.558  -1.006  1.00  0.00     0.074 A 
ATOM     41  C   UNL     1      -4.348  -6.921   0.137  1.00  0.00     0.031 C 
ATOM     42  C   UNL     1      -8.994  -3.915  -4.732  1.00  0.00     0.029 A 
ATOM     43  C   UNL     1      -8.032  -3.046  -5.319  1.00  0.00     0.049 A 
ATOM     44  H   UNL     1      -6.936  -1.510  -4.282  1.00  0.00     0.167 HD
ATOM     45  C   UNL     1      -5.514  -8.757  -1.194  1.00  0.00     0.031 A 
ATOM     46  C   UNL     1      -7.575  -3.184  -6.584  1.00  0.00     0.031 A 
ATOM     47  C   UNL     1      -6.303  -8.804  -2.460  1.00  0.00     0.049 A 
ATOM     48  C   UNL     1      -7.289  -4.653  -6.926  1.00  0.00     0.074 A 
ATOM     49  C   UNL     1      -7.671  -8.861  -2.702  1.00  0.00     0.029 A 
ATOM     50  N   UNL     1      -5.734  -8.463  -3.700  1.00  0.00    -0.354 N 
ATOM     51  N   UNL     1      -7.266  -5.659  -6.066  1.00  0.00    -0.248 NA
ATOM     52  C   UNL     1      -7.051  -5.106  -8.296  1.00  0.00     0.031 C 
ATOM     53  C   UNL     1      -7.916  -8.541  -4.074  1.00  0.00     0.029 A 
ATOM     54  C   UNL     1      -6.708  -8.255  -4.689  1.00  0.00     0.049 A 
ATOM     55  H   UNL     1      -4.766  -8.380  -3.856  1.00  0.00     0.167 HD
ATOM     56  C   UNL     1      -6.799  -6.803  -6.702  1.00  0.00     0.074 A 
ATOM     57  C   UNL     1      -6.819  -6.416  -8.108  1.00  0.00     0.031 C 
ATOM     58  C   UNL     1      -6.345  -7.961  -6.093  1.00  0.00     0.031 A 
BRANCH  45  59
ATOM     59  C   UNL     1      -5.684  -9.743  -0.043  1.00  0.00    -0.014 A 
ATOM     60  C   UNL     1      -6.649 -10.756  -0.139  1.00  0.00     0.009 A 
ATOM     61  C   UNL     1      -4.949  -9.737   1.163  1.00  0.00     0.009 A 
ATOM     62  C   UNL     1      -6.904 -11.649   0.913  1.00  0.00     0.001 A 
ATOM     63  C   UNL     1      -5.222 -10.595   2.237  1.00  0.00     0.001 A 
ATOM     64  C   UNL     1      -6.204 -11.559   2.108  1.00  0.00     0.000 A 
ENDBRANCH  45  59
BRANCH  46  65
ATOM     65  C   UNL     1      -6.974  -1.886  -7.024  1.00  0.00    -0.014 A 
ATOM     66  C   UNL     1      -7.890  -0.793  -7.021  1.00  0.00     0.009 A 
ATOM     67  C   UNL     1      -5.626  -1.608  -6.786  1.00  0.00     0.009 A 
ATOM     68  C   UNL     1      -7.527   0.442  -6.473  1.00  0.00     0.001 A 
ATOM     69  C   UNL     1      -5.252  -0.328  -6.336  1.00  0.00     0.001 A 
ATOM     70  C   UNL     1      -6.214   0.655  -6.084  1.00  0.00     0.000 A 
ENDBRANCH  46  65
BRANCH  58  71
ATOM     71  C   UNL     1      -5.519  -9.034  -6.814  1.00  0.00    -0.014 A 
ATOM     72  C   UNL     1      -4.897  -8.873  -8.060  1.00  0.00     0.009 A 
ATOM     73  C   UNL     1      -5.264 -10.269  -6.168  1.00  0.00     0.009 A 
ATOM     74  C   UNL     1      -4.189  -9.915  -8.679  1.00  0.00     0.001 A 
ATOM     75  C   UNL     1      -4.487 -11.281  -6.740  1.00  0.00     0.001 A 
ATOM     76  C   UNL     1      -3.983 -11.118  -8.018  1.00  0.00     0.000 A 
ENDBRANCH  58  71
ENDBRANCH  32  33
ENDBRANCH  25  27
ENDBRANCH  24  25
ENDBRANCH  23  24
ENDBRANCH   1  23
TORSDOF 15
