REMARK SMILES Cc1ccc(NC(=O)C[C@H]2SC[C@H](C(=O)OCCOC(=O)c3ccc(-c4c5nc(c(-c6ccccc6)c6ccc([nH]6)c(-c6ccccc6)c6nc(c(-c7ccccc7)c7ccc4[nH]7)C=C6)C=C5)cc3)NC2=O)cc1
REMARK SMILES IDX 17 1 16 2 14 3 15 4 13 5 10 6 11 7 71 8 12 9 70 10 72 11
REMARK SMILES IDX 9 13 7 14 6 15 8 17 5 18 1 19 2 20 3 21 74 22 4 23 73 24
REMARK SMILES IDX 18 25 19 26 20 27 21 28 22 29 23 30 69 31 24 32 68 33 25 34
REMARK SMILES IDX 26 35 27 36 62 37 28 38 67 39 61 40 63 41 29 42 66 43 60 44
REMARK SMILES IDX 59 45 30 47 52 48 37 49 51 50 38 51 41 52 50 53 64 54 39 55
REMARK SMILES IDX 40 56 49 58 65 59 42 60 31 61 32 62 36 63 33 64 35 65 34 66
REMARK SMILES IDX 53 67 54 68 58 69 55 70 57 71 56 72 43 73 44 74 48 75 45 76
REMARK SMILES IDX 47 77 46 78
REMARK H PARENT 70 12 6 16 63 46 41 57
REMARK Flexibility Score: inf
ROOT
ATOM      1  C   UNL     1      -8.239  -2.913  -3.087  1.00  0.00     0.274 C 
ENDROOT
BRANCH   1   2
ATOM      2  O   UNL     1      -6.911  -2.388  -3.087  1.00  0.00    -0.461 OA
BRANCH   2   3
ATOM      3  C   UNL     1      -6.106  -2.899  -2.110  1.00  0.00     0.329 C 
ATOM      4  O   UNL     1      -6.491  -3.546  -1.159  1.00  0.00    -0.250 OA
BRANCH   3   5
ATOM      5  C   UNL     1      -4.651  -2.543  -2.412  1.00  0.00     0.202 C 
ATOM      6  C   UNL     1      -1.864  -2.222  -1.312  1.00  0.00     0.145 C 
ATOM      7  S   UNL     1      -2.616  -0.728  -2.083  1.00  0.00    -0.145 SA
ATOM      8  C   UNL     1      -2.388  -3.494  -1.987  1.00  0.00     0.234 C 
ATOM      9  C   UNL     1      -4.353  -1.184  -1.803  1.00  0.00     0.107 C 
ATOM     10  N   UNL     1      -3.755  -3.632  -2.014  1.00  0.00    -0.341 N 
ATOM     11  O   UNL     1      -1.703  -4.427  -2.389  1.00  0.00    -0.274 OA
ATOM     12  H   UNL     1      -4.149  -4.497  -1.756  1.00  0.00     0.164 HD
BRANCH   6  13
ATOM     13  C   UNL     1      -0.355  -2.037  -1.175  1.00  0.00     0.124 C 
BRANCH  13  14
ATOM     14  C   UNL     1       0.539  -3.259  -1.153  1.00  0.00     0.226 C 
ATOM     15  N   UNL     1       0.341  -4.338  -0.354  1.00  0.00    -0.326 N 
ATOM     16  H   UNL     1       0.961  -5.077  -0.547  1.00  0.00     0.169 HD
ATOM     17  O   UNL     1       1.526  -3.289  -1.899  1.00  0.00    -0.275 OA
BRANCH  15  18
ATOM     18  C   UNL     1      -0.551  -4.631   0.684  1.00  0.00     0.041 A 
ATOM     19  C   UNL     1      -3.331  -5.833   3.754  1.00  0.00     0.044 C 
ATOM     20  C   UNL     1      -2.356  -5.427   2.693  1.00  0.00    -0.051 A 
ATOM     21  C   UNL     1      -2.059  -4.074   2.493  1.00  0.00     0.005 A 
ATOM     22  C   UNL     1      -1.732  -6.383   1.889  1.00  0.00     0.005 A 
ATOM     23  C   UNL     1      -1.146  -3.681   1.508  1.00  0.00     0.026 A 
ATOM     24  C   UNL     1      -0.826  -5.986   0.904  1.00  0.00     0.026 A 
ENDBRANCH  15  18
ENDBRANCH  13  14
ENDBRANCH   6  13
ENDBRANCH   3   5
ENDBRANCH   2   3
ENDBRANCH   1   2
BRANCH   1  25
ATOM     25  C   UNL     1      -8.941  -2.573  -4.407  1.00  0.00     0.275 C 
BRANCH  25  26
ATOM     26  O   UNL     1      -8.245  -2.718  -5.684  1.00  0.00    -0.458 OA
BRANCH  26  27
ATOM     27  C   UNL     1      -6.969  -3.140  -5.862  1.00  0.00     0.338 C 
ATOM     28  O   UNL     1      -6.134  -2.492  -6.475  1.00  0.00    -0.246 OA
BRANCH  27  29
ATOM     29  C   UNL     1      -6.658  -4.476  -5.312  1.00  0.00     0.060 A 
ATOM     30  C   UNL     1      -5.331  -4.802  -4.978  1.00  0.00     0.016 A 
ATOM     31  C   UNL     1      -7.693  -5.357  -5.028  1.00  0.00     0.016 A 
ATOM     32  C   UNL     1      -5.064  -5.934  -4.202  1.00  0.00     0.010 A 
ATOM     33  C   UNL     1      -7.439  -6.431  -4.205  1.00  0.00     0.010 A 
ATOM     34  C   UNL     1      -6.135  -6.709  -3.761  1.00  0.00    -0.014 A 
BRANCH  34  35
ATOM     35  C   UNL     1      -6.019  -7.932  -2.973  1.00  0.00     0.031 A 
ATOM     36  C   UNL     1      -5.749  -7.978  -1.520  1.00  0.00     0.074 A 
ATOM     37  C   UNL     1      -6.337  -9.055  -3.650  1.00  0.00     0.049 A 
ATOM     38  N   UNL     1      -5.425  -9.058  -0.889  1.00  0.00    -0.248 NA
ATOM     39  C   UNL     1      -5.785  -6.812  -0.647  1.00  0.00     0.031 C 
ATOM     40  C   UNL     1      -6.685 -10.372  -3.148  1.00  0.00     0.029 A 
ATOM     41  N   UNL     1      -6.184  -9.239  -5.027  1.00  0.00    -0.354 N 
ATOM     42  C   UNL     1      -5.495  -8.802   0.463  1.00  0.00     0.074 A 
ATOM     43  C   UNL     1      -5.625  -7.368   0.561  1.00  0.00     0.031 C 
ATOM     44  C   UNL     1      -6.435 -11.267  -4.121  1.00  0.00     0.029 A 
ATOM     45  C   UNL     1      -5.726 -10.549  -5.175  1.00  0.00     0.049 A 
ATOM     46  H   UNL     1      -6.362  -8.584  -5.741  1.00  0.00     0.167 HD
ATOM     47  C   UNL     1      -5.566  -9.848   1.335  1.00  0.00     0.031 A 
ATOM     48  C   UNL     1      -4.458 -10.825  -5.605  1.00  0.00     0.031 A 
ATOM     49  C   UNL     1      -5.438 -11.128   0.644  1.00  0.00     0.049 A 
ATOM     50  C   UNL     1      -3.693 -11.704  -4.641  1.00  0.00     0.074 A 
ATOM     51  C   UNL     1      -6.349 -12.092   0.248  1.00  0.00     0.029 A 
ATOM     52  N   UNL     1      -4.246 -11.427   0.009  1.00  0.00    -0.354 N 
ATOM     53  N   UNL     1      -3.975 -11.817  -3.373  1.00  0.00    -0.248 NA
ATOM     54  C   UNL     1      -2.496 -12.449  -5.016  1.00  0.00     0.031 C 
ATOM     55  C   UNL     1      -5.686 -12.978  -0.645  1.00  0.00     0.029 A 
ATOM     56  C   UNL     1      -4.374 -12.559  -0.766  1.00  0.00     0.049 A 
ATOM     57  H   UNL     1      -3.417 -10.902   0.099  1.00  0.00     0.167 HD
ATOM     58  C   UNL     1      -3.091 -12.680  -2.787  1.00  0.00     0.074 A 
ATOM     59  C   UNL     1      -2.145 -12.998  -3.841  1.00  0.00     0.031 C 
ATOM     60  C   UNL     1      -3.215 -13.061  -1.483  1.00  0.00     0.031 A 
BRANCH  47  61
ATOM     61  C   UNL     1      -5.954  -9.768   2.796  1.00  0.00    -0.014 A 
ATOM     62  C   UNL     1      -6.442 -10.921   3.447  1.00  0.00     0.009 A 
ATOM     63  C   UNL     1      -5.894  -8.609   3.583  1.00  0.00     0.009 A 
ATOM     64  C   UNL     1      -6.897 -10.902   4.774  1.00  0.00     0.001 A 
ATOM     65  C   UNL     1      -6.353  -8.578   4.911  1.00  0.00     0.001 A 
ATOM     66  C   UNL     1      -6.865  -9.723   5.503  1.00  0.00     0.000 A 
ENDBRANCH  47  61
BRANCH  48  67
ATOM     67  C   UNL     1      -3.802  -9.738  -6.399  1.00  0.00    -0.014 A 
ATOM     68  C   UNL     1      -4.394  -9.301  -7.602  1.00  0.00     0.009 A 
ATOM     69  C   UNL     1      -2.807  -8.935  -5.820  1.00  0.00     0.009 A 
ATOM     70  C   UNL     1      -4.061  -8.061  -8.158  1.00  0.00     0.001 A 
ATOM     71  C   UNL     1      -2.461  -7.704  -6.391  1.00  0.00     0.001 A 
ATOM     72  C   UNL     1      -3.105  -7.257  -7.544  1.00  0.00     0.000 A 
ENDBRANCH  48  67
BRANCH  60  73
ATOM     73  C   UNL     1      -2.258 -13.950  -0.741  1.00  0.00    -0.014 A 
ATOM     74  C   UNL     1      -1.567 -15.016  -1.326  1.00  0.00     0.009 A 
ATOM     75  C   UNL     1      -2.103 -13.775   0.653  1.00  0.00     0.009 A 
ATOM     76  C   UNL     1      -0.700 -15.816  -0.569  1.00  0.00     0.001 A 
ATOM     77  C   UNL     1      -1.264 -14.586   1.416  1.00  0.00     0.001 A 
ATOM     78  C   UNL     1      -0.546 -15.599   0.799  1.00  0.00     0.000 A 
ENDBRANCH  60  73
ENDBRANCH  34  35
ENDBRANCH  27  29
ENDBRANCH  26  27
ENDBRANCH  25  26
ENDBRANCH   1  25
TORSDOF 14
