REMARK SMILES Cc1cc(C(=O)N[C@@H]2CC2(C)C)sc1/C=C/C(=O)OCCOC(=O)c1ccc(-c2c3nc(c(-c4ccccc4)c4ccc([nH]4)c(-c4ccccc4)c4nc(c(-c5ccccc5)c5ccc2[nH]5)C=C4)C=C3)cc1
REMARK SMILES IDX 20 1 19 2 17 3 18 4 16 5 15 6 14 7 1 8 2 9 3 10 4 11 13 12
REMARK SMILES IDX 5 13 6 14 7 15 8 17 9 18 10 19 11 20 12 21 21 22 22 23 23 24
REMARK SMILES IDX 24 25 25 26 26 27 72 28 27 29 71 30 28 31 29 32 30 33 65 34
REMARK SMILES IDX 31 35 70 36 64 37 66 38 32 39 69 40 63 41 62 42 33 44 55 45
REMARK SMILES IDX 40 46 54 47 41 48 44 49 53 50 67 51 42 52 43 53 52 55 68 56
REMARK SMILES IDX 45 57 34 58 35 59 39 60 36 61 38 62 37 63 56 64 57 65 61 66
REMARK SMILES IDX 58 67 60 68 59 69 46 70 47 71 51 72 48 73 50 74 49 75
REMARK H PARENT 7 16 66 43 44 54
REMARK Flexibility Score: inf
ROOT
ATOM      1  C   UNL     1     -12.454  -1.877   0.289  1.00  0.00     0.275 C 
ENDROOT
BRANCH   1   2
ATOM      2  O   UNL     1     -11.067  -2.259   0.275  1.00  0.00    -0.459 OA
BRANCH   2   3
ATOM      3  C   UNL     1     -10.247  -1.443  -0.423  1.00  0.00     0.330 C 
ATOM      4  O   UNL     1     -10.586  -0.486  -1.105  1.00  0.00    -0.247 OA
BRANCH   3   5
ATOM      5  C   UNL     1      -8.825  -1.773  -0.240  1.00  0.00     0.095 C 
ATOM      6  C   UNL     1      -8.318  -2.754   0.525  1.00  0.00     0.027 C 
BRANCH   6   7
ATOM      7  C   UNL     1      -6.903  -2.894   0.584  1.00  0.00     0.031 A 
ATOM      8  C   UNL     1      -6.517  -5.297  -0.242  1.00  0.00     0.046 C 
ATOM      9  C   UNL     1      -6.080  -3.933   0.179  1.00  0.00    -0.032 A 
ATOM     10  C   UNL     1      -4.717  -3.480   0.107  1.00  0.00     0.029 A 
ATOM     11  C   UNL     1      -4.551  -2.155   0.488  1.00  0.00     0.093 A 
ATOM     12  S   UNL     1      -5.947  -1.659   1.313  1.00  0.00    -0.130 S 
BRANCH  11  13
ATOM     13  C   UNL     1      -3.317  -1.402   0.382  1.00  0.00     0.261 C 
ATOM     14  O   UNL     1      -2.231  -2.000   0.381  1.00  0.00    -0.268 OA
ATOM     15  N   UNL     1      -3.183  -0.043   0.183  1.00  0.00    -0.348 N 
ATOM     16  H   UNL     1      -2.225   0.168   0.101  1.00  0.00     0.164 HD
BRANCH  15  17
ATOM     17  C   UNL     1      -3.926   1.170   0.053  1.00  0.00     0.088 C 
ATOM     18  C   UNL     1      -5.291   1.516   0.539  1.00  0.00     0.034 C 
ATOM     19  C   UNL     1      -5.020   1.491  -0.951  1.00  0.00    -0.013 C 
ATOM     20  C   UNL     1      -5.023   2.841  -1.631  1.00  0.00     0.013 C 
ATOM     21  C   UNL     1      -5.610   0.410  -1.812  1.00  0.00     0.013 C 
ENDBRANCH  15  17
ENDBRANCH  11  13
ENDBRANCH   6   7
ENDBRANCH   3   5
ENDBRANCH   2   3
ENDBRANCH   1   2
BRANCH   1  22
ATOM     22  C   UNL     1     -12.803  -1.114   1.571  1.00  0.00     0.275 C 
BRANCH  22  23
ATOM     23  O   UNL     1     -12.251   0.217   1.576  1.00  0.00    -0.458 OA
BRANCH  23  24
ATOM     24  C   UNL     1     -11.017   0.333   2.118  1.00  0.00     0.338 C 
ATOM     25  O   UNL     1     -10.342  -0.555   2.619  1.00  0.00    -0.246 OA
BRANCH  24  26
ATOM     26  C   UNL     1     -10.515   1.704   1.929  1.00  0.00     0.060 A 
ATOM     27  C   UNL     1      -9.290   1.880   1.279  1.00  0.00     0.016 A 
ATOM     28  C   UNL     1     -11.207   2.802   2.448  1.00  0.00     0.016 A 
ATOM     29  C   UNL     1      -8.747   3.157   1.151  1.00  0.00     0.010 A 
ATOM     30  C   UNL     1     -10.658   4.083   2.320  1.00  0.00     0.010 A 
ATOM     31  C   UNL     1      -9.419   4.266   1.684  1.00  0.00    -0.014 A 
BRANCH  31  32
ATOM     32  C   UNL     1      -8.802   5.612   1.605  1.00  0.00     0.031 A 
ATOM     33  C   UNL     1      -8.176   6.228   2.824  1.00  0.00     0.074 A 
ATOM     34  C   UNL     1      -8.791   6.278   0.435  1.00  0.00     0.049 A 
ATOM     35  N   UNL     1      -7.611   7.401   2.960  1.00  0.00    -0.248 NA
ATOM     36  C   UNL     1      -8.187   5.417   4.051  1.00  0.00     0.031 C 
ATOM     37  C   UNL     1      -9.339   5.779  -0.826  1.00  0.00     0.029 A 
ATOM     38  N   UNL     1      -8.300   7.521   0.121  1.00  0.00    -0.354 N 
ATOM     39  C   UNL     1      -7.207   7.475   4.287  1.00  0.00     0.074 A 
ATOM     40  C   UNL     1      -7.614   6.238   4.921  1.00  0.00     0.031 C 
ATOM     41  C   UNL     1      -9.152   6.707  -1.779  1.00  0.00     0.029 A 
ATOM     42  C   UNL     1      -8.507   7.876  -1.189  1.00  0.00     0.049 A 
ATOM     43  H   UNL     1      -7.845   8.101   0.773  1.00  0.00     0.167 HD
ATOM     44  C   UNL     1      -6.552   8.478   4.920  1.00  0.00     0.031 A 
ATOM     45  C   UNL     1      -8.225   9.022  -1.836  1.00  0.00     0.031 A 
ATOM     46  C   UNL     1      -6.157   9.713   4.296  1.00  0.00     0.049 A 
ATOM     47  C   UNL     1      -7.559  10.147  -1.095  1.00  0.00     0.074 A 
ATOM     48  C   UNL     1      -5.474  10.782   4.853  1.00  0.00     0.029 A 
ATOM     49  N   UNL     1      -6.416  10.049   2.977  1.00  0.00    -0.354 N 
ATOM     50  N   UNL     1      -7.159  10.192   0.153  1.00  0.00    -0.248 NA
ATOM     51  C   UNL     1      -7.300  11.379  -1.855  1.00  0.00     0.031 C 
ATOM     52  C   UNL     1      -5.364  11.784   3.883  1.00  0.00     0.029 A 
ATOM     53  C   UNL     1      -5.930  11.318   2.708  1.00  0.00     0.049 A 
ATOM     54  H   UNL     1      -6.878   9.472   2.326  1.00  0.00     0.167 HD
ATOM     55  C   UNL     1      -6.582  11.444   0.321  1.00  0.00     0.074 A 
ATOM     56  C   UNL     1      -6.669  12.122  -0.956  1.00  0.00     0.031 C 
ATOM     57  C   UNL     1      -6.027  11.983   1.434  1.00  0.00     0.031 A 
BRANCH  44  58
ATOM     58  C   UNL     1      -6.246   8.289   6.379  1.00  0.00    -0.014 A 
ATOM     59  C   UNL     1      -5.249   7.398   6.805  1.00  0.00     0.009 A 
ATOM     60  C   UNL     1      -6.943   9.040   7.339  1.00  0.00     0.009 A 
ATOM     61  C   UNL     1      -4.978   7.238   8.166  1.00  0.00     0.001 A 
ATOM     62  C   UNL     1      -6.653   8.896   8.697  1.00  0.00     0.001 A 
ATOM     63  C   UNL     1      -5.678   7.990   9.110  1.00  0.00     0.000 A 
ENDBRANCH  44  58
BRANCH  45  64
ATOM     64  C   UNL     1      -8.591   9.173  -3.268  1.00  0.00    -0.014 A 
ATOM     65  C   UNL     1      -7.600   9.206  -4.260  1.00  0.00     0.009 A 
ATOM     66  C   UNL     1      -9.937   9.292  -3.648  1.00  0.00     0.009 A 
ATOM     67  C   UNL     1      -7.949   9.376  -5.602  1.00  0.00     0.001 A 
ATOM     68  C   UNL     1     -10.285   9.434  -4.992  1.00  0.00     0.001 A 
ATOM     69  C   UNL     1      -9.290   9.485  -5.967  1.00  0.00     0.000 A 
ENDBRANCH  45  64
BRANCH  57  70
ATOM     70  C   UNL     1      -5.444  13.362   1.312  1.00  0.00    -0.014 A 
ATOM     71  C   UNL     1      -6.266  14.495   1.215  1.00  0.00     0.009 A 
ATOM     72  C   UNL     1      -4.051  13.531   1.329  1.00  0.00     0.009 A 
ATOM     73  C   UNL     1      -5.703  15.768   1.107  1.00  0.00     0.001 A 
ATOM     74  C   UNL     1      -3.491  14.807   1.247  1.00  0.00     0.001 A 
ATOM     75  C   UNL     1      -4.317  15.924   1.127  1.00  0.00     0.000 A 
ENDBRANCH  57  70
ENDBRANCH  31  32
ENDBRANCH  24  26
ENDBRANCH  23  24
ENDBRANCH  22  23
ENDBRANCH   1  22
TORSDOF 14
