REMARK SMILES CC(=O)Nc1cnc(N2CC=C(c3ccccc3C)CC2)c(C(=O)OCCOC(=O)c2ccc(-c3c4nc(c(-c5ccccc5)c5ccc([nH]5)c(-c5ccccc5)c5nc(c(-c6ccccc6)c6ccc3[nH]6)C=C5)C=C4)cc2)c1
REMARK SMILES IDX 26 1 25 2 23 3 24 4 22 5 5 6 6 7 79 8 7 9 8 10 4 11 1 12
REMARK SMILES IDX 2 13 3 14 9 16 10 17 21 18 11 19 20 20 12 21 13 22 14 23
REMARK SMILES IDX 18 24 15 25 17 26 19 27 16 28 27 29 28 30 29 31 30 32 31 33
REMARK SMILES IDX 32 34 78 35 33 36 77 37 34 38 35 39 36 40 71 41 37 42 76 43
REMARK SMILES IDX 70 44 72 45 38 46 75 47 69 48 68 49 39 51 61 52 46 53 60 54
REMARK SMILES IDX 47 55 50 56 59 57 73 58 48 59 49 60 58 62 74 63 51 64 40 65
REMARK SMILES IDX 41 66 45 67 42 68 44 69 43 70 62 71 63 72 67 73 64 74 66 75
REMARK SMILES IDX 65 76 52 77 53 78 57 79 54 80 56 81 55 82
REMARK H PARENT 4 15 72 50 50 61
REMARK Flexibility Score: inf
ROOT
ATOM      1  C   UNL     1       6.493  -0.670   0.970  1.00  0.00     0.275 C 
ENDROOT
BRANCH   1   2
ATOM      2  O   UNL     1       5.734  -1.542   1.848  1.00  0.00    -0.458 OA
BRANCH   2   3
ATOM      3  C   UNL     1       4.465  -1.743   1.391  1.00  0.00     0.342 C 
ATOM      4  O   UNL     1       4.039  -1.292   0.328  1.00  0.00    -0.246 OA
BRANCH   3   5
ATOM      5  C   UNL     1       3.459  -2.222   2.359  1.00  0.00     0.104 A 
ATOM      6  C   UNL     1       1.216  -1.446   2.896  1.00  0.00     0.060 A 
ATOM      7  C   UNL     1       0.936  -2.738   3.272  1.00  0.00     0.139 A 
ATOM      8  C   UNL     1       2.520  -1.181   2.536  1.00  0.00     0.047 A 
ATOM      9  N   UNL     1       1.833  -3.750   3.182  1.00  0.00    -0.236 NA
ATOM     10  C   UNL     1       3.087  -3.541   2.681  1.00  0.00     0.143 A 
BRANCH   6  11
ATOM     11  N   UNL     1       0.219  -0.464   2.842  1.00  0.00    -0.325 N 
ATOM     12  C   UNL     1       0.754   0.386   0.559  1.00  0.00     0.114 C 
ATOM     13  C   UNL     1       0.057   0.521   1.897  1.00  0.00     0.221 C 
ATOM     14  O   UNL     1      -0.721   1.450   2.116  1.00  0.00    -0.275 OA
ATOM     15  H   UNL     1      -0.446  -0.482   3.568  1.00  0.00     0.169 HD
ENDBRANCH   6  11
BRANCH  10  16
ATOM     16  N   UNL     1       3.828  -4.703   2.522  1.00  0.00    -0.352 N 
ATOM     17  C   UNL     1       3.061  -5.927   2.205  1.00  0.00     0.146 C 
ATOM     18  C   UNL     1       5.191  -4.821   3.046  1.00  0.00     0.123 C 
ATOM     19  C   UNL     1       3.835  -7.210   2.391  1.00  0.00    -0.002 C 
ATOM     20  C   UNL     1       5.424  -6.083   3.879  1.00  0.00     0.057 C 
ATOM     21  C   UNL     1       4.920  -7.316   3.174  1.00  0.00    -0.041 C 
BRANCH  21  22
ATOM     22  C   UNL     1       5.595  -8.603   3.456  1.00  0.00    -0.020 A 
ATOM     23  C   UNL     1       6.348  -9.255   2.466  1.00  0.00     0.008 A 
ATOM     24  C   UNL     1       5.542  -9.178   4.741  1.00  0.00    -0.044 A 
ATOM     25  C   UNL     1       7.104 -10.396   2.759  1.00  0.00     0.001 A 
ATOM     26  C   UNL     1       6.320 -10.314   5.030  1.00  0.00     0.004 A 
ATOM     27  C   UNL     1       4.693  -8.592   5.835  1.00  0.00     0.045 C 
ATOM     28  C   UNL     1       7.105 -10.913   4.048  1.00  0.00     0.000 A 
ENDBRANCH  21  22
ENDBRANCH  10  16
ENDBRANCH   3   5
ENDBRANCH   2   3
ENDBRANCH   1   2
BRANCH   1  29
ATOM     29  C   UNL     1       8.012  -0.909   0.954  1.00  0.00     0.275 C 
BRANCH  29  30
ATOM     30  O   UNL     1       8.561  -2.233   0.746  1.00  0.00    -0.458 OA
BRANCH  30  31
ATOM     31  C   UNL     1       7.790  -3.335   0.658  1.00  0.00     0.338 C 
ATOM     32  O   UNL     1       7.915  -4.301   1.399  1.00  0.00    -0.246 OA
BRANCH  31  33
ATOM     33  C   UNL     1       6.850  -3.298  -0.470  1.00  0.00     0.060 A 
ATOM     34  C   UNL     1       5.590  -3.902  -0.342  1.00  0.00     0.016 A 
ATOM     35  C   UNL     1       7.177  -2.545  -1.594  1.00  0.00     0.016 A 
ATOM     36  C   UNL     1       4.607  -3.711  -1.282  1.00  0.00     0.010 A 
ATOM     37  C   UNL     1       6.197  -2.300  -2.514  1.00  0.00     0.010 A 
ATOM     38  C   UNL     1       4.952  -2.931  -2.366  1.00  0.00    -0.014 A 
BRANCH  38  39
ATOM     39  C   UNL     1       4.199  -3.024  -3.584  1.00  0.00     0.031 A 
ATOM     40  C   UNL     1       3.014  -2.167  -3.728  1.00  0.00     0.074 A 
ATOM     41  C   UNL     1       4.853  -3.835  -4.452  1.00  0.00     0.049 A 
ATOM     42  N   UNL     1       2.003  -2.449  -4.469  1.00  0.00    -0.248 NA
ATOM     43  C   UNL     1       2.793  -0.938  -2.946  1.00  0.00     0.031 C 
ATOM     44  C   UNL     1       4.776  -3.965  -5.888  1.00  0.00     0.029 A 
ATOM     45  N   UNL     1       5.753  -4.865  -4.096  1.00  0.00    -0.354 N 
ATOM     46  C   UNL     1       1.335  -1.253  -4.646  1.00  0.00     0.074 A 
ATOM     47  C   UNL     1       1.692  -0.434  -3.520  1.00  0.00     0.031 C 
ATOM     48  C   UNL     1       5.282  -5.167  -6.238  1.00  0.00     0.029 A 
ATOM     49  C   UNL     1       5.565  -5.898  -5.010  1.00  0.00     0.049 A 
ATOM     50  H   UNL     1       6.392  -4.854  -3.346  1.00  0.00     0.167 HD
ATOM     51  C   UNL     1       0.827  -0.978  -5.880  1.00  0.00     0.031 A 
ATOM     52  C   UNL     1       4.971  -7.069  -4.624  1.00  0.00     0.031 A 
ATOM     53  C   UNL     1       1.137  -2.083  -6.783  1.00  0.00     0.049 A 
ATOM     54  C   UNL     1       3.598  -7.167  -5.255  1.00  0.00     0.074 A 
ATOM     55  C   UNL     1       2.178  -2.272  -7.678  1.00  0.00     0.029 A 
ATOM     56  N   UNL     1       0.620  -3.338  -6.503  1.00  0.00    -0.354 N 
ATOM     57  N   UNL     1       2.852  -6.139  -5.569  1.00  0.00    -0.248 NA
ATOM     58  C   UNL     1       3.013  -8.436  -5.661  1.00  0.00     0.031 C 
ATOM     59  C   UNL     1       2.301  -3.671  -7.907  1.00  0.00     0.029 A 
ATOM     60  C   UNL     1       1.363  -4.322  -7.124  1.00  0.00     0.049 A 
ATOM     61  H   UNL     1      -0.169  -3.505  -5.938  1.00  0.00     0.167 HD
ATOM     62  C   UNL     1       1.806  -6.566  -6.350  1.00  0.00     0.074 A 
ATOM     63  C   UNL     1       1.933  -8.015  -6.341  1.00  0.00     0.031 C 
ATOM     64  C   UNL     1       0.951  -5.713  -6.994  1.00  0.00     0.031 A 
BRANCH  51  65
ATOM     65  C   UNL     1       0.386   0.377  -6.369  1.00  0.00    -0.014 A 
ATOM     66  C   UNL     1       0.478   0.667  -7.746  1.00  0.00     0.009 A 
ATOM     67  C   UNL     1      -0.145   1.391  -5.556  1.00  0.00     0.009 A 
ATOM     68  C   UNL     1       0.094   1.901  -8.283  1.00  0.00     0.001 A 
ATOM     69  C   UNL     1      -0.520   2.639  -6.086  1.00  0.00     0.001 A 
ATOM     70  C   UNL     1      -0.402   2.892  -7.449  1.00  0.00     0.000 A 
ENDBRANCH  51  65
BRANCH  52  71
ATOM     71  C   UNL     1       5.322  -7.514  -3.240  1.00  0.00    -0.014 A 
ATOM     72  C   UNL     1       6.672  -7.839  -2.970  1.00  0.00     0.009 A 
ATOM     73  C   UNL     1       4.485  -7.223  -2.161  1.00  0.00     0.009 A 
ATOM     74  C   UNL     1       7.213  -7.684  -1.690  1.00  0.00     0.001 A 
ATOM     75  C   UNL     1       5.035  -7.086  -0.883  1.00  0.00     0.001 A 
ATOM     76  C   UNL     1       6.401  -7.247  -0.657  1.00  0.00     0.000 A 
ENDBRANCH  52  71
BRANCH  64  77
ATOM     77  C   UNL     1      -0.367  -6.074  -7.645  1.00  0.00    -0.014 A 
ATOM     78  C   UNL     1      -1.015  -7.301  -7.502  1.00  0.00     0.009 A 
ATOM     79  C   UNL     1      -1.085  -5.068  -8.343  1.00  0.00     0.009 A 
ATOM     80  C   UNL     1      -2.282  -7.525  -8.056  1.00  0.00     0.001 A 
ATOM     81  C   UNL     1      -2.377  -5.258  -8.825  1.00  0.00     0.001 A 
ATOM     82  C   UNL     1      -2.970  -6.500  -8.697  1.00  0.00     0.000 A 
ENDBRANCH  64  77
ENDBRANCH  38  39
ENDBRANCH  31  33
ENDBRANCH  30  31
ENDBRANCH  29  30
ENDBRANCH   1  29
TORSDOF 14
