REMARK SMILES COc1ccc(-n2c(=S)[nH]cc(CC(=O)OCCOC(=O)c3ccc(-c4c5nc(c(-c6ccccc6)c6ccc([nH]6)c(-c6ccccc6)c6nc(c(-c7ccccc7)c7ccc4[nH]7)C=C6)C=C5)cc3)c2=O)cc1Cl
REMARK SMILES IDX 17 1 16 2 14 3 15 4 13 5 12 6 7 7 8 8 70 9 9 10 10 11 71 12
REMARK SMILES IDX 11 13 6 15 3 16 4 17 73 18 5 19 72 20 74 21 2 22 1 23 18 24
REMARK SMILES IDX 19 25 20 26 21 27 22 28 23 29 69 30 24 31 68 32 25 33 26 34
REMARK SMILES IDX 27 35 62 36 28 37 67 38 61 39 63 40 29 41 66 42 60 43 59 44
REMARK SMILES IDX 30 46 52 47 37 48 51 49 38 50 41 51 50 52 64 53 39 54 40 55
REMARK SMILES IDX 49 57 65 58 42 59 31 60 32 61 36 62 33 63 35 64 34 65 53 66
REMARK SMILES IDX 54 67 58 68 55 69 57 70 56 71 43 72 44 73 48 74 45 75 47 76
REMARK SMILES IDX 46 77
REMARK H PARENT 10 14 63 45 41 56
REMARK Flexibility Score: inf
ROOT
ATOM      1  C   UNL     1       4.231   8.158  -6.069  1.00  0.00     0.274 C 
ENDROOT
BRANCH   1   2
ATOM      2  O   UNL     1       3.243   7.110  -5.997  1.00  0.00    -0.462 OA
BRANCH   2   3
ATOM      3  C   UNL     1       1.978   7.455  -6.353  1.00  0.00     0.310 C 
ATOM      4  O   UNL     1       1.628   8.580  -6.694  1.00  0.00    -0.252 OA
BRANCH   3   5
ATOM      5  C   UNL     1       0.997   6.298  -6.286  1.00  0.00     0.165 C 
BRANCH   5   6
ATOM      6  C   UNL     1       1.604   4.930  -6.413  1.00  0.00     0.045 A 
ATOM      7  N   UNL     1       1.970   2.706  -5.420  1.00  0.00    -0.253 N 
ATOM      8  C   UNL     1       2.682   2.301  -6.560  1.00  0.00     0.184 A 
ATOM      9  C   UNL     1       1.442   3.996  -5.268  1.00  0.00     0.262 A 
ATOM     10  S   UNL     1       3.352   0.798  -6.897  1.00  0.00    -0.040 S 
ATOM     11  N   UNL     1       2.787   3.243  -7.554  1.00  0.00    -0.338 N 
ATOM     12  O   UNL     1       0.870   4.403  -4.256  1.00  0.00    -0.269 OA
ATOM     13  C   UNL     1       2.251   4.490  -7.495  1.00  0.00     0.095 A 
ATOM     14  H   UNL     1       3.286   2.997  -8.366  1.00  0.00     0.168 HD
BRANCH   7  15
ATOM     15  C   UNL     1       1.710   1.796  -4.349  1.00  0.00     0.053 A 
ATOM     16  C   UNL     1       1.143   0.075  -2.221  1.00  0.00     0.137 A 
ATOM     17  C   UNL     1       0.100   0.601  -2.985  1.00  0.00     0.050 A 
ATOM     18  C   UNL     1       2.471   0.385  -2.535  1.00  0.00     0.085 A 
ATOM     19  C   UNL     1       0.382   1.474  -4.033  1.00  0.00     0.031 A 
ATOM     20  C   UNL     1       2.755   1.250  -3.594  1.00  0.00     0.051 A 
ATOM     21  Cl  UNL     1       3.793  -0.278  -1.645  1.00  0.00    -0.080 Cl
BRANCH  16  22
ATOM     22  O   UNL     1       0.804  -0.791  -1.215  1.00  0.00    -0.495 OA
ATOM     23  C   UNL     1       0.753  -0.107   0.038  1.00  0.00     0.278 C 
ENDBRANCH  16  22
ENDBRANCH   7  15
ENDBRANCH   5   6
ENDBRANCH   3   5
ENDBRANCH   2   3
ENDBRANCH   1   2
BRANCH   1  24
ATOM     24  C   UNL     1       5.018   8.080  -7.377  1.00  0.00     0.275 C 
BRANCH  24  25
ATOM     25  O   UNL     1       4.150   8.342  -8.494  1.00  0.00    -0.458 OA
BRANCH  25  26
ATOM     26  C   UNL     1       3.965   7.319  -9.356  1.00  0.00     0.338 C 
ATOM     27  O   UNL     1       4.468   6.210  -9.332  1.00  0.00    -0.246 OA
BRANCH  26  28
ATOM     28  C   UNL     1       2.955   7.714 -10.345  1.00  0.00     0.060 A 
ATOM     29  C   UNL     1       3.357   8.177 -11.596  1.00  0.00     0.016 A 
ATOM     30  C   UNL     1       1.601   7.537 -10.048  1.00  0.00     0.016 A 
ATOM     31  C   UNL     1       2.385   8.493 -12.546  1.00  0.00     0.010 A 
ATOM     32  C   UNL     1       0.635   7.814 -11.011  1.00  0.00     0.010 A 
ATOM     33  C   UNL     1       1.020   8.308 -12.263  1.00  0.00    -0.014 A 
BRANCH  33  34
ATOM     34  C   UNL     1      -0.003   8.604 -13.292  1.00  0.00     0.031 A 
ATOM     35  C   UNL     1      -0.900   9.799 -13.160  1.00  0.00     0.074 A 
ATOM     36  C   UNL     1      -0.115   7.788 -14.356  1.00  0.00     0.049 A 
ATOM     37  N   UNL     1      -1.757  10.278 -14.025  1.00  0.00    -0.248 NA
ATOM     38  C   UNL     1      -0.834  10.548 -11.896  1.00  0.00     0.031 C 
ATOM     39  C   UNL     1       0.674   6.574 -14.568  1.00  0.00     0.029 A 
ATOM     40  N   UNL     1      -0.916   7.869 -15.466  1.00  0.00    -0.354 N 
ATOM     41  C   UNL     1      -2.310  11.400 -13.423  1.00  0.00     0.074 A 
ATOM     42  C   UNL     1      -1.745  11.491 -12.095  1.00  0.00     0.031 C 
ATOM     43  C   UNL     1       0.356   6.053 -15.763  1.00  0.00     0.029 A 
ATOM     44  C   UNL     1      -0.672   6.882 -16.388  1.00  0.00     0.049 A 
ATOM     45  H   UNL     1      -1.599   8.567 -15.589  1.00  0.00     0.167 HD
ATOM     46  C   UNL     1      -3.186  12.291 -13.944  1.00  0.00     0.031 A 
ATOM     47  C   UNL     1      -1.195   6.679 -17.611  1.00  0.00     0.031 A 
ATOM     48  C   UNL     1      -3.769  12.179 -15.254  1.00  0.00     0.049 A 
ATOM     49  C   UNL     1      -2.203   7.651 -18.153  1.00  0.00     0.074 A 
ATOM     50  C   UNL     1      -4.649  13.044 -15.881  1.00  0.00     0.029 A 
ATOM     51  N   UNL     1      -3.541  11.132 -16.134  1.00  0.00    -0.354 N 
ATOM     52  N   UNL     1      -2.665   8.747 -17.601  1.00  0.00    -0.248 NA
ATOM     53  C   UNL     1      -2.752   7.368 -19.486  1.00  0.00     0.031 C 
ATOM     54  C   UNL     1      -4.996  12.491 -17.117  1.00  0.00     0.029 A 
ATOM     55  C   UNL     1      -4.285  11.314 -17.287  1.00  0.00     0.049 A 
ATOM     56  H   UNL     1      -2.939  10.371 -15.963  1.00  0.00     0.167 HD
ATOM     57  C   UNL     1      -3.549   9.292 -18.522  1.00  0.00     0.074 A 
ATOM     58  C   UNL     1      -3.548   8.414 -19.675  1.00  0.00     0.031 C 
ATOM     59  C   UNL     1      -4.291  10.422 -18.419  1.00  0.00     0.031 A 
BRANCH  46  60
ATOM     60  C   UNL     1      -3.558  13.476 -13.096  1.00  0.00    -0.014 A 
ATOM     61  C   UNL     1      -4.864  13.611 -12.602  1.00  0.00     0.009 A 
ATOM     62  C   UNL     1      -2.625  14.493 -12.837  1.00  0.00     0.009 A 
ATOM     63  C   UNL     1      -5.228  14.741 -11.865  1.00  0.00     0.001 A 
ATOM     64  C   UNL     1      -2.984  15.608 -12.077  1.00  0.00     0.001 A 
ATOM     65  C   UNL     1      -4.287  15.734 -11.598  1.00  0.00     0.000 A 
ENDBRANCH  46  60
BRANCH  47  66
ATOM     66  C   UNL     1      -0.706   5.533 -18.419  1.00  0.00    -0.014 A 
ATOM     67  C   UNL     1      -1.044   4.215 -18.070  1.00  0.00     0.009 A 
ATOM     68  C   UNL     1       0.180   5.748 -19.485  1.00  0.00     0.009 A 
ATOM     69  C   UNL     1      -0.481   3.136 -18.753  1.00  0.00     0.001 A 
ATOM     70  C   UNL     1       0.724   4.667 -20.181  1.00  0.00     0.001 A 
ATOM     71  C   UNL     1       0.403   3.362 -19.808  1.00  0.00     0.000 A 
ENDBRANCH  47  66
BRANCH  59  72
ATOM     72  C   UNL     1      -5.181  10.785 -19.574  1.00  0.00    -0.014 A 
ATOM     73  C   UNL     1      -4.873  11.901 -20.368  1.00  0.00     0.009 A 
ATOM     74  C   UNL     1      -6.380  10.094 -19.804  1.00  0.00     0.009 A 
ATOM     75  C   UNL     1      -5.758  12.330 -21.359  1.00  0.00     0.001 A 
ATOM     76  C   UNL     1      -7.251  10.511 -20.813  1.00  0.00     0.001 A 
ATOM     77  C   UNL     1      -6.945  11.634 -21.581  1.00  0.00     0.000 A 
ENDBRANCH  59  72
ENDBRANCH  33  34
ENDBRANCH  26  28
ENDBRANCH  25  26
ENDBRANCH  24  25
ENDBRANCH   1  24
TORSDOF 14
