REMARK SMILES COC(=O)C[C@@H](NC(=O)c1ccccc1C(=O)OCCOC(=O)c1ccc(-c2c3nc(c(-c4ccccc4)c4ccc([nH]4)c(-c4ccccc4)c4nc(c(-c5ccccc5)c5ccc2[nH]5)C=C4)C=C3)cc1)c1cccc(C)c1C
REMARK SMILES IDX 18 1 16 2 17 3 15 4 10 5 11 6 12 7 14 8 13 9 8 10 7 11 9 13
REMARK SMILES IDX 6 14 5 15 3 16 4 17 2 18 1 19 72 20 73 21 78 22 74 23 76 24
REMARK SMILES IDX 79 25 75 26 77 27 19 28 20 29 21 30 22 31 23 32 24 33 25 34
REMARK SMILES IDX 71 35 26 36 70 37 27 38 28 39 29 40 64 41 30 42 69 43 63 44
REMARK SMILES IDX 65 45 31 46 68 47 62 48 61 49 32 51 54 52 39 53 53 54 40 55
REMARK SMILES IDX 43 56 52 57 66 58 41 59 42 60 51 62 67 63 44 64 33 65 34 66
REMARK SMILES IDX 38 67 35 68 37 69 36 70 55 71 56 72 60 73 57 74 59 75 58 76
REMARK SMILES IDX 45 77 46 78 50 79 47 80 49 81 48 82
REMARK H PARENT 7 12 65 50 43 61
REMARK Flexibility Score: inf
ROOT
ATOM      1  O   UNL     1       2.136   3.680   4.057  1.00  0.00    -0.458 OA
ENDROOT
BRANCH   1   2
ATOM      2  C   UNL     1       1.426   3.266   5.125  1.00  0.00     0.339 C 
ATOM      3  O   UNL     1       1.728   2.356   5.876  1.00  0.00    -0.246 OA
BRANCH   2   4
ATOM      4  C   UNL     1       0.162   3.975   5.298  1.00  0.00     0.072 A 
ATOM      5  C   UNL     1      -0.926   3.652   4.492  1.00  0.00     0.054 A 
ATOM      6  C   UNL     1      -2.213   4.114   4.839  1.00  0.00     0.015 A 
ATOM      7  C   UNL     1      -2.418   4.796   6.041  1.00  0.00     0.001 A 
ATOM      8  C   UNL     1      -0.043   4.699   6.486  1.00  0.00     0.016 A 
ATOM      9  C   UNL     1      -1.333   5.086   6.867  1.00  0.00     0.001 A 
BRANCH   5  10
ATOM     10  C   UNL     1      -0.866   2.725   3.353  1.00  0.00     0.252 C 
ATOM     11  N   UNL     1      -0.841   1.352   3.471  1.00  0.00    -0.345 N 
ATOM     12  H   UNL     1      -1.472   0.922   2.849  1.00  0.00     0.164 HD
ATOM     13  O   UNL     1      -1.052   3.216   2.240  1.00  0.00    -0.269 OA
BRANCH  11  14
ATOM     14  C   UNL     1      -0.102   0.335   4.304  1.00  0.00     0.124 C 
BRANCH  14  15
ATOM     15  C   UNL     1       0.125  -0.912   3.425  1.00  0.00     0.152 C 
BRANCH  15  16
ATOM     16  C   UNL     1       0.923  -0.711   2.158  1.00  0.00     0.307 C 
ATOM     17  O   UNL     1       1.996  -1.262   1.943  1.00  0.00    -0.252 OA
BRANCH  16  18
ATOM     18  O   UNL     1       0.245   0.044   1.253  1.00  0.00    -0.469 OA
ATOM     19  C   UNL     1       0.868   0.127  -0.034  1.00  0.00     0.282 C 
ENDBRANCH  16  18
ENDBRANCH  15  16
ENDBRANCH  14  15
BRANCH  14  20
ATOM     20  C   UNL     1      -0.627   0.052   5.760  1.00  0.00    -0.022 A 
ATOM     21  C   UNL     1      -1.105   1.152   6.484  1.00  0.00     0.006 A 
ATOM     22  C   UNL     1      -0.467  -1.131   6.543  1.00  0.00    -0.043 A 
ATOM     23  C   UNL     1      -1.131   1.247   7.873  1.00  0.00     0.001 A 
ATOM     24  C   UNL     1      -0.495  -1.054   7.978  1.00  0.00    -0.048 A 
ATOM     25  C   UNL     1      -0.321  -2.510   5.952  1.00  0.00     0.045 C 
ATOM     26  C   UNL     1      -0.768   0.157   8.622  1.00  0.00     0.004 A 
ATOM     27  C   UNL     1      -0.298  -2.229   8.905  1.00  0.00     0.044 C 
ENDBRANCH  14  20
ENDBRANCH  11  14
ENDBRANCH   5  10
ENDBRANCH   2   4
ENDBRANCH   1   2
BRANCH   1  28
ATOM     28  C   UNL     1       3.304   2.869   3.817  1.00  0.00     0.275 C 
BRANCH  28  29
ATOM     29  C   UNL     1       4.535   3.331   4.608  1.00  0.00     0.275 C 
BRANCH  29  30
ATOM     30  O   UNL     1       4.407   3.112   6.030  1.00  0.00    -0.458 OA
BRANCH  30  31
ATOM     31  C   UNL     1       3.996   4.185   6.740  1.00  0.00     0.338 C 
ATOM     32  O   UNL     1       3.744   5.303   6.310  1.00  0.00    -0.246 OA
BRANCH  31  33
ATOM     33  C   UNL     1       3.851   3.874   8.171  1.00  0.00     0.060 A 
ATOM     34  C   UNL     1       2.681   3.273   8.641  1.00  0.00     0.016 A 
ATOM     35  C   UNL     1       4.769   4.410   9.072  1.00  0.00     0.016 A 
ATOM     36  C   UNL     1       2.379   3.290   9.998  1.00  0.00     0.010 A 
ATOM     37  C   UNL     1       4.503   4.352  10.443  1.00  0.00     0.010 A 
ATOM     38  C   UNL     1       3.284   3.831  10.915  1.00  0.00    -0.014 A 
BRANCH  38  39
ATOM     39  C   UNL     1       2.935   3.921  12.355  1.00  0.00     0.031 A 
ATOM     40  C   UNL     1       2.874   5.268  13.024  1.00  0.00     0.074 A 
ATOM     41  C   UNL     1       2.671   2.806  13.063  1.00  0.00     0.049 A 
ATOM     42  N   UNL     1       2.817   5.559  14.298  1.00  0.00    -0.248 NA
ATOM     43  C   UNL     1       2.894   6.444  12.139  1.00  0.00     0.031 C 
ATOM     44  C   UNL     1       2.613   1.446  12.523  1.00  0.00     0.029 A 
ATOM     45  N   UNL     1       2.410   2.643  14.400  1.00  0.00    -0.354 N 
ATOM     46  C   UNL     1       2.856   6.947  14.370  1.00  0.00     0.074 A 
ATOM     47  C   UNL     1       2.947   7.439  13.012  1.00  0.00     0.031 C 
ATOM     48  C   UNL     1       2.321   0.591  13.514  1.00  0.00     0.029 A 
ATOM     49  C   UNL     1       2.265   1.328  14.770  1.00  0.00     0.049 A 
ATOM     50  H   UNL     1       2.333   3.394  15.032  1.00  0.00     0.167 HD
ATOM     51  C   UNL     1       2.827   7.736  15.471  1.00  0.00     0.031 A 
ATOM     52  C   UNL     1       2.161   0.770  15.990  1.00  0.00     0.031 A 
ATOM     53  C   UNL     1       2.715   7.233  16.815  1.00  0.00     0.049 A 
ATOM     54  C   UNL     1       2.207   1.657  17.201  1.00  0.00     0.074 A 
ATOM     55  C   UNL     1       2.682   7.941  18.004  1.00  0.00     0.029 A 
ATOM     56  N   UNL     1       2.607   5.890  17.146  1.00  0.00    -0.354 N 
ATOM     57  N   UNL     1       2.309   2.963  17.265  1.00  0.00    -0.248 NA
ATOM     58  C   UNL     1       2.133   0.991  18.507  1.00  0.00     0.031 C 
ATOM     59  C   UNL     1       2.603   7.022  19.056  1.00  0.00     0.029 A 
ATOM     60  C   UNL     1       2.522   5.747  18.520  1.00  0.00     0.049 A 
ATOM     61  H   UNL     1       2.594   5.149  16.499  1.00  0.00     0.167 HD
ATOM     62  C   UNL     1       2.287   3.277  18.617  1.00  0.00     0.074 A 
ATOM     63  C   UNL     1       2.144   2.026  19.335  1.00  0.00     0.031 C 
ATOM     64  C   UNL     1       2.378   4.492  19.213  1.00  0.00     0.031 A 
BRANCH  51  65
ATOM     65  C   UNL     1       2.970   9.221  15.267  1.00  0.00    -0.014 A 
ATOM     66  C   UNL     1       1.954   9.988  14.677  1.00  0.00     0.009 A 
ATOM     67  C   UNL     1       4.141   9.867  15.695  1.00  0.00     0.009 A 
ATOM     68  C   UNL     1       2.125  11.362  14.482  1.00  0.00     0.001 A 
ATOM     69  C   UNL     1       4.297  11.245  15.529  1.00  0.00     0.001 A 
ATOM     70  C   UNL     1       3.293  11.989  14.912  1.00  0.00     0.000 A 
ENDBRANCH  51  65
BRANCH  52  71
ATOM     71  C   UNL     1       2.058  -0.708  16.124  1.00  0.00    -0.014 A 
ATOM     72  C   UNL     1       0.875  -1.302  16.585  1.00  0.00     0.009 A 
ATOM     73  C   UNL     1       3.143  -1.533  15.783  1.00  0.00     0.009 A 
ATOM     74  C   UNL     1       0.786  -2.690  16.719  1.00  0.00     0.001 A 
ATOM     75  C   UNL     1       3.039  -2.921  15.885  1.00  0.00     0.001 A 
ATOM     76  C   UNL     1       1.864  -3.498  16.362  1.00  0.00     0.000 A 
ENDBRANCH  52  71
BRANCH  64  77
ATOM     77  C   UNL     1       2.270   4.525  20.712  1.00  0.00    -0.014 A 
ATOM     78  C   UNL     1       3.304   4.050  21.532  1.00  0.00     0.009 A 
ATOM     79  C   UNL     1       1.121   5.067  21.308  1.00  0.00     0.009 A 
ATOM     80  C   UNL     1       3.171   4.082  22.922  1.00  0.00     0.001 A 
ATOM     81  C   UNL     1       1.005   5.128  22.697  1.00  0.00     0.001 A 
ATOM     82  C   UNL     1       2.025   4.625  23.502  1.00  0.00     0.000 A 
ENDBRANCH  64  77
ENDBRANCH  38  39
ENDBRANCH  31  33
ENDBRANCH  30  31
ENDBRANCH  29  30
ENDBRANCH  28  29
ENDBRANCH   1  28
TORSDOF 17
