REMARK SMILES CCN(Cc1ccccn1)c1nc(C)cc(C)c1C(=O)OCCOC(=O)c1ccc(-c2c3nc(c(-c4ccccc4)c4ccc([nH]4)c(-c4ccccc4)c4nc(c(-c5ccccc5)c5ccc2[nH]5)C=C4)C=C3)cc1
REMARK SMILES IDX 22 1 21 2 19 3 20 4 18 5 11 6 12 7 13 8 16 9 14 10 15 11
REMARK SMILES IDX 17 12 3 13 2 14 1 15 4 16 5 17 6 18 10 19 7 20 9 21 8 22
REMARK SMILES IDX 23 23 24 24 25 25 26 26 27 27 28 28 74 29 29 30 73 31 30 32
REMARK SMILES IDX 31 33 32 34 67 35 33 36 72 37 66 38 68 39 34 40 71 41 65 42
REMARK SMILES IDX 64 43 35 45 57 46 42 47 56 48 43 49 46 50 55 51 69 52 44 53
REMARK SMILES IDX 45 54 54 56 70 57 47 58 36 59 37 60 41 61 38 62 40 63 39 64
REMARK SMILES IDX 58 65 59 66 63 67 60 68 62 69 61 70 48 71 49 72 53 73 50 74
REMARK SMILES IDX 52 75 51 76
REMARK H PARENT 68 44 46 55
REMARK Flexibility Score: inf
ROOT
ATOM      1  C   UNL     1       2.983   1.353  -1.377  1.00  0.00     0.275 C 
ENDROOT
BRANCH   1   2
ATOM      2  O   UNL     1       3.476   0.627  -0.224  1.00  0.00    -0.458 OA
BRANCH   2   3
ATOM      3  C   UNL     1       3.708   1.373   0.891  1.00  0.00     0.342 C 
ATOM      4  O   UNL     1       3.624   2.589   0.972  1.00  0.00    -0.246 OA
BRANCH   3   5
ATOM      5  C   UNL     1       4.161   0.516   2.011  1.00  0.00     0.105 A 
ATOM      6  C   UNL     1       3.280   0.050   3.011  1.00  0.00     0.144 A 
ATOM      7  N   UNL     1       3.781  -0.537   4.123  1.00  0.00    -0.235 NA
ATOM      8  C   UNL     1       5.104  -0.779   4.232  1.00  0.00     0.040 A 
ATOM      9  C   UNL     1       5.550   0.315   2.148  1.00  0.00    -0.031 A 
ATOM     10  C   UNL     1       5.522  -1.589   5.420  1.00  0.00     0.067 C 
ATOM     11  C   UNL     1       6.013  -0.381   3.266  1.00  0.00     0.028 A 
ATOM     12  C   UNL     1       6.527   0.812   1.121  1.00  0.00     0.045 C 
BRANCH   6  13
ATOM     13  N   UNL     1       1.909   0.085   2.953  1.00  0.00    -0.350 N 
BRANCH  13  14
ATOM     14  C   UNL     1       1.195  -0.070   1.712  1.00  0.00     0.115 C 
ATOM     15  C   UNL     1       0.645   1.297   1.319  1.00  0.00     0.027 C 
ENDBRANCH  13  14
BRANCH  13  16
ATOM     16  C   UNL     1       1.090   0.235   4.158  1.00  0.00     0.174 C 
BRANCH  16  17
ATOM     17  C   UNL     1       0.934  -0.979   5.059  1.00  0.00     0.060 A 
ATOM     18  C   UNL     1       1.077  -0.787   6.435  1.00  0.00     0.026 A 
ATOM     19  N   UNL     1       0.503  -2.159   4.532  1.00  0.00    -0.259 NA
ATOM     20  C   UNL     1       0.811  -1.838   7.303  1.00  0.00     0.004 A 
ATOM     21  C   UNL     1       0.270  -3.168   5.404  1.00  0.00     0.111 A 
ATOM     22  C   UNL     1       0.407  -3.058   6.779  1.00  0.00     0.020 A 
ENDBRANCH  16  17
ENDBRANCH  13  16
ENDBRANCH   6  13
ENDBRANCH   3   5
ENDBRANCH   2   3
ENDBRANCH   1   2
BRANCH   1  23
ATOM     23  C   UNL     1       2.203   0.406  -2.311  1.00  0.00     0.275 C 
BRANCH  23  24
ATOM     24  O   UNL     1       0.927   0.036  -1.732  1.00  0.00    -0.458 OA
BRANCH  24  25
ATOM     25  C   UNL     1       0.378  -1.148  -2.130  1.00  0.00     0.338 C 
ATOM     26  O   UNL     1       0.840  -1.897  -2.977  1.00  0.00    -0.246 OA
BRANCH  25  27
ATOM     27  C   UNL     1      -0.804  -1.500  -1.277  1.00  0.00     0.060 A 
ATOM     28  C   UNL     1      -1.298  -0.611  -0.344  1.00  0.00     0.016 A 
ATOM     29  C   UNL     1      -1.351  -2.780  -1.275  1.00  0.00     0.016 A 
ATOM     30  C   UNL     1      -2.005  -1.079   0.775  1.00  0.00     0.010 A 
ATOM     31  C   UNL     1      -2.236  -3.182  -0.242  1.00  0.00     0.010 A 
ATOM     32  C   UNL     1      -2.463  -2.392   0.905  1.00  0.00    -0.014 A 
BRANCH  32  33
ATOM     33  C   UNL     1      -3.091  -2.965   2.183  1.00  0.00     0.031 A 
ATOM     34  C   UNL     1      -3.007  -4.472   2.446  1.00  0.00     0.074 A 
ATOM     35  C   UNL     1      -3.675  -2.262   3.192  1.00  0.00     0.049 A 
ATOM     36  N   UNL     1      -3.836  -5.263   3.090  1.00  0.00    -0.248 NA
ATOM     37  C   UNL     1      -1.844  -5.182   1.888  1.00  0.00     0.031 C 
ATOM     38  C   UNL     1      -3.736  -0.811   3.364  1.00  0.00     0.029 A 
ATOM     39  N   UNL     1      -4.356  -2.721   4.315  1.00  0.00    -0.354 N 
ATOM     40  C   UNL     1      -3.377  -6.562   2.874  1.00  0.00     0.074 A 
ATOM     41  C   UNL     1      -2.184  -6.452   2.064  1.00  0.00     0.031 C 
ATOM     42  C   UNL     1      -4.339  -0.505   4.520  1.00  0.00     0.029 A 
ATOM     43  C   UNL     1      -4.887  -1.716   5.096  1.00  0.00     0.049 A 
ATOM     44  H   UNL     1      -4.450  -3.677   4.532  1.00  0.00     0.167 HD
ATOM     45  C   UNL     1      -3.906  -7.739   3.299  1.00  0.00     0.031 A 
ATOM     46  C   UNL     1      -5.797  -1.712   6.092  1.00  0.00     0.031 A 
ATOM     47  C   UNL     1      -4.996  -7.845   4.237  1.00  0.00     0.049 A 
ATOM     48  C   UNL     1      -6.453  -2.999   6.500  1.00  0.00     0.074 A 
ATOM     49  C   UNL     1      -5.641  -8.982   4.700  1.00  0.00     0.029 A 
ATOM     50  N   UNL     1      -5.551  -6.773   4.915  1.00  0.00    -0.354 N 
ATOM     51  N   UNL     1      -6.209  -4.217   6.089  1.00  0.00    -0.248 NA
ATOM     52  C   UNL     1      -7.540  -2.901   7.486  1.00  0.00     0.031 C 
ATOM     53  C   UNL     1      -6.603  -8.593   5.639  1.00  0.00     0.029 A 
ATOM     54  C   UNL     1      -6.518  -7.221   5.800  1.00  0.00     0.049 A 
ATOM     55  H   UNL     1      -5.296  -5.831   4.787  1.00  0.00     0.167 HD
ATOM     56  C   UNL     1      -7.095  -5.031   6.782  1.00  0.00     0.074 A 
ATOM     57  C   UNL     1      -7.864  -4.174   7.658  1.00  0.00     0.031 C 
ATOM     58  C   UNL     1      -7.261  -6.372   6.690  1.00  0.00     0.031 A 
BRANCH  45  59
ATOM     59  C   UNL     1      -3.361  -9.017   2.710  1.00  0.00    -0.014 A 
ATOM     60  C   UNL     1      -2.094  -9.522   3.034  1.00  0.00     0.009 A 
ATOM     61  C   UNL     1      -4.174  -9.756   1.830  1.00  0.00     0.009 A 
ATOM     62  C   UNL     1      -1.636 -10.711   2.455  1.00  0.00     0.001 A 
ATOM     63  C   UNL     1      -3.729 -10.961   1.281  1.00  0.00     0.001 A 
ATOM     64  C   UNL     1      -2.454 -11.431   1.584  1.00  0.00     0.000 A 
ENDBRANCH  45  59
BRANCH  46  65
ATOM     65  C   UNL     1      -6.269  -0.422   6.685  1.00  0.00    -0.014 A 
ATOM     66  C   UNL     1      -6.073  -0.134   8.045  1.00  0.00     0.009 A 
ATOM     67  C   UNL     1      -6.967   0.511   5.897  1.00  0.00     0.009 A 
ATOM     68  C   UNL     1      -6.586   1.042   8.603  1.00  0.00     0.001 A 
ATOM     69  C   UNL     1      -7.436   1.707   6.445  1.00  0.00     0.001 A 
ATOM     70  C   UNL     1      -7.258   1.965   7.802  1.00  0.00     0.000 A 
ENDBRANCH  46  65
BRANCH  58  71
ATOM     71  C   UNL     1      -8.252  -7.003   7.624  1.00  0.00    -0.014 A 
ATOM     72  C   UNL     1      -9.635  -6.837   7.453  1.00  0.00     0.009 A 
ATOM     73  C   UNL     1      -7.787  -7.781   8.696  1.00  0.00     0.009 A 
ATOM     74  C   UNL     1     -10.531  -7.404   8.361  1.00  0.00     0.001 A 
ATOM     75  C   UNL     1      -8.686  -8.372   9.585  1.00  0.00     0.001 A 
ATOM     76  C   UNL     1     -10.056  -8.173   9.424  1.00  0.00     0.000 A 
ENDBRANCH  58  71
ENDBRANCH  32  33
ENDBRANCH  25  27
ENDBRANCH  24  25
ENDBRANCH  23  24
ENDBRANCH   1  23
TORSDOF 15
