REMARK SMILES [NH3+][C@@]1(C(=O)OCCOC(=O)c2ccc(-c3c4nc(c(-c5ccccc5)c5ccc([nH]5)c(-c5ccccc5)c5nc(c(-c6ccccc6)c6ccc3[nH]6)C=C5)C=C4)cc2)CCC[C@H]1CCOC1CCCCCC1
REMARK SMILES IDX 3 1 4 2 2 3 59 4 62 5 60 6 61 7 1 8 63 12 64 13 65 14 66 15
REMARK SMILES IDX 67 16 68 17 69 18 72 20 71 21 70 22 5 24 6 25 7 26 8 27 9 28
REMARK SMILES IDX 10 29 11 30 12 31 58 32 13 33 57 34 14 35 15 36 16 37 51 38
REMARK SMILES IDX 17 39 56 40 50 41 52 42 18 43 55 44 49 45 48 46 19 48 41 49
REMARK SMILES IDX 26 50 40 51 27 52 30 53 39 54 53 55 28 56 29 57 38 59 54 60
REMARK SMILES IDX 31 61 20 62 21 63 25 64 22 65 24 66 23 67 42 68 43 69 47 70
REMARK SMILES IDX 44 71 46 72 45 73 32 74 33 75 37 76 34 77 36 78 35 79
REMARK H PARENT 1 9 1 10 1 11 52 47 30 58
REMARK Flexibility Score: 90.00
ROOT
ATOM      1  C   UNL     1      -0.736  -1.641  -0.169  1.00  0.00     0.368 C 
ATOM      2  O   UNL     1      -1.244  -0.969  -1.065  1.00  0.00    -0.245 OA
ENDROOT
BRANCH   1   3
ATOM      3  C   UNL     1       0.787  -2.040  -0.162  1.00  0.00     0.195 C 
ATOM      4  C   UNL     1       0.885  -3.228  -1.163  1.00  0.00     0.081 C 
ATOM      5  C   UNL     1       1.401  -2.594   1.173  1.00  0.00     0.065 C 
ATOM      6  C   UNL     1       1.067  -4.464  -0.301  1.00  0.00     0.008 C 
ATOM      7  C   UNL     1       1.997  -3.962   0.782  1.00  0.00     0.011 C 
BRANCH   3   8
ATOM      8  N   UNL     1       1.576  -0.928  -0.745  1.00  0.00    -0.343 N 
ATOM      9  H   UNL     1       1.131  -0.611  -1.607  1.00  0.00     0.345 HD
ATOM     10  H   UNL     1       2.521  -1.252  -0.950  1.00  0.00     0.345 HD
ATOM     11  H   UNL     1       1.618  -0.156  -0.080  1.00  0.00     0.345 HD
ENDBRANCH   3   8
BRANCH   5  12
ATOM     12  C   UNL     1       2.490  -1.781   1.931  1.00  0.00     0.039 C 
BRANCH  12  13
ATOM     13  C   UNL     1       2.115  -0.399   2.479  1.00  0.00     0.161 C 
BRANCH  13  14
ATOM     14  O   UNL     1       1.937  -0.420   3.905  1.00  0.00    -0.378 OA
BRANCH  14  15
ATOM     15  C   UNL     1       0.614  -0.049   4.329  1.00  0.00     0.118 C 
BRANCH  15  16
ATOM     16  C   UNL     1      -0.341  -1.221   4.117  1.00  0.00     0.032 C 
BRANCH  16  17
ATOM     17  C   UNL     1      -0.170  -2.344   5.128  1.00  0.00     0.003 C 
BRANCH  17  18
ATOM     18  C   UNL     1      -1.190  -2.196   6.251  1.00  0.00     0.000 CG0
ATOM     19  G   UNL     1      -1.019  -0.969   7.149  1.00  0.00     0.000 G0
ENDBRANCH  17  18
ENDBRANCH  16  17
ENDBRANCH  15  16
BRANCH  15  20
ATOM     20  C   UNL     1       0.648   0.423   5.788  1.00  0.00     0.032 C 
BRANCH  20  21
ATOM     21  C   UNL     1      -0.722   0.378   6.477  1.00  0.00     0.003 C 
BRANCH  21  22
ATOM     22  C   UNL     1      -1.019  -0.969   7.149  1.00  0.00     0.000 CG0
ATOM     23  G   UNL     1      -1.190  -2.196   6.251  1.00  0.00     0.000 G0
ENDBRANCH  21  22
ENDBRANCH  20  21
ENDBRANCH  15  20
ENDBRANCH  14  15
ENDBRANCH  13  14
ENDBRANCH  12  13
ENDBRANCH   5  12
ENDBRANCH   1   3
BRANCH   1  24
ATOM     24  O   UNL     1      -1.468  -2.182   0.845  1.00  0.00    -0.457 OA
BRANCH  24  25
ATOM     25  C   UNL     1      -2.901  -1.978   0.766  1.00  0.00     0.274 C 
BRANCH  25  26
ATOM     26  C   UNL     1      -3.437  -0.752   1.528  1.00  0.00     0.275 C 
BRANCH  26  27
ATOM     27  O   UNL     1      -3.100   0.519   0.920  1.00  0.00    -0.458 OA
BRANCH  27  28
ATOM     28  C   UNL     1      -1.885   0.948   1.255  1.00  0.00     0.338 C 
ATOM     29  O   UNL     1      -1.075   0.352   1.968  1.00  0.00    -0.246 OA
BRANCH  28  30
ATOM     30  C   UNL     1      -1.464   2.214   0.681  1.00  0.00     0.060 A 
ATOM     31  C   UNL     1      -0.447   2.163  -0.277  1.00  0.00     0.016 A 
ATOM     32  C   UNL     1      -1.801   3.419   1.309  1.00  0.00     0.016 A 
ATOM     33  C   UNL     1       0.261   3.309  -0.590  1.00  0.00     0.010 A 
ATOM     34  C   UNL     1      -1.124   4.582   0.946  1.00  0.00     0.010 A 
ATOM     35  C   UNL     1      -0.085   4.531   0.002  1.00  0.00    -0.014 A 
BRANCH  35  36
ATOM     36  C   UNL     1       0.585   5.765  -0.461  1.00  0.00     0.031 A 
ATOM     37  C   UNL     1       1.542   6.515   0.411  1.00  0.00     0.074 A 
ATOM     38  C   UNL     1       0.316   6.185  -1.710  1.00  0.00     0.049 A 
ATOM     39  N   UNL     1       2.129   7.662   0.181  1.00  0.00    -0.248 NA
ATOM     40  C   UNL     1       1.891   5.905   1.703  1.00  0.00     0.031 C 
ATOM     41  C   UNL     1      -0.570   5.500  -2.657  1.00  0.00     0.029 A 
ATOM     42  N   UNL     1       0.766   7.276  -2.402  1.00  0.00    -0.354 N 
ATOM     43  C   UNL     1       2.892   7.930   1.309  1.00  0.00     0.074 A 
ATOM     44  C   UNL     1       2.703   6.821   2.221  1.00  0.00     0.031 C 
ATOM     45  C   UNL     1      -0.576   6.172  -3.815  1.00  0.00     0.029 A 
ATOM     46  C   UNL     1       0.245   7.367  -3.668  1.00  0.00     0.049 A 
ATOM     47  H   UNL     1       1.400   7.930  -2.029  1.00  0.00     0.167 HD
ATOM     48  C   UNL     1       3.669   9.011   1.557  1.00  0.00     0.031 A 
ATOM     49  C   UNL     1       0.379   8.326  -4.598  1.00  0.00     0.031 A 
ATOM     50  C   UNL     1       3.851  10.106   0.638  1.00  0.00     0.049 A 
ATOM     51  C   UNL     1       1.209   9.528  -4.282  1.00  0.00     0.074 A 
ATOM     52  C   UNL     1       4.605  11.256   0.801  1.00  0.00     0.029 A 
ATOM     53  N   UNL     1       3.276  10.180  -0.622  1.00  0.00    -0.354 N 
ATOM     54  N   UNL     1       1.882   9.795  -3.190  1.00  0.00    -0.248 NA
ATOM     55  C   UNL     1       1.285  10.567  -5.316  1.00  0.00     0.031 C 
ATOM     56  C   UNL     1       4.462  12.040  -0.350  1.00  0.00     0.029 A 
ATOM     57  C   UNL     1       3.648  11.361  -1.243  1.00  0.00     0.049 A 
ATOM     58  H   UNL     1       2.691   9.495  -1.017  1.00  0.00     0.167 HD
ATOM     59  C   UNL     1       2.462  11.035  -3.400  1.00  0.00     0.074 A 
ATOM     60  C   UNL     1       2.077  11.457  -4.734  1.00  0.00     0.031 C 
ATOM     61  C   UNL     1       3.240  11.762  -2.563  1.00  0.00     0.031 A 
BRANCH  48  62
ATOM     62  C   UNL     1       4.346   9.088   2.894  1.00  0.00    -0.014 A 
ATOM     63  C   UNL     1       5.510   8.355   3.166  1.00  0.00     0.009 A 
ATOM     64  C   UNL     1       3.837   9.950   3.879  1.00  0.00     0.009 A 
ATOM     65  C   UNL     1       6.141   8.469   4.407  1.00  0.00     0.001 A 
ATOM     66  C   UNL     1       4.479  10.074   5.113  1.00  0.00     0.001 A 
ATOM     67  C   UNL     1       5.628   9.330   5.378  1.00  0.00     0.000 A 
ENDBRANCH  48  62
BRANCH  49  68
ATOM     68  C   UNL     1      -0.340   8.186  -5.886  1.00  0.00    -0.014 A 
ATOM     69  C   UNL     1       0.349   7.819  -7.050  1.00  0.00     0.009 A 
ATOM     70  C   UNL     1      -1.735   8.341  -5.935  1.00  0.00     0.009 A 
ATOM     71  C   UNL     1      -0.349   7.611  -8.241  1.00  0.00     0.001 A 
ATOM     72  C   UNL     1      -2.431   8.109  -7.121  1.00  0.00     0.001 A 
ATOM     73  C   UNL     1      -1.737   7.747  -8.274  1.00  0.00     0.000 A 
ENDBRANCH  49  68
BRANCH  61  74
ATOM     74  C   UNL     1       3.724  13.081  -3.081  1.00  0.00    -0.014 A 
ATOM     75  C   UNL     1       2.883  14.203  -3.084  1.00  0.00     0.009 A 
ATOM     76  C   UNL     1       5.036  13.202  -3.563  1.00  0.00     0.009 A 
ATOM     77  C   UNL     1       3.341  15.421  -3.587  1.00  0.00     0.001 A 
ATOM     78  C   UNL     1       5.495  14.425  -4.051  1.00  0.00     0.001 A 
ATOM     79  C   UNL     1       4.645  15.531  -4.069  1.00  0.00     0.000 A 
ENDBRANCH  61  74
ENDBRANCH  35  36
ENDBRANCH  28  30
ENDBRANCH  27  28
ENDBRANCH  26  27
ENDBRANCH  25  26
ENDBRANCH  24  25
ENDBRANCH   1  24
TORSDOF 16
