REMARK SMILES O=C(CC[N@@H+]1CCc2ccccc2C1)OCCOC(=O)c1ccc(-c2c3nc(c(-c4ccccc4)c4ccc([nH]4)c(-c4ccccc4)c4nc(c(-c5ccccc5)c5ccc2[nH]5)C=C4)C=C3)cc1
REMARK SMILES IDX 16 1 15 2 2 3 1 4 3 5 4 6 5 7 6 8 14 9 7 11 13 12 8 13 12 14
REMARK SMILES IDX 9 15 11 16 10 17 17 18 18 19 19 20 20 21 21 22 22 23 68 24
REMARK SMILES IDX 23 25 67 26 24 27 25 28 26 29 61 30 27 31 66 32 60 33 62 34
REMARK SMILES IDX 28 35 65 36 59 37 58 38 29 40 51 41 36 42 50 43 37 44 40 45
REMARK SMILES IDX 49 46 63 47 38 48 39 49 48 51 64 52 41 53 30 54 31 55 35 56
REMARK SMILES IDX 32 57 34 58 33 59 52 60 53 61 57 62 54 63 56 64 55 65 42 66
REMARK SMILES IDX 43 67 47 68 44 69 46 70 45 71
REMARK H PARENT 5 10 62 39 40 50
REMARK Flexibility Score: inf
ROOT
ATOM      1  C   UNL     1       2.803  -1.521  -0.678  1.00  0.00     0.274 C 
ENDROOT
BRANCH   1   2
ATOM      2  O   UNL     1       1.947  -0.466  -0.198  1.00  0.00    -0.462 OA
BRANCH   2   3
ATOM      3  C   UNL     1       2.322   0.215   0.912  1.00  0.00     0.311 C 
ATOM      4  O   UNL     1       1.700   0.116   1.962  1.00  0.00    -0.252 OA
BRANCH   3   5
ATOM      5  C   UNL     1       3.386   1.260   0.662  1.00  0.00     0.184 C 
BRANCH   5   6
ATOM      6  C   UNL     1       4.249   1.519   1.897  1.00  0.00     0.274 C 
BRANCH   6   7
ATOM      7  N   UNL     1       5.574   0.902   1.861  1.00  0.00    -0.330 N 
ATOM      8  C   UNL     1       6.620   1.601   1.128  1.00  0.00     0.267 C 
ATOM      9  C   UNL     1       5.597  -0.557   1.863  1.00  0.00     0.299 C 
ATOM     10  H   UNL     1       5.912   1.094   2.804  1.00  0.00     0.348 HD
ATOM     11  C   UNL     1       7.035   0.965  -0.200  1.00  0.00     0.097 C 
ATOM     12  C   UNL     1       6.571  -1.229   0.921  1.00  0.00     0.010 A 
ATOM     13  C   UNL     1       7.285  -0.509  -0.048  1.00  0.00    -0.034 A 
ATOM     14  C   UNL     1       6.735  -2.622   0.993  1.00  0.00     0.010 A 
ATOM     15  C   UNL     1       8.174  -1.175  -0.903  1.00  0.00     0.004 A 
ATOM     16  C   UNL     1       7.616  -3.281   0.135  1.00  0.00     0.001 A 
ATOM     17  C   UNL     1       8.344  -2.556  -0.804  1.00  0.00     0.000 A 
ENDBRANCH   6   7
ENDBRANCH   5   6
ENDBRANCH   3   5
ENDBRANCH   2   3
ENDBRANCH   1   2
BRANCH   1  18
ATOM     18  C   UNL     1       3.643  -1.147  -1.911  1.00  0.00     0.275 C 
BRANCH  18  19
ATOM     19  O   UNL     1       3.446   0.203  -2.343  1.00  0.00    -0.458 OA
BRANCH  19  20
ATOM     20  C   UNL     1       2.202   0.459  -2.820  1.00  0.00     0.338 C 
ATOM     21  O   UNL     1       1.358  -0.350  -3.136  1.00  0.00    -0.246 OA
BRANCH  20  22
ATOM     22  C   UNL     1       1.966   1.911  -2.675  1.00  0.00     0.060 A 
ATOM     23  C   UNL     1       0.775   2.325  -2.069  1.00  0.00     0.016 A 
ATOM     24  C   UNL     1       2.905   2.848  -3.114  1.00  0.00     0.016 A 
ATOM     25  C   UNL     1       0.489   3.685  -1.961  1.00  0.00     0.010 A 
ATOM     26  C   UNL     1       2.618   4.210  -3.007  1.00  0.00     0.010 A 
ATOM     27  C   UNL     1       1.390   4.632  -2.469  1.00  0.00    -0.014 A 
BRANCH  27  28
ATOM     28  C   UNL     1       0.968   6.046  -2.598  1.00  0.00     0.031 A 
ATOM     29  C   UNL     1       0.425   6.518  -3.920  1.00  0.00     0.074 A 
ATOM     30  C   UNL     1       1.036   6.892  -1.555  1.00  0.00     0.049 A 
ATOM     31  N   UNL     1      -0.044   7.694  -4.250  1.00  0.00    -0.248 NA
ATOM     32  C   UNL     1       0.406   5.532  -5.013  1.00  0.00     0.031 C 
ATOM     33  C   UNL     1       1.520   6.556  -0.218  1.00  0.00     0.029 A 
ATOM     34  N   UNL     1       0.689   8.217  -1.467  1.00  0.00    -0.354 N 
ATOM     35  C   UNL     1      -0.422   7.585  -5.582  1.00  0.00     0.074 A 
ATOM     36  C   UNL     1      -0.091   6.245  -6.013  1.00  0.00     0.031 C 
ATOM     37  C   UNL     1       1.439   7.650   0.561  1.00  0.00     0.029 A 
ATOM     38  C   UNL     1       0.916   8.764  -0.228  1.00  0.00     0.049 A 
ATOM     39  H   UNL     1       0.312   8.727  -2.220  1.00  0.00     0.167 HD
ATOM     40  C   UNL     1      -1.006   8.513  -6.376  1.00  0.00     0.031 A 
ATOM     41  C   UNL     1       0.729  10.023   0.214  1.00  0.00     0.031 A 
ATOM     42  C   UNL     1      -1.321   9.853  -5.962  1.00  0.00     0.049 A 
ATOM     43  C   UNL     1       0.150  11.059  -0.715  1.00  0.00     0.074 A 
ATOM     44  C   UNL     1      -1.935  10.857  -6.690  1.00  0.00     0.029 A 
ATOM     45  N   UNL     1      -1.036  10.379  -4.713  1.00  0.00    -0.354 N 
ATOM     46  N   UNL     1      -0.259  10.925  -1.953  1.00  0.00    -0.248 NA
ATOM     47  C   UNL     1      -0.002  12.419  -0.175  1.00  0.00     0.031 C 
ATOM     48  C   UNL     1      -1.970  12.009  -5.899  1.00  0.00     0.029 A 
ATOM     49  C   UNL     1      -1.429  11.704  -4.661  1.00  0.00     0.049 A 
ATOM     50  H   UNL     1      -0.615   9.883  -3.973  1.00  0.00     0.167 HD
ATOM     51  C   UNL     1      -0.745  12.173  -2.328  1.00  0.00     0.074 A 
ATOM     52  C   UNL     1      -0.593  13.045  -1.183  1.00  0.00     0.031 C 
ATOM     53  C   UNL     1      -1.274  12.560  -3.514  1.00  0.00     0.031 A 
BRANCH  40  54
ATOM     54  C   UNL     1      -1.325   8.113  -7.787  1.00  0.00    -0.014 A 
ATOM     55  C   UNL     1      -2.390   7.244  -8.071  1.00  0.00     0.009 A 
ATOM     56  C   UNL     1      -0.579   8.647  -8.848  1.00  0.00     0.009 A 
ATOM     57  C   UNL     1      -2.687   6.900  -9.391  1.00  0.00     0.001 A 
ATOM     58  C   UNL     1      -0.893   8.320 -10.168  1.00  0.00     0.001 A 
ATOM     59  C   UNL     1      -1.942   7.442 -10.438  1.00  0.00     0.000 A 
ENDBRANCH  40  54
BRANCH  41  60
ATOM     60  C   UNL     1       1.100  10.392   1.605  1.00  0.00    -0.014 A 
ATOM     61  C   UNL     1       0.113  10.713   2.549  1.00  0.00     0.009 A 
ATOM     62  C   UNL     1       2.450  10.470   1.981  1.00  0.00     0.009 A 
ATOM     63  C   UNL     1       0.472  11.139   3.830  1.00  0.00     0.001 A 
ATOM     64  C   UNL     1       2.805  10.869   3.271  1.00  0.00     0.001 A 
ATOM     65  C   UNL     1       1.817  11.214   4.190  1.00  0.00     0.000 A 
ENDBRANCH  41  60
BRANCH  53  66
ATOM     66  C   UNL     1      -1.757  13.979  -3.627  1.00  0.00    -0.014 A 
ATOM     67  C   UNL     1      -0.856  15.052  -3.705  1.00  0.00     0.009 A 
ATOM     68  C   UNL     1      -3.134  14.240  -3.705  1.00  0.00     0.009 A 
ATOM     69  C   UNL     1      -1.327  16.361  -3.827  1.00  0.00     0.001 A 
ATOM     70  C   UNL     1      -3.601  15.546  -3.855  1.00  0.00     0.001 A 
ATOM     71  C   UNL     1      -2.698  16.606  -3.907  1.00  0.00     0.000 A 
ENDBRANCH  53  66
ENDBRANCH  27  28
ENDBRANCH  20  22
ENDBRANCH  19  20
ENDBRANCH  18  19
ENDBRANCH   1  18
TORSDOF 13
