REMARK SMILES Cc1cc(N2CC[C@H](CC(=O)OCCOC(=O)c3ccc(-c4c5nc(c(-c6ccccc6)c6ccc([nH]6)c(-c6ccccc6)c6nc(c(-c7ccccc7)c7ccc4[nH]7)C=C6)C=C5)cc3)C2)ncc1[N+](=O)[O-]
REMARK SMILES IDX 13 1 12 2 10 3 11 4 9 5 8 6 5 7 6 8 66 9 7 10 4 11 1 12 2 13
REMARK SMILES IDX 3 14 69 15 68 16 67 17 70 18 71 19 72 20 14 21 15 22 16 23
REMARK SMILES IDX 17 24 18 25 19 26 65 27 20 28 64 29 21 30 22 31 23 32 58 33
REMARK SMILES IDX 24 34 63 35 57 36 59 37 25 38 62 39 56 40 55 41 26 43 48 44
REMARK SMILES IDX 33 45 47 46 34 47 37 48 46 49 60 50 35 51 36 52 45 54 61 55
REMARK SMILES IDX 38 56 27 57 28 58 32 59 29 60 31 61 30 62 49 63 50 64 54 65
REMARK SMILES IDX 51 66 53 67 52 68 39 69 40 70 44 71 41 72 43 73 42 74
REMARK H PARENT 59 42 37 53
REMARK Flexibility Score: inf
ROOT
ATOM      1  C   UNL     1       6.950   5.994   0.473  1.00  0.00     0.274 C 
ENDROOT
BRANCH   1   2
ATOM      2  O   UNL     1       5.869   5.055   0.633  1.00  0.00    -0.462 OA
BRANCH   2   3
ATOM      3  C   UNL     1       5.225   5.069   1.826  1.00  0.00     0.306 C 
ATOM      4  O   UNL     1       5.506   5.800   2.768  1.00  0.00    -0.252 OA
BRANCH   3   5
ATOM      5  C   UNL     1       4.140   4.020   1.911  1.00  0.00     0.128 C 
BRANCH   5   6
ATOM      6  C   UNL     1       3.262   3.885   0.668  1.00  0.00     0.021 C 
ATOM      7  N   UNL     1       1.621   2.474  -0.309  1.00  0.00    -0.356 N 
ATOM      8  C   UNL     1       2.716   2.580  -1.268  1.00  0.00     0.118 C 
ATOM      9  C   UNL     1       1.970   3.107   0.963  1.00  0.00     0.122 C 
ATOM     10  C   UNL     1       3.904   3.056  -0.445  1.00  0.00     0.027 C 
BRANCH   7  11
ATOM     11  C   UNL     1       0.971   1.257  -0.203  1.00  0.00     0.129 A 
ATOM     12  C   UNL     1      -2.619   0.080   0.073  1.00  0.00     0.052 C 
ATOM     13  C   UNL     1      -1.121   0.025   0.004  1.00  0.00     0.032 A 
ATOM     14  C   UNL     1      -0.419   1.240  -0.078  1.00  0.00     0.057 A 
ATOM     15  C   UNL     1      -0.357  -1.146   0.033  1.00  0.00     0.290 A 
ATOM     16  C   UNL     1       1.024  -1.056  -0.084  1.00  0.00     0.199 A 
ATOM     17  N   UNL     1       1.692   0.117  -0.209  1.00  0.00    -0.232 NA
BRANCH  15  18
ATOM     18  N   UNL     1      -0.927  -2.474   0.190  1.00  0.00     0.064 N 
ATOM     19  O   UNL     1      -0.367  -3.407  -0.403  1.00  0.00    -0.258 OA
ATOM     20  O   UNL     1      -1.913  -2.599   0.928  1.00  0.00    -0.258 OA
ENDBRANCH  15  18
ENDBRANCH   7  11
ENDBRANCH   5   6
ENDBRANCH   3   5
ENDBRANCH   2   3
ENDBRANCH   1   2
BRANCH   1  21
ATOM     21  C   UNL     1       6.503   7.250  -0.279  1.00  0.00     0.275 C 
BRANCH  21  22
ATOM     22  O   UNL     1       5.606   8.048   0.516  1.00  0.00    -0.458 OA
BRANCH  22  23
ATOM     23  C   UNL     1       4.290   7.837   0.282  1.00  0.00     0.338 C 
ATOM     24  O   UNL     1       3.795   7.107  -0.559  1.00  0.00    -0.246 OA
BRANCH  23  25
ATOM     25  C   UNL     1       3.490   8.526   1.307  1.00  0.00     0.060 A 
ATOM     26  C   UNL     1       2.699   7.745   2.153  1.00  0.00     0.016 A 
ATOM     27  C   UNL     1       3.460   9.919   1.390  1.00  0.00     0.016 A 
ATOM     28  C   UNL     1       1.867   8.355   3.087  1.00  0.00     0.010 A 
ATOM     29  C   UNL     1       2.622  10.531   2.329  1.00  0.00     0.010 A 
ATOM     30  C   UNL     1       1.812   9.753   3.175  1.00  0.00    -0.014 A 
BRANCH  30  31
ATOM     31  C   UNL     1       0.873  10.383   4.132  1.00  0.00     0.031 A 
ATOM     32  C   UNL     1      -0.418  10.974   3.644  1.00  0.00     0.074 A 
ATOM     33  C   UNL     1       1.158  10.379   5.447  1.00  0.00     0.049 A 
ATOM     34  N   UNL     1      -1.375  11.546   4.330  1.00  0.00    -0.248 NA
ATOM     35  C   UNL     1      -0.667  10.911   2.195  1.00  0.00     0.031 C 
ATOM     36  C   UNL     1       2.362   9.806   6.050  1.00  0.00     0.029 A 
ATOM     37  N   UNL     1       0.446  10.865   6.514  1.00  0.00    -0.354 N 
ATOM     38  C   UNL     1      -2.337  11.917   3.399  1.00  0.00     0.074 A 
ATOM     39  C   UNL     1      -1.838  11.526   2.097  1.00  0.00     0.031 C 
ATOM     40  C   UNL     1       2.298   9.960   7.383  1.00  0.00     0.029 A 
ATOM     41  C   UNL     1       1.067  10.670   7.723  1.00  0.00     0.049 A 
ATOM     42  H   UNL     1      -0.427  11.311   6.422  1.00  0.00     0.167 HD
ATOM     43  C   UNL     1      -3.530  12.524   3.609  1.00  0.00     0.031 A 
ATOM     44  C   UNL     1       0.692  11.031   8.964  1.00  0.00     0.031 A 
ATOM     45  C   UNL     1      -4.027  12.921   4.900  1.00  0.00     0.049 A 
ATOM     46  C   UNL     1      -0.610  11.754   9.162  1.00  0.00     0.074 A 
ATOM     47  C   UNL     1      -5.229  13.535   5.210  1.00  0.00     0.029 A 
ATOM     48  N   UNL     1      -3.346  12.749   6.095  1.00  0.00    -0.354 N 
ATOM     49  N   UNL     1      -1.516  12.084   8.274  1.00  0.00    -0.248 NA
ATOM     50  C   UNL     1      -0.942  12.151  10.538  1.00  0.00     0.031 C 
ATOM     51  C   UNL     1      -5.256  13.771   6.589  1.00  0.00     0.029 A 
ATOM     52  C   UNL     1      -4.092  13.263   7.142  1.00  0.00     0.049 A 
ATOM     53  H   UNL     1      -2.463  12.323   6.185  1.00  0.00     0.167 HD
ATOM     54  C   UNL     1      -2.531  12.710   8.984  1.00  0.00     0.074 A 
ATOM     55  C   UNL     1      -2.140  12.697  10.378  1.00  0.00     0.031 C 
ATOM     56  C   UNL     1      -3.685  13.251   8.522  1.00  0.00     0.031 A 
BRANCH  43  57
ATOM     57  C   UNL     1      -4.373  12.820   2.403  1.00  0.00    -0.014 A 
ATOM     58  C   UNL     1      -5.068  11.801   1.734  1.00  0.00     0.009 A 
ATOM     59  C   UNL     1      -4.502  14.143   1.952  1.00  0.00     0.009 A 
ATOM     60  C   UNL     1      -5.856  12.099   0.620  1.00  0.00     0.001 A 
ATOM     61  C   UNL     1      -5.308  14.440   0.851  1.00  0.00     0.001 A 
ATOM     62  C   UNL     1      -5.978  13.417   0.182  1.00  0.00     0.000 A 
ENDBRANCH  43  57
BRANCH  44  63
ATOM     63  C   UNL     1       1.569  10.728  10.123  1.00  0.00    -0.014 A 
ATOM     64  C   UNL     1       1.201   9.755  11.064  1.00  0.00     0.009 A 
ATOM     65  C   UNL     1       2.775  11.425  10.301  1.00  0.00     0.009 A 
ATOM     66  C   UNL     1       2.012   9.502  12.172  1.00  0.00     0.001 A 
ATOM     67  C   UNL     1       3.596  11.151  11.396  1.00  0.00     0.001 A 
ATOM     68  C   UNL     1       3.209  10.197  12.335  1.00  0.00     0.000 A 
ENDBRANCH  44  63
BRANCH  56  69
ATOM     69  C   UNL     1      -4.611  13.851   9.541  1.00  0.00    -0.014 A 
ATOM     70  C   UNL     1      -4.319  15.081  10.150  1.00  0.00     0.009 A 
ATOM     71  C   UNL     1      -5.799  13.186   9.881  1.00  0.00     0.009 A 
ATOM     72  C   UNL     1      -5.184  15.616  11.107  1.00  0.00     0.001 A 
ATOM     73  C   UNL     1      -6.673  13.735  10.820  1.00  0.00     0.001 A 
ATOM     74  C   UNL     1      -6.360  14.944  11.439  1.00  0.00     0.000 A 
ENDBRANCH  56  69
ENDBRANCH  30  31
ENDBRANCH  23  25
ENDBRANCH  22  23
ENDBRANCH  21  22
ENDBRANCH   1  21
TORSDOF 14
