REMARK SMILES O=C(OCCOC(=O)c1cc(NC(=S)NC(=O)c2ccccc2F)ccc1Cl)c1ccc(-c2c3nc(c(-c4ccccc4)c4ccc([nH]4)c(-c4ccccc4)c4nc(c(-c5ccccc5)c5ccc2[nH]5)C=C4)C=C3)cc1
REMARK SMILES IDX 5 1 4 2 3 3 2 4 1 5 29 6 30 7 76 8 31 9 75 10 32 11 33 12
REMARK SMILES IDX 34 13 69 14 35 15 74 16 68 17 70 18 36 19 73 20 67 21 66 22
REMARK SMILES IDX 37 24 59 25 44 26 58 27 45 28 48 29 57 30 71 31 46 32 47 33
REMARK SMILES IDX 56 35 72 36 49 37 38 38 39 39 43 40 40 41 42 42 41 43 60 44
REMARK SMILES IDX 61 45 65 46 62 47 64 48 63 49 50 50 51 51 55 52 52 53 54 54
REMARK SMILES IDX 53 55 6 56 7 57 8 58 9 59 10 60 27 61 11 62 26 63 28 64
REMARK SMILES IDX 25 65 12 66 13 68 14 69 15 70 16 71 17 73 18 74 19 75 23 76
REMARK SMILES IDX 20 77 22 78 24 79 21 80
REMARK H PARENT 70 23 48 34 12 67 15 72
REMARK Flexibility Score: inf
ROOT
ATOM      1  C   UNL     1       4.285  -2.200   0.683  1.00  0.00     0.275 C 
ENDROOT
BRANCH   1   2
ATOM      2  C   UNL     1       4.759  -1.037   1.568  1.00  0.00     0.275 C 
BRANCH   2   3
ATOM      3  O   UNL     1       3.938   0.128   1.494  1.00  0.00    -0.458 OA
BRANCH   3   4
ATOM      4  C   UNL     1       3.943   1.089   0.547  1.00  0.00     0.338 C 
ATOM      5  O   UNL     1       3.140   2.014   0.665  1.00  0.00    -0.246 OA
BRANCH   4   6
ATOM      6  C   UNL     1       4.769   1.028  -0.710  1.00  0.00     0.060 A 
ATOM      7  C   UNL     1       5.823   0.161  -1.023  1.00  0.00     0.016 A 
ATOM      8  C   UNL     1       4.322   1.864  -1.731  1.00  0.00     0.016 A 
ATOM      9  C   UNL     1       6.262  -0.026  -2.343  1.00  0.00     0.010 A 
ATOM     10  C   UNL     1       4.704   1.633  -3.048  1.00  0.00     0.010 A 
ATOM     11  C   UNL     1       5.654   0.655  -3.388  1.00  0.00    -0.014 A 
BRANCH  11  12
ATOM     12  C   UNL     1       6.040   0.428  -4.811  1.00  0.00     0.031 A 
ATOM     13  C   UNL     1       6.460   1.628  -5.613  1.00  0.00     0.074 A 
ATOM     14  C   UNL     1       5.984  -0.785  -5.411  1.00  0.00     0.049 A 
ATOM     15  N   UNL     1       6.831   1.695  -6.864  1.00  0.00    -0.248 NA
ATOM     16  C   UNL     1       6.421   2.938  -4.933  1.00  0.00     0.031 C 
ATOM     17  C   UNL     1       5.558  -2.043  -4.791  1.00  0.00     0.029 A 
ATOM     18  N   UNL     1       6.283  -1.162  -6.704  1.00  0.00    -0.354 N 
ATOM     19  C   UNL     1       7.092   3.039  -7.078  1.00  0.00     0.074 A 
ATOM     20  C   UNL     1       6.603   3.769  -5.939  1.00  0.00     0.031 C 
ATOM     21  C   UNL     1       5.612  -3.038  -5.697  1.00  0.00     0.029 A 
ATOM     22  C   UNL     1       6.098  -2.505  -6.963  1.00  0.00     0.049 A 
ATOM     23  H   UNL     1       6.603  -0.527  -7.384  1.00  0.00     0.167 HD
ATOM     24  C   UNL     1       7.833   3.617  -8.047  1.00  0.00     0.031 A 
ATOM     25  C   UNL     1       6.331  -3.224  -8.082  1.00  0.00     0.031 A 
ATOM     26  C   UNL     1       8.371   2.901  -9.156  1.00  0.00     0.049 A 
ATOM     27  C   UNL     1       7.014  -2.543  -9.245  1.00  0.00     0.074 A 
ATOM     28  C   UNL     1       9.170   3.367 -10.179  1.00  0.00     0.029 A 
ATOM     29  N   UNL     1       8.150   1.552  -9.384  1.00  0.00    -0.354 N 
ATOM     30  N   UNL     1       7.403  -1.295  -9.356  1.00  0.00    -0.248 NA
ATOM     31  C   UNL     1       7.353  -3.381 -10.405  1.00  0.00     0.031 C 
ATOM     32  C   UNL     1       9.380   2.309 -11.068  1.00  0.00     0.029 A 
ATOM     33  C   UNL     1       8.766   1.173 -10.559  1.00  0.00     0.049 A 
ATOM     34  H   UNL     1       7.632   0.956  -8.797  1.00  0.00     0.167 HD
ATOM     35  C   UNL     1       8.100  -1.219 -10.556  1.00  0.00     0.074 A 
ATOM     36  C   UNL     1       8.065  -2.542 -11.145  1.00  0.00     0.031 C 
ATOM     37  C   UNL     1       8.735  -0.157 -11.110  1.00  0.00     0.031 A 
BRANCH  24  38
ATOM     38  C   UNL     1       8.131   5.074  -7.854  1.00  0.00    -0.014 A 
ATOM     39  C   UNL     1       8.944   5.498  -6.784  1.00  0.00     0.009 A 
ATOM     40  C   UNL     1       7.505   6.031  -8.658  1.00  0.00     0.009 A 
ATOM     41  C   UNL     1       9.058   6.853  -6.476  1.00  0.00     0.001 A 
ATOM     42  C   UNL     1       7.654   7.389  -8.371  1.00  0.00     0.001 A 
ATOM     43  C   UNL     1       8.411   7.797  -7.271  1.00  0.00     0.000 A 
ENDBRANCH  24  38
BRANCH  25  44
ATOM     44  C   UNL     1       6.016  -4.683  -8.160  1.00  0.00    -0.014 A 
ATOM     45  C   UNL     1       7.045  -5.641  -8.188  1.00  0.00     0.009 A 
ATOM     46  C   UNL     1       4.690  -5.124  -8.303  1.00  0.00     0.009 A 
ATOM     47  C   UNL     1       6.759  -6.994  -8.403  1.00  0.00     0.001 A 
ATOM     48  C   UNL     1       4.405  -6.482  -8.494  1.00  0.00     0.001 A 
ATOM     49  C   UNL     1       5.440  -7.414  -8.557  1.00  0.00     0.000 A 
ENDBRANCH  25  44
BRANCH  37  50
ATOM     50  C   UNL     1       9.501  -0.382 -12.380  1.00  0.00    -0.014 A 
ATOM     51  C   UNL     1       8.849  -0.602 -13.601  1.00  0.00     0.009 A 
ATOM     52  C   UNL     1      10.901  -0.272 -12.361  1.00  0.00     0.009 A 
ATOM     53  C   UNL     1       9.588  -0.727 -14.778  1.00  0.00     0.001 A 
ATOM     54  C   UNL     1      11.634  -0.359 -13.543  1.00  0.00     0.001 A 
ATOM     55  C   UNL     1      10.977  -0.595 -14.749  1.00  0.00     0.000 A 
ENDBRANCH  37  50
ENDBRANCH  11  12
ENDBRANCH   4   6
ENDBRANCH   3   4
ENDBRANCH   2   3
ENDBRANCH   1   2
BRANCH   1  56
ATOM     56  O   UNL     1       3.781  -1.842  -0.636  1.00  0.00    -0.458 OA
BRANCH  56  57
ATOM     57  C   UNL     1       2.472  -2.156  -0.848  1.00  0.00     0.339 C 
ATOM     58  O   UNL     1       1.736  -2.608   0.019  1.00  0.00    -0.246 OA
BRANCH  57  59
ATOM     59  C   UNL     1       2.032  -2.117  -2.327  1.00  0.00     0.080 A 
ATOM     60  C   UNL     1       0.635  -1.126  -3.389  1.00  0.00     0.043 A 
ATOM     61  C   UNL     1       2.614  -3.644  -3.123  1.00  0.00     0.055 A 
ATOM     62  C   UNL     1      -0.049  -1.642  -4.829  1.00  0.00     0.041 A 
ATOM     63  C   UNL     1       1.891  -4.098  -4.704  1.00  0.00     0.023 A 
ATOM     64  Cl  UNL     1       3.828  -4.651  -2.439  1.00  0.00    -0.083 Cl
ATOM     65  C   UNL     1       0.599  -3.118  -5.511  1.00  0.00     0.028 A 
BRANCH  62  66
ATOM     66  N   UNL     1      -1.083  -0.736  -5.167  1.00  0.00    -0.332 N 
ATOM     67  H   UNL     1      -1.496  -0.893  -6.047  1.00  0.00     0.169 HD
BRANCH  66  68
ATOM     68  C   UNL     1      -1.618   0.353  -4.452  1.00  0.00     0.177 C 
ATOM     69  S   UNL     1      -2.504   1.473  -5.345  1.00  0.00    -0.040 S 
BRANCH  68  70
ATOM     70  N   UNL     1      -1.498   0.630  -3.014  1.00  0.00    -0.299 N 
ATOM     71  C   UNL     1      -0.928   0.367  -1.611  1.00  0.00     0.260 C 
ATOM     72  H   UNL     1      -2.110   1.389  -2.874  1.00  0.00     0.172 HD
ATOM     73  O   UNL     1      -1.380   0.999  -0.658  1.00  0.00    -0.269 OA
BRANCH  71  74
ATOM     74  C   UNL     1       0.306  -0.574  -1.389  1.00  0.00     0.075 A 
ATOM     75  C   UNL     1      -0.175  -2.225  -1.835  1.00  0.00     0.017 A 
ATOM     76  C   UNL     1       1.707   0.259  -2.153  1.00  0.00     0.135 A 
ATOM     77  C   UNL     1       0.608  -2.994  -3.264  1.00  0.00     0.001 A 
ATOM     78  C   UNL     1       2.558  -0.377  -3.583  1.00  0.00     0.040 A 
ATOM     79  F   UNL     1       1.614   1.607  -2.159  1.00  0.00    -0.206 F 
ATOM     80  C   UNL     1       2.058  -1.964  -4.244  1.00  0.00     0.003 A 
ENDBRANCH  71  74
ENDBRANCH  68  70
ENDBRANCH  66  68
ENDBRANCH  62  66
ENDBRANCH  57  59
ENDBRANCH  56  57
ENDBRANCH   1  56
TORSDOF 15
