REMARK SMILES O=C(OCCOC(=O)c1ncc2ccccc2n1)c1ccc(-c2c3nc(c(-c4ccccc4)c4ccc([nH]4)c(-c4ccccc4)c4nc(c(-c5ccccc5)c5ccc2[nH]5)C=C4)C=C3)cc1
REMARK SMILES IDX 4 1 3 2 2 3 1 4 19 5 20 6 66 7 21 8 65 9 22 10 23 11 24 12
REMARK SMILES IDX 59 13 25 14 64 15 58 16 60 17 26 18 63 19 57 20 56 21 27 23
REMARK SMILES IDX 49 24 34 25 48 26 35 27 38 28 47 29 61 30 36 31 37 32 46 34
REMARK SMILES IDX 62 35 39 36 28 37 29 38 33 39 30 40 32 41 31 42 50 43 51 44
REMARK SMILES IDX 55 45 52 46 54 47 53 48 40 49 41 50 45 51 42 52 44 53 43 54
REMARK SMILES IDX 5 55 6 56 7 57 8 58 9 59 10 60 18 61 11 62 17 63 12 64 16 65
REMARK SMILES IDX 13 66 15 67 14 68
REMARK H PARENT 60 22 38 33
REMARK Flexibility Score: inf
ROOT
ATOM      1  C   UNL     1       3.936   1.510   0.432  1.00  0.00     0.275 C 
ENDROOT
BRANCH   1   2
ATOM      2  O   UNL     1       2.874   0.955  -0.362  1.00  0.00    -0.458 OA
BRANCH   2   3
ATOM      3  C   UNL     1       3.002  -0.101  -1.204  1.00  0.00     0.338 C 
ATOM      4  O   UNL     1       2.374  -0.144  -2.258  1.00  0.00    -0.246 OA
BRANCH   3   5
ATOM      5  C   UNL     1       3.698  -1.337  -0.750  1.00  0.00     0.060 A 
ATOM      6  C   UNL     1       5.012  -1.385  -0.278  1.00  0.00     0.016 A 
ATOM      7  C   UNL     1       2.995  -2.544  -0.901  1.00  0.00     0.016 A 
ATOM      8  C   UNL     1       5.589  -2.602   0.099  1.00  0.00     0.010 A 
ATOM      9  C   UNL     1       3.567  -3.763  -0.524  1.00  0.00     0.010 A 
ATOM     10  C   UNL     1       4.874  -3.797  -0.025  1.00  0.00    -0.014 A 
BRANCH  10  11
ATOM     11  C   UNL     1       5.544  -5.087   0.250  1.00  0.00     0.031 A 
ATOM     12  C   UNL     1       6.056  -5.904  -0.899  1.00  0.00     0.074 A 
ATOM     13  C   UNL     1       5.736  -5.505   1.514  1.00  0.00     0.049 A 
ATOM     14  N   UNL     1       6.719  -7.032  -0.876  1.00  0.00    -0.248 NA
ATOM     15  C   UNL     1       5.817  -5.368  -2.248  1.00  0.00     0.031 C 
ATOM     16  C   UNL     1       5.346  -4.774   2.717  1.00  0.00     0.029 A 
ATOM     17  N   UNL     1       6.298  -6.662   1.993  1.00  0.00    -0.354 N 
ATOM     18  C   UNL     1       7.025  -7.309  -2.201  1.00  0.00     0.074 A 
ATOM     19  C   UNL     1       6.409  -6.278  -3.007  1.00  0.00     0.031 C 
ATOM     20  C   UNL     1       5.628  -5.525   3.796  1.00  0.00     0.029 A 
ATOM     21  C   UNL     1       6.216  -6.785   3.357  1.00  0.00     0.049 A 
ATOM     22  H   UNL     1       6.719  -7.338   1.414  1.00  0.00     0.167 HD
ATOM     23  C   UNL     1       7.789  -8.309  -2.700  1.00  0.00     0.031 A 
ATOM     24  C   UNL     1       6.559  -7.810   4.160  1.00  0.00     0.031 A 
ATOM     25  C   UNL     1       8.362  -9.361  -1.907  1.00  0.00     0.049 A 
ATOM     26  C   UNL     1       7.231  -9.012   3.564  1.00  0.00     0.074 A 
ATOM     27  C   UNL     1       9.160 -10.415  -2.311  1.00  0.00     0.029 A 
ATOM     28  N   UNL     1       8.174  -9.499  -0.540  1.00  0.00    -0.354 N 
ATOM     29  N   UNL     1       7.556  -9.238   2.315  1.00  0.00    -0.248 NA
ATOM     30  C   UNL     1       7.613 -10.083   4.494  1.00  0.00     0.031 C 
ATOM     31  C   UNL     1       9.418 -11.219  -1.194  1.00  0.00     0.029 A 
ATOM     32  C   UNL     1       8.815 -10.640  -0.088  1.00  0.00     0.049 A 
ATOM     33  H   UNL     1       7.661  -8.878   0.026  1.00  0.00     0.167 HD
ATOM     34  C   UNL     1       8.231 -10.450   2.315  1.00  0.00     0.074 A 
ATOM     35  C   UNL     1       8.246 -10.923   3.686  1.00  0.00     0.031 C 
ATOM     36  C   UNL     1       8.813 -11.097   1.277  1.00  0.00     0.031 A 
BRANCH  23  37
ATOM     37  C   UNL     1       8.038  -8.289  -4.179  1.00  0.00    -0.014 A 
ATOM     38  C   UNL     1       8.910  -7.342  -4.742  1.00  0.00     0.009 A 
ATOM     39  C   UNL     1       7.389  -9.204  -5.019  1.00  0.00     0.009 A 
ATOM     40  C   UNL     1       9.096  -7.286  -6.124  1.00  0.00     0.001 A 
ATOM     41  C   UNL     1       7.593  -9.158  -6.400  1.00  0.00     0.001 A 
ATOM     42  C   UNL     1       8.436  -8.194  -6.952  1.00  0.00     0.000 A 
ENDBRANCH  23  37
BRANCH  24  43
ATOM     43  C   UNL     1       6.256  -7.754   5.611  1.00  0.00    -0.014 A 
ATOM     44  C   UNL     1       7.258  -7.475   6.550  1.00  0.00     0.009 A 
ATOM     45  C   UNL     1       4.950  -8.007   6.060  1.00  0.00     0.009 A 
ATOM     46  C   UNL     1       6.959  -7.464   7.915  1.00  0.00     0.001 A 
ATOM     47  C   UNL     1       4.651  -7.976   7.423  1.00  0.00     0.001 A 
ATOM     48  C   UNL     1       5.657  -7.711   8.350  1.00  0.00     0.000 A 
ENDBRANCH  24  43
BRANCH  36  49
ATOM     49  C   UNL     1       9.561 -12.357   1.596  1.00  0.00    -0.014 A 
ATOM     50  C   UNL     1       8.889 -13.559   1.857  1.00  0.00     0.009 A 
ATOM     51  C   UNL     1      10.965 -12.339   1.605  1.00  0.00     0.009 A 
ATOM     52  C   UNL     1       9.612 -14.718   2.148  1.00  0.00     0.001 A 
ATOM     53  C   UNL     1      11.684 -13.503   1.873  1.00  0.00     0.001 A 
ATOM     54  C   UNL     1      11.008 -14.690   2.151  1.00  0.00     0.000 A 
ENDBRANCH  36  49
ENDBRANCH  10  11
ENDBRANCH   3   5
ENDBRANCH   2   3
ENDBRANCH   1   2
BRANCH   1  55
ATOM     55  C   UNL     1       3.829   1.177   1.923  1.00  0.00     0.275 C 
BRANCH  55  56
ATOM     56  O   UNL     1       3.329  -0.146   2.159  1.00  0.00    -0.456 OA
BRANCH  56  57
ATOM     57  C   UNL     1       1.977  -0.212   2.362  1.00  0.00     0.376 C 
ATOM     58  O   UNL     1       1.218   0.742   2.462  1.00  0.00    -0.242 OA
BRANCH  57  59
ATOM     59  C   UNL     1       1.542  -1.639   2.312  1.00  0.00     0.239 A 
ATOM     60  N   UNL     1       0.670  -1.950   1.333  1.00  0.00    -0.230 NA
ATOM     61  N   UNL     1       2.095  -2.500   3.193  1.00  0.00    -0.222 NA
ATOM     62  C   UNL     1       0.380  -3.256   1.214  1.00  0.00     0.124 A 
ATOM     63  C   UNL     1       1.745  -3.788   3.060  1.00  0.00     0.075 A 
ATOM     64  C   UNL     1       0.906  -4.241   2.033  1.00  0.00     0.019 A 
ATOM     65  C   UNL     1       2.227  -4.737   3.953  1.00  0.00     0.029 A 
ATOM     66  C   UNL     1       0.633  -5.611   1.858  1.00  0.00     0.012 A 
ATOM     67  C   UNL     1       1.956  -6.101   3.799  1.00  0.00     0.002 A 
ATOM     68  C   UNL     1       1.175  -6.541   2.738  1.00  0.00     0.001 A 
ENDBRANCH  57  59
ENDBRANCH  56  57
ENDBRANCH  55  56
ENDBRANCH   1  55
TORSDOF 11
