REMARK SMILES O=C(OCCOC(=O)[C@H]1CCCN(c2cc(-c3ccccn3)nc(-c3ccccc3F)n2)C1)c1ccc(-c2c3nc(c(-c4ccccc4)c4ccc([nH]4)c(-c4ccccc4)c4nc(c(-c5ccccc5)c5ccc2[nH]5)C=C4)C=C3)cc1
REMARK SMILES IDX 4 1 3 2 2 3 1 4 34 5 35 6 81 7 36 8 80 9 37 10 38 11 39 12
REMARK SMILES IDX 74 13 40 14 79 15 73 16 75 17 41 18 78 19 72 20 71 21 42 23
REMARK SMILES IDX 64 24 49 25 63 26 50 27 53 28 62 29 76 30 51 31 52 32 61 34
REMARK SMILES IDX 77 35 54 36 43 37 44 38 48 39 45 40 47 41 46 42 65 43 66 44
REMARK SMILES IDX 70 45 67 46 69 47 68 48 55 49 56 50 60 51 57 52 59 53 58 54
REMARK SMILES IDX 5 55 6 56 7 57 8 58 9 59 10 60 33 61 11 62 13 63 12 64 14 65
REMARK SMILES IDX 15 66 32 67 16 68 24 69 23 70 17 71 18 72 22 73 19 74 21 75
REMARK SMILES IDX 20 76 25 77 26 78 30 79 27 80 29 81 31 82 28 83
REMARK H PARENT 75 22 53 33
REMARK Flexibility Score: inf
ROOT
ATOM      1  C   UNL     1       2.981   1.345  -4.478  1.00  0.00     0.275 C 
ENDROOT
BRANCH   1   2
ATOM      2  O   UNL     1       4.026   1.145  -3.508  1.00  0.00    -0.458 OA
BRANCH   2   3
ATOM      3  C   UNL     1       3.952   0.990  -2.163  1.00  0.00     0.338 C 
ATOM      4  O   UNL     1       4.993   1.046  -1.510  1.00  0.00    -0.246 OA
BRANCH   3   5
ATOM      5  C   UNL     1       2.699   0.604  -1.432  1.00  0.00     0.060 A 
ATOM      6  C   UNL     1       1.389   0.928  -1.802  1.00  0.00     0.016 A 
ATOM      7  C   UNL     1       2.874  -0.183  -0.279  1.00  0.00     0.016 A 
ATOM      8  C   UNL     1       0.284   0.398  -1.119  1.00  0.00     0.010 A 
ATOM      9  C   UNL     1       1.776  -0.713   0.407  1.00  0.00     0.010 A 
ATOM     10  C   UNL     1       0.468  -0.440  -0.022  1.00  0.00    -0.014 A 
BRANCH  10  11
ATOM     11  C   UNL     1      -0.677  -0.909   0.793  1.00  0.00     0.031 A 
ATOM     12  C   UNL     1      -0.926  -0.220   2.097  1.00  0.00     0.074 A 
ATOM     13  C   UNL     1      -1.464  -1.937   0.417  1.00  0.00     0.049 A 
ATOM     14  N   UNL     1      -1.820  -0.495   3.007  1.00  0.00    -0.248 NA
ATOM     15  C   UNL     1      -0.106   0.970   2.387  1.00  0.00     0.031 C 
ATOM     16  C   UNL     1      -1.469  -2.588  -0.887  1.00  0.00     0.029 A 
ATOM     17  N   UNL     1      -2.369  -2.675   1.143  1.00  0.00    -0.354 N 
ATOM     18  C   UNL     1      -1.723   0.529   3.935  1.00  0.00     0.074 A 
ATOM     19  C   UNL     1      -0.624   1.377   3.535  1.00  0.00     0.031 C 
ATOM     20  C   UNL     1      -2.162  -3.738  -0.812  1.00  0.00     0.029 A 
ATOM     21  C   UNL     1      -2.705  -3.864   0.531  1.00  0.00     0.049 A 
ATOM     22  H   UNL     1      -2.737  -2.386   2.009  1.00  0.00     0.167 HD
ATOM     23  C   UNL     1      -2.524   0.764   4.996  1.00  0.00     0.031 A 
ATOM     24  C   UNL     1      -3.356  -4.938   1.014  1.00  0.00     0.031 A 
ATOM     25  C   UNL     1      -3.579  -0.119   5.405  1.00  0.00     0.049 A 
ATOM     26  C   UNL     1      -4.035  -4.801   2.346  1.00  0.00     0.074 A 
ATOM     27  C   UNL     1      -4.481   0.034   6.439  1.00  0.00     0.029 A 
ATOM     28  N   UNL     1      -3.841  -1.346   4.815  1.00  0.00    -0.354 N 
ATOM     29  N   UNL     1      -4.031  -3.773   3.160  1.00  0.00    -0.248 NA
ATOM     30  C   UNL     1      -4.878  -5.919   2.786  1.00  0.00     0.031 C 
ATOM     31  C   UNL     1      -5.237  -1.140   6.526  1.00  0.00     0.029 A 
ATOM     32  C   UNL     1      -4.847  -1.995   5.506  1.00  0.00     0.049 A 
ATOM     33  H   UNL     1      -3.379  -1.702   4.021  1.00  0.00     0.167 HD
ATOM     34  C   UNL     1      -4.938  -4.082   4.161  1.00  0.00     0.074 A 
ATOM     35  C   UNL     1      -5.447  -5.407   3.870  1.00  0.00     0.031 C 
ATOM     36  C   UNL     1      -5.341  -3.314   5.202  1.00  0.00     0.031 A 
BRANCH  23  37
ATOM     37  C   UNL     1      -2.265   2.016   5.776  1.00  0.00    -0.014 A 
ATOM     38  C   UNL     1      -2.569   3.278   5.238  1.00  0.00     0.009 A 
ATOM     39  C   UNL     1      -1.705   1.936   7.058  1.00  0.00     0.009 A 
ATOM     40  C   UNL     1      -2.284   4.439   5.959  1.00  0.00     0.001 A 
ATOM     41  C   UNL     1      -1.443   3.098   7.785  1.00  0.00     0.001 A 
ATOM     42  C   UNL     1      -1.724   4.347   7.232  1.00  0.00     0.000 A 
ENDBRANCH  23  37
BRANCH  24  43
ATOM     43  C   UNL     1      -3.417  -6.213   0.252  1.00  0.00    -0.014 A 
ATOM     44  C   UNL     1      -4.600  -6.639  -0.368  1.00  0.00     0.009 A 
ATOM     45  C   UNL     1      -2.289  -7.051   0.198  1.00  0.00     0.009 A 
ATOM     46  C   UNL     1      -4.667  -7.891  -0.988  1.00  0.00     0.001 A 
ATOM     47  C   UNL     1      -2.353  -8.295  -0.438  1.00  0.00     0.001 A 
ATOM     48  C   UNL     1      -3.546  -8.719  -1.020  1.00  0.00     0.000 A 
ENDBRANCH  24  43
BRANCH  36  49
ATOM     49  C   UNL     1      -6.420  -3.867   6.082  1.00  0.00    -0.014 A 
ATOM     50  C   UNL     1      -6.162  -4.910   6.982  1.00  0.00     0.009 A 
ATOM     51  C   UNL     1      -7.696  -3.282   6.056  1.00  0.00     0.009 A 
ATOM     52  C   UNL     1      -7.171  -5.370   7.829  1.00  0.00     0.001 A 
ATOM     53  C   UNL     1      -8.692  -3.721   6.927  1.00  0.00     0.001 A 
ATOM     54  C   UNL     1      -8.430  -4.768   7.808  1.00  0.00     0.000 A 
ENDBRANCH  36  49
ENDBRANCH  10  11
ENDBRANCH   3   5
ENDBRANCH   2   3
ENDBRANCH   1   2
BRANCH   1  55
ATOM     55  C   UNL     1       2.366   0.052  -5.016  1.00  0.00     0.274 C 
BRANCH  55  56
ATOM     56  O   UNL     1       2.223  -0.932  -3.985  1.00  0.00    -0.462 OA
BRANCH  56  57
ATOM     57  C   UNL     1       3.118  -1.967  -3.990  1.00  0.00     0.310 C 
ATOM     58  O   UNL     1       3.919  -2.191  -4.882  1.00  0.00    -0.252 OA
BRANCH  57  59
ATOM     59  C   UNL     1       3.010  -2.749  -2.696  1.00  0.00     0.118 C 
ATOM     60  C   UNL     1       1.563  -3.182  -2.437  1.00  0.00     0.019 C 
ATOM     61  C   UNL     1       3.967  -3.934  -2.679  1.00  0.00     0.133 C 
ATOM     62  C   UNL     1       1.443  -4.044  -1.183  1.00  0.00     0.022 C 
ATOM     63  N   UNL     1       3.690  -4.772  -1.520  1.00  0.00    -0.356 N 
ATOM     64  C   UNL     1       2.346  -5.253  -1.286  1.00  0.00     0.118 C 
BRANCH  63  65
ATOM     65  C   UNL     1       4.677  -5.124  -0.632  1.00  0.00     0.133 A 
ATOM     66  C   UNL     1       4.942  -6.462  -0.469  1.00  0.00     0.077 A 
ATOM     67  N   UNL     1       5.328  -4.184   0.067  1.00  0.00    -0.211 NA
ATOM     68  C   UNL     1       5.940  -6.821   0.406  1.00  0.00     0.095 A 
ATOM     69  C   UNL     1       6.258  -4.623   0.941  1.00  0.00     0.165 A 
ATOM     70  N   UNL     1       6.601  -5.909   1.141  1.00  0.00    -0.226 NA
BRANCH  68  71
ATOM     71  C   UNL     1       6.338  -8.230   0.485  1.00  0.00     0.089 A 
ATOM     72  C   UNL     1       6.672  -8.928  -0.681  1.00  0.00     0.030 A 
ATOM     73  N   UNL     1       6.233  -8.846   1.688  1.00  0.00    -0.255 NA
ATOM     74  C   UNL     1       6.893 -10.298  -0.618  1.00  0.00     0.004 A 
ATOM     75  C   UNL     1       6.473 -10.175   1.723  1.00  0.00     0.112 A 
ATOM     76  C   UNL     1       6.791 -10.937   0.609  1.00  0.00     0.020 A 
ENDBRANCH  68  71
BRANCH  69  77
ATOM     77  C   UNL     1       6.926  -3.635   1.781  1.00  0.00     0.055 A 
ATOM     78  C   UNL     1       6.250  -2.977   2.825  1.00  0.00     0.015 A 
ATOM     79  C   UNL     1       8.284  -3.353   1.604  1.00  0.00     0.134 A 
ATOM     80  C   UNL     1       6.925  -2.089   3.672  1.00  0.00     0.001 A 
ATOM     81  C   UNL     1       8.961  -2.464   2.438  1.00  0.00     0.040 A 
ATOM     82  F   UNL     1       8.973  -3.939   0.612  1.00  0.00    -0.206 F 
ATOM     83  C   UNL     1       8.283  -1.836   3.480  1.00  0.00     0.003 A 
ENDBRANCH  69  77
ENDBRANCH  63  65
ENDBRANCH  57  59
ENDBRANCH  56  57
ENDBRANCH  55  56
ENDBRANCH   1  55
TORSDOF 14
