REMARK SMILES COc1ccc(NC2=[NH+]C(=O)/C(=C\c3ccccc3C(=O)OCCOC(=O)c3ccc(-c4c5nc(c(-c6ccccc6)c6ccc([nH]6)c(-c6ccccc6)c6nc(c(-c7ccccc7)c7ccc4[nH]7)C=C6)C=C5)cc3)S2)cc1
REMARK SMILES IDX 23 1 22 2 20 3 21 4 19 5 14 6 15 7 16 8 18 9 17 10 13 11
REMARK SMILES IDX 7 12 8 13 9 15 76 16 10 17 12 19 11 20 6 21 3 22 4 23 78 24
REMARK SMILES IDX 5 25 77 26 2 27 1 28 24 29 25 30 26 31 27 32 28 33 29 34
REMARK SMILES IDX 75 35 30 36 74 37 31 38 32 39 33 40 68 41 34 42 73 43 67 44
REMARK SMILES IDX 69 45 35 46 72 47 66 48 65 49 36 51 58 52 43 53 57 54 44 55
REMARK SMILES IDX 47 56 56 57 70 58 45 59 46 60 55 62 71 63 48 64 37 65 38 66
REMARK SMILES IDX 42 67 39 68 41 69 40 70 59 71 60 72 64 73 61 74 63 75 62 76
REMARK SMILES IDX 49 77 50 78 54 79 51 80 53 81 52 82
REMARK H PARENT 7 14 9 18 69 50 47 61
REMARK Flexibility Score: inf
ROOT
ATOM      1  C   UNL     1      -1.159   5.389   6.369  1.00  0.00     0.275 C 
ENDROOT
BRANCH   1   2
ATOM      2  O   UNL     1      -1.680   5.066   7.676  1.00  0.00    -0.458 OA
BRANCH   2   3
ATOM      3  C   UNL     1      -1.248   5.834   8.711  1.00  0.00     0.338 C 
ATOM      4  O   UNL     1      -0.588   6.856   8.605  1.00  0.00    -0.246 OA
BRANCH   3   5
ATOM      5  C   UNL     1      -1.767   5.343  10.023  1.00  0.00     0.067 A 
ATOM      6  C   UNL     1      -1.885   3.983  10.377  1.00  0.00    -0.010 A 
ATOM      7  C   UNL     1      -2.419   3.658  11.637  1.00  0.00     0.009 A 
ATOM      8  C   UNL     1      -2.822   4.655  12.532  1.00  0.00     0.001 A 
ATOM      9  C   UNL     1      -2.126   6.333  10.958  1.00  0.00     0.016 A 
ATOM     10  C   UNL     1      -2.677   5.994  12.192  1.00  0.00     0.001 A 
BRANCH   6  11
ATOM     11  C   UNL     1      -1.530   2.861   9.492  1.00  0.00     0.033 C 
ATOM     12  N   UNL     1       2.029   2.135   6.002  1.00  0.00    -0.235 N 
ATOM     13  C   UNL     1       1.343   2.409   7.145  1.00  0.00     0.322 C 
ATOM     14  H   UNL     1       3.008   2.125   6.105  1.00  0.00     0.313 HD
ATOM     15  N   UNL     1       1.762   3.294   7.994  1.00  0.00    -0.199 N 
ATOM     16  S   UNL     1      -0.112   1.549   7.606  1.00  0.00     0.006 SA
ATOM     17  C   UNL     1       0.910   3.466   9.061  1.00  0.00     0.346 C 
ATOM     18  H   UNL     1       2.604   3.792   7.887  1.00  0.00     0.316 HD
ATOM     19  C   UNL     1      -0.345   2.672   8.892  1.00  0.00     0.110 C 
ATOM     20  O   UNL     1       1.139   4.185  10.023  1.00  0.00    -0.240 OA
BRANCH  12  21
ATOM     21  C   UNL     1       1.575   1.865   4.699  1.00  0.00     0.125 A 
ATOM     22  C   UNL     1       0.828   1.308   2.028  1.00  0.00     0.119 A 
ATOM     23  C   UNL     1      -0.112   1.767   2.946  1.00  0.00     0.051 A 
ATOM     24  C   UNL     1       2.146   1.128   2.436  1.00  0.00     0.051 A 
ATOM     25  C   UNL     1       0.253   2.021   4.274  1.00  0.00     0.055 A 
ATOM     26  C   UNL     1       2.510   1.398   3.761  1.00  0.00     0.055 A 
BRANCH  22  27
ATOM     27  O   UNL     1       0.375   1.126   0.752  1.00  0.00    -0.497 OA
ATOM     28  C   UNL     1       0.954   0.021   0.065  1.00  0.00     0.278 C 
ENDBRANCH  22  27
ENDBRANCH  12  21
ENDBRANCH   6  11
ENDBRANCH   3   5
ENDBRANCH   2   3
ENDBRANCH   1   2
BRANCH   1  29
ATOM     29  C   UNL     1      -2.258   5.856   5.415  1.00  0.00     0.275 C 
BRANCH  29  30
ATOM     30  O   UNL     1      -2.727   7.157   5.806  1.00  0.00    -0.458 OA
BRANCH  30  31
ATOM     31  C   UNL     1      -3.876   7.151   6.516  1.00  0.00     0.338 C 
ATOM     32  O   UNL     1      -4.608   6.205   6.750  1.00  0.00    -0.246 OA
BRANCH  31  33
ATOM     33  C   UNL     1      -4.049   8.457   7.158  1.00  0.00     0.060 A 
ATOM     34  C   UNL     1      -3.522   8.589   8.436  1.00  0.00     0.016 A 
ATOM     35  C   UNL     1      -4.838   9.464   6.615  1.00  0.00     0.016 A 
ATOM     36  C   UNL     1      -3.841   9.683   9.224  1.00  0.00     0.010 A 
ATOM     37  C   UNL     1      -5.098  10.610   7.381  1.00  0.00     0.010 A 
ATOM     38  C   UNL     1      -4.632  10.714   8.707  1.00  0.00    -0.014 A 
BRANCH  38  39
ATOM     39  C   UNL     1      -5.010  11.846   9.597  1.00  0.00     0.031 A 
ATOM     40  C   UNL     1      -6.459  12.113   9.909  1.00  0.00     0.074 A 
ATOM     41  C   UNL     1      -4.051  12.589  10.187  1.00  0.00     0.049 A 
ATOM     42  N   UNL     1      -6.991  13.099  10.588  1.00  0.00    -0.248 NA
ATOM     43  C   UNL     1      -7.441  11.153   9.381  1.00  0.00     0.031 C 
ATOM     44  C   UNL     1      -2.607  12.397  10.024  1.00  0.00     0.029 A 
ATOM     45  N   UNL     1      -4.146  13.639  11.066  1.00  0.00    -0.354 N 
ATOM     46  C   UNL     1      -8.366  12.909  10.518  1.00  0.00     0.074 A 
ATOM     47  C   UNL     1      -8.588  11.722   9.723  1.00  0.00     0.031 C 
ATOM     48  C   UNL     1      -1.956  13.259  10.818  1.00  0.00     0.029 A 
ATOM     49  C   UNL     1      -2.927  14.128  11.470  1.00  0.00     0.049 A 
ATOM     50  H   UNL     1      -5.005  14.007  11.377  1.00  0.00     0.167 HD
ATOM     51  C   UNL     1      -9.354  13.659  11.066  1.00  0.00     0.031 A 
ATOM     52  C   UNL     1      -2.618  15.182  12.248  1.00  0.00     0.031 A 
ATOM     53  C   UNL     1      -9.126  14.823  11.883  1.00  0.00     0.049 A 
ATOM     54  C   UNL     1      -3.731  16.022  12.803  1.00  0.00     0.074 A 
ATOM     55  C   UNL     1     -10.057  15.650  12.487  1.00  0.00     0.029 A 
ATOM     56  N   UNL     1      -7.875  15.317  12.222  1.00  0.00    -0.354 N 
ATOM     57  N   UNL     1      -5.027  15.862  12.685  1.00  0.00    -0.248 NA
ATOM     58  C   UNL     1      -3.335  17.196  13.592  1.00  0.00     0.031 C 
ATOM     59  C   UNL     1      -9.369  16.676  13.145  1.00  0.00     0.029 A 
ATOM     60  C   UNL     1      -8.009  16.449  13.010  1.00  0.00     0.049 A 
ATOM     61  H   UNL     1      -7.017  14.922  11.943  1.00  0.00     0.167 HD
ATOM     62  C   UNL     1      -5.602  16.904  13.398  1.00  0.00     0.074 A 
ATOM     63  C   UNL     1      -4.513  17.669  13.971  1.00  0.00     0.031 C 
ATOM     64  C   UNL     1      -6.914  17.206  13.561  1.00  0.00     0.031 A 
BRANCH  51  65
ATOM     65  C   UNL     1     -10.775  13.273  10.751  1.00  0.00    -0.014 A 
ATOM     66  C   UNL     1     -11.361  12.108  11.271  1.00  0.00     0.009 A 
ATOM     67  C   UNL     1     -11.550  14.110   9.931  1.00  0.00     0.009 A 
ATOM     68  C   UNL     1     -12.678  11.771  10.945  1.00  0.00     0.001 A 
ATOM     69  C   UNL     1     -12.875  13.789   9.634  1.00  0.00     0.001 A 
ATOM     70  C   UNL     1     -13.435  12.614  10.132  1.00  0.00     0.000 A 
ENDBRANCH  51  65
BRANCH  52  71
ATOM     71  C   UNL     1      -1.194  15.532  12.502  1.00  0.00    -0.014 A 
ATOM     72  C   UNL     1      -0.648  15.437  13.790  1.00  0.00     0.009 A 
ATOM     73  C   UNL     1      -0.372  15.972  11.450  1.00  0.00     0.009 A 
ATOM     74  C   UNL     1       0.683  15.796  14.024  1.00  0.00     0.001 A 
ATOM     75  C   UNL     1       0.967  16.293  11.679  1.00  0.00     0.001 A 
ATOM     76  C   UNL     1       1.490  16.215  12.968  1.00  0.00     0.000 A 
ENDBRANCH  52  71
BRANCH  64  77
ATOM     77  C   UNL     1      -7.230  18.393  14.428  1.00  0.00    -0.014 A 
ATOM     78  C   UNL     1      -6.935  19.702  14.015  1.00  0.00     0.009 A 
ATOM     79  C   UNL     1      -7.821  18.194  15.685  1.00  0.00     0.009 A 
ATOM     80  C   UNL     1      -7.172  20.782  14.868  1.00  0.00     0.001 A 
ATOM     81  C   UNL     1      -8.091  19.278  16.520  1.00  0.00     0.001 A 
ATOM     82  C   UNL     1      -7.751  20.569  16.118  1.00  0.00     0.000 A 
ENDBRANCH  64  77
ENDBRANCH  38  39
ENDBRANCH  31  33
ENDBRANCH  30  31
ENDBRANCH  29  30
ENDBRANCH   1  29
TORSDOF 14
