REMARK SMILES Cc1c(CCC(=O)N2CCC(C(=O)OCCOC(=O)c3ccc(-c4c5nc(c(-c6ccccc6)c6ccc([nH]6)c(-c6ccccc6)c6nc(c(-c7ccccc7)c7ccc4[nH]7)C=C6)C=C5)cc3)CC2)c(=O)oc2cc3oc4c(c3cc12)CCCC4
REMARK SMILES IDX 15 1 14 2 12 3 13 4 11 5 6 6 7 7 8 8 9 9 69 10 10 11 68 12
REMARK SMILES IDX 5 13 4 14 3 15 1 16 2 17 81 18 70 19 73 20 80 21 71 22 72 23
REMARK SMILES IDX 74 24 79 25 75 26 78 27 76 28 77 29 82 30 85 31 83 32 84 33
REMARK SMILES IDX 16 34 17 35 18 36 19 37 20 38 21 39 67 40 22 41 66 42 23 43
REMARK SMILES IDX 24 44 25 45 60 46 26 47 65 48 59 49 61 50 27 51 64 52 58 53
REMARK SMILES IDX 57 54 28 56 50 57 35 58 49 59 36 60 39 61 48 62 62 63 37 64
REMARK SMILES IDX 38 65 47 67 63 68 40 69 29 70 30 71 34 72 31 73 33 74 32 75
REMARK SMILES IDX 51 76 52 77 56 78 53 79 55 80 54 81 41 82 42 83 46 84 43 85
REMARK SMILES IDX 45 86 44 87
REMARK H PARENT 61 55 39 66
REMARK Flexibility Score: inf
ROOT
ATOM      1  C   UNL     1      -2.091  -4.496   1.656  1.00  0.00     0.274 C 
ENDROOT
BRANCH   1   2
ATOM      2  O   UNL     1      -1.128  -3.436   1.794  1.00  0.00    -0.462 OA
BRANCH   2   3
ATOM      3  C   UNL     1       0.192  -3.798   1.795  1.00  0.00     0.309 C 
ATOM      4  O   UNL     1       0.591  -4.946   1.671  1.00  0.00    -0.252 OA
BRANCH   3   5
ATOM      5  C   UNL     1       1.071  -2.573   2.023  1.00  0.00     0.103 C 
ATOM      6  C   UNL     1       3.491   0.144   0.061  1.00  0.00     0.222 C 
ATOM      7  O   UNL     1       4.231  -0.518  -0.670  1.00  0.00    -0.275 OA
ATOM      8  N   UNL     1       2.896  -0.428   1.189  1.00  0.00    -0.343 N 
ATOM      9  C   UNL     1       3.461  -1.572   1.920  1.00  0.00     0.120 C 
ATOM     10  C   UNL     1       1.501  -0.227   1.446  1.00  0.00     0.120 C 
ATOM     11  C   UNL     1       2.579  -2.850   1.935  1.00  0.00     0.037 C 
ATOM     12  C   UNL     1       0.766  -1.492   0.999  1.00  0.00     0.037 C 
BRANCH   6  13
ATOM     13  C   UNL     1       3.350   1.687  -0.154  1.00  0.00     0.105 C 
BRANCH  13  14
ATOM     14  C   UNL     1       2.325   2.321  -1.138  1.00  0.00     0.053 C 
BRANCH  14  15
ATOM     15  C   UNL     1       1.030   2.792  -0.500  1.00  0.00     0.042 A 
ATOM     16  C   UNL     1      -0.324   0.834  -1.378  1.00  0.00     0.046 C 
ATOM     17  C   UNL     1      -0.068   2.027  -0.505  1.00  0.00    -0.030 A 
ATOM     18  C   UNL     1      -0.952   2.272   0.617  1.00  0.00     0.022 A 
ATOM     19  C   UNL     1       0.888   4.175   0.084  1.00  0.00     0.339 A 
ATOM     20  C   UNL     1      -1.276   3.554   0.983  1.00  0.00     0.142 A 
ATOM     21  C   UNL     1      -1.417   1.220   1.374  1.00  0.00     0.024 A 
ATOM     22  O   UNL     1       1.821   4.970   0.061  1.00  0.00    -0.246 OA
ATOM     23  O   UNL     1      -0.402   4.562   0.537  1.00  0.00    -0.422 OA
ATOM     24  C   UNL     1      -2.414   3.808   1.768  1.00  0.00     0.095 A 
ATOM     25  C   UNL     1      -2.465   1.411   2.246  1.00  0.00     0.025 A 
ATOM     26  C   UNL     1      -3.051   2.665   2.287  1.00  0.00     0.138 A 
ATOM     27  C   UNL     1      -3.321   0.475   2.836  1.00  0.00     0.001 A 
ATOM     28  O   UNL     1      -4.348   2.496   2.717  1.00  0.00    -0.461 OA
ATOM     29  C   UNL     1      -4.518   1.146   2.877  1.00  0.00     0.108 A 
ATOM     30  C   UNL     1      -3.308  -1.000   2.665  1.00  0.00     0.040 C 
ATOM     31  C   UNL     1      -5.740   0.429   2.403  1.00  0.00     0.076 C 
ATOM     32  C   UNL     1      -4.144  -1.367   1.429  1.00  0.00     0.005 C 
ATOM     33  C   UNL     1      -5.312  -0.376   1.147  1.00  0.00     0.008 C 
ENDBRANCH  14  15
ENDBRANCH  13  14
ENDBRANCH   6  13
ENDBRANCH   3   5
ENDBRANCH   2   3
ENDBRANCH   1   2
BRANCH   1  34
ATOM     34  C   UNL     1      -2.361  -5.198   2.988  1.00  0.00     0.275 C 
BRANCH  34  35
ATOM     35  O   UNL     1      -2.979  -4.312   3.944  1.00  0.00    -0.458 OA
BRANCH  35  36
ATOM     36  C   UNL     1      -2.148  -3.718   4.851  1.00  0.00     0.338 C 
ATOM     37  O   UNL     1      -0.952  -3.803   4.910  1.00  0.00    -0.246 OA
BRANCH  36  38
ATOM     38  C   UNL     1      -2.968  -2.775   5.660  1.00  0.00     0.060 A 
ATOM     39  C   UNL     1      -4.239  -3.112   6.128  1.00  0.00     0.016 A 
ATOM     40  C   UNL     1      -2.496  -1.470   5.810  1.00  0.00     0.016 A 
ATOM     41  C   UNL     1      -5.068  -2.119   6.668  1.00  0.00     0.010 A 
ATOM     42  C   UNL     1      -3.349  -0.474   6.301  1.00  0.00     0.010 A 
ATOM     43  C   UNL     1      -4.659  -0.771   6.716  1.00  0.00    -0.014 A 
BRANCH  43  44
ATOM     44  C   UNL     1      -5.569   0.274   7.295  1.00  0.00     0.031 A 
ATOM     45  C   UNL     1      -4.943   1.625   7.576  1.00  0.00     0.074 A 
ATOM     46  C   UNL     1      -6.891   0.256   7.002  1.00  0.00     0.049 A 
ATOM     47  N   UNL     1      -4.870   2.651   6.771  1.00  0.00    -0.248 NA
ATOM     48  C   UNL     1      -4.118   1.767   8.780  1.00  0.00     0.031 C 
ATOM     49  C   UNL     1      -7.382   0.235   5.629  1.00  0.00     0.029 A 
ATOM     50  N   UNL     1      -8.016   0.550   7.744  1.00  0.00    -0.354 N 
ATOM     51  C   UNL     1      -3.973   3.557   7.338  1.00  0.00     0.074 A 
ATOM     52  C   UNL     1      -3.525   2.949   8.573  1.00  0.00     0.031 C 
ATOM     53  C   UNL     1      -8.670   0.611   5.588  1.00  0.00     0.029 A 
ATOM     54  C   UNL     1      -9.131   0.842   6.951  1.00  0.00     0.049 A 
ATOM     55  H   UNL     1      -8.032   0.554   8.728  1.00  0.00     0.167 HD
ATOM     56  C   UNL     1      -3.622   4.770   6.820  1.00  0.00     0.031 A 
ATOM     57  C   UNL     1     -10.124   1.714   7.284  1.00  0.00     0.031 A 
ATOM     58  C   UNL     1      -4.292   5.200   5.633  1.00  0.00     0.049 A 
ATOM     59  C   UNL     1      -9.499   3.026   6.869  1.00  0.00     0.074 A 
ATOM     60  C   UNL     1      -3.995   5.574   4.342  1.00  0.00     0.029 A 
ATOM     61  N   UNL     1      -5.600   5.585   5.749  1.00  0.00    -0.354 N 
ATOM     62  N   UNL     1      -9.412   3.530   5.665  1.00  0.00    -0.248 NA
ATOM     63  C   UNL     1      -8.577   3.600   7.847  1.00  0.00     0.031 C 
ATOM     64  C   UNL     1      -5.251   5.580   3.648  1.00  0.00     0.029 A 
ATOM     65  C   UNL     1      -6.237   5.270   4.583  1.00  0.00     0.049 A 
ATOM     66  H   UNL     1      -6.010   6.013   6.535  1.00  0.00     0.167 HD
ATOM     67  C   UNL     1      -8.236   4.288   5.665  1.00  0.00     0.074 A 
ATOM     68  C   UNL     1      -7.766   4.258   7.037  1.00  0.00     0.031 C 
ATOM     69  C   UNL     1      -7.591   4.753   4.551  1.00  0.00     0.031 A 
BRANCH  56  70
ATOM     70  C   UNL     1      -2.726   5.742   7.499  1.00  0.00    -0.014 A 
ATOM     71  C   UNL     1      -1.333   5.615   7.518  1.00  0.00     0.009 A 
ATOM     72  C   UNL     1      -3.304   6.931   7.980  1.00  0.00     0.009 A 
ATOM     73  C   UNL     1      -0.541   6.668   7.997  1.00  0.00     0.001 A 
ATOM     74  C   UNL     1      -2.516   7.980   8.445  1.00  0.00     0.001 A 
ATOM     75  C   UNL     1      -1.132   7.850   8.450  1.00  0.00     0.000 A 
ENDBRANCH  56  70
BRANCH  57  76
ATOM     76  C   UNL     1     -10.762   1.491   8.619  1.00  0.00    -0.014 A 
ATOM     77  C   UNL     1     -10.823   2.429   9.660  1.00  0.00     0.009 A 
ATOM     78  C   UNL     1     -11.324   0.222   8.862  1.00  0.00     0.009 A 
ATOM     79  C   UNL     1     -11.275   2.066  10.934  1.00  0.00     0.001 A 
ATOM     80  C   UNL     1     -11.810  -0.132  10.123  1.00  0.00     0.001 A 
ATOM     81  C   UNL     1     -11.751   0.780  11.170  1.00  0.00     0.000 A 
ENDBRANCH  57  76
BRANCH  69  82
ATOM     82  C   UNL     1      -8.231   4.505   3.218  1.00  0.00    -0.014 A 
ATOM     83  C   UNL     1      -7.563   3.728   2.258  1.00  0.00     0.009 A 
ATOM     84  C   UNL     1      -9.444   5.097   2.858  1.00  0.00     0.009 A 
ATOM     85  C   UNL     1      -8.070   3.557   0.969  1.00  0.00     0.001 A 
ATOM     86  C   UNL     1      -9.959   4.928   1.567  1.00  0.00     0.001 A 
ATOM     87  C   UNL     1      -9.271   4.164   0.622  1.00  0.00     0.000 A 
ENDBRANCH  69  82
ENDBRANCH  43  44
ENDBRANCH  36  38
ENDBRANCH  35  36
ENDBRANCH  34  35
ENDBRANCH   1  34
TORSDOF 14
