REMARK SMILES O=C(OCCOC(=O)c1ccc(-c2c3nc(c(-c4ccccc4)c4ccc([nH]4)c(-c4ccccc4)c4nc(c(-c5ccccc5)c5ccc2[nH]5)C=C4)C=C3)cc1)C1=Cc2cc(S(F)(F)(F)(F)F)cc(Br)c2O[C@@H]1C(F)(F)F
REMARK SMILES IDX 5 1 4 2 3 3 2 4 1 5 57 6 58 7 73 8 59 9 72 10 60 11 71 12
REMARK SMILES IDX 61 13 69 14 68 15 70 16 74 17 75 18 76 19 77 20 62 21 63 22
REMARK SMILES IDX 64 23 65 24 66 25 67 26 6 27 7 28 8 29 9 30 10 31 56 32
REMARK SMILES IDX 11 33 55 34 12 35 13 36 14 37 49 38 15 39 54 40 48 41 50 42
REMARK SMILES IDX 16 43 53 44 47 45 46 46 17 48 39 49 24 50 38 51 25 52 28 53
REMARK SMILES IDX 37 54 51 55 26 56 27 57 36 59 52 60 29 61 18 62 19 63 23 64
REMARK SMILES IDX 20 65 22 66 21 67 40 68 41 69 45 70 42 71 44 72 43 73 30 74
REMARK SMILES IDX 31 75 35 76 32 77 34 78 33 79
REMARK H PARENT 50 47 28 58
REMARK Flexibility Score: inf
ROOT
ATOM      1  C   UNL     1       4.893   1.223  -0.702  1.00  0.00     0.275 C 
ENDROOT
BRANCH   1   2
ATOM      2  C   UNL     1       4.387  -0.127  -1.183  1.00  0.00     0.275 C 
BRANCH   2   3
ATOM      3  O   UNL     1       2.967  -0.127  -1.183  1.00  0.00    -0.459 OA
BRANCH   3   4
ATOM      4  C   UNL     1       2.257   0.095   0.027  1.00  0.00     0.338 C 
ATOM      5  O   UNL     1       0.986   0.095   0.027  1.00  0.00    -0.246 OA
BRANCH   4   6
ATOM      6  C   UNL     1       3.017   0.333   1.322  1.00  0.00     0.087 C 
ATOM      7  C   UNL     1       4.377   0.333   1.322  1.00  0.00     0.027 C 
ATOM      8  C   UNL     1       2.257   0.571   2.616  1.00  0.00     0.316 C 
ATOM      9  C   UNL     1       5.137   0.095   0.027  1.00  0.00     0.020 A 
ATOM     10  O   UNL     1       3.571   1.500  -1.079  1.00  0.00    -0.474 OA
ATOM     11  C   UNL     1       6.199  -0.793   0.023  1.00  0.00     0.036 A 
ATOM     12  C   UNL     1       4.758   0.722  -1.081  1.00  0.00     0.142 A 
ATOM     13  C   UNL     1       6.990  -0.737  -1.150  1.00  0.00     0.109 A 
ATOM     14  C   UNL     1       5.505   0.623  -2.230  1.00  0.00     0.062 A 
ATOM     15  C   UNL     1       6.603  -0.191  -2.288  1.00  0.00     0.044 A 
ATOM     16  Br  UNL     1       4.991   1.665  -3.808  1.00  0.00    -0.047 Br
BRANCH   8  17
ATOM     17  C   UNL     1       2.624   1.936   3.176  1.00  0.00     0.430 C 
ATOM     18  F   UNL     1       2.303   2.878   2.294  1.00  0.00    -0.167 F 
ATOM     19  F   UNL     1       1.959   2.144   4.309  1.00  0.00    -0.167 F 
ATOM     20  F   UNL     1       3.932   1.980   3.415  1.00  0.00    -0.167 F 
ENDBRANCH   8  17
BRANCH  13  21
ATOM     21  S   UNL     1       8.646  -1.463  -1.085  1.00  0.00     0.310 S 
ATOM     22  F   UNL     1       8.649  -1.468   0.501  1.00  0.00    -0.094 F 
ATOM     23  F   UNL     1       9.250  -0.010  -1.013  1.00  0.00    -0.094 F 
ATOM     24  F   UNL     1      10.069  -2.087  -1.029  1.00  0.00    -0.094 F 
ATOM     25  F   UNL     1       8.018  -2.910  -1.016  1.00  0.00    -0.094 F 
ATOM     26  F   UNL     1       7.192  -0.845  -1.028  1.00  0.00    -0.094 F 
ENDBRANCH  13  21
ENDBRANCH   4   6
ENDBRANCH   3   4
ENDBRANCH   2   3
ENDBRANCH   1   2
BRANCH   1  27
ATOM     27  O   UNL     1       4.420   1.465   0.615  1.00  0.00    -0.458 OA
BRANCH  27  28
ATOM     28  C   UNL     1       3.024   1.512   0.870  1.00  0.00     0.338 C 
ATOM     29  O   UNL     1       2.198   1.337  -0.080  1.00  0.00    -0.246 OA
BRANCH  28  30
ATOM     30  C   UNL     1       2.517   1.771   2.279  1.00  0.00     0.060 A 
ATOM     31  C   UNL     1       1.456   1.024   2.764  1.00  0.00     0.016 A 
ATOM     32  C   UNL     1       3.070   2.736   3.006  1.00  0.00     0.016 A 
ATOM     33  C   UNL     1       0.856   1.567   3.925  1.00  0.00     0.010 A 
ATOM     34  C   UNL     1       2.506   3.123   4.198  1.00  0.00     0.010 A 
ATOM     35  C   UNL     1       1.420   2.468   4.708  1.00  0.00    -0.014 A 
BRANCH  35  36
ATOM     36  C   UNL     1       0.891   2.760   6.103  1.00  0.00     0.031 A 
ATOM     37  C   UNL     1       0.461   4.056   6.392  1.00  0.00     0.074 A 
ATOM     38  C   UNL     1       0.820   1.704   6.995  1.00  0.00     0.049 A 
ATOM     39  N   UNL     1      -0.105   4.493   7.518  1.00  0.00    -0.248 NA
ATOM     40  C   UNL     1       0.567   5.188   5.458  1.00  0.00     0.031 C 
ATOM     41  C   UNL     1       1.244   0.392   6.707  1.00  0.00     0.029 A 
ATOM     42  N   UNL     1       0.343   1.719   8.287  1.00  0.00    -0.354 N 
ATOM     43  C   UNL     1      -0.397   5.792   7.413  1.00  0.00     0.074 A 
ATOM     44  C   UNL     1       0.037   6.258   6.090  1.00  0.00     0.031 C 
ATOM     45  C   UNL     1       1.037  -0.370   7.814  1.00  0.00     0.029 A 
ATOM     46  C   UNL     1       0.479   0.453   8.810  1.00  0.00     0.049 A 
ATOM     47  H   UNL     1      -0.030   2.501   8.755  1.00  0.00     0.167 HD
ATOM     48  C   UNL     1      -1.010   6.604   8.369  1.00  0.00     0.031 A 
ATOM     49  C   UNL     1       0.143   0.020  10.084  1.00  0.00     0.031 A 
ATOM     50  C   UNL     1      -1.386   6.160   9.627  1.00  0.00     0.049 A 
ATOM     51  C   UNL     1      -0.417   0.847  11.061  1.00  0.00     0.074 A 
ATOM     52  C   UNL     1      -2.011   6.964  10.600  1.00  0.00     0.029 A 
ATOM     53  N   UNL     1      -1.227   4.900  10.160  1.00  0.00    -0.354 N 
ATOM     54  N   UNL     1      -0.745   2.135  10.942  1.00  0.00    -0.248 NA
ATOM     55  C   UNL     1      -0.747   0.408  12.423  1.00  0.00     0.031 C 
ATOM     56  C   UNL     1      -2.219   6.202  11.707  1.00  0.00     0.029 A 
ATOM     57  C   UNL     1      -1.726   4.910  11.444  1.00  0.00     0.049 A 
ATOM     58  H   UNL     1      -0.827   4.126   9.701  1.00  0.00     0.167 HD
ATOM     59  C   UNL     1      -1.273   2.582  12.083  1.00  0.00     0.074 A 
ATOM     60  C   UNL     1      -1.275   1.479  13.055  1.00  0.00     0.031 C 
ATOM     61  C   UNL     1      -1.757   3.863  12.352  1.00  0.00     0.031 A 
BRANCH  48  62
ATOM     62  C   UNL     1      -1.280   8.056   8.010  1.00  0.00    -0.014 A 
ATOM     63  C   UNL     1      -2.124   8.284   6.936  1.00  0.00     0.009 A 
ATOM     64  C   UNL     1      -0.757   9.062   8.700  1.00  0.00     0.009 A 
ATOM     65  C   UNL     1      -2.129   9.624   6.484  1.00  0.00     0.001 A 
ATOM     66  C   UNL     1      -0.915  10.359   8.275  1.00  0.00     0.001 A 
ATOM     67  C   UNL     1      -1.688  10.653   7.186  1.00  0.00     0.000 A 
ENDBRANCH  48  62
BRANCH  49  68
ATOM     68  C   UNL     1       0.397  -1.436  10.437  1.00  0.00    -0.014 A 
ATOM     69  C   UNL     1      -0.657  -2.220  10.874  1.00  0.00     0.009 A 
ATOM     70  C   UNL     1       1.635  -1.914  10.381  1.00  0.00     0.009 A 
ATOM     71  C   UNL     1      -0.254  -3.418  11.511  1.00  0.00     0.001 A 
ATOM     72  C   UNL     1       1.931  -3.151  10.901  1.00  0.00     0.001 A 
ATOM     73  C   UNL     1       0.947  -3.956  11.404  1.00  0.00     0.000 A 
ENDBRANCH  49  68
BRANCH  61  74
ATOM     74  C   UNL     1      -2.354   4.127  13.725  1.00  0.00    -0.014 A 
ATOM     75  C   UNL     1      -1.578   3.914  14.852  1.00  0.00     0.009 A 
ATOM     76  C   UNL     1      -3.619   4.519  13.823  1.00  0.00     0.009 A 
ATOM     77  C   UNL     1      -2.318   3.864  16.057  1.00  0.00     0.001 A 
ATOM     78  C   UNL     1      -4.240   4.577  15.048  1.00  0.00     0.001 A 
ATOM     79  C   UNL     1      -3.549   4.321  16.200  1.00  0.00     0.000 A 
ENDBRANCH  61  74
ENDBRANCH  35  36
ENDBRANCH  28  30
ENDBRANCH  27  28
ENDBRANCH   1  27
TORSDOF 13
