REMARK SMILES O=C(NCc1ccc(C(=O)OCCOC(=O)c2ccc(-c3c4nc(c(-c5ccccc5)c5ccc([nH]5)c(-c5ccccc5)c5nc(c(-c6ccccc6)c6ccc3[nH]6)C=C5)C=C4)cc2)o1)Nc1ccc(F)c(Cl)c1
REMARK SMILES IDX 12 1 11 2 9 3 10 4 8 5 5 6 6 7 65 8 7 9 4 10 3 11 1 12 2 13
REMARK SMILES IDX 66 14 67 17 68 18 74 19 69 20 72 21 70 22 73 23 71 24 13 25
REMARK SMILES IDX 14 26 15 27 16 28 17 29 18 30 64 31 19 32 63 33 20 34 21 35
REMARK SMILES IDX 22 36 57 37 23 38 62 39 56 40 58 41 24 42 61 43 55 44 54 45
REMARK SMILES IDX 25 47 47 48 32 49 46 50 33 51 36 52 45 53 59 54 34 55 35 56
REMARK SMILES IDX 44 58 60 59 37 60 26 61 27 62 31 63 28 64 30 65 29 66 48 67
REMARK SMILES IDX 49 68 53 69 50 70 52 71 51 72 38 73 39 74 43 75 40 76 42 77
REMARK SMILES IDX 41 78
REMARK H PARENT 3 15 66 16 58 46 36 57
REMARK Flexibility Score: inf
ROOT
ATOM      1  C   UNL     1       6.441   4.184  -6.018  1.00  0.00     0.275 C 
ENDROOT
BRANCH   1   2
ATOM      2  O   UNL     1       5.864   4.294  -4.704  1.00  0.00    -0.456 OA
BRANCH   2   3
ATOM      3  C   UNL     1       5.191   3.189  -4.259  1.00  0.00     0.374 C 
ATOM      4  O   UNL     1       4.958   2.203  -4.940  1.00  0.00    -0.242 OA
BRANCH   3   5
ATOM      5  C   UNL     1       4.904   3.322  -2.847  1.00  0.00     0.211 A 
ATOM      6  C   UNL     1       4.451   2.496  -0.847  1.00  0.00     0.124 A 
ATOM      7  C   UNL     1       4.699   3.839  -0.664  1.00  0.00     0.048 A 
ATOM      8  O   UNL     1       4.525   2.190  -2.172  1.00  0.00    -0.452 OA
ATOM      9  C   UNL     1       4.995   4.368  -1.948  1.00  0.00     0.058 A 
BRANCH   6  10
ATOM     10  C   UNL     1       4.163   1.362   0.068  1.00  0.00     0.193 C 
BRANCH  10  11
ATOM     11  N   UNL     1       2.733   1.179   0.134  1.00  0.00    -0.331 N 
ATOM     12  O   UNL     1       0.771   0.198  -0.152  1.00  0.00    -0.248 OA
ATOM     13  C   UNL     1       1.985   0.060  -0.038  1.00  0.00     0.319 C 
ATOM     14  N   UNL     1       2.654  -1.133  -0.040  1.00  0.00    -0.308 N 
ATOM     15  H   UNL     1       2.219   1.995   0.337  1.00  0.00     0.165 HD
ATOM     16  H   UNL     1       3.591  -1.122   0.263  1.00  0.00     0.171 HD
BRANCH  14  17
ATOM     17  C   UNL     1       2.121  -2.378  -0.437  1.00  0.00     0.044 A 
ATOM     18  C   UNL     1       2.795  -3.539  -0.035  1.00  0.00     0.029 A 
ATOM     19  C   UNL     1       0.971  -2.494  -1.227  1.00  0.00     0.049 A 
ATOM     20  C   UNL     1       2.296  -4.800  -0.374  1.00  0.00     0.043 A 
ATOM     21  C   UNL     1       0.483  -3.755  -1.579  1.00  0.00     0.078 A 
ATOM     22  C   UNL     1       1.138  -4.900  -1.138  1.00  0.00     0.141 A 
ATOM     23  Cl  UNL     1      -0.925  -3.877  -2.562  1.00  0.00    -0.081 Cl
ATOM     24  F   UNL     1       0.666  -6.119  -1.438  1.00  0.00    -0.205 F 
ENDBRANCH  14  17
ENDBRANCH  10  11
ENDBRANCH   6  10
ENDBRANCH   3   5
ENDBRANCH   2   3
ENDBRANCH   1   2
BRANCH   1  25
ATOM     25  C   UNL     1       7.919   3.780  -5.952  1.00  0.00     0.275 C 
BRANCH  25  26
ATOM     26  O   UNL     1       8.091   2.411  -5.534  1.00  0.00    -0.458 OA
BRANCH  26  27
ATOM     27  C   UNL     1       8.266   2.230  -4.203  1.00  0.00     0.338 C 
ATOM     28  O   UNL     1       8.316   3.097  -3.346  1.00  0.00    -0.246 OA
BRANCH  27  29
ATOM     29  C   UNL     1       8.248   0.791  -3.879  1.00  0.00     0.060 A 
ATOM     30  C   UNL     1       7.370   0.367  -2.878  1.00  0.00     0.016 A 
ATOM     31  C   UNL     1       9.111  -0.122  -4.488  1.00  0.00     0.016 A 
ATOM     32  C   UNL     1       7.340  -0.967  -2.484  1.00  0.00     0.010 A 
ATOM     33  C   UNL     1       9.092  -1.464  -4.082  1.00  0.00     0.010 A 
ATOM     34  C   UNL     1       8.212  -1.891  -3.072  1.00  0.00    -0.014 A 
BRANCH  34  35
ATOM     35  C   UNL     1       8.216  -3.288  -2.576  1.00  0.00     0.031 A 
ATOM     36  C   UNL     1       9.287  -3.745  -1.629  1.00  0.00     0.074 A 
ATOM     37  C   UNL     1       7.222  -4.125  -2.922  1.00  0.00     0.049 A 
ATOM     38  N   UNL     1       9.436  -4.912  -1.054  1.00  0.00    -0.248 NA
ATOM     39  C   UNL     1      10.320  -2.760  -1.274  1.00  0.00     0.031 C 
ATOM     40  C   UNL     1       6.100  -3.790  -3.800  1.00  0.00     0.029 A 
ATOM     41  N   UNL     1       6.993  -5.431  -2.567  1.00  0.00    -0.354 N 
ATOM     42  C   UNL     1      10.581  -4.805  -0.275  1.00  0.00     0.074 A 
ATOM     43  C   UNL     1      11.098  -3.466  -0.465  1.00  0.00     0.031 C 
ATOM     44  C   UNL     1       5.299  -4.863  -3.912  1.00  0.00     0.029 A 
ATOM     45  C   UNL     1       5.866  -5.965  -3.140  1.00  0.00     0.049 A 
ATOM     46  H   UNL     1       7.580  -5.936  -1.959  1.00  0.00     0.167 HD
ATOM     47  C   UNL     1      11.149  -5.736   0.529  1.00  0.00     0.031 A 
ATOM     48  C   UNL     1       5.355  -7.208  -3.065  1.00  0.00     0.031 A 
ATOM     49  C   UNL     1      10.647  -7.071   0.713  1.00  0.00     0.049 A 
ATOM     50  C   UNL     1       6.040  -8.242  -2.217  1.00  0.00     0.074 A 
ATOM     51  C   UNL     1      11.150  -8.078   1.519  1.00  0.00     0.029 A 
ATOM     52  N   UNL     1       9.532  -7.589   0.075  1.00  0.00    -0.354 N 
ATOM     53  N   UNL     1       7.107  -8.117  -1.466  1.00  0.00    -0.248 NA
ATOM     54  C   UNL     1       5.444  -9.586  -2.201  1.00  0.00     0.031 C 
ATOM     55  C   UNL     1      10.361  -9.219   1.338  1.00  0.00     0.029 A 
ATOM     56  C   UNL     1       9.342  -8.908   0.453  1.00  0.00     0.049 A 
ATOM     57  H   UNL     1       8.960  -7.094  -0.554  1.00  0.00     0.167 HD
ATOM     58  C   UNL     1       7.301  -9.360  -0.876  1.00  0.00     0.074 A 
ATOM     59  C   UNL     1       6.232 -10.219  -1.343  1.00  0.00     0.031 C 
ATOM     60  C   UNL     1       8.277  -9.752  -0.022  1.00  0.00     0.031 A 
BRANCH  47  61
ATOM     61  C   UNL     1      12.405  -5.343   1.251  1.00  0.00    -0.014 A 
ATOM     62  C   UNL     1      12.365  -4.492   2.366  1.00  0.00     0.009 A 
ATOM     63  C   UNL     1      13.641  -5.857   0.829  1.00  0.00     0.009 A 
ATOM     64  C   UNL     1      13.544  -4.140   3.027  1.00  0.00     0.001 A 
ATOM     65  C   UNL     1      14.815  -5.520   1.504  1.00  0.00     0.001 A 
ATOM     66  C   UNL     1      14.767  -4.656   2.597  1.00  0.00     0.000 A 
ENDBRANCH  47  61
BRANCH  48  67
ATOM     67  C   UNL     1       4.130  -7.550  -3.830  1.00  0.00    -0.014 A 
ATOM     68  C   UNL     1       2.907  -7.738  -3.173  1.00  0.00     0.009 A 
ATOM     69  C   UNL     1       4.181  -7.689  -5.226  1.00  0.00     0.009 A 
ATOM     70  C   UNL     1       1.758  -8.065  -3.897  1.00  0.00     0.001 A 
ATOM     71  C   UNL     1       3.028  -8.000  -5.949  1.00  0.00     0.001 A 
ATOM     72  C   UNL     1       1.819  -8.192  -5.284  1.00  0.00     0.000 A 
ENDBRANCH  48  67
BRANCH  60  73
ATOM     73  C   UNL     1       8.217 -11.164   0.484  1.00  0.00    -0.014 A 
ATOM     74  C   UNL     1       8.590 -12.243  -0.331  1.00  0.00     0.009 A 
ATOM     75  C   UNL     1       7.817 -11.412   1.807  1.00  0.00     0.009 A 
ATOM     76  C   UNL     1       8.536 -13.549   0.161  1.00  0.00     0.001 A 
ATOM     77  C   UNL     1       7.785 -12.717   2.302  1.00  0.00     0.001 A 
ATOM     78  C   UNL     1       8.137 -13.784   1.477  1.00  0.00     0.000 A 
ENDBRANCH  60  73
ENDBRANCH  34  35
ENDBRANCH  27  29
ENDBRANCH  26  27
ENDBRANCH  25  26
ENDBRANCH   1  25
TORSDOF 14
