REMARK SMILES Cc1n[nH]c(C)c1CC(=O)N1CC[C@H](C(=O)OCCOC(=O)c2ccc(-c3c4nc(c(-c5ccccc5)c5ccc([nH]5)c(-c5ccccc5)c5nc(c(-c6ccccc6)c6ccc3[nH]6)C=C5)C=C4)cc2)[C@H]1C
REMARK SMILES IDX 18 1 17 2 15 3 16 4 14 5 11 6 12 7 71 8 13 9 72 10 9 11
REMARK SMILES IDX 10 12 8 13 7 14 1 15 2 16 3 17 4 18 5 19 6 21 19 22 20 23
REMARK SMILES IDX 21 24 22 25 23 26 24 27 70 28 25 29 69 30 26 31 27 32 28 33
REMARK SMILES IDX 63 34 29 35 68 36 62 37 64 38 30 39 67 40 61 41 60 42 31 44
REMARK SMILES IDX 53 45 38 46 52 47 39 48 42 49 51 50 65 51 40 52 41 53 50 55
REMARK SMILES IDX 66 56 43 57 32 58 33 59 37 60 34 61 36 62 35 63 54 64 55 65
REMARK SMILES IDX 59 66 56 67 58 68 57 69 44 70 45 71 49 72 46 73 48 74 47 75
REMARK H PARENT 4 20 64 43 42 54
REMARK Flexibility Score: inf
ROOT
ATOM      1  C   UNL     1      -2.772  -0.085   5.021  1.00  0.00     0.274 C 
ENDROOT
BRANCH   1   2
ATOM      2  O   UNL     1      -1.551  -0.460   4.340  1.00  0.00    -0.462 OA
BRANCH   2   3
ATOM      3  C   UNL     1      -0.514  -0.800   5.144  1.00  0.00     0.311 C 
ATOM      4  O   UNL     1      -0.566  -0.825   6.371  1.00  0.00    -0.252 OA
BRANCH   3   5
ATOM      5  C   UNL     1       0.768  -1.151   4.413  1.00  0.00     0.123 C 
ATOM      6  N   UNL     1       0.428  -2.494   2.474  1.00  0.00    -0.339 N 
ATOM      7  C   UNL     1       0.418  -3.373   3.630  1.00  0.00     0.121 C 
ATOM      8  C   UNL     1       0.775  -1.121   2.872  1.00  0.00     0.096 C 
ATOM      9  C   UNL     1       1.160  -2.601   4.708  1.00  0.00     0.039 C 
ATOM     10  C   UNL     1       2.183  -0.740   2.406  1.00  0.00     0.032 C 
BRANCH   6  11
ATOM     11  C   UNL     1      -0.054  -2.978   1.273  1.00  0.00     0.227 C 
ATOM     12  O   UNL     1      -0.608  -4.087   1.246  1.00  0.00    -0.275 OA
BRANCH  11  13
ATOM     13  C   UNL     1       0.249  -2.307  -0.061  1.00  0.00     0.139 C 
BRANCH  13  14
ATOM     14  C   UNL     1       0.072  -0.836  -0.209  1.00  0.00     0.005 A 
ATOM     15  C   UNL     1      -2.485  -0.551   0.272  1.00  0.00     0.069 C 
ATOM     16  C   UNL     1      -1.119  -0.071  -0.054  1.00  0.00     0.063 A 
ATOM     17  N   UNL     1      -0.900   1.232  -0.261  1.00  0.00    -0.181 NA
ATOM     18  N   UNL     1       0.384   1.298  -0.632  1.00  0.00    -0.282 N 
ATOM     19  C   UNL     1       1.009   0.084  -0.657  1.00  0.00     0.036 A 
ATOM     20  H   UNL     1       0.835   2.141  -0.866  1.00  0.00     0.190 HD
ATOM     21  C   UNL     1       2.413  -0.054  -1.122  1.00  0.00     0.066 C 
ENDBRANCH  13  14
ENDBRANCH  11  13
ENDBRANCH   6  11
ENDBRANCH   3   5
ENDBRANCH   2   3
ENDBRANCH   1   2
BRANCH   1  22
ATOM     22  C   UNL     1      -3.768  -1.244   5.045  1.00  0.00     0.275 C 
BRANCH  22  23
ATOM     23  O   UNL     1      -3.175  -2.358   5.729  1.00  0.00    -0.458 OA
BRANCH  23  24
ATOM     24  C   UNL     1      -3.543  -3.585   5.297  1.00  0.00     0.338 C 
ATOM     25  O   UNL     1      -4.410  -3.834   4.471  1.00  0.00    -0.246 OA
BRANCH  24  26
ATOM     26  C   UNL     1      -2.709  -4.625   5.951  1.00  0.00     0.060 A 
ATOM     27  C   UNL     1      -1.454  -4.319   6.482  1.00  0.00     0.016 A 
ATOM     28  C   UNL     1      -3.146  -5.950   5.964  1.00  0.00     0.016 A 
ATOM     29  C   UNL     1      -0.602  -5.332   6.922  1.00  0.00     0.010 A 
ATOM     30  C   UNL     1      -2.333  -6.952   6.514  1.00  0.00     0.010 A 
ATOM     31  C   UNL     1      -1.035  -6.663   6.972  1.00  0.00    -0.014 A 
BRANCH  31  32
ATOM     32  C   UNL     1      -0.145  -7.752   7.477  1.00  0.00     0.031 A 
ATOM     33  C   UNL     1       0.111  -8.977   6.633  1.00  0.00     0.074 A 
ATOM     34  C   UNL     1       0.439  -7.669   8.691  1.00  0.00     0.049 A 
ATOM     35  N   UNL     1       0.622 -10.131   6.984  1.00  0.00    -0.248 NA
ATOM     36  C   UNL     1      -0.270  -8.899   5.213  1.00  0.00     0.031 C 
ATOM     37  C   UNL     1       0.348  -6.534   9.613  1.00  0.00     0.029 A 
ATOM     38  N   UNL     1       1.235  -8.569   9.361  1.00  0.00    -0.354 N 
ATOM     39  C   UNL     1       0.556 -10.936   5.853  1.00  0.00     0.074 A 
ATOM     40  C   UNL     1      -0.033 -10.136   4.800  1.00  0.00     0.031 C 
ATOM     41  C   UNL     1       1.094  -6.785  10.699  1.00  0.00     0.029 A 
ATOM     42  C   UNL     1       1.628  -8.138  10.606  1.00  0.00     0.049 A 
ATOM     43  H   UNL     1       1.498  -9.440   8.985  1.00  0.00     0.167 HD
ATOM     44  C   UNL     1       0.941 -12.227   5.706  1.00  0.00     0.031 A 
ATOM     45  C   UNL     1       2.293  -8.769  11.592  1.00  0.00     0.031 A 
ATOM     46  C   UNL     1       1.578 -13.011   6.731  1.00  0.00     0.049 A 
ATOM     47  C   UNL     1       2.684 -10.208  11.418  1.00  0.00     0.074 A 
ATOM     48  C   UNL     1       1.985 -14.334   6.679  1.00  0.00     0.029 A 
ATOM     49  N   UNL     1       1.932 -12.534   7.982  1.00  0.00    -0.354 N 
ATOM     50  N   UNL     1       2.513 -10.990  10.381  1.00  0.00    -0.248 NA
ATOM     51  C   UNL     1       3.336 -10.858  12.564  1.00  0.00     0.031 C 
ATOM     52  C   UNL     1       2.568 -14.663   7.907  1.00  0.00     0.029 A 
ATOM     53  C   UNL     1       2.556 -13.534   8.708  1.00  0.00     0.049 A 
ATOM     54  H   UNL     1       1.764 -11.620   8.306  1.00  0.00     0.167 HD
ATOM     55  C   UNL     1       3.038 -12.221  10.748  1.00  0.00     0.074 A 
ATOM     56  C   UNL     1       3.558 -12.076  12.091  1.00  0.00     0.031 C 
ATOM     57  C   UNL     1       3.074 -13.374  10.039  1.00  0.00     0.031 A 
BRANCH  44  58
ATOM     58  C   UNL     1       0.655 -12.896   4.392  1.00  0.00    -0.014 A 
ATOM     59  C   UNL     1       1.434 -12.639   3.254  1.00  0.00     0.009 A 
ATOM     60  C   UNL     1      -0.375 -13.847   4.312  1.00  0.00     0.009 A 
ATOM     61  C   UNL     1       1.173 -13.310   2.057  1.00  0.00     0.001 A 
ATOM     62  C   UNL     1      -0.619 -14.532   3.121  1.00  0.00     0.001 A 
ATOM     63  C   UNL     1       0.153 -14.259   1.993  1.00  0.00     0.000 A 
ENDBRANCH  44  58
BRANCH  45  64
ATOM     64  C   UNL     1       2.566  -8.068  12.874  1.00  0.00    -0.014 A 
ATOM     65  C   UNL     1       3.876  -7.716  13.229  1.00  0.00     0.009 A 
ATOM     66  C   UNL     1       1.517  -7.762  13.755  1.00  0.00     0.009 A 
ATOM     67  C   UNL     1       4.132  -7.087  14.450  1.00  0.00     0.001 A 
ATOM     68  C   UNL     1       1.772  -7.106  14.960  1.00  0.00     0.001 A 
ATOM     69  C   UNL     1       3.080  -6.777  15.311  1.00  0.00     0.000 A 
ENDBRANCH  45  64
BRANCH  57  70
ATOM     70  C   UNL     1       3.728 -14.555  10.693  1.00  0.00    -0.014 A 
ATOM     71  C   UNL     1       3.070 -15.282  11.696  1.00  0.00     0.009 A 
ATOM     72  C   UNL     1       5.010 -14.954  10.286  1.00  0.00     0.009 A 
ATOM     73  C   UNL     1       3.699 -16.371  12.303  1.00  0.00     0.001 A 
ATOM     74  C   UNL     1       5.627 -16.055  10.880  1.00  0.00     0.001 A 
ATOM     75  C   UNL     1       4.976 -16.757  11.893  1.00  0.00     0.000 A 
ENDBRANCH  57  70
ENDBRANCH  31  32
ENDBRANCH  24  26
ENDBRANCH  23  24
ENDBRANCH  22  23
ENDBRANCH   1  22
TORSDOF 14
