REMARK SMILES Cn1cc(C[C@@H](NC(=O)OCC2c3ccccc3-c3ccccc32)C(=O)OCCOC(=O)c2ccc(-c3c4nc(c(-c5ccccc5)c5ccc([nH]5)c(-c5ccccc5)c5nc(c(-c6ccccc6)c6ccc3[nH]6)C=C5)C=C4)cc2)c2ccccc21
REMARK SMILES IDX 28 1 27 2 25 3 26 4 6 5 5 6 4 7 1 8 2 9 3 10 86 11 81 12
REMARK SMILES IDX 85 13 82 14 84 15 83 16 7 17 8 18 9 20 10 21 11 22 12 23
REMARK SMILES IDX 13 24 24 25 14 26 18 27 19 28 23 29 15 30 17 31 20 32 22 33
REMARK SMILES IDX 16 34 21 35 29 36 30 37 31 38 32 39 33 40 34 41 80 42 35 43
REMARK SMILES IDX 79 44 36 45 37 46 38 47 73 48 39 49 78 50 72 51 74 52 40 53
REMARK SMILES IDX 77 54 71 55 70 56 41 58 63 59 48 60 62 61 49 62 52 63 61 64
REMARK SMILES IDX 75 65 50 66 51 67 60 69 76 70 53 71 42 72 43 73 47 74 44 75
REMARK SMILES IDX 46 76 45 77 64 78 65 79 69 80 66 81 68 82 67 83 54 84 55 85
REMARK SMILES IDX 59 86 56 87 58 88 57 89
REMARK H PARENT 7 19 74 57 52 68
REMARK Flexibility Score: inf
ROOT
ATOM      1  C   UNL     1       0.179  -7.530   0.220  1.00  0.00     0.274 C 
ENDROOT
BRANCH   1   2
ATOM      2  O   UNL     1       0.101  -6.101   0.062  1.00  0.00    -0.461 OA
BRANCH   2   3
ATOM      3  C   UNL     1      -0.018  -5.384   1.218  1.00  0.00     0.329 C 
ATOM      4  O   UNL     1       0.013  -5.869   2.344  1.00  0.00    -0.250 OA
BRANCH   3   5
ATOM      5  C   UNL     1      -0.331  -3.909   0.945  1.00  0.00     0.200 C 
BRANCH   5   6
ATOM      6  C   UNL     1       0.295  -3.336  -0.345  1.00  0.00     0.075 C 
BRANCH   6   7
ATOM      7  C   UNL     1       0.478  -1.833  -0.279  1.00  0.00    -0.020 A 
ATOM      8  C   UNL     1       2.421   1.216   0.114  1.00  0.00     0.149 C 
ATOM      9  N   UNL     1       1.418   0.181  -0.014  1.00  0.00    -0.350 N 
ATOM     10  C   UNL     1       1.672  -1.165  -0.063  1.00  0.00     0.090 A 
ATOM     11  C   UNL     1       0.066   0.414  -0.128  1.00  0.00     0.048 A 
ATOM     12  C   UNL     1      -0.536  -0.821  -0.389  1.00  0.00     0.003 A 
ATOM     13  C   UNL     1      -0.674   1.606  -0.039  1.00  0.00     0.027 A 
ATOM     14  C   UNL     1      -1.923  -0.841  -0.651  1.00  0.00     0.010 A 
ATOM     15  C   UNL     1      -2.056   1.539  -0.231  1.00  0.00     0.002 A 
ATOM     16  C   UNL     1      -2.672   0.335  -0.548  1.00  0.00     0.001 A 
ENDBRANCH   6   7
ENDBRANCH   5   6
BRANCH   5  17
ATOM     17  N   UNL     1      -1.749  -3.584   1.077  1.00  0.00    -0.308 N 
ATOM     18  C   UNL     1      -2.798  -4.337   0.653  1.00  0.00     0.407 C 
ATOM     19  H   UNL     1      -1.968  -2.732   1.519  1.00  0.00     0.168 HD
ATOM     20  O   UNL     1      -3.812  -3.819   0.192  1.00  0.00    -0.225 OA
BRANCH  18  21
ATOM     21  O   UNL     1      -2.667  -5.648   0.966  1.00  0.00    -0.449 OA
BRANCH  21  22
ATOM     22  C   UNL     1      -3.902  -6.366   1.148  1.00  0.00     0.248 C 
BRANCH  22  23
ATOM     23  C   UNL     1      -4.408  -6.358   2.612  1.00  0.00     0.088 C 
ATOM     24  C   UNL     1      -3.714  -7.368   3.527  1.00  0.00    -0.029 A 
ATOM     25  C   UNL     1      -4.205  -5.057   3.387  1.00  0.00    -0.029 A 
ATOM     26  C   UNL     1      -3.671  -8.751   3.417  1.00  0.00     0.005 A 
ATOM     27  C   UNL     1      -3.175  -6.713   4.656  1.00  0.00    -0.014 A 
ATOM     28  C   UNL     1      -3.426  -5.293   4.541  1.00  0.00    -0.014 A 
ATOM     29  C   UNL     1      -4.660  -3.783   3.088  1.00  0.00     0.005 A 
ATOM     30  C   UNL     1      -3.086  -9.480   4.456  1.00  0.00     0.000 A 
ATOM     31  C   UNL     1      -2.593  -7.437   5.685  1.00  0.00     0.009 A 
ATOM     32  C   UNL     1      -3.035  -4.244   5.358  1.00  0.00     0.009 A 
ATOM     33  C   UNL     1      -4.249  -2.722   3.898  1.00  0.00     0.000 A 
ATOM     34  C   UNL     1      -2.555  -8.830   5.582  1.00  0.00     0.001 A 
ATOM     35  C   UNL     1      -3.435  -2.949   5.019  1.00  0.00     0.001 A 
ENDBRANCH  22  23
ENDBRANCH  21  22
ENDBRANCH  18  21
ENDBRANCH   5  17
ENDBRANCH   3   5
ENDBRANCH   2   3
ENDBRANCH   1   2
BRANCH   1  36
ATOM     36  C   UNL     1       1.623  -8.039   0.203  1.00  0.00     0.275 C 
BRANCH  36  37
ATOM     37  O   UNL     1       2.358  -7.611   1.363  1.00  0.00    -0.458 OA
BRANCH  37  38
ATOM     38  C   UNL     1       2.949  -6.400   1.240  1.00  0.00     0.338 C 
ATOM     39  O   UNL     1       3.003  -5.702   0.240  1.00  0.00    -0.246 OA
BRANCH  38  40
ATOM     40  C   UNL     1       3.397  -5.921   2.557  1.00  0.00     0.060 A 
ATOM     41  C   UNL     1       2.987  -4.642   2.950  1.00  0.00     0.016 A 
ATOM     42  C   UNL     1       4.260  -6.670   3.357  1.00  0.00     0.016 A 
ATOM     43  C   UNL     1       3.450  -4.094   4.138  1.00  0.00     0.010 A 
ATOM     44  C   UNL     1       4.743  -6.111   4.543  1.00  0.00     0.010 A 
ATOM     45  C   UNL     1       4.358  -4.812   4.923  1.00  0.00    -0.014 A 
BRANCH  45  46
ATOM     46  C   UNL     1       5.010  -4.133   6.061  1.00  0.00     0.031 A 
ATOM     47  C   UNL     1       6.390  -3.571   5.873  1.00  0.00     0.074 A 
ATOM     48  C   UNL     1       4.354  -3.967   7.222  1.00  0.00     0.049 A 
ATOM     49  N   UNL     1       7.164  -2.969   6.738  1.00  0.00    -0.248 NA
ATOM     50  C   UNL     1       6.974  -3.703   4.528  1.00  0.00     0.031 C 
ATOM     51  C   UNL     1       2.985  -4.406   7.491  1.00  0.00     0.029 A 
ATOM     52  N   UNL     1       4.757  -3.376   8.391  1.00  0.00    -0.354 N 
ATOM     53  C   UNL     1       8.332  -2.668   6.050  1.00  0.00     0.074 A 
ATOM     54  C   UNL     1       8.172  -3.166   4.701  1.00  0.00     0.031 C 
ATOM     55  C   UNL     1       2.661  -4.068   8.751  1.00  0.00     0.029 A 
ATOM     56  C   UNL     1       3.811  -3.426   9.383  1.00  0.00     0.049 A 
ATOM     57  H   UNL     1       5.640  -2.956   8.507  1.00  0.00     0.167 HD
ATOM     58  C   UNL     1       9.439  -2.034   6.503  1.00  0.00     0.031 A 
ATOM     59  C   UNL     1       3.878  -3.017  10.664  1.00  0.00     0.031 A 
ATOM     60  C   UNL     1       9.595  -1.549   7.847  1.00  0.00     0.049 A 
ATOM     61  C   UNL     1       5.144  -2.374  11.161  1.00  0.00     0.074 A 
ATOM     62  C   UNL     1      10.681  -0.907   8.414  1.00  0.00     0.029 A 
ATOM     63  N   UNL     1       8.629  -1.653   8.836  1.00  0.00    -0.354 N 
ATOM     64  N   UNL     1       6.250  -2.110  10.508  1.00  0.00    -0.248 NA
ATOM     65  C   UNL     1       5.167  -1.969  12.573  1.00  0.00     0.031 C 
ATOM     66  C   UNL     1      10.387  -0.659   9.759  1.00  0.00     0.029 A 
ATOM     67  C   UNL     1       9.098  -1.099  10.014  1.00  0.00     0.049 A 
ATOM     68  H   UNL     1       7.740  -2.061   8.718  1.00  0.00     0.167 HD
ATOM     69  C   UNL     1       7.089  -1.483  11.420  1.00  0.00     0.074 A 
ATOM     70  C   UNL     1       6.358  -1.395  12.668  1.00  0.00     0.031 C 
ATOM     71  C   UNL     1       8.351  -1.020  11.242  1.00  0.00     0.031 A 
BRANCH  58  72
ATOM     72  C   UNL     1      10.582  -1.878   5.541  1.00  0.00    -0.014 A 
ATOM     73  C   UNL     1      10.524  -0.963   4.478  1.00  0.00     0.009 A 
ATOM     74  C   UNL     1      11.739  -2.653   5.709  1.00  0.00     0.009 A 
ATOM     75  C   UNL     1      11.590  -0.853   3.582  1.00  0.00     0.001 A 
ATOM     76  C   UNL     1      12.814  -2.523   4.828  1.00  0.00     0.001 A 
ATOM     77  C   UNL     1      12.735  -1.630   3.760  1.00  0.00     0.000 A 
ENDBRANCH  58  72
BRANCH  59  78
ATOM     78  C   UNL     1       2.721  -3.223  11.573  1.00  0.00    -0.014 A 
ATOM     79  C   UNL     1       1.970  -2.132  12.037  1.00  0.00     0.009 A 
ATOM     80  C   UNL     1       2.372  -4.515  11.994  1.00  0.00     0.009 A 
ATOM     81  C   UNL     1       0.908  -2.331  12.923  1.00  0.00     0.001 A 
ATOM     82  C   UNL     1       1.293  -4.713  12.858  1.00  0.00     0.001 A 
ATOM     83  C   UNL     1       0.568  -3.620  13.329  1.00  0.00     0.000 A 
ENDBRANCH  59  78
BRANCH  71  84
ATOM     84  C   UNL     1       8.997  -0.336  12.413  1.00  0.00    -0.014 A 
ATOM     85  C   UNL     1       9.450  -1.062  13.525  1.00  0.00     0.009 A 
ATOM     86  C   UNL     1       9.178   1.056  12.386  1.00  0.00     0.009 A 
ATOM     87  C   UNL     1      10.038  -0.401  14.605  1.00  0.00     0.001 A 
ATOM     88  C   UNL     1       9.792   1.710  13.455  1.00  0.00     0.001 A 
ATOM     89  C   UNL     1      10.211   0.982  14.568  1.00  0.00     0.000 A 
ENDBRANCH  71  84
ENDBRANCH  45  46
ENDBRANCH  38  40
ENDBRANCH  37  38
ENDBRANCH  36  37
ENDBRANCH   1  36
TORSDOF 17
