REMARK SMILES C[C@@H](CC(=O)OCCOC(=O)c1ccc(-c2c3nc(c(-c4ccccc4)c4ccc([nH]4)c(-c4ccccc4)c4nc(c(-c5ccccc5)c5ccc2[nH]5)C=C4)C=C3)cc1)NC(=O)CCn1cccn1
REMARK SMILES IDX 6 1 4 2 5 3 3 4 2 5 1 6 60 7 61 8 62 10 63 11 64 12 65 13
REMARK SMILES IDX 66 14 69 15 67 16 68 17 7 18 8 19 9 20 10 21 11 22 12 23
REMARK SMILES IDX 13 24 59 25 14 26 58 27 15 28 16 29 17 30 52 31 18 32 57 33
REMARK SMILES IDX 51 34 53 35 19 36 56 37 50 38 49 39 20 41 42 42 27 43 41 44
REMARK SMILES IDX 28 45 31 46 40 47 54 48 29 49 30 50 39 52 55 53 32 54 21 55
REMARK SMILES IDX 22 56 26 57 23 58 25 59 24 60 43 61 44 62 48 63 45 64 47 65
REMARK SMILES IDX 46 66 33 67 34 68 38 69 35 70 37 71 36 72
REMARK H PARENT 60 9 53 40 31 51
REMARK Flexibility Score: inf
ROOT
ATOM      1  O   UNL     1       0.621   2.392  -1.953  1.00  0.00    -0.462 OA
ENDROOT
BRANCH   1   2
ATOM      2  C   UNL     1       0.964   2.917  -0.754  1.00  0.00     0.307 C 
ATOM      3  O   UNL     1       1.048   4.116  -0.514  1.00  0.00    -0.252 OA
BRANCH   2   4
ATOM      4  C   UNL     1       1.343   1.867   0.256  1.00  0.00     0.147 C 
BRANCH   4   5
ATOM      5  C   UNL     1       0.493   0.601   0.366  1.00  0.00     0.090 C 
ATOM      6  C   UNL     1       0.376  -0.244  -0.897  1.00  0.00     0.031 C 
BRANCH   5   7
ATOM      7  N   UNL     1      -0.817   0.763   0.984  1.00  0.00    -0.353 N 
ATOM      8  C   UNL     1      -1.255   0.371   2.215  1.00  0.00     0.222 C 
ATOM      9  H   UNL     1      -1.486   1.226   0.430  1.00  0.00     0.163 HD
ATOM     10  O   UNL     1      -2.466   0.363   2.443  1.00  0.00    -0.275 OA
BRANCH   8  11
ATOM     11  C   UNL     1      -0.273   0.039   3.321  1.00  0.00     0.123 C 
BRANCH  11  12
ATOM     12  C   UNL     1       0.303  -1.375   3.271  1.00  0.00     0.154 C 
BRANCH  12  13
ATOM     13  N   UNL     1       1.678  -1.437   2.792  1.00  0.00    -0.272 N 
ATOM     14  C   UNL     1       2.725  -0.642   3.179  1.00  0.00     0.108 A 
ATOM     15  N   UNL     1       1.989  -2.238   1.752  1.00  0.00    -0.182 NA
ATOM     16  C   UNL     1       3.739  -0.879   2.281  1.00  0.00     0.042 A 
ATOM     17  C   UNL     1       3.237  -1.884   1.435  1.00  0.00     0.135 A 
ENDBRANCH  12  13
ENDBRANCH  11  12
ENDBRANCH   8  11
ENDBRANCH   5   7
ENDBRANCH   4   5
ENDBRANCH   2   4
ENDBRANCH   1   2
BRANCH   1  18
ATOM     18  C   UNL     1       0.223   3.327  -2.972  1.00  0.00     0.274 C 
BRANCH  18  19
ATOM     19  C   UNL     1      -1.298   3.497  -3.003  1.00  0.00     0.275 C 
BRANCH  19  20
ATOM     20  O   UNL     1      -1.781   4.188  -1.834  1.00  0.00    -0.458 OA
BRANCH  20  21
ATOM     21  C   UNL     1      -2.251   3.392  -0.846  1.00  0.00     0.338 C 
ATOM     22  O   UNL     1      -2.336   2.175  -0.857  1.00  0.00    -0.246 OA
BRANCH  21  23
ATOM     23  C   UNL     1      -2.529   4.188   0.360  1.00  0.00     0.060 A 
ATOM     24  C   UNL     1      -1.638   4.094   1.430  1.00  0.00     0.016 A 
ATOM     25  C   UNL     1      -3.711   4.917   0.488  1.00  0.00     0.016 A 
ATOM     26  C   UNL     1      -1.929   4.708   2.643  1.00  0.00     0.010 A 
ATOM     27  C   UNL     1      -3.992   5.557   1.702  1.00  0.00     0.010 A 
ATOM     28  C   UNL     1      -3.110   5.444   2.793  1.00  0.00    -0.014 A 
BRANCH  28  29
ATOM     29  C   UNL     1      -3.421   6.050   4.111  1.00  0.00     0.031 A 
ATOM     30  C   UNL     1      -4.531   5.497   4.958  1.00  0.00     0.074 A 
ATOM     31  C   UNL     1      -2.669   7.068   4.572  1.00  0.00     0.049 A 
ATOM     32  N   UNL     1      -4.980   5.925   6.112  1.00  0.00    -0.248 NA
ATOM     33  C   UNL     1      -5.231   4.311   4.441  1.00  0.00     0.031 C 
ATOM     34  C   UNL     1      -1.531   7.666   3.873  1.00  0.00     0.029 A 
ATOM     35  N   UNL     1      -2.743   7.768   5.751  1.00  0.00    -0.354 N 
ATOM     36  C   UNL     1      -6.035   5.084   6.442  1.00  0.00     0.074 A 
ATOM     37  C   UNL     1      -6.166   4.127   5.362  1.00  0.00     0.031 C 
ATOM     38  C   UNL     1      -0.997   8.625   4.646  1.00  0.00     0.029 A 
ATOM     39  C   UNL     1      -1.783   8.742   5.870  1.00  0.00     0.049 A 
ATOM     40  H   UNL     1      -3.418   7.588   6.444  1.00  0.00     0.167 HD
ATOM     41  C   UNL     1      -6.824   5.106   7.543  1.00  0.00     0.031 A 
ATOM     42  C   UNL     1      -1.570   9.644   6.846  1.00  0.00     0.031 A 
ATOM     43  C   UNL     1      -6.684   6.040   8.630  1.00  0.00     0.049 A 
ATOM     44  C   UNL     1      -2.476   9.664   8.044  1.00  0.00     0.074 A 
ATOM     45  C   UNL     1      -7.436   6.136   9.789  1.00  0.00     0.029 A 
ATOM     46  N   UNL     1      -5.720   7.034   8.696  1.00  0.00    -0.354 N 
ATOM     47  N   UNL     1      -3.488   8.882   8.327  1.00  0.00    -0.248 NA
ATOM     48  C   UNL     1      -2.207  10.696   9.056  1.00  0.00     0.031 C 
ATOM     49  C   UNL     1      -6.948   7.210  10.541  1.00  0.00     0.029 A 
ATOM     50  C   UNL     1      -5.864   7.754   9.871  1.00  0.00     0.049 A 
ATOM     51  H   UNL     1      -5.035   7.203   8.010  1.00  0.00     0.167 HD
ATOM     52  C   UNL     1      -3.969   9.316   9.555  1.00  0.00     0.074 A 
ATOM     53  C   UNL     1      -3.123  10.416   9.972  1.00  0.00     0.031 C 
ATOM     54  C   UNL     1      -5.020   8.849  10.271  1.00  0.00     0.031 A 
BRANCH  41  55
ATOM     55  C   UNL     1      -7.943   4.105   7.608  1.00  0.00    -0.014 A 
ATOM     56  C   UNL     1      -7.698   2.750   7.874  1.00  0.00     0.009 A 
ATOM     57  C   UNL     1      -9.267   4.535   7.429  1.00  0.00     0.009 A 
ATOM     58  C   UNL     1      -8.756   1.839   7.929  1.00  0.00     0.001 A 
ATOM     59  C   UNL     1     -10.324   3.627   7.508  1.00  0.00     0.001 A 
ATOM     60  C   UNL     1     -10.067   2.279   7.749  1.00  0.00     0.000 A 
ENDBRANCH  41  55
BRANCH  42  61
ATOM     61  C   UNL     1      -0.460  10.622   6.722  1.00  0.00    -0.014 A 
ATOM     62  C   UNL     1       0.677  10.518   7.538  1.00  0.00     0.009 A 
ATOM     63  C   UNL     1      -0.536  11.667   5.789  1.00  0.00     0.009 A 
ATOM     64  C   UNL     1       1.707  11.456   7.434  1.00  0.00     0.001 A 
ATOM     65  C   UNL     1       0.508  12.587   5.670  1.00  0.00     0.001 A 
ATOM     66  C   UNL     1       1.624  12.485   6.498  1.00  0.00     0.000 A 
ENDBRANCH  42  61
BRANCH  54  67
ATOM     67  C   UNL     1      -5.291   9.512  11.590  1.00  0.00    -0.014 A 
ATOM     68  C   UNL     1      -5.860  10.793  11.656  1.00  0.00     0.009 A 
ATOM     69  C   UNL     1      -4.979   8.842  12.783  1.00  0.00     0.009 A 
ATOM     70  C   UNL     1      -6.075  11.406  12.892  1.00  0.00     0.001 A 
ATOM     71  C   UNL     1      -5.218   9.447  14.017  1.00  0.00     0.001 A 
ATOM     72  C   UNL     1      -5.756  10.732  14.071  1.00  0.00     0.000 A 
ENDBRANCH  54  67
ENDBRANCH  28  29
ENDBRANCH  21  23
ENDBRANCH  20  21
ENDBRANCH  19  20
ENDBRANCH  18  19
ENDBRANCH   1  18
TORSDOF 16
