REMARK SMILES O=C(OCCOC(=O)c1ccc(C(F)(F)F)nc1NC[C@@H]1CCOC1)c1ccc(-c2c3nc(c(-c4ccccc4)c4ccc([nH]4)c(-c4ccccc4)c4nc(c(-c5ccccc5)c5ccc2[nH]5)C=C4)C=C3)cc1
REMARK SMILES IDX 5 1 4 2 3 3 2 4 1 5 26 6 27 7 73 8 28 9 72 10 29 11 30 12
REMARK SMILES IDX 31 13 66 14 32 15 71 16 65 17 67 18 33 19 70 20 64 21 63 22
REMARK SMILES IDX 34 24 56 25 41 26 55 27 42 28 45 29 54 30 68 31 43 32 44 33
REMARK SMILES IDX 53 35 69 36 46 37 35 38 36 39 40 40 37 41 39 42 38 43 57 44
REMARK SMILES IDX 58 45 62 46 59 47 61 48 60 49 47 50 48 51 52 52 49 53 51 54
REMARK SMILES IDX 50 55 6 56 7 57 8 58 9 59 10 60 18 61 11 62 17 63 12 64
REMARK SMILES IDX 19 65 20 67 21 68 22 69 25 70 23 71 24 72 13 73 14 74 15 75
REMARK SMILES IDX 16 76
REMARK H PARENT 67 23 45 34 19 66
REMARK Flexibility Score: inf
ROOT
ATOM      1  C   UNL     1       4.091  -2.074  -0.996  1.00  0.00     0.275 C 
ENDROOT
BRANCH   1   2
ATOM      2  C   UNL     1       4.490  -1.565   0.394  1.00  0.00     0.275 C 
BRANCH   2   3
ATOM      3  O   UNL     1       3.518  -0.706   1.010  1.00  0.00    -0.458 OA
BRANCH   3   4
ATOM      4  C   UNL     1       3.523   0.649   1.050  1.00  0.00     0.338 C 
ATOM      5  O   UNL     1       2.926   1.228   1.955  1.00  0.00    -0.246 OA
BRANCH   4   6
ATOM      6  C   UNL     1       4.053   1.466  -0.086  1.00  0.00     0.060 A 
ATOM      7  C   UNL     1       5.185   1.191  -0.858  1.00  0.00     0.016 A 
ATOM      8  C   UNL     1       3.318   2.620  -0.395  1.00  0.00     0.016 A 
ATOM      9  C   UNL     1       5.527   1.987  -1.956  1.00  0.00     0.010 A 
ATOM     10  C   UNL     1       3.624   3.396  -1.511  1.00  0.00     0.010 A 
ATOM     11  C   UNL     1       4.751   3.095  -2.284  1.00  0.00    -0.014 A 
BRANCH  11  12
ATOM     12  C   UNL     1       5.247   4.104  -3.241  1.00  0.00     0.031 A 
ATOM     13  C   UNL     1       5.734   5.398  -2.662  1.00  0.00     0.074 A 
ATOM     14  C   UNL     1       5.258   3.896  -4.568  1.00  0.00     0.049 A 
ATOM     15  N   UNL     1       6.113   6.489  -3.269  1.00  0.00    -0.248 NA
ATOM     16  C   UNL     1       5.810   5.464  -1.191  1.00  0.00     0.031 C 
ATOM     17  C   UNL     1       4.926   2.642  -5.237  1.00  0.00     0.029 A 
ATOM     18  N   UNL     1       5.524   4.760  -5.599  1.00  0.00    -0.354 N 
ATOM     19  C   UNL     1       6.472   7.362  -2.253  1.00  0.00     0.074 A 
ATOM     20  C   UNL     1       6.178   6.716  -0.997  1.00  0.00     0.031 C 
ATOM     21  C   UNL     1       4.895   2.845  -6.565  1.00  0.00     0.029 A 
ATOM     22  C   UNL     1       5.229   4.239  -6.835  1.00  0.00     0.049 A 
ATOM     23  H   UNL     1       5.890   5.664  -5.466  1.00  0.00     0.167 HD
ATOM     24  C   UNL     1       7.046   8.580  -2.357  1.00  0.00     0.031 A 
ATOM     25  C   UNL     1       5.213   4.832  -8.043  1.00  0.00     0.031 A 
ATOM     26  C   UNL     1       7.314   9.213  -3.614  1.00  0.00     0.049 A 
ATOM     27  C   UNL     1       5.709   6.247  -8.147  1.00  0.00     0.074 A 
ATOM     28  C   UNL     1       7.909  10.434  -3.860  1.00  0.00     0.029 A 
ATOM     29  N   UNL     1       6.980   8.665  -4.846  1.00  0.00    -0.354 N 
ATOM     30  N   UNL     1       6.106   7.049  -7.188  1.00  0.00    -0.248 NA
ATOM     31  C   UNL     1       5.815   6.820  -9.495  1.00  0.00     0.031 C 
ATOM     32  C   UNL     1       7.879  10.653  -5.240  1.00  0.00     0.029 A 
ATOM     33  C   UNL     1       7.330   9.537  -5.858  1.00  0.00     0.049 A 
ATOM     34  H   UNL     1       6.556   7.786  -4.978  1.00  0.00     0.167 HD
ATOM     35  C   UNL     1       6.576   8.194  -7.817  1.00  0.00     0.074 A 
ATOM     36  C   UNL     1       6.387   7.991  -9.241  1.00  0.00     0.031 C 
ATOM     37  C   UNL     1       7.142   9.296  -7.268  1.00  0.00     0.031 A 
BRANCH  24  38
ATOM     38  C   UNL     1       7.368   9.278  -1.067  1.00  0.00    -0.014 A 
ATOM     39  C   UNL     1       8.336   8.768  -0.182  1.00  0.00     0.009 A 
ATOM     40  C   UNL     1       6.630  10.408  -0.687  1.00  0.00     0.009 A 
ATOM     41  C   UNL     1       8.501   9.327   1.086  1.00  0.00     0.001 A 
ATOM     42  C   UNL     1       6.826  10.989   0.567  1.00  0.00     0.001 A 
ATOM     43  C   UNL     1       7.744  10.436   1.460  1.00  0.00     0.000 A 
ENDBRANCH  24  38
BRANCH  25  44
ATOM     44  C   UNL     1       4.742   4.077  -9.234  1.00  0.00    -0.014 A 
ATOM     45  C   UNL     1       5.646   3.592 -10.190  1.00  0.00     0.009 A 
ATOM     46  C   UNL     1       3.372   3.815  -9.405  1.00  0.00     0.009 A 
ATOM     47  C   UNL     1       5.188   2.876 -11.300  1.00  0.00     0.001 A 
ATOM     48  C   UNL     1       2.919   3.083 -10.506  1.00  0.00     0.001 A 
ATOM     49  C   UNL     1       3.826   2.619 -11.456  1.00  0.00     0.000 A 
ENDBRANCH  25  44
BRANCH  37  50
ATOM     50  C   UNL     1       7.673  10.344  -8.202  1.00  0.00    -0.014 A 
ATOM     51  C   UNL     1       6.819  11.214  -8.892  1.00  0.00     0.009 A 
ATOM     52  C   UNL     1       9.063  10.527  -8.296  1.00  0.00     0.009 A 
ATOM     53  C   UNL     1       7.350  12.247  -9.666  1.00  0.00     0.001 A 
ATOM     54  C   UNL     1       9.588  11.579  -9.044  1.00  0.00     0.001 A 
ATOM     55  C   UNL     1       8.731  12.435  -9.732  1.00  0.00     0.000 A 
ENDBRANCH  37  50
ENDBRANCH  11  12
ENDBRANCH   4   6
ENDBRANCH   3   4
ENDBRANCH   2   3
ENDBRANCH   1   2
BRANCH   1  56
ATOM     56  O   UNL     1       3.571  -1.059  -1.874  1.00  0.00    -0.458 OA
BRANCH  56  57
ATOM     57  C   UNL     1       2.216  -0.914  -1.850  1.00  0.00     0.342 C 
ATOM     58  O   UNL     1       1.433  -1.569  -1.192  1.00  0.00    -0.246 OA
BRANCH  57  59
ATOM     59  C   UNL     1       1.819   0.235  -2.688  1.00  0.00     0.102 A 
ATOM     60  C   UNL     1       2.264   0.334  -4.009  1.00  0.00     0.022 A 
ATOM     61  C   UNL     1       0.992   1.233  -2.166  1.00  0.00     0.141 A 
ATOM     62  C   UNL     1       1.932   1.460  -4.760  1.00  0.00     0.034 A 
ATOM     63  N   UNL     1       0.722   2.345  -2.893  1.00  0.00    -0.226 NA
ATOM     64  C   UNL     1       1.210   2.483  -4.156  1.00  0.00     0.146 A 
BRANCH  61  65
ATOM     65  N   UNL     1       0.537   1.201  -0.859  1.00  0.00    -0.369 N 
ATOM     66  H   UNL     1       0.768   0.435  -0.285  1.00  0.00     0.162 HD
BRANCH  65  67
ATOM     67  C   UNL     1      -0.276   2.277  -0.318  1.00  0.00     0.120 C 
BRANCH  67  68
ATOM     68  C   UNL     1      -1.641   1.820   0.216  1.00  0.00     0.036 C 
ATOM     69  C   UNL     1      -1.617   1.571   1.712  1.00  0.00     0.036 C 
ATOM     70  C   UNL     1      -2.123   0.476  -0.301  1.00  0.00     0.165 C 
ATOM     71  C   UNL     1      -1.192   0.125   1.813  1.00  0.00     0.160 C 
ATOM     72  O   UNL     1      -1.633  -0.521   0.610  1.00  0.00    -0.381 OA
ENDBRANCH  67  68
ENDBRANCH  65  67
ENDBRANCH  61  65
BRANCH  64  73
ATOM     73  C   UNL     1       1.007   3.817  -4.863  1.00  0.00     0.433 C 
ATOM     74  F   UNL     1      -0.307   4.116  -5.072  1.00  0.00    -0.165 F 
ATOM     75  F   UNL     1       1.524   4.869  -4.163  1.00  0.00    -0.165 F 
ATOM     76  F   UNL     1       1.592   3.875  -6.097  1.00  0.00    -0.165 F 
ENDBRANCH  64  73
ENDBRANCH  57  59
ENDBRANCH  56  57
ENDBRANCH   1  56
TORSDOF 15
