REMARK SMILES Cc1ccc([C@@H](CC(=O)OCCOC(=O)c2ccc(-c3c4nc(c(-c5ccccc5)c5ccc([nH]5)c(-c5ccccc5)c5nc(c(-c6ccccc6)c6ccc3[nH]6)C=C5)C=C4)cc2)NC(=O)c2ccc(OC(F)F)cc2)cc1
REMARK SMILES IDX 10 1 8 2 9 3 7 4 6 5 5 6 1 7 2 8 3 9 78 10 4 11 77 12 64 13
REMARK SMILES IDX 65 14 66 16 67 17 68 18 76 19 69 20 75 21 70 22 71 23 72 24
REMARK SMILES IDX 73 25 74 26 11 27 12 28 13 29 14 30 15 31 16 32 17 33 63 34
REMARK SMILES IDX 18 35 62 36 19 37 20 38 21 39 56 40 22 41 61 42 55 43 57 44
REMARK SMILES IDX 23 45 60 46 54 47 53 48 24 50 46 51 31 52 45 53 32 54 35 55
REMARK SMILES IDX 44 56 58 57 33 58 34 59 43 61 59 62 36 63 25 64 26 65 30 66
REMARK SMILES IDX 27 67 29 68 28 69 47 70 48 71 52 72 49 73 51 74 50 75 37 76
REMARK SMILES IDX 38 77 42 78 39 79 41 80 40 81
REMARK H PARENT 64 15 57 49 35 60
REMARK Flexibility Score: inf
ROOT
ATOM      1  O   UNL     1      -2.018  -1.991   0.265  1.00  0.00    -0.462 OA
ENDROOT
BRANCH   1   2
ATOM      2  C   UNL     1      -1.679  -1.081  -0.679  1.00  0.00     0.308 C 
ATOM      3  O   UNL     1      -0.728  -1.196  -1.444  1.00  0.00    -0.252 OA
BRANCH   2   4
ATOM      4  C   UNL     1      -2.625   0.099  -0.638  1.00  0.00     0.152 C 
BRANCH   4   5
ATOM      5  C   UNL     1      -2.696   0.734   0.772  1.00  0.00     0.123 C 
BRANCH   5   6
ATOM      6  C   UNL     1      -1.230   0.933   1.213  1.00  0.00    -0.025 A 
ATOM      7  C   UNL     1       2.870   0.255   0.196  1.00  0.00     0.044 C 
ATOM      8  C   UNL     1       1.523   0.615   0.752  1.00  0.00    -0.051 A 
ATOM      9  C   UNL     1       0.847  -0.269   1.596  1.00  0.00     0.004 A 
ATOM     10  C   UNL     1       0.861   1.759   0.299  1.00  0.00     0.004 A 
ATOM     11  C   UNL     1      -0.512  -0.085   1.869  1.00  0.00     0.006 A 
ATOM     12  C   UNL     1      -0.502   1.929   0.542  1.00  0.00     0.006 A 
ENDBRANCH   5   6
BRANCH   5  13
ATOM     13  N   UNL     1      -3.496  -0.058   1.705  1.00  0.00    -0.345 N 
ATOM     14  C   UNL     1      -4.743   0.150   2.234  1.00  0.00     0.251 C 
ATOM     15  H   UNL     1      -3.062  -0.888   2.007  1.00  0.00     0.164 HD
ATOM     16  O   UNL     1      -5.047  -0.431   3.274  1.00  0.00    -0.269 OA
BRANCH  14  17
ATOM     17  C   UNL     1      -5.746   1.032   1.592  1.00  0.00     0.040 A 
ATOM     18  C   UNL     1      -6.569   1.813   2.409  1.00  0.00     0.017 A 
ATOM     19  C   UNL     1      -6.021   0.967   0.225  1.00  0.00     0.017 A 
ATOM     20  C   UNL     1      -7.623   2.547   1.853  1.00  0.00     0.047 A 
ATOM     21  C   UNL     1      -7.073   1.708  -0.333  1.00  0.00     0.047 A 
ATOM     22  C   UNL     1      -7.882   2.501   0.479  1.00  0.00     0.126 A 
BRANCH  22  23
ATOM     23  O   UNL     1      -8.954   3.244   0.074  1.00  0.00    -0.435 OA
BRANCH  23  24
ATOM     24  C   UNL     1      -9.309   3.229  -1.302  1.00  0.00     0.542 C 
ATOM     25  F   UNL     1      -8.276   3.690  -2.050  1.00  0.00    -0.167 F 
ATOM     26  F   UNL     1      -9.588   1.964  -1.700  1.00  0.00    -0.167 F 
ENDBRANCH  23  24
ENDBRANCH  22  23
ENDBRANCH  14  17
ENDBRANCH   5  13
ENDBRANCH   4   5
ENDBRANCH   2   4
ENDBRANCH   1   2
BRANCH   1  27
ATOM     27  C   UNL     1      -1.179  -3.137   0.373  1.00  0.00     0.274 C 
BRANCH  27  28
ATOM     28  C   UNL     1      -1.894  -4.202   1.213  1.00  0.00     0.275 C 
BRANCH  28  29
ATOM     29  O   UNL     1      -3.348  -4.079   1.417  1.00  0.00    -0.458 OA
BRANCH  29  30
ATOM     30  C   UNL     1      -4.360  -3.727   0.573  1.00  0.00     0.338 C 
ATOM     31  O   UNL     1      -5.478  -3.428   0.971  1.00  0.00    -0.246 OA
BRANCH  30  32
ATOM     32  C   UNL     1      -4.062  -3.657  -0.863  1.00  0.00     0.060 A 
ATOM     33  C   UNL     1      -4.571  -2.616  -1.664  1.00  0.00     0.016 A 
ATOM     34  C   UNL     1      -3.134  -4.545  -1.358  1.00  0.00     0.016 A 
ATOM     35  C   UNL     1      -4.035  -2.398  -2.935  1.00  0.00     0.010 A 
ATOM     36  C   UNL     1      -2.435  -4.168  -2.468  1.00  0.00     0.010 A 
ATOM     37  C   UNL     1      -2.937  -3.165  -3.311  1.00  0.00    -0.014 A 
BRANCH  37  38
ATOM     38  C   UNL     1      -2.388  -3.260  -4.656  1.00  0.00     0.031 A 
ATOM     39  C   UNL     1      -1.639  -2.181  -5.309  1.00  0.00     0.074 A 
ATOM     40  C   UNL     1      -2.531  -4.509  -5.165  1.00  0.00     0.049 A 
ATOM     41  N   UNL     1      -1.537  -2.065  -6.585  1.00  0.00    -0.248 NA
ATOM     42  C   UNL     1      -0.931  -1.120  -4.600  1.00  0.00     0.031 C 
ATOM     43  C   UNL     1      -1.942  -5.185  -6.301  1.00  0.00     0.029 A 
ATOM     44  N   UNL     1      -3.458  -5.445  -4.684  1.00  0.00    -0.354 N 
ATOM     45  C   UNL     1      -0.471  -1.223  -6.825  1.00  0.00     0.074 A 
ATOM     46  C   UNL     1      -0.224  -0.545  -5.581  1.00  0.00     0.031 C 
ATOM     47  C   UNL     1      -2.726  -6.242  -6.614  1.00  0.00     0.029 A 
ATOM     48  C   UNL     1      -3.913  -6.180  -5.762  1.00  0.00     0.049 A 
ATOM     49  H   UNL     1      -3.734  -5.558  -3.746  1.00  0.00     0.167 HD
ATOM     50  C   UNL     1       0.224  -1.364  -7.987  1.00  0.00     0.031 A 
ATOM     51  C   UNL     1      -5.200  -5.933  -6.147  1.00  0.00     0.031 A 
ATOM     52  C   UNL     1      -0.366  -2.427  -8.800  1.00  0.00     0.049 A 
ATOM     53  C   UNL     1      -5.212  -5.270  -7.501  1.00  0.00     0.074 A 
ATOM     54  C   UNL     1      -0.019  -3.754  -8.993  1.00  0.00     0.029 A 
ATOM     55  N   UNL     1      -1.691  -2.307  -9.201  1.00  0.00    -0.354 N 
ATOM     56  N   UNL     1      -4.243  -4.537  -7.979  1.00  0.00    -0.248 NA
ATOM     57  C   UNL     1      -6.301  -5.451  -8.444  1.00  0.00     0.031 C 
ATOM     58  C   UNL     1      -1.169  -4.441  -9.473  1.00  0.00     0.029 A 
ATOM     59  C   UNL     1      -2.207  -3.531  -9.579  1.00  0.00     0.049 A 
ATOM     60  H   UNL     1      -2.195  -1.462  -9.214  1.00  0.00     0.167 HD
ATOM     61  C   UNL     1      -4.490  -4.253  -9.297  1.00  0.00     0.074 A 
ATOM     62  C   UNL     1      -5.813  -4.815  -9.523  1.00  0.00     0.031 C 
ATOM     63  C   UNL     1      -3.573  -3.615 -10.091  1.00  0.00     0.031 A 
BRANCH  50  64
ATOM     64  C   UNL     1       1.599  -0.790  -8.225  1.00  0.00    -0.014 A 
ATOM     65  C   UNL     1       2.512  -1.501  -9.027  1.00  0.00     0.009 A 
ATOM     66  C   UNL     1       2.062   0.425  -7.690  1.00  0.00     0.009 A 
ATOM     67  C   UNL     1       3.826  -1.065  -9.237  1.00  0.00     0.001 A 
ATOM     68  C   UNL     1       3.385   0.860  -7.883  1.00  0.00     0.001 A 
ATOM     69  C   UNL     1       4.269   0.112  -8.652  1.00  0.00     0.000 A 
ENDBRANCH  50  64
BRANCH  51  70
ATOM     70  C   UNL     1      -6.135  -5.618  -5.000  1.00  0.00    -0.014 A 
ATOM     71  C   UNL     1      -6.222  -6.537  -3.924  1.00  0.00     0.009 A 
ATOM     72  C   UNL     1      -6.678  -4.340  -4.797  1.00  0.00     0.009 A 
ATOM     73  C   UNL     1      -6.721  -6.160  -2.668  1.00  0.00     0.001 A 
ATOM     74  C   UNL     1      -7.210  -3.976  -3.545  1.00  0.00     0.001 A 
ATOM     75  C   UNL     1      -7.202  -4.871  -2.475  1.00  0.00     0.000 A 
ENDBRANCH  51  70
BRANCH  63  76
ATOM     76  C   UNL     1      -3.809  -3.022 -11.468  1.00  0.00    -0.014 A 
ATOM     77  C   UNL     1      -5.019  -3.043 -12.162  1.00  0.00     0.009 A 
ATOM     78  C   UNL     1      -2.756  -2.307 -12.093  1.00  0.00     0.009 A 
ATOM     79  C   UNL     1      -5.173  -2.393 -13.394  1.00  0.00     0.001 A 
ATOM     80  C   UNL     1      -2.913  -1.616 -13.293  1.00  0.00     0.001 A 
ATOM     81  C   UNL     1      -4.128  -1.664 -13.949  1.00  0.00     0.000 A 
ENDBRANCH  63  76
ENDBRANCH  37  38
ENDBRANCH  30  32
ENDBRANCH  29  30
ENDBRANCH  28  29
ENDBRANCH  27  28
ENDBRANCH   1  27
TORSDOF 17
