REMARK SMILES Cn1cc(C(=O)OCCOC(=O)c2ccc(-c3c4nc(c(-c5ccccc5)c5ccc([nH]5)c(-c5ccccc5)c5nc(c(-c6ccccc6)c6ccc3[nH]6)C=C5)C=C4)cc2)c(C(=O)Nc2ccc(-c3nc4cc(Cl)ccc4o3)cc2)n1
REMARK SMILES IDX 8 1 7 2 5 3 6 4 4 5 1 6 2 7 3 8 81 9 61 10 62 11 63 12 64 13
REMARK SMILES IDX 65 15 66 16 80 17 67 18 79 19 68 20 69 21 70 22 78 23 71 24
REMARK SMILES IDX 77 25 72 26 76 27 73 28 75 29 74 30 9 31 10 32 11 33 12 34
REMARK SMILES IDX 13 35 14 36 60 37 15 38 59 39 16 40 17 41 18 42 53 43 19 44
REMARK SMILES IDX 58 45 52 46 54 47 20 48 57 49 51 50 50 51 21 53 43 54 28 55
REMARK SMILES IDX 42 56 29 57 32 58 41 59 55 60 30 61 31 62 40 64 56 65 33 66
REMARK SMILES IDX 22 67 23 68 27 69 24 70 26 71 25 72 44 73 45 74 49 75 46 76
REMARK SMILES IDX 48 77 47 78 34 79 35 80 39 81 36 82 38 83 37 84
REMARK H PARENT 64 14 54 52 32 63
REMARK Flexibility Score: inf
ROOT
ATOM      1  C   UNL     1       2.513  -3.492  -1.838  1.00  0.00     0.275 C 
ENDROOT
BRANCH   1   2
ATOM      2  O   UNL     1       1.680  -2.497  -1.230  1.00  0.00    -0.458 OA
BRANCH   2   3
ATOM      3  C   UNL     1       1.813  -2.245   0.102  1.00  0.00     0.342 C 
ATOM      4  O   UNL     1       2.407  -2.951   0.903  1.00  0.00    -0.246 OA
BRANCH   3   5
ATOM      5  C   UNL     1       1.075  -1.051   0.435  1.00  0.00     0.111 A 
ATOM      6  C   UNL     1      -1.978   0.849   0.263  1.00  0.00     0.173 C 
ATOM      7  N   UNL     1      -0.663   0.285   0.445  1.00  0.00    -0.274 N 
ATOM      8  C   UNL     1      -0.268  -0.956   0.100  1.00  0.00     0.125 A 
ATOM      9  N   UNL     1       0.316   1.020   0.971  1.00  0.00    -0.167 NA
ATOM     10  C   UNL     1       1.414   0.220   1.018  1.00  0.00     0.165 A 
BRANCH  10  11
ATOM     11  C   UNL     1       2.627   0.838   1.641  1.00  0.00     0.277 C 
ATOM     12  O   UNL     1       2.665   2.047   1.902  1.00  0.00    -0.267 OA
ATOM     13  N   UNL     1       3.652   0.096   2.183  1.00  0.00    -0.321 N 
ATOM     14  H   UNL     1       3.834   0.289   3.131  1.00  0.00     0.170 HD
BRANCH  13  15
ATOM     15  C   UNL     1       4.476  -0.881   1.628  1.00  0.00     0.041 A 
ATOM     16  C   UNL     1       5.152  -1.736   2.498  1.00  0.00     0.027 A 
ATOM     17  C   UNL     1       4.662  -1.010   0.260  1.00  0.00     0.027 A 
ATOM     18  C   UNL     1       5.790  -2.873   1.995  1.00  0.00     0.016 A 
ATOM     19  C   UNL     1       5.352  -2.114  -0.245  1.00  0.00     0.016 A 
ATOM     20  C   UNL     1       5.797  -3.122   0.618  1.00  0.00     0.037 A 
BRANCH  20  21
ATOM     21  C   UNL     1       5.975  -4.474   0.085  1.00  0.00     0.227 A 
ATOM     22  N   UNL     1       5.912  -4.871  -1.178  1.00  0.00    -0.209 NA
ATOM     23  O   UNL     1       5.808  -5.485   1.002  1.00  0.00    -0.436 OA
ATOM     24  C   UNL     1       5.550  -6.193  -1.085  1.00  0.00     0.111 A 
ATOM     25  C   UNL     1       5.479  -6.567   0.246  1.00  0.00     0.155 A 
ATOM     26  C   UNL     1       5.198  -7.120  -2.073  1.00  0.00     0.053 A 
ATOM     27  C   UNL     1       5.069  -7.814   0.702  1.00  0.00     0.051 A 
ATOM     28  C   UNL     1       4.752  -8.379  -1.650  1.00  0.00     0.043 A 
ATOM     29  C   UNL     1       4.686  -8.722  -0.292  1.00  0.00     0.024 A 
ATOM     30  Cl  UNL     1       4.234  -9.524  -2.829  1.00  0.00    -0.084 Cl
ENDBRANCH  20  21
ENDBRANCH  13  15
ENDBRANCH  10  11
ENDBRANCH   3   5
ENDBRANCH   2   3
ENDBRANCH   1   2
BRANCH   1  31
ATOM     31  C   UNL     1       2.991  -2.959  -3.195  1.00  0.00     0.275 C 
BRANCH  31  32
ATOM     32  O   UNL     1       3.619  -1.665  -3.049  1.00  0.00    -0.458 OA
BRANCH  32  33
ATOM     33  C   UNL     1       2.805  -0.595  -3.250  1.00  0.00     0.338 C 
ATOM     34  O   UNL     1       1.651  -0.626  -3.645  1.00  0.00    -0.246 OA
BRANCH  33  35
ATOM     35  C   UNL     1       3.466   0.656  -2.797  1.00  0.00     0.060 A 
ATOM     36  C   UNL     1       2.657   1.649  -2.232  1.00  0.00     0.016 A 
ATOM     37  C   UNL     1       4.847   0.867  -2.905  1.00  0.00     0.016 A 
ATOM     38  C   UNL     1       3.212   2.861  -1.814  1.00  0.00     0.010 A 
ATOM     39  C   UNL     1       5.404   2.086  -2.488  1.00  0.00     0.010 A 
ATOM     40  C   UNL     1       4.583   3.105  -1.976  1.00  0.00    -0.014 A 
BRANCH  40  41
ATOM     41  C   UNL     1       5.088   4.493  -1.813  1.00  0.00     0.031 A 
ATOM     42  C   UNL     1       5.035   5.414  -3.004  1.00  0.00     0.074 A 
ATOM     43  C   UNL     1       5.522   4.972  -0.633  1.00  0.00     0.049 A 
ATOM     44  N   UNL     1       5.247   6.704  -3.068  1.00  0.00    -0.248 NA
ATOM     45  C   UNL     1       4.675   4.797  -4.292  1.00  0.00     0.031 C 
ATOM     46  C   UNL     1       5.606   4.222   0.617  1.00  0.00     0.029 A 
ATOM     47  N   UNL     1       5.960   6.233  -0.301  1.00  0.00    -0.354 N 
ATOM     48  C   UNL     1       4.996   7.060  -4.385  1.00  0.00     0.074 A 
ATOM     49  C   UNL     1       4.675   5.845  -5.102  1.00  0.00     0.031 C 
ATOM     50  C   UNL     1       6.067   5.039   1.583  1.00  0.00     0.029 A 
ATOM     51  C   UNL     1       6.301   6.369   1.021  1.00  0.00     0.049 A 
ATOM     52  H   UNL     1       6.022   6.970  -0.952  1.00  0.00     0.167 HD
ATOM     53  C   UNL     1       5.004   8.288  -4.953  1.00  0.00     0.031 A 
ATOM     54  C   UNL     1       6.736   7.447   1.703  1.00  0.00     0.031 A 
ATOM     55  C   UNL     1       5.365   9.503  -4.280  1.00  0.00     0.049 A 
ATOM     56  C   UNL     1       6.869   8.781   1.014  1.00  0.00     0.074 A 
ATOM     57  C   UNL     1       5.387  10.793  -4.781  1.00  0.00     0.029 A 
ATOM     58  N   UNL     1       5.795   9.573  -2.967  1.00  0.00    -0.354 N 
ATOM     59  N   UNL     1       6.545   9.118  -0.210  1.00  0.00    -0.248 NA
ATOM     60  C   UNL     1       7.419   9.888   1.815  1.00  0.00     0.031 C 
ATOM     61  C   UNL     1       5.879  11.640  -3.781  1.00  0.00     0.029 A 
ATOM     62  C   UNL     1       6.127  10.879  -2.651  1.00  0.00     0.049 A 
ATOM     63  H   UNL     1       5.856   8.809  -2.350  1.00  0.00     0.167 HD
ATOM     64  C   UNL     1       6.819  10.477  -0.314  1.00  0.00     0.074 A 
ATOM     65  C   UNL     1       7.337  10.905   0.968  1.00  0.00     0.031 C 
ATOM     66  C   UNL     1       6.646  11.299  -1.377  1.00  0.00     0.031 A 
BRANCH  53  67
ATOM     67  C   UNL     1       4.605   8.366  -6.394  1.00  0.00    -0.014 A 
ATOM     68  C   UNL     1       3.251   8.311  -6.760  1.00  0.00     0.009 A 
ATOM     69  C   UNL     1       5.582   8.502  -7.390  1.00  0.00     0.009 A 
ATOM     70  C   UNL     1       2.884   8.368  -8.104  1.00  0.00     0.001 A 
ATOM     71  C   UNL     1       5.210   8.572  -8.733  1.00  0.00     0.001 A 
ATOM     72  C   UNL     1       3.863   8.499  -9.089  1.00  0.00     0.000 A 
ENDBRANCH  53  67
BRANCH  54  73
ATOM     73  C   UNL     1       7.083   7.336   3.143  1.00  0.00    -0.014 A 
ATOM     74  C   UNL     1       6.244   7.888   4.122  1.00  0.00     0.009 A 
ATOM     75  C   UNL     1       8.292   6.743   3.534  1.00  0.00     0.009 A 
ATOM     76  C   UNL     1       6.624   7.874   5.466  1.00  0.00     0.001 A 
ATOM     77  C   UNL     1       8.662   6.716   4.881  1.00  0.00     0.001 A 
ATOM     78  C   UNL     1       7.832   7.290   5.844  1.00  0.00     0.000 A 
ENDBRANCH  54  73
BRANCH  66  79
ATOM     79  C   UNL     1       7.001  12.747  -1.205  1.00  0.00    -0.014 A 
ATOM     80  C   UNL     1       8.339  13.168  -1.213  1.00  0.00     0.009 A 
ATOM     81  C   UNL     1       5.983  13.707  -1.090  1.00  0.00     0.009 A 
ATOM     82  C   UNL     1       8.652  14.524  -1.090  1.00  0.00     0.001 A 
ATOM     83  C   UNL     1       6.299  15.063  -0.986  1.00  0.00     0.001 A 
ATOM     84  C   UNL     1       7.632  15.470  -0.981  1.00  0.00     0.000 A 
ENDBRANCH  66  79
ENDBRANCH  40  41
ENDBRANCH  33  35
ENDBRANCH  32  33
ENDBRANCH  31  32
ENDBRANCH   1  31
TORSDOF 14
