REMARK SMILES COc1ccc([C@H](C)[N@H+]2CC[C@H](C(=O)OCCOC(=O)c3ccc(-c4c5nc(c(-c6ccccc6)c6ccc([nH]6)c(-c6ccccc6)c6nc(c(-c7ccccc7)c7ccc4[nH]7)C=C6)C=C5)cc3)[C@@H]2C)cc1
REMARK SMILES IDX 16 1 15 2 13 3 14 4 12 5 9 6 10 7 69 8 11 10 70 11 7 12 8 13
REMARK SMILES IDX 6 14 3 15 4 16 72 17 5 18 71 19 2 20 1 21 17 22 18 23 19 24
REMARK SMILES IDX 20 25 21 26 22 27 68 28 23 29 67 30 24 31 25 32 26 33 61 34
REMARK SMILES IDX 27 35 66 36 60 37 62 38 28 39 65 40 59 41 58 42 29 44 51 45
REMARK SMILES IDX 36 46 50 47 37 48 40 49 49 50 63 51 38 52 39 53 48 55 64 56
REMARK SMILES IDX 41 57 30 58 31 59 35 60 32 61 34 62 33 63 52 64 53 65 57 66
REMARK SMILES IDX 54 67 56 68 55 69 42 70 43 71 47 72 44 73 46 74 45 75
REMARK H PARENT 9 9 62 43 40 54
REMARK Flexibility Score: inf
ROOT
ATOM      1  C   UNL     1      -3.452  -4.259   6.929  1.00  0.00     0.274 C 
ENDROOT
BRANCH   1   2
ATOM      2  O   UNL     1      -2.489  -3.641   6.056  1.00  0.00    -0.462 OA
BRANCH   2   3
ATOM      3  C   UNL     1      -1.465  -2.946   6.646  1.00  0.00     0.315 C 
ATOM      4  O   UNL     1      -1.272  -2.878   7.842  1.00  0.00    -0.252 OA
BRANCH   3   5
ATOM      5  C   UNL     1      -0.706  -2.186   5.567  1.00  0.00     0.162 C 
ATOM      6  N   UNL     1       0.822  -0.583   6.491  1.00  0.00    -0.326 N 
ATOM      7  C   UNL     1      -0.499   0.042   6.414  1.00  0.00     0.264 C 
ATOM      8  C   UNL     1       0.776  -1.874   5.792  1.00  0.00     0.196 C 
ATOM      9  H   UNL     1       1.021  -0.770   7.474  1.00  0.00     0.348 HD
ATOM     10  C   UNL     1      -1.309  -0.795   5.438  1.00  0.00     0.083 C 
ATOM     11  C   UNL     1       1.605  -2.918   6.512  1.00  0.00     0.076 C 
BRANCH   6  12
ATOM     12  C   UNL     1       1.987   0.281   6.228  1.00  0.00     0.212 C 
ATOM     13  C   UNL     1       2.202   0.601   4.737  1.00  0.00     0.081 C 
BRANCH  12  14
ATOM     14  C   UNL     1       1.957   1.529   7.117  1.00  0.00     0.009 A 
ATOM     15  C   UNL     1       1.699   3.745   8.847  1.00  0.00     0.118 A 
ATOM     16  C   UNL     1       2.106   2.507   9.343  1.00  0.00     0.047 A 
ATOM     17  C   UNL     1       1.471   3.893   7.481  1.00  0.00     0.047 A 
ATOM     18  C   UNL     1       2.223   1.405   8.490  1.00  0.00     0.013 A 
ATOM     19  C   UNL     1       1.598   2.795   6.626  1.00  0.00     0.013 A 
BRANCH  15  20
ATOM     20  O   UNL     1       1.571   4.745   9.771  1.00  0.00    -0.497 OA
ATOM     21  C   UNL     1       0.613   5.748   9.444  1.00  0.00     0.278 C 
ENDBRANCH  15  20
ENDBRANCH  12  14
ENDBRANCH   6  12
ENDBRANCH   3   5
ENDBRANCH   2   3
ENDBRANCH   1   2
BRANCH   1  22
ATOM     22  C   UNL     1      -3.255  -5.772   6.990  1.00  0.00     0.275 C 
BRANCH  22  23
ATOM     23  O   UNL     1      -2.112  -6.096   7.800  1.00  0.00    -0.458 OA
BRANCH  23  24
ATOM     24  C   UNL     1      -1.002  -6.438   7.110  1.00  0.00     0.338 C 
ATOM     25  O   UNL     1      -0.877  -6.532   5.897  1.00  0.00    -0.246 OA
BRANCH  24  26
ATOM     26  C   UNL     1       0.130  -6.628   8.024  1.00  0.00     0.060 A 
ATOM     27  C   UNL     1       0.790  -5.497   8.482  1.00  0.00     0.016 A 
ATOM     28  C   UNL     1       0.685  -7.889   8.217  1.00  0.00     0.016 A 
ATOM     29  C   UNL     1       2.091  -5.601   8.969  1.00  0.00     0.010 A 
ATOM     30  C   UNL     1       1.939  -8.000   8.836  1.00  0.00     0.010 A 
ATOM     31  C   UNL     1       2.695  -6.854   9.151  1.00  0.00    -0.014 A 
BRANCH  31  32
ATOM     32  C   UNL     1       4.129  -6.960   9.566  1.00  0.00     0.031 A 
ATOM     33  C   UNL     1       5.099  -7.777   8.742  1.00  0.00     0.074 A 
ATOM     34  C   UNL     1       4.603  -6.301  10.645  1.00  0.00     0.049 A 
ATOM     35  N   UNL     1       6.310  -8.181   9.042  1.00  0.00    -0.248 NA
ATOM     36  C   UNL     1       4.641  -8.214   7.413  1.00  0.00     0.031 C 
ATOM     37  C   UNL     1       3.832  -5.407  11.510  1.00  0.00     0.029 A 
ATOM     38  N   UNL     1       5.868  -6.268  11.185  1.00  0.00    -0.354 N 
ATOM     39  C   UNL     1       6.715  -8.991   7.986  1.00  0.00     0.074 A 
ATOM     40  C   UNL     1       5.627  -9.013   7.032  1.00  0.00     0.031 C 
ATOM     41  C   UNL     1       4.651  -4.859  12.421  1.00  0.00     0.029 A 
ATOM     42  C   UNL     1       5.976  -5.450  12.284  1.00  0.00     0.049 A 
ATOM     43  H   UNL     1       6.624  -6.781  10.818  1.00  0.00     0.167 HD
ATOM     44  C   UNL     1       7.881  -9.664   7.827  1.00  0.00     0.031 A 
ATOM     45  C   UNL     1       7.006  -5.228  13.122  1.00  0.00     0.031 A 
ATOM     46  C   UNL     1       8.998  -9.581   8.732  1.00  0.00     0.049 A 
ATOM     47  C   UNL     1       8.289  -5.983  12.932  1.00  0.00     0.074 A 
ATOM     48  C   UNL     1      10.217 -10.235   8.664  1.00  0.00     0.029 A 
ATOM     49  N   UNL     1       9.047  -8.762   9.849  1.00  0.00    -0.354 N 
ATOM     50  N   UNL     1       8.610  -6.846  12.000  1.00  0.00    -0.248 NA
ATOM     51  C   UNL     1       9.345  -5.748  13.928  1.00  0.00     0.031 C 
ATOM     52  C   UNL     1      10.995  -9.829   9.754  1.00  0.00     0.029 A 
ATOM     53  C   UNL     1      10.277  -8.889  10.473  1.00  0.00     0.049 A 
ATOM     54  H   UNL     1       8.316  -8.178  10.153  1.00  0.00     0.167 HD
ATOM     55  C   UNL     1       9.906  -7.250  12.290  1.00  0.00     0.074 A 
ATOM     56  C   UNL     1      10.322  -6.518  13.469  1.00  0.00     0.031 C 
ATOM     57  C   UNL     1      10.681  -8.152  11.641  1.00  0.00     0.031 A 
BRANCH  44  58
ATOM     58  C   UNL     1       7.991 -10.596   6.651  1.00  0.00    -0.014 A 
ATOM     59  C   UNL     1       8.140 -10.122   5.339  1.00  0.00     0.009 A 
ATOM     60  C   UNL     1       7.974 -11.983   6.873  1.00  0.00     0.009 A 
ATOM     61  C   UNL     1       8.232 -11.020   4.271  1.00  0.00     0.001 A 
ATOM     62  C   UNL     1       8.096 -12.877   5.808  1.00  0.00     0.001 A 
ATOM     63  C   UNL     1       8.214 -12.394   4.506  1.00  0.00     0.000 A 
ENDBRANCH  44  58
BRANCH  45  64
ATOM     64  C   UNL     1       6.846  -4.284  14.261  1.00  0.00    -0.014 A 
ATOM     65  C   UNL     1       7.543  -3.067  14.281  1.00  0.00     0.009 A 
ATOM     66  C   UNL     1       5.993  -4.596  15.331  1.00  0.00     0.009 A 
ATOM     67  C   UNL     1       7.398  -2.188  15.358  1.00  0.00     0.001 A 
ATOM     68  C   UNL     1       5.824  -3.702  16.389  1.00  0.00     0.001 A 
ATOM     69  C   UNL     1       6.533  -2.502  16.405  1.00  0.00     0.000 A 
ENDBRANCH  45  64
BRANCH  57  70
ATOM     70  C   UNL     1      12.072  -8.358  12.168  1.00  0.00    -0.014 A 
ATOM     71  C   UNL     1      12.306  -9.066  13.356  1.00  0.00     0.009 A 
ATOM     72  C   UNL     1      13.164  -7.838  11.457  1.00  0.00     0.009 A 
ATOM     73  C   UNL     1      13.606  -9.215  13.843  1.00  0.00     0.001 A 
ATOM     74  C   UNL     1      14.464  -8.009  11.934  1.00  0.00     0.001 A 
ATOM     75  C   UNL     1      14.683  -8.687  13.132  1.00  0.00     0.000 A 
ENDBRANCH  57  70
ENDBRANCH  31  32
ENDBRANCH  24  26
ENDBRANCH  23  24
ENDBRANCH  22  23
ENDBRANCH   1  22
TORSDOF 14
