REMARK SMILES CC(C)[C@@H](CNC(=O)NC[C@@]1(C)CCCO1)C(=O)OCCOC(=O)c1ccc(-c2c3nc(c(-c4ccccc4)c4ccc([nH]4)c(-c4ccccc4)c4nc(c(-c5ccccc5)c5ccc2[nH]5)C=C4)C=C3)cc1
REMARK SMILES IDX 20 1 19 2 17 3 18 4 4 5 2 6 1 7 3 8 5 9 6 10 7 11 8 13 9 14
REMARK SMILES IDX 10 16 11 17 12 18 13 19 16 20 14 21 15 22 21 23 22 24 23 25
REMARK SMILES IDX 24 26 25 27 26 28 72 29 27 30 71 31 28 32 29 33 30 34 65 35
REMARK SMILES IDX 31 36 70 37 64 38 66 39 32 40 69 41 63 42 62 43 33 45 55 46
REMARK SMILES IDX 40 47 54 48 41 49 44 50 53 51 67 52 42 53 43 54 52 56 68 57
REMARK SMILES IDX 45 58 34 59 35 60 39 61 36 62 38 63 37 64 56 65 57 66 61 67
REMARK SMILES IDX 58 68 60 69 59 70 46 71 47 72 51 73 48 74 50 75 49 76
REMARK H PARENT 6 12 9 15 66 44 44 55
REMARK Flexibility Score: inf
ROOT
ATOM      1  C   UNL     1      -1.581  -4.264  -2.390  1.00  0.00     0.274 C 
ENDROOT
BRANCH   1   2
ATOM      2  O   UNL     1      -0.861  -3.076  -2.004  1.00  0.00    -0.462 OA
BRANCH   2   3
ATOM      3  C   UNL     1      -1.513  -2.246  -1.150  1.00  0.00     0.311 C 
ATOM      4  O   UNL     1      -2.625  -2.458  -0.679  1.00  0.00    -0.252 OA
BRANCH   3   5
ATOM      5  C   UNL     1      -0.738  -0.976  -0.838  1.00  0.00     0.121 C 
BRANCH   5   6
ATOM      6  C   UNL     1       0.809  -1.141  -0.825  1.00  0.00    -0.001 C 
ATOM      7  C   UNL     1       1.510   0.147  -0.364  1.00  0.00     0.008 C 
ATOM      8  C   UNL     1       1.257  -2.270   0.119  1.00  0.00     0.008 C 
ENDBRANCH   5   6
BRANCH   5   9
ATOM      9  C   UNL     1      -1.271   0.159  -1.733  1.00  0.00     0.133 C 
BRANCH   9  10
ATOM     10  N   UNL     1      -1.281  -0.157  -3.147  1.00  0.00    -0.337 N 
ATOM     11  C   UNL     1      -2.222  -0.549  -4.013  1.00  0.00     0.314 C 
ATOM     12  H   UNL     1      -0.395  -0.063  -3.565  1.00  0.00     0.165 HD
ATOM     13  O   UNL     1      -1.869  -0.762  -5.176  1.00  0.00    -0.249 OA
ATOM     14  N   UNL     1      -3.507  -0.756  -3.714  1.00  0.00    -0.335 N 
ATOM     15  H   UNL     1      -4.016  -1.088  -4.489  1.00  0.00     0.165 HD
BRANCH  14  16
ATOM     16  C   UNL     1      -4.348  -0.615  -2.531  1.00  0.00     0.152 C 
BRANCH  16  17
ATOM     17  C   UNL     1      -5.182   0.684  -2.486  1.00  0.00     0.083 C 
ATOM     18  C   UNL     1      -6.155   0.747  -3.670  1.00  0.00     0.044 C 
ATOM     19  C   UNL     1      -5.915   0.808  -1.148  1.00  0.00     0.039 C 
ATOM     20  O   UNL     1      -4.329   1.845  -2.538  1.00  0.00    -0.373 OA
ATOM     21  C   UNL     1      -6.092   2.300  -0.997  1.00  0.00     0.031 C 
ATOM     22  C   UNL     1      -4.847   2.853  -1.659  1.00  0.00     0.161 C 
ENDBRANCH  16  17
ENDBRANCH  14  16
ENDBRANCH   9  10
ENDBRANCH   5   9
ENDBRANCH   3   5
ENDBRANCH   2   3
ENDBRANCH   1   2
BRANCH   1  23
ATOM     23  C   UNL     1      -1.335  -5.413  -1.410  1.00  0.00     0.275 C 
BRANCH  23  24
ATOM     24  O   UNL     1      -1.859  -5.071  -0.115  1.00  0.00    -0.458 OA
BRANCH  24  25
ATOM     25  C   UNL     1      -1.051  -5.300   0.941  1.00  0.00     0.338 C 
ATOM     26  O   UNL     1       0.032  -5.863   0.944  1.00  0.00    -0.246 OA
BRANCH  25  27
ATOM     27  C   UNL     1      -1.676  -4.755   2.156  1.00  0.00     0.060 A 
ATOM     28  C   UNL     1      -1.809  -3.374   2.318  1.00  0.00     0.016 A 
ATOM     29  C   UNL     1      -2.039  -5.623   3.186  1.00  0.00     0.016 A 
ATOM     30  C   UNL     1      -2.290  -2.850   3.516  1.00  0.00     0.010 A 
ATOM     31  C   UNL     1      -2.546  -5.101   4.378  1.00  0.00     0.010 A 
ATOM     32  C   UNL     1      -2.654  -3.711   4.558  1.00  0.00    -0.014 A 
BRANCH  32  33
ATOM     33  C   UNL     1      -3.075  -3.158   5.865  1.00  0.00     0.031 A 
ATOM     34  C   UNL     1      -2.137  -3.223   7.036  1.00  0.00     0.074 A 
ATOM     35  C   UNL     1      -4.287  -2.590   6.002  1.00  0.00     0.049 A 
ATOM     36  N   UNL     1      -2.347  -2.889   8.283  1.00  0.00    -0.248 NA
ATOM     37  C   UNL     1      -0.782  -3.732   6.766  1.00  0.00     0.031 C 
ATOM     38  C   UNL     1      -5.268  -2.417   4.930  1.00  0.00     0.029 A 
ATOM     39  N   UNL     1      -4.897  -2.054   7.107  1.00  0.00    -0.354 N 
ATOM     40  C   UNL     1      -1.164  -3.172   8.952  1.00  0.00     0.074 A 
ATOM     41  C   UNL     1      -0.241  -3.709   7.975  1.00  0.00     0.031 C 
ATOM     42  C   UNL     1      -6.358  -1.812   5.431  1.00  0.00     0.029 A 
ATOM     43  C   UNL     1      -6.167  -1.597   6.863  1.00  0.00     0.049 A 
ATOM     44  H   UNL     1      -4.465  -2.002   7.990  1.00  0.00     0.167 HD
ATOM     45  C   UNL     1      -0.873  -3.003  10.264  1.00  0.00     0.031 A 
ATOM     46  C   UNL     1      -7.085  -1.087   7.705  1.00  0.00     0.031 A 
ATOM     47  C   UNL     1      -1.786  -2.469  11.237  1.00  0.00     0.049 A 
ATOM     48  C   UNL     1      -6.757  -0.959   9.165  1.00  0.00     0.074 A 
ATOM     49  C   UNL     1      -1.586  -2.268  12.592  1.00  0.00     0.029 A 
ATOM     50  N   UNL     1      -3.075  -2.047  10.955  1.00  0.00    -0.354 N 
ATOM     51  N   UNL     1      -5.645  -1.258   9.790  1.00  0.00    -0.248 NA
ATOM     52  C   UNL     1      -7.817  -0.428  10.035  1.00  0.00     0.031 C 
ATOM     53  C   UNL     1      -2.768  -1.751  13.136  1.00  0.00     0.029 A 
ATOM     54  C   UNL     1      -3.688  -1.597  12.112  1.00  0.00     0.049 A 
ATOM     55  H   UNL     1      -3.494  -2.064  10.064  1.00  0.00     0.167 HD
ATOM     56  C   UNL     1      -5.865  -0.942  11.124  1.00  0.00     0.074 A 
ATOM     57  C   UNL     1      -7.211  -0.413  11.215  1.00  0.00     0.031 C 
ATOM     58  C   UNL     1      -5.029  -1.080  12.181  1.00  0.00     0.031 A 
BRANCH  45  59
ATOM     59  C   UNL     1       0.486  -3.443  10.724  1.00  0.00    -0.014 A 
ATOM     60  C   UNL     1       1.629  -2.675  10.455  1.00  0.00     0.009 A 
ATOM     61  C   UNL     1       0.620  -4.636  11.450  1.00  0.00     0.009 A 
ATOM     62  C   UNL     1       2.886  -3.110  10.882  1.00  0.00     0.001 A 
ATOM     63  C   UNL     1       1.875  -5.058  11.893  1.00  0.00     0.001 A 
ATOM     64  C   UNL     1       3.007  -4.298  11.602  1.00  0.00     0.000 A 
ENDBRANCH  45  59
BRANCH  46  65
ATOM     65  C   UNL     1      -8.417  -0.684   7.190  1.00  0.00    -0.014 A 
ATOM     66  C   UNL     1      -8.753   0.672   7.067  1.00  0.00     0.009 A 
ATOM     67  C   UNL     1      -9.358  -1.657   6.819  1.00  0.00     0.009 A 
ATOM     68  C   UNL     1     -10.014   1.046   6.596  1.00  0.00     0.001 A 
ATOM     69  C   UNL     1     -10.609  -1.279   6.327  1.00  0.00     0.001 A 
ATOM     70  C   UNL     1     -10.938   0.071   6.222  1.00  0.00     0.000 A 
ENDBRANCH  46  65
BRANCH  58  71
ATOM     71  C   UNL     1      -5.543  -0.630  13.517  1.00  0.00    -0.014 A 
ATOM     72  C   UNL     1      -6.454  -1.414  14.241  1.00  0.00     0.009 A 
ATOM     73  C   UNL     1      -5.094   0.581  14.064  1.00  0.00     0.009 A 
ATOM     74  C   UNL     1      -6.930  -0.976  15.479  1.00  0.00     0.001 A 
ATOM     75  C   UNL     1      -5.557   1.006  15.310  1.00  0.00     0.001 A 
ATOM     76  C   UNL     1      -6.479   0.232  16.012  1.00  0.00     0.000 A 
ENDBRANCH  58  71
ENDBRANCH  32  33
ENDBRANCH  25  27
ENDBRANCH  24  25
ENDBRANCH  23  24
ENDBRANCH   1  23
TORSDOF 16
