REMARK SMILES C[C@H]1CC[C@@](Nc2ccc(C(N)=O)nn2)(C(=O)OCCOC(=O)c2ccc(-c3c4nc(c(-c5ccccc5)c5ccc([nH]5)c(-c5ccccc5)c5nc(c(-c6ccccc6)c6ccc3[nH]6)C=C5)C=C4)cc2)CC1
REMARK SMILES IDX 19 1 18 2 16 3 17 4 5 5 1 6 2 7 73 8 3 9 72 10 4 11 6 12
REMARK SMILES IDX 7 14 8 15 15 16 9 17 14 18 10 19 11 20 12 21 13 22 20 25
REMARK SMILES IDX 21 26 22 27 23 28 24 29 25 30 71 31 26 32 70 33 27 34 28 35
REMARK SMILES IDX 29 36 64 37 30 38 69 39 63 40 65 41 31 42 68 43 62 44 61 45
REMARK SMILES IDX 32 47 54 48 39 49 53 50 40 51 43 52 52 53 66 54 41 55 42 56
REMARK SMILES IDX 51 58 67 59 44 60 33 61 34 62 38 63 35 64 37 65 36 66 55 67
REMARK SMILES IDX 56 68 60 69 57 70 59 71 58 72 45 73 46 74 50 75 47 76 49 77
REMARK SMILES IDX 48 78
REMARK H PARENT 6 13 12 23 12 24 65 46 43 57
REMARK Flexibility Score: inf
ROOT
ATOM      1  C   UNL     1      -2.237   1.142  -3.768  1.00  0.00     0.274 C 
ENDROOT
BRANCH   1   2
ATOM      2  O   UNL     1      -2.021   1.323  -2.352  1.00  0.00    -0.460 OA
BRANCH   2   3
ATOM      3  C   UNL     1      -2.158   0.196  -1.599  1.00  0.00     0.331 C 
ATOM      4  O   UNL     1      -2.328  -0.918  -2.084  1.00  0.00    -0.249 OA
BRANCH   3   5
ATOM      5  C   UNL     1      -2.219   0.470  -0.062  1.00  0.00     0.137 C 
ATOM      6  C   UNL     1       2.159   0.572   0.548  1.00  0.00     0.007 C 
ATOM      7  C   UNL     1       0.664   0.628   0.877  1.00  0.00    -0.014 C 
ATOM      8  C   UNL     1      -0.003  -0.696   0.514  1.00  0.00     0.006 C 
ATOM      9  C   UNL     1      -0.004   1.784   0.128  1.00  0.00     0.006 C 
ATOM     10  C   UNL     1      -1.522  -0.687   0.695  1.00  0.00     0.041 C 
ATOM     11  C   UNL     1      -1.520   1.797   0.331  1.00  0.00     0.041 C 
BRANCH   5  12
ATOM     12  N   UNL     1      -3.634   0.546   0.434  1.00  0.00    -0.353 N 
ATOM     13  H   UNL     1      -3.802   0.758   1.381  1.00  0.00     0.163 HD
BRANCH  12  14
ATOM     14  C   UNL     1      -4.709   0.324  -0.412  1.00  0.00     0.149 A 
ATOM     15  C   UNL     1      -4.929  -0.883  -1.060  1.00  0.00     0.051 A 
ATOM     16  N   UNL     1      -5.520   1.376  -0.652  1.00  0.00    -0.132 NA
ATOM     17  C   UNL     1      -5.905  -0.970  -2.050  1.00  0.00     0.040 A 
ATOM     18  N   UNL     1      -6.500   1.304  -1.611  1.00  0.00    -0.143 NA
ATOM     19  C   UNL     1      -6.658   0.157  -2.311  1.00  0.00     0.150 A 
BRANCH  19  20
ATOM     20  C   UNL     1      -7.661   0.175  -3.413  1.00  0.00     0.269 C 
ATOM     21  N   UNL     1      -8.396   1.327  -3.533  1.00  0.00    -0.364 N 
ATOM     22  O   UNL     1      -7.815  -0.765  -4.174  1.00  0.00    -0.268 OA
ATOM     23  H   UNL     1      -8.251   2.072  -2.905  1.00  0.00     0.160 HD
ATOM     24  H   UNL     1      -9.069   1.410  -4.247  1.00  0.00     0.160 HD
ENDBRANCH  19  20
ENDBRANCH  12  14
ENDBRANCH   5  12
ENDBRANCH   3   5
ENDBRANCH   2   3
ENDBRANCH   1   2
BRANCH   1  25
ATOM     25  C   UNL     1      -0.944   0.814  -4.519  1.00  0.00     0.275 C 
BRANCH  25  26
ATOM     26  O   UNL     1      -0.424  -0.462  -4.098  1.00  0.00    -0.458 OA
BRANCH  26  27
ATOM     27  C   UNL     1       0.902  -0.514  -3.836  1.00  0.00     0.338 C 
ATOM     28  O   UNL     1       1.709   0.391  -3.996  1.00  0.00    -0.246 OA
BRANCH  27  29
ATOM     29  C   UNL     1       1.286  -1.820  -3.244  1.00  0.00     0.060 A 
ATOM     30  C   UNL     1       0.412  -2.512  -2.412  1.00  0.00     0.016 A 
ATOM     31  C   UNL     1       2.596  -2.281  -3.373  1.00  0.00     0.016 A 
ATOM     32  C   UNL     1       0.884  -3.523  -1.578  1.00  0.00     0.010 A 
ATOM     33  C   UNL     1       3.024  -3.407  -2.652  1.00  0.00     0.010 A 
ATOM     34  C   UNL     1       2.189  -4.014  -1.698  1.00  0.00    -0.014 A 
BRANCH  34  35
ATOM     35  C   UNL     1       2.667  -5.121  -0.812  1.00  0.00     0.031 A 
ATOM     36  C   UNL     1       3.966  -4.998  -0.048  1.00  0.00     0.074 A 
ATOM     37  C   UNL     1       1.929  -6.240  -0.648  1.00  0.00     0.049 A 
ATOM     38  N   UNL     1       4.643  -5.927   0.583  1.00  0.00    -0.248 NA
ATOM     39  C   UNL     1       4.596  -3.669  -0.002  1.00  0.00     0.031 C 
ATOM     40  C   UNL     1       0.628  -6.507  -1.266  1.00  0.00     0.029 A 
ATOM     41  N   UNL     1       2.158  -7.361   0.116  1.00  0.00    -0.354 N 
ATOM     42  C   UNL     1       5.816  -5.318   1.015  1.00  0.00     0.074 A 
ATOM     43  C   UNL     1       5.750  -3.935   0.596  1.00  0.00     0.031 C 
ATOM     44  C   UNL     1       0.135  -7.657  -0.788  1.00  0.00     0.029 A 
ATOM     45  C   UNL     1       1.141  -8.283   0.058  1.00  0.00     0.049 A 
ATOM     46  H   UNL     1       2.973  -7.490   0.654  1.00  0.00     0.167 HD
ATOM     47  C   UNL     1       6.858  -5.867   1.687  1.00  0.00     0.031 A 
ATOM     48  C   UNL     1       1.037  -9.524   0.569  1.00  0.00     0.031 A 
ATOM     49  C   UNL     1       6.894  -7.223   2.170  1.00  0.00     0.049 A 
ATOM     50  C   UNL     1       2.201 -10.112   1.304  1.00  0.00     0.074 A 
ATOM     51  C   UNL     1       7.906  -7.867   2.863  1.00  0.00     0.029 A 
ATOM     52  N   UNL     1       5.860  -8.136   2.039  1.00  0.00    -0.354 N 
ATOM     53  N   UNL     1       3.354  -9.562   1.595  1.00  0.00    -0.248 NA
ATOM     54  C   UNL     1       2.064 -11.507   1.745  1.00  0.00     0.031 C 
ATOM     55  C   UNL     1       7.496  -9.180   3.123  1.00  0.00     0.029 A 
ATOM     56  C   UNL     1       6.211  -9.338   2.632  1.00  0.00     0.049 A 
ATOM     57  H   UNL     1       5.002  -7.956   1.591  1.00  0.00     0.167 HD
ATOM     58  C   UNL     1       4.087 -10.548   2.240  1.00  0.00     0.074 A 
ATOM     59  C   UNL     1       3.233 -11.715   2.334  1.00  0.00     0.031 C 
ATOM     60  C   UNL     1       5.361 -10.497   2.697  1.00  0.00     0.031 A 
BRANCH  47  61
ATOM     61  C   UNL     1       8.082  -5.015   1.894  1.00  0.00    -0.014 A 
ATOM     62  C   UNL     1       8.117  -3.981   2.841  1.00  0.00     0.009 A 
ATOM     63  C   UNL     1       9.242  -5.297   1.154  1.00  0.00     0.009 A 
ATOM     64  C   UNL     1       9.282  -3.230   3.022  1.00  0.00     0.001 A 
ATOM     65  C   UNL     1      10.412  -4.563   1.355  1.00  0.00     0.001 A 
ATOM     66  C   UNL     1      10.428  -3.524   2.284  1.00  0.00     0.000 A 
ENDBRANCH  47  61
BRANCH  48  67
ATOM     67  C   UNL     1      -0.192 -10.323   0.321  1.00  0.00    -0.014 A 
ATOM     68  C   UNL     1      -1.079 -10.613   1.368  1.00  0.00     0.009 A 
ATOM     69  C   UNL     1      -0.497 -10.774  -0.973  1.00  0.00     0.009 A 
ATOM     70  C   UNL     1      -2.246 -11.341   1.122  1.00  0.00     0.001 A 
ATOM     71  C   UNL     1      -1.680 -11.471  -1.222  1.00  0.00     0.001 A 
ATOM     72  C   UNL     1      -2.550 -11.759  -0.173  1.00  0.00     0.000 A 
ENDBRANCH  48  67
BRANCH  60  73
ATOM     73  C   UNL     1       5.891 -11.742   3.344  1.00  0.00    -0.014 A 
ATOM     74  C   UNL     1       6.242 -12.862   2.574  1.00  0.00     0.009 A 
ATOM     75  C   UNL     1       6.024 -11.803   4.739  1.00  0.00     0.009 A 
ATOM     76  C   UNL     1       6.678 -14.034   3.193  1.00  0.00     0.001 A 
ATOM     77  C   UNL     1       6.481 -12.969   5.353  1.00  0.00     0.001 A 
ATOM     78  C   UNL     1       6.796 -14.087   4.581  1.00  0.00     0.000 A 
ENDBRANCH  60  73
ENDBRANCH  34  35
ENDBRANCH  27  29
ENDBRANCH  26  27
ENDBRANCH  25  26
ENDBRANCH   1  25
TORSDOF 14
