REMARK SMILES Cc1ccc(S(=O)(=O)n2cc(C(=O)C(=O)NCC(=O)OCCOC(=O)c3ccc(-c4c5nc(c(-c6ccccc6)c6ccc([nH]6)c(-c6ccccc6)c6nc(c(-c7ccccc7)c7ccc4[nH]7)C=C6)C=C5)cc3)c3ccccc32)cc1
REMARK SMILES IDX 20 1 18 2 19 3 17 4 16 5 14 6 15 7 12 9 13 10 11 11 9 12
REMARK SMILES IDX 10 13 79 14 74 15 78 16 75 17 77 18 76 19 6 20 7 21 8 22
REMARK SMILES IDX 5 23 1 24 2 25 3 26 81 27 4 28 80 29 21 30 22 31 23 32 24 33
REMARK SMILES IDX 25 34 26 35 27 36 73 37 28 38 72 39 29 40 30 41 31 42 66 43
REMARK SMILES IDX 32 44 71 45 65 46 67 47 33 48 70 49 64 50 63 51 34 53 56 54
REMARK SMILES IDX 41 55 55 56 42 57 45 58 54 59 68 60 43 61 44 62 53 64 69 65
REMARK SMILES IDX 46 66 35 67 36 68 40 69 37 70 39 71 38 72 57 73 58 74 62 75
REMARK SMILES IDX 59 76 61 77 60 78 47 79 48 80 52 81 49 82 51 83 50 84
REMARK H PARENT 16 8 67 52 45 63
REMARK Flexibility Score: inf
ROOT
ATOM      1  O   UNL     1     -10.294   3.909   2.651  1.00  0.00    -0.461 OA
ENDROOT
BRANCH   1   2
ATOM      2  C   UNL     1      -9.535   4.133   1.543  1.00  0.00     0.325 C 
ATOM      3  O   UNL     1      -9.980   4.295   0.412  1.00  0.00    -0.250 OA
BRANCH   2   4
ATOM      4  C   UNL     1      -8.097   4.437   1.905  1.00  0.00     0.239 C 
BRANCH   4   5
ATOM      5  N   UNL     1      -7.447   3.637   2.915  1.00  0.00    -0.338 N 
ATOM      6  C   UNL     1      -6.075   3.490   2.970  1.00  0.00     0.292 C 
ATOM      7  O   UNL     1      -5.506   2.870   3.855  1.00  0.00    -0.265 OA
ATOM      8  H   UNL     1      -8.001   3.179   3.588  1.00  0.00     0.164 HD
BRANCH   6   9
ATOM      9  C   UNL     1      -5.276   4.108   1.806  1.00  0.00     0.252 C 
ATOM     10  O   UNL     1      -5.190   5.332   1.754  1.00  0.00    -0.283 OA
BRANCH   9  11
ATOM     11  C   UNL     1      -4.779   3.228   0.752  1.00  0.00     0.054 A 
ATOM     12  N   UNL     1      -4.090   1.379  -0.276  1.00  0.00    -0.240 N 
ATOM     13  C   UNL     1      -4.671   1.857   0.867  1.00  0.00     0.117 A 
ATOM     14  C   UNL     1      -3.867   2.393  -1.184  1.00  0.00     0.065 A 
ATOM     15  C   UNL     1      -4.311   3.572  -0.563  1.00  0.00     0.012 A 
ATOM     16  C   UNL     1      -3.272   2.405  -2.459  1.00  0.00     0.028 A 
ATOM     17  C   UNL     1      -4.199   4.788  -1.274  1.00  0.00     0.011 A 
ATOM     18  C   UNL     1      -3.144   3.628  -3.121  1.00  0.00     0.002 A 
ATOM     19  C   UNL     1      -3.613   4.803  -2.545  1.00  0.00     0.001 A 
BRANCH  12  20
ATOM     20  S   UNL     1      -3.470  -0.202  -0.386  1.00  0.00     0.268 S 
ATOM     21  O   UNL     1      -3.704  -0.615  -1.760  1.00  0.00    -0.201 OA
ATOM     22  O   UNL     1      -4.036  -0.921   0.735  1.00  0.00    -0.201 OA
BRANCH  20  23
ATOM     23  C   UNL     1      -1.720  -0.090  -0.133  1.00  0.00     0.088 A 
ATOM     24  C   UNL     1       2.573  -0.042   0.055  1.00  0.00     0.044 C 
ATOM     25  C   UNL     1       1.073  -0.055   0.035  1.00  0.00    -0.051 A 
ATOM     26  C   UNL     1       0.386  -1.271  -0.061  1.00  0.00     0.005 A 
ATOM     27  C   UNL     1       0.346   1.139   0.098  1.00  0.00     0.005 A 
ATOM     28  C   UNL     1      -1.006  -1.292  -0.149  1.00  0.00     0.022 A 
ATOM     29  C   UNL     1      -1.048   1.124   0.026  1.00  0.00     0.022 A 
ENDBRANCH  20  23
ENDBRANCH  12  20
ENDBRANCH   9  11
ENDBRANCH   6   9
ENDBRANCH   4   5
ENDBRANCH   2   4
ENDBRANCH   1   2
BRANCH   1  30
ATOM     30  C   UNL     1     -11.683   4.167   2.429  1.00  0.00     0.274 C 
BRANCH  30  31
ATOM     31  C   UNL     1     -12.389   4.578   3.728  1.00  0.00     0.275 C 
BRANCH  31  32
ATOM     32  O   UNL     1     -11.595   5.137   4.831  1.00  0.00    -0.458 OA
BRANCH  32  33
ATOM     33  C   UNL     1     -10.597   6.055   4.928  1.00  0.00     0.338 C 
ATOM     34  O   UNL     1      -9.922   6.155   5.946  1.00  0.00    -0.246 OA
BRANCH  33  35
ATOM     35  C   UNL     1     -10.270   6.899   3.769  1.00  0.00     0.060 A 
ATOM     36  C   UNL     1      -8.967   7.401   3.563  1.00  0.00     0.016 A 
ATOM     37  C   UNL     1     -11.246   7.107   2.823  1.00  0.00     0.016 A 
ATOM     38  C   UNL     1      -8.631   7.983   2.335  1.00  0.00     0.010 A 
ATOM     39  C   UNL     1     -10.855   7.401   1.552  1.00  0.00     0.010 A 
ATOM     40  C   UNL     1      -9.581   7.931   1.320  1.00  0.00    -0.014 A 
BRANCH  40  41
ATOM     41  C   UNL     1      -9.530   8.627   0.045  1.00  0.00     0.031 A 
ATOM     42  C   UNL     1      -8.746   8.132  -1.092  1.00  0.00     0.074 A 
ATOM     43  C   UNL     1     -10.479   9.592  -0.023  1.00  0.00     0.049 A 
ATOM     44  N   UNL     1      -8.355   8.867  -2.071  1.00  0.00    -0.248 NA
ATOM     45  C   UNL     1      -8.322   6.741  -1.233  1.00  0.00     0.031 C 
ATOM     46  C   UNL     1     -11.086  10.302  -1.129  1.00  0.00     0.029 A 
ATOM     47  N   UNL     1     -11.070  10.186   1.094  1.00  0.00    -0.354 N 
ATOM     48  C   UNL     1      -7.992   8.012  -3.092  1.00  0.00     0.074 A 
ATOM     49  C   UNL     1      -7.836   6.718  -2.480  1.00  0.00     0.031 C 
ATOM     50  C   UNL     1     -11.688  11.411  -0.642  1.00  0.00     0.029 A 
ATOM     51  C   UNL     1     -11.385  11.498   0.785  1.00  0.00     0.049 A 
ATOM     52  H   UNL     1     -11.235   9.745   1.958  1.00  0.00     0.167 HD
ATOM     53  C   UNL     1      -8.088   8.444  -4.380  1.00  0.00     0.031 A 
ATOM     54  C   UNL     1     -10.619  12.442   1.411  1.00  0.00     0.031 A 
ATOM     55  C   UNL     1      -8.613   9.808  -4.407  1.00  0.00     0.049 A 
ATOM     56  C   UNL     1      -9.671  13.047   0.402  1.00  0.00     0.074 A 
ATOM     57  C   UNL     1      -9.901  10.291  -4.570  1.00  0.00     0.029 A 
ATOM     58  N   UNL     1      -7.880  10.827  -3.809  1.00  0.00    -0.354 N 
ATOM     59  N   UNL     1      -9.202  12.415  -0.644  1.00  0.00    -0.248 NA
ATOM     60  C   UNL     1      -9.290  14.453   0.433  1.00  0.00     0.031 C 
ATOM     61  C   UNL     1      -9.964  11.568  -3.946  1.00  0.00     0.029 A 
ATOM     62  C   UNL     1      -8.716  11.858  -3.416  1.00  0.00     0.049 A 
ATOM     63  H   UNL     1      -6.904  10.817  -3.682  1.00  0.00     0.167 HD
ATOM     64  C   UNL     1      -8.605  13.317  -1.479  1.00  0.00     0.074 A 
ATOM     65  C   UNL     1      -8.646  14.571  -0.740  1.00  0.00     0.031 C 
ATOM     66  C   UNL     1      -8.168  13.024  -2.739  1.00  0.00     0.031 A 
BRANCH  53  67
ATOM     67  C   UNL     1      -8.039   7.544  -5.590  1.00  0.00    -0.014 A 
ATOM     68  C   UNL     1      -8.802   7.875  -6.728  1.00  0.00     0.009 A 
ATOM     69  C   UNL     1      -7.265   6.374  -5.680  1.00  0.00     0.009 A 
ATOM     70  C   UNL     1      -8.830   7.067  -7.872  1.00  0.00     0.001 A 
ATOM     71  C   UNL     1      -7.304   5.549  -6.819  1.00  0.00     0.001 A 
ATOM     72  C   UNL     1      -8.088   5.896  -7.914  1.00  0.00     0.000 A 
ENDBRANCH  53  67
BRANCH  54  73
ATOM     73  C   UNL     1     -10.300  12.067   2.842  1.00  0.00    -0.014 A 
ATOM     74  C   UNL     1     -11.395  11.814   3.709  1.00  0.00     0.009 A 
ATOM     75  C   UNL     1      -9.041  11.598   3.245  1.00  0.00     0.009 A 
ATOM     76  C   UNL     1     -11.265  11.002   4.845  1.00  0.00     0.001 A 
ATOM     77  C   UNL     1      -8.908  10.817   4.410  1.00  0.00     0.001 A 
ATOM     78  C   UNL     1     -10.022  10.483   5.182  1.00  0.00     0.000 A 
ENDBRANCH  54  73
BRANCH  66  79
ATOM     79  C   UNL     1      -7.216  13.892  -3.513  1.00  0.00    -0.014 A 
ATOM     80  C   UNL     1      -6.336  14.792  -2.903  1.00  0.00     0.009 A 
ATOM     81  C   UNL     1      -7.065  13.686  -4.902  1.00  0.00     0.009 A 
ATOM     82  C   UNL     1      -5.404  15.512  -3.653  1.00  0.00     0.001 A 
ATOM     83  C   UNL     1      -6.089  14.349  -5.641  1.00  0.00     0.001 A 
ATOM     84  C   UNL     1      -5.273  15.282  -5.018  1.00  0.00     0.000 A 
ENDBRANCH  66  79
ENDBRANCH  40  41
ENDBRANCH  33  35
ENDBRANCH  32  33
ENDBRANCH  31  32
ENDBRANCH  30  31
ENDBRANCH   1  30
TORSDOF 16
