REMARK SMILES COCC[C@H]([NH3+])C(=O)N1CC(n2cc(C(=O)OCCOC(=O)c3ccc(-c4c5nc(c(-c6ccccc6)c6ccc([nH]6)c(-c6ccccc6)c6nc(c(-c7ccccc7)c7ccc4[nH]7)C=C6)C=C5)cc3)nn2)C1
REMARK SMILES IDX 17 1 15 2 16 3 14 4 12 5 13 6 72 7 71 8 11 9 7 10 8 11 9 12
REMARK SMILES IDX 10 13 73 14 5 15 4 16 3 17 2 18 1 19 6 20 18 24 19 25 20 26
REMARK SMILES IDX 21 27 22 28 23 29 24 30 70 31 25 32 69 33 26 34 27 35 28 36
REMARK SMILES IDX 63 37 29 38 68 39 62 40 64 41 30 42 67 43 61 44 60 45 31 47
REMARK SMILES IDX 53 48 38 49 52 50 39 51 42 52 51 53 65 54 40 55 41 56 50 58
REMARK SMILES IDX 66 59 43 60 32 61 33 62 37 63 34 64 36 65 35 66 54 67 55 68
REMARK SMILES IDX 59 69 56 70 58 71 57 72 44 73 45 74 49 75 46 76 48 77 47 78
REMARK H PARENT 6 21 6 22 6 23 64 46 42 57
REMARK Flexibility Score: inf
ROOT
ATOM      1  O   UNL     1       1.308 -11.343   0.974  1.00  0.00    -0.457 OA
ENDROOT
BRANCH   1   2
ATOM      2  C   UNL     1       2.409 -11.052   0.211  1.00  0.00     0.360 C 
ATOM      3  O   UNL     1       3.458 -11.690   0.256  1.00  0.00    -0.244 OA
BRANCH   2   4
ATOM      4  C   UNL     1       2.187  -9.940  -0.699  1.00  0.00     0.190 A 
ATOM      5  N   UNL     1       1.422  -8.226  -1.784  1.00  0.00    -0.245 N 
ATOM      6  C   UNL     1       1.064  -9.146  -0.837  1.00  0.00     0.147 A 
ATOM      7  N   UNL     1       2.652  -8.473  -2.261  1.00  0.00    -0.066 NA
ATOM      8  N   UNL     1       3.130  -9.526  -1.612  1.00  0.00    -0.123 NA
BRANCH   5   9
ATOM      9  C   UNL     1       0.664  -7.043  -2.067  1.00  0.00     0.148 C 
ATOM     10  C   UNL     1       0.438  -3.858  -1.830  1.00  0.00     0.280 C 
ATOM     11  O   UNL     1      -0.692  -3.839  -2.325  1.00  0.00    -0.268 OA
ATOM     12  N   UNL     1       1.166  -5.023  -1.742  1.00  0.00    -0.333 N 
ATOM     13  C   UNL     1       1.355  -5.957  -2.879  1.00  0.00     0.149 C 
ATOM     14  C   UNL     1       0.710  -6.114  -0.864  1.00  0.00     0.149 C 
BRANCH  10  15
ATOM     15  C   UNL     1       1.073  -2.581  -1.211  1.00  0.00     0.273 C 
BRANCH  15  16
ATOM     16  C   UNL     1       2.553  -2.633  -0.806  1.00  0.00     0.104 C 
BRANCH  16  17
ATOM     17  C   UNL     1       2.941  -3.145   0.586  1.00  0.00     0.166 C 
BRANCH  17  18
ATOM     18  O   UNL     1       2.460  -4.443   0.895  1.00  0.00    -0.384 OA
ATOM     19  C   UNL     1       1.410  -4.471   1.851  1.00  0.00     0.194 C 
ENDBRANCH  17  18
ENDBRANCH  16  17
ENDBRANCH  15  16
BRANCH  15  20
ATOM     20  N   UNL     1       0.187  -1.982  -0.190  1.00  0.00    -0.347 N 
ATOM     21  H   UNL     1       0.115  -2.612   0.609  1.00  0.00     0.345 HD
ATOM     22  H   UNL     1      -0.740  -1.832  -0.589  1.00  0.00     0.345 HD
ATOM     23  H   UNL     1       0.574  -1.089   0.115  1.00  0.00     0.345 HD
ENDBRANCH  15  20
ENDBRANCH  10  15
ENDBRANCH   5   9
ENDBRANCH   2   4
ENDBRANCH   1   2
BRANCH   1  24
ATOM     24  C   UNL     1       1.348 -12.603   1.664  1.00  0.00     0.275 C 
BRANCH  24  25
ATOM     25  C   UNL     1       0.774 -13.718   0.800  1.00  0.00     0.275 C 
BRANCH  25  26
ATOM     26  O   UNL     1       1.622 -14.017  -0.309  1.00  0.00    -0.458 OA
BRANCH  26  27
ATOM     27  C   UNL     1       1.302 -13.389  -1.464  1.00  0.00     0.338 C 
ATOM     28  O   UNL     1       0.609 -12.392  -1.589  1.00  0.00    -0.246 OA
BRANCH  27  29
ATOM     29  C   UNL     1       1.698 -14.235  -2.595  1.00  0.00     0.060 A 
ATOM     30  C   UNL     1       1.498 -13.728  -3.882  1.00  0.00     0.016 A 
ATOM     31  C   UNL     1       1.976 -15.591  -2.373  1.00  0.00     0.016 A 
ATOM     32  C   UNL     1       1.412 -14.618  -4.934  1.00  0.00     0.010 A 
ATOM     33  C   UNL     1       1.873 -16.479  -3.419  1.00  0.00     0.010 A 
ATOM     34  C   UNL     1       1.522 -15.991  -4.673  1.00  0.00    -0.014 A 
BRANCH  34  35
ATOM     35  C   UNL     1       1.397 -16.915  -5.781  1.00  0.00     0.031 A 
ATOM     36  C   UNL     1       2.555 -16.866  -6.699  1.00  0.00     0.074 A 
ATOM     37  C   UNL     1       0.393 -17.803  -5.905  1.00  0.00     0.049 A 
ATOM     38  N   UNL     1       2.573 -16.398  -7.900  1.00  0.00    -0.248 NA
ATOM     39  C   UNL     1       3.879 -17.221  -6.164  1.00  0.00     0.031 C 
ATOM     40  C   UNL     1      -0.652 -18.141  -4.936  1.00  0.00     0.029 A 
ATOM     41  N   UNL     1       0.160 -18.674  -6.923  1.00  0.00    -0.354 N 
ATOM     42  C   UNL     1       3.876 -16.566  -8.349  1.00  0.00     0.074 A 
ATOM     43  C   UNL     1       4.666 -16.913  -7.195  1.00  0.00     0.031 C 
ATOM     44  C   UNL     1      -1.259 -19.291  -5.317  1.00  0.00     0.029 A 
ATOM     45  C   UNL     1      -0.748 -19.680  -6.621  1.00  0.00     0.049 A 
ATOM     46  H   UNL     1       0.599 -18.598  -7.801  1.00  0.00     0.167 HD
ATOM     47  C   UNL     1       4.154 -16.659  -9.676  1.00  0.00     0.031 A 
ATOM     48  C   UNL     1      -1.018 -20.772  -7.380  1.00  0.00     0.031 A 
ATOM     49  C   UNL     1       3.044 -16.223 -10.483  1.00  0.00     0.049 A 
ATOM     50  C   UNL     1      -0.571 -20.477  -8.759  1.00  0.00     0.074 A 
ATOM     51  C   UNL     1       2.382 -15.031 -10.682  1.00  0.00     0.029 A 
ATOM     52  N   UNL     1       2.212 -17.213 -10.948  1.00  0.00    -0.354 N 
ATOM     53  N   UNL     1      -1.147 -19.596  -9.523  1.00  0.00    -0.248 NA
ATOM     54  C   UNL     1       0.780 -20.849  -9.147  1.00  0.00     0.031 C 
ATOM     55  C   UNL     1       1.014 -15.392 -10.863  1.00  0.00     0.029 A 
ATOM     56  C   UNL     1       0.918 -16.785 -10.825  1.00  0.00     0.049 A 
ATOM     57  H   UNL     1       2.499 -18.083 -11.308  1.00  0.00     0.167 HD
ATOM     58  C   UNL     1      -0.103 -18.975 -10.191  1.00  0.00     0.074 A 
ATOM     59  C   UNL     1       1.039 -19.870 -10.018  1.00  0.00     0.031 C 
ATOM     60  C   UNL     1      -0.201 -17.667 -10.571  1.00  0.00     0.031 A 
BRANCH  47  61
ATOM     61  C   UNL     1       5.221 -17.567 -10.229  1.00  0.00    -0.014 A 
ATOM     62  C   UNL     1       5.449 -17.565 -11.616  1.00  0.00     0.009 A 
ATOM     63  C   UNL     1       5.788 -18.627  -9.494  1.00  0.00     0.009 A 
ATOM     64  C   UNL     1       6.141 -18.609 -12.240  1.00  0.00     0.001 A 
ATOM     65  C   UNL     1       6.513 -19.649 -10.108  1.00  0.00     0.001 A 
ATOM     66  C   UNL     1       6.665 -19.655 -11.486  1.00  0.00     0.000 A 
ENDBRANCH  47  61
BRANCH  48  67
ATOM     67  C   UNL     1      -1.386 -22.142  -6.966  1.00  0.00    -0.014 A 
ATOM     68  C   UNL     1      -1.985 -23.032  -7.872  1.00  0.00     0.009 A 
ATOM     69  C   UNL     1      -0.874 -22.671  -5.768  1.00  0.00     0.009 A 
ATOM     70  C   UNL     1      -2.032 -24.408  -7.607  1.00  0.00     0.001 A 
ATOM     71  C   UNL     1      -0.919 -24.045  -5.504  1.00  0.00     0.001 A 
ATOM     72  C   UNL     1      -1.484 -24.915  -6.431  1.00  0.00     0.000 A 
ENDBRANCH  48  67
BRANCH  60  73
ATOM     73  C   UNL     1      -1.564 -17.022 -10.499  1.00  0.00    -0.014 A 
ATOM     74  C   UNL     1      -2.280 -16.854  -9.300  1.00  0.00     0.009 A 
ATOM     75  C   UNL     1      -2.084 -16.452 -11.669  1.00  0.00     0.009 A 
ATOM     76  C   UNL     1      -3.497 -16.162  -9.284  1.00  0.00     0.001 A 
ATOM     77  C   UNL     1      -3.285 -15.742 -11.650  1.00  0.00     0.001 A 
ATOM     78  C   UNL     1      -3.995 -15.603 -10.460  1.00  0.00     0.000 A 
ENDBRANCH  60  73
ENDBRANCH  34  35
ENDBRANCH  27  29
ENDBRANCH  26  27
ENDBRANCH  25  26
ENDBRANCH  24  25
ENDBRANCH   1  24
TORSDOF 17
