REMARK SMILES Cc1nc(-c2ccccc2)sc1C(=O)N[C@@H](CC1=c2ccccc2=NC1)C(=O)OCCOC(=O)c1ccc(-c2c3nc(c(-c4ccccc4)c4ccc([nH]4)c(-c4ccccc4)c4nc(c(-c5ccccc5)c5ccc2[nH]5)C=C4)C=C3)cc1
REMARK SMILES IDX 30 1 29 2 27 3 28 4 16 5 15 6 13 7 14 8 12 10 1 11 2 12 3 13
REMARK SMILES IDX 4 14 11 15 5 16 6 17 10 18 7 19 9 20 8 21 17 22 18 23 19 24
REMARK SMILES IDX 26 25 20 26 24 27 25 28 21 29 23 30 22 31 31 32 32 33 33 34
REMARK SMILES IDX 34 35 35 36 36 37 82 38 37 39 81 40 38 41 39 42 40 43 75 44
REMARK SMILES IDX 41 45 80 46 74 47 76 48 42 49 79 50 73 51 72 52 43 54 65 55
REMARK SMILES IDX 50 56 64 57 51 58 54 59 63 60 77 61 52 62 53 63 62 65 78 66
REMARK SMILES IDX 55 67 44 68 45 69 49 70 46 71 48 72 47 73 66 74 67 75 71 76
REMARK SMILES IDX 68 77 70 78 69 79 56 80 57 81 61 82 58 83 60 84 59 85
REMARK H PARENT 15 9 76 53 54 64
REMARK Flexibility Score: inf
ROOT
ATOM      1  C   UNL     1      -4.686  -3.979   3.022  1.00  0.00     0.274 C 
ENDROOT
BRANCH   1   2
ATOM      2  O   UNL     1      -3.819  -3.627   1.925  1.00  0.00    -0.461 OA
BRANCH   2   3
ATOM      3  C   UNL     1      -4.308  -2.702   1.058  1.00  0.00     0.329 C 
ATOM      4  O   UNL     1      -5.438  -2.227   1.095  1.00  0.00    -0.250 OA
BRANCH   3   5
ATOM      5  C   UNL     1      -3.310  -2.330  -0.046  1.00  0.00     0.196 C 
BRANCH   5   6
ATOM      6  N   UNL     1      -1.931  -2.752   0.165  1.00  0.00    -0.338 N 
ATOM      7  C   UNL     1      -0.714  -2.171  -0.091  1.00  0.00     0.264 C 
ATOM      8  O   UNL     1       0.237  -2.951   0.029  1.00  0.00    -0.268 OA
ATOM      9  H   UNL     1      -1.857  -3.642   0.578  1.00  0.00     0.164 HD
BRANCH   7  10
ATOM     10  C   UNL     1      -0.520  -0.760  -0.422  1.00  0.00     0.115 A 
ATOM     11  C   UNL     1      -2.499   0.292  -1.813  1.00  0.00     0.068 C 
ATOM     12  C   UNL     1      -1.216   0.263  -1.066  1.00  0.00     0.062 A 
ATOM     13  N   UNL     1      -0.585   1.499  -1.056  1.00  0.00    -0.241 NA
ATOM     14  C   UNL     1       0.630   1.415  -0.576  1.00  0.00     0.124 A 
ATOM     15  S   UNL     1       1.046  -0.114   0.042  1.00  0.00    -0.108 S 
BRANCH  14  16
ATOM     16  C   UNL     1       1.554   2.547  -0.535  1.00  0.00     0.010 A 
ATOM     17  C   UNL     1       1.179   3.706   0.155  1.00  0.00     0.011 A 
ATOM     18  C   UNL     1       2.753   2.548  -1.260  1.00  0.00     0.011 A 
ATOM     19  C   UNL     1       1.995   4.837   0.149  1.00  0.00     0.001 A 
ATOM     20  C   UNL     1       3.561   3.689  -1.284  1.00  0.00     0.001 A 
ATOM     21  C   UNL     1       3.185   4.829  -0.574  1.00  0.00     0.000 A 
ENDBRANCH  14  16
ENDBRANCH   7  10
ENDBRANCH   5   6
BRANCH   5  22
ATOM     22  C   UNL     1      -3.834  -2.841  -1.405  1.00  0.00     0.070 C 
BRANCH  22  23
ATOM     23  C   UNL     1      -4.029  -4.323  -1.468  1.00  0.00    -0.037 C 
ATOM     24  C   UNL     1      -3.115  -5.265  -1.683  1.00  0.00     0.001 A 
ATOM     25  C   UNL     1      -5.382  -4.938  -1.261  1.00  0.00     0.174 C 
ATOM     26  C   UNL     1      -1.713  -5.278  -1.949  1.00  0.00     0.010 A 
ATOM     27  C   UNL     1      -3.882  -6.507  -1.500  1.00  0.00     0.065 A 
ATOM     28  N   UNL     1      -5.154  -6.401  -1.268  1.00  0.00    -0.280 NA
ATOM     29  C   UNL     1      -1.076  -6.459  -1.989  1.00  0.00     0.001 A 
ATOM     30  C   UNL     1      -3.111  -7.767  -1.557  1.00  0.00     0.028 A 
ATOM     31  C   UNL     1      -1.786  -7.709  -1.776  1.00  0.00     0.002 A 
ENDBRANCH  22  23
ENDBRANCH   5  22
ENDBRANCH   3   5
ENDBRANCH   2   3
ENDBRANCH   1   2
BRANCH   1  32
ATOM     32  C   UNL     1      -4.079  -3.534   4.352  1.00  0.00     0.275 C 
BRANCH  32  33
ATOM     33  O   UNL     1      -3.765  -2.128   4.336  1.00  0.00    -0.458 OA
BRANCH  33  34
ATOM     34  C   UNL     1      -2.477  -1.846   4.037  1.00  0.00     0.338 C 
ATOM     35  O   UNL     1      -1.576  -2.637   3.796  1.00  0.00    -0.246 OA
BRANCH  34  36
ATOM     36  C   UNL     1      -2.290  -0.395   3.939  1.00  0.00     0.060 A 
ATOM     37  C   UNL     1      -2.371   0.197   2.681  1.00  0.00     0.016 A 
ATOM     38  C   UNL     1      -1.880   0.348   5.045  1.00  0.00     0.016 A 
ATOM     39  C   UNL     1      -1.992   1.524   2.507  1.00  0.00     0.010 A 
ATOM     40  C   UNL     1      -1.547   1.698   4.878  1.00  0.00     0.010 A 
ATOM     41  C   UNL     1      -1.572   2.291   3.603  1.00  0.00    -0.014 A 
BRANCH  41  42
ATOM     42  C   UNL     1      -1.091   3.682   3.386  1.00  0.00     0.031 A 
ATOM     43  C   UNL     1       0.355   4.028   3.627  1.00  0.00     0.074 A 
ATOM     44  C   UNL     1      -1.916   4.619   2.880  1.00  0.00     0.049 A 
ATOM     45  N   UNL     1       0.945   5.197   3.562  1.00  0.00    -0.248 NA
ATOM     46  C   UNL     1       1.258   2.915   3.960  1.00  0.00     0.031 C 
ATOM     47  C   UNL     1      -3.316   4.407   2.511  1.00  0.00     0.029 A 
ATOM     48  N   UNL     1      -1.684   5.935   2.562  1.00  0.00    -0.354 N 
ATOM     49  C   UNL     1       2.283   4.960   3.853  1.00  0.00     0.074 A 
ATOM     50  C   UNL     1       2.412   3.545   4.130  1.00  0.00     0.031 C 
ATOM     51  C   UNL     1      -3.807   5.540   1.984  1.00  0.00     0.029 A 
ATOM     52  C   UNL     1      -2.783   6.578   2.047  1.00  0.00     0.049 A 
ATOM     53  H   UNL     1      -0.813   6.376   2.692  1.00  0.00     0.167 HD
ATOM     54  C   UNL     1       3.319   5.832   3.859  1.00  0.00     0.031 A 
ATOM     55  C   UNL     1      -2.964   7.866   1.697  1.00  0.00     0.031 A 
ATOM     56  C   UNL     1       3.216   7.231   3.547  1.00  0.00     0.049 A 
ATOM     57  C   UNL     1      -1.838   8.844   1.865  1.00  0.00     0.074 A 
ATOM     58  C   UNL     1       4.217   8.189   3.539  1.00  0.00     0.029 A 
ATOM     59  N   UNL     1       2.047   7.872   3.173  1.00  0.00    -0.354 N 
ATOM     60  N   UNL     1      -0.598   8.622   2.227  1.00  0.00    -0.248 NA
ATOM     61  C   UNL     1      -2.145  10.258   1.598  1.00  0.00     0.031 C 
ATOM     62  C   UNL     1       3.645   9.418   3.190  1.00  0.00     0.029 A 
ATOM     63  C   UNL     1       2.298   9.215   2.943  1.00  0.00     0.049 A 
ATOM     64  H   UNL     1       1.168   7.438   3.084  1.00  0.00     0.167 HD
ATOM     65  C   UNL     1       0.023   9.864   2.224  1.00  0.00     0.074 A 
ATOM     66  C   UNL     1      -0.969  10.832   1.805  1.00  0.00     0.031 C 
ATOM     67  C   UNL     1       1.302  10.173   2.544  1.00  0.00     0.031 A 
BRANCH  54  68
ATOM     68  C   UNL     1       4.668   5.291   4.231  1.00  0.00    -0.014 A 
ATOM     69  C   UNL     1       5.423   4.539   3.318  1.00  0.00     0.009 A 
ATOM     70  C   UNL     1       5.205   5.570   5.497  1.00  0.00     0.009 A 
ATOM     71  C   UNL     1       6.683   4.056   3.677  1.00  0.00     0.001 A 
ATOM     72  C   UNL     1       6.472   5.102   5.846  1.00  0.00     0.001 A 
ATOM     73  C   UNL     1       7.207   4.340   4.938  1.00  0.00     0.000 A 
ENDBRANCH  54  68
BRANCH  55  74
ATOM     74  C   UNL     1      -4.293   8.324   1.216  1.00  0.00    -0.014 A 
ATOM     75  C   UNL     1      -4.476   8.730  -0.114  1.00  0.00     0.009 A 
ATOM     76  C   UNL     1      -5.386   8.372   2.098  1.00  0.00     0.009 A 
ATOM     77  C   UNL     1      -5.723   9.187  -0.546  1.00  0.00     0.001 A 
ATOM     78  C   UNL     1      -6.637   8.801   1.655  1.00  0.00     0.001 A 
ATOM     79  C   UNL     1      -6.803   9.216   0.335  1.00  0.00     0.000 A 
ENDBRANCH  55  74
BRANCH  67  80
ATOM     80  C   UNL     1       1.704  11.615   2.442  1.00  0.00    -0.014 A 
ATOM     81  C   UNL     1       1.307  12.544   3.415  1.00  0.00     0.009 A 
ATOM     82  C   UNL     1       2.507  12.045   1.374  1.00  0.00     0.009 A 
ATOM     83  C   UNL     1       1.685  13.884   3.307  1.00  0.00     0.001 A 
ATOM     84  C   UNL     1       2.902  13.380   1.281  1.00  0.00     0.001 A 
ATOM     85  C   UNL     1       2.485  14.300   2.242  1.00  0.00     0.000 A 
ENDBRANCH  67  80
ENDBRANCH  41  42
ENDBRANCH  34  36
ENDBRANCH  33  34
ENDBRANCH  32  33
ENDBRANCH   1  32
TORSDOF 16
