REMARK SMILES Nc1oc2ccc(F)cc2c(=O)c1[C@@H]1[NH2+][C@H](C(=O)OCCOC(=O)c2ccc(-c3c4nc(c(-c5ccccc5)c5ccc([nH]5)c(-c5ccccc5)c5nc(c(-c6ccccc6)c6ccc3[nH]6)C=C5)C=C4)cc2)CS1
REMARK SMILES IDX 20 1 19 2 17 3 18 4 16 5 14 6 15 7 74 8 73 11 13 12 2 13
REMARK SMILES IDX 3 14 4 15 11 16 5 17 10 18 12 19 6 20 9 21 7 22 8 23 1 24
REMARK SMILES IDX 21 27 22 28 23 29 24 30 25 31 26 32 72 33 27 34 71 35 28 36
REMARK SMILES IDX 29 37 30 38 65 39 31 40 70 41 64 42 66 43 32 44 69 45 63 46
REMARK SMILES IDX 62 47 33 49 55 50 40 51 54 52 41 53 44 54 53 55 67 56 42 57
REMARK SMILES IDX 43 58 52 60 68 61 45 62 34 63 35 64 39 65 36 66 38 67 37 68
REMARK SMILES IDX 56 69 57 70 61 71 58 72 60 73 59 74 46 75 47 76 51 77 48 78
REMARK SMILES IDX 50 79 49 80
REMARK H PARENT 15 9 15 10 1 25 1 26 66 48 44 59
REMARK Flexibility Score: inf
ROOT
ATOM      1  C   UNL     1      -0.873  -0.599  -1.325  1.00  0.00     0.274 C 
ENDROOT
BRANCH   1   2
ATOM      2  O   UNL     1       0.165   0.362  -1.053  1.00  0.00    -0.458 OA
BRANCH   2   3
ATOM      3  C   UNL     1       1.452   0.020  -1.318  1.00  0.00     0.365 C 
ATOM      4  O   UNL     1       1.797  -1.046  -1.822  1.00  0.00    -0.245 OA
BRANCH   3   5
ATOM      5  C   UNL     1       2.461   1.144  -1.005  1.00  0.00     0.304 C 
ATOM      6  C   UNL     1       2.043   2.180   1.129  1.00  0.00     0.283 C 
ATOM      7  N   UNL     1       1.887   2.325  -0.323  1.00  0.00    -0.319 N 
ATOM      8  S   UNL     1       3.584   1.270   1.421  1.00  0.00    -0.087 SA
ATOM      9  H   UNL     1       2.374   3.166  -0.634  1.00  0.00     0.348 HD
ATOM     10  H   UNL     1       0.896   2.400  -0.551  1.00  0.00     0.348 HD
ATOM     11  C   UNL     1       3.691   0.631  -0.268  1.00  0.00     0.153 C 
BRANCH   6  12
ATOM     12  C   UNL     1       0.819   1.590   1.787  1.00  0.00     0.128 A 
ATOM     13  C   UNL     1       0.478   0.289   1.934  1.00  0.00     0.205 A 
ATOM     14  O   UNL     1      -0.759  -0.135   2.387  1.00  0.00    -0.440 OA
ATOM     15  C   UNL     1      -1.615   0.769   2.940  1.00  0.00     0.140 A 
ATOM     16  C   UNL     1      -0.122   2.613   2.332  1.00  0.00     0.205 A 
ATOM     17  C   UNL     1      -2.787   0.265   3.505  1.00  0.00     0.051 A 
ATOM     18  C   UNL     1      -1.338   2.127   2.991  1.00  0.00     0.068 A 
ATOM     19  O   UNL     1       0.105   3.817   2.291  1.00  0.00    -0.288 OA
ATOM     20  C   UNL     1      -3.648   1.125   4.182  1.00  0.00     0.043 A 
ATOM     21  C   UNL     1      -2.194   2.995   3.672  1.00  0.00     0.055 A 
ATOM     22  C   UNL     1      -3.334   2.478   4.275  1.00  0.00     0.124 A 
ATOM     23  F   UNL     1      -4.143   3.291   4.965  1.00  0.00    -0.207 F 
BRANCH  13  24
ATOM     24  N   UNL     1       1.271  -0.773   1.607  1.00  0.00    -0.369 N 
ATOM     25  H   UNL     1       0.945  -1.692   1.746  1.00  0.00     0.159 HD
ATOM     26  H   UNL     1       2.168  -0.621   1.232  1.00  0.00     0.159 HD
ENDBRANCH  13  24
ENDBRANCH   6  12
ENDBRANCH   3   5
ENDBRANCH   2   3
ENDBRANCH   1   2
BRANCH   1  27
ATOM     27  C   UNL     1      -1.960   0.059  -2.174  1.00  0.00     0.275 C 
BRANCH  27  28
ATOM     28  O   UNL     1      -1.453   0.300  -3.497  1.00  0.00    -0.458 OA
BRANCH  28  29
ATOM     29  C   UNL     1      -0.788   1.468  -3.651  1.00  0.00     0.338 C 
ATOM     30  O   UNL     1      -0.721   2.411  -2.882  1.00  0.00    -0.246 OA
BRANCH  29  31
ATOM     31  C   UNL     1       0.038   1.339  -4.853  1.00  0.00     0.060 A 
ATOM     32  C   UNL     1      -0.543   1.173  -6.105  1.00  0.00     0.016 A 
ATOM     33  C   UNL     1       1.426   1.379  -4.704  1.00  0.00     0.016 A 
ATOM     34  C   UNL     1       0.287   1.025  -7.213  1.00  0.00     0.010 A 
ATOM     35  C   UNL     1       2.256   1.242  -5.806  1.00  0.00     0.010 A 
ATOM     36  C   UNL     1       1.688   1.061  -7.069  1.00  0.00    -0.014 A 
BRANCH  36  37
ATOM     37  C   UNL     1       2.557   1.008  -8.259  1.00  0.00     0.031 A 
ATOM     38  C   UNL     1       3.398  -0.196  -8.546  1.00  0.00     0.074 A 
ATOM     39  C   UNL     1       2.571   2.079  -9.072  1.00  0.00     0.049 A 
ATOM     40  N   UNL     1       4.109  -0.456  -9.612  1.00  0.00    -0.248 NA
ATOM     41  C   UNL     1       3.465  -1.236  -7.507  1.00  0.00     0.031 C 
ATOM     42  C   UNL     1       1.829   3.318  -8.829  1.00  0.00     0.029 A 
ATOM     43  N   UNL     1       3.199   2.291 -10.269  1.00  0.00    -0.354 N 
ATOM     44  C   UNL     1       4.685  -1.698  -9.385  1.00  0.00     0.074 A 
ATOM     45  C   UNL     1       4.301  -2.109  -8.053  1.00  0.00     0.031 C 
ATOM     46  C   UNL     1       1.987   4.133  -9.881  1.00  0.00     0.029 A 
ATOM     47  C   UNL     1       2.870   3.491 -10.850  1.00  0.00     0.049 A 
ATOM     48  H   UNL     1       3.825   1.647 -10.674  1.00  0.00     0.167 HD
ATOM     49  C   UNL     1       5.438  -2.435 -10.234  1.00  0.00     0.031 A 
ATOM     50  C   UNL     1       3.220   4.007 -12.042  1.00  0.00     0.031 A 
ATOM     51  C   UNL     1       5.821  -1.989 -11.548  1.00  0.00     0.049 A 
ATOM     52  C   UNL     1       4.079   3.181 -12.956  1.00  0.00     0.074 A 
ATOM     53  C   UNL     1       6.554  -2.667 -12.505  1.00  0.00     0.029 A 
ATOM     54  N   UNL     1       5.508  -0.748 -12.086  1.00  0.00    -0.354 N 
ATOM     55  N   UNL     1       4.546   1.968 -12.770  1.00  0.00    -0.248 NA
ATOM     56  C   UNL     1       4.446   3.778 -14.245  1.00  0.00     0.031 C 
ATOM     57  C   UNL     1       6.748  -1.810 -13.590  1.00  0.00     0.029 A 
ATOM     58  C   UNL     1       6.061  -0.630 -13.350  1.00  0.00     0.049 A 
ATOM     59  H   UNL     1       4.971  -0.056 -11.637  1.00  0.00     0.167 HD
ATOM     60  C   UNL     1       5.246   1.649 -13.924  1.00  0.00     0.074 A 
ATOM     61  C   UNL     1       5.123   2.787 -14.813  1.00  0.00     0.031 C 
ATOM     62  C   UNL     1       5.931   0.516 -14.217  1.00  0.00     0.031 A 
BRANCH  49  63
ATOM     63  C   UNL     1       5.882  -3.803  -9.789  1.00  0.00    -0.014 A 
ATOM     64  C   UNL     1       7.248  -4.091  -9.644  1.00  0.00     0.009 A 
ATOM     65  C   UNL     1       4.952  -4.841  -9.615  1.00  0.00     0.009 A 
ATOM     66  C   UNL     1       7.675  -5.390  -9.356  1.00  0.00     0.001 A 
ATOM     67  C   UNL     1       5.379  -6.132  -9.293  1.00  0.00     0.001 A 
ATOM     68  C   UNL     1       6.740  -6.408  -9.176  1.00  0.00     0.000 A 
ENDBRANCH  49  63
BRANCH  50  69
ATOM     69  C   UNL     1       2.683   5.335 -12.440  1.00  0.00    -0.014 A 
ATOM     70  C   UNL     1       3.053   6.496 -11.738  1.00  0.00     0.009 A 
ATOM     71  C   UNL     1       1.719   5.439 -13.454  1.00  0.00     0.009 A 
ATOM     72  C   UNL     1       2.441   7.720 -12.015  1.00  0.00     0.001 A 
ATOM     73  C   UNL     1       1.135   6.672 -13.753  1.00  0.00     0.001 A 
ATOM     74  C   UNL     1       1.485   7.808 -13.024  1.00  0.00     0.000 A 
ENDBRANCH  50  69
BRANCH  62  75
ATOM     75  C   UNL     1       6.610   0.432 -15.557  1.00  0.00    -0.014 A 
ATOM     76  C   UNL     1       6.179  -0.518 -16.498  1.00  0.00     0.009 A 
ATOM     77  C   UNL     1       7.753   1.196 -15.838  1.00  0.00     0.009 A 
ATOM     78  C   UNL     1       6.895  -0.724 -17.678  1.00  0.00     0.001 A 
ATOM     79  C   UNL     1       8.445   1.015 -17.037  1.00  0.00     0.001 A 
ATOM     80  C   UNL     1       8.025   0.045 -17.947  1.00  0.00     0.000 A 
ENDBRANCH  62  75
ENDBRANCH  36  37
ENDBRANCH  29  31
ENDBRANCH  28  29
ENDBRANCH  27  28
ENDBRANCH   1  27
TORSDOF 13
