REMARK SMILES CN1C(=O)C[C@@H](C(=O)OCCOC(=O)c2ccc(-c3c4nc(c(-c5ccccc5)c5ccc([nH]5)c(-c5ccccc5)c5nc(c(-c6ccccc6)c6ccc3[nH]6)C=C5)C=C4)cc2)C12CCN(C(=O)c1ccccc1-n1cccn1)CC2
REMARK SMILES IDX 10 1 9 2 7 3 8 4 6 5 1 6 2 7 3 8 63 9 4 10 5 11 64 12 81 13
REMARK SMILES IDX 65 14 80 15 66 16 67 17 68 18 69 19 70 20 74 21 71 22 73 23
REMARK SMILES IDX 72 24 75 25 76 26 79 27 77 28 78 29 11 30 12 31 13 32 14 33
REMARK SMILES IDX 15 34 16 35 62 36 17 37 61 38 18 39 19 40 20 41 55 42 21 43
REMARK SMILES IDX 60 44 54 45 56 46 22 47 59 48 53 49 52 50 23 52 45 53 30 54
REMARK SMILES IDX 44 55 31 56 34 57 43 58 57 59 32 60 33 61 42 63 58 64 35 65
REMARK SMILES IDX 24 66 25 67 29 68 26 69 28 70 27 71 46 72 47 73 51 74 48 75
REMARK SMILES IDX 50 76 49 77 36 78 37 79 41 80 38 81 40 82 39 83
REMARK H PARENT 56 51 34 62
REMARK Flexibility Score: inf
ROOT
ATOM      1  C   UNL     1      -1.510   2.287  -4.668  1.00  0.00     0.274 C 
ENDROOT
BRANCH   1   2
ATOM      2  O   UNL     1      -1.187   1.988  -3.291  1.00  0.00    -0.462 OA
BRANCH   2   3
ATOM      3  C   UNL     1      -1.508   2.946  -2.398  1.00  0.00     0.311 C 
ATOM      4  O   UNL     1      -1.982   4.038  -2.703  1.00  0.00    -0.252 OA
BRANCH   3   5
ATOM      5  C   UNL     1      -1.244   2.606  -0.941  1.00  0.00     0.134 C 
ATOM      6  C   UNL     1       1.525   0.158  -0.299  1.00  0.00     0.147 C 
ATOM      7  N   UNL     1       0.634   1.290  -0.475  1.00  0.00    -0.339 N 
ATOM      8  C   UNL     1       1.099   2.595  -0.496  1.00  0.00     0.223 C 
ATOM      9  C   UNL     1      -0.832   1.195  -0.439  1.00  0.00     0.060 C 
ATOM     10  O   UNL     1       2.264   2.958  -0.459  1.00  0.00    -0.275 OA
ATOM     11  C   UNL     1      -0.085   3.517  -0.507  1.00  0.00     0.118 C 
ATOM     12  C   UNL     1      -1.355  -0.022  -1.227  1.00  0.00     0.051 C 
ATOM     13  C   UNL     1      -1.293   1.018   1.049  1.00  0.00     0.051 C 
ATOM     14  C   UNL     1      -2.853  -0.211  -1.075  1.00  0.00     0.122 C 
ATOM     15  C   UNL     1      -2.782   0.686   1.216  1.00  0.00     0.122 C 
ATOM     16  N   UNL     1      -3.200  -0.396   0.332  1.00  0.00    -0.338 N 
ATOM     17  C   UNL     1      -3.994  -1.426   0.843  1.00  0.00     0.256 C 
ATOM     18  O   UNL     1      -4.408  -1.455   2.000  1.00  0.00    -0.269 OA
BRANCH  17  19
ATOM     19  C   UNL     1      -4.395  -2.543  -0.044  1.00  0.00     0.065 A 
ATOM     20  C   UNL     1      -5.767  -2.628  -0.333  1.00  0.00     0.016 A 
ATOM     21  C   UNL     1      -3.493  -3.416  -0.674  1.00  0.00     0.077 A 
ATOM     22  C   UNL     1      -6.232  -3.526  -1.293  1.00  0.00     0.001 A 
ATOM     23  C   UNL     1      -3.967  -4.275  -1.682  1.00  0.00     0.029 A 
ATOM     24  C   UNL     1      -5.330  -4.330  -1.984  1.00  0.00     0.002 A 
BRANCH  21  25
ATOM     25  N   UNL     1      -2.115  -3.471  -0.342  1.00  0.00    -0.240 N 
ATOM     26  C   UNL     1      -1.499  -3.164   0.854  1.00  0.00     0.115 A 
ATOM     27  N   UNL     1      -1.203  -3.882  -1.264  1.00  0.00    -0.177 NA
ATOM     28  C   UNL     1      -0.145  -3.306   0.664  1.00  0.00     0.042 A 
ATOM     29  C   UNL     1      -0.022  -3.739  -0.663  1.00  0.00     0.135 A 
ENDBRANCH  21  25
ENDBRANCH  17  19
ENDBRANCH   3   5
ENDBRANCH   2   3
ENDBRANCH   1   2
BRANCH   1  30
ATOM     30  C   UNL     1      -2.885   1.727  -5.040  1.00  0.00     0.275 C 
BRANCH  30  31
ATOM     31  O   UNL     1      -3.879   2.210  -4.117  1.00  0.00    -0.458 OA
BRANCH  31  32
ATOM     32  C   UNL     1      -4.776   1.294  -3.684  1.00  0.00     0.338 C 
ATOM     33  O   UNL     1      -4.875   0.138  -4.060  1.00  0.00    -0.246 OA
BRANCH  32  34
ATOM     34  C   UNL     1      -5.614   1.849  -2.596  1.00  0.00     0.060 A 
ATOM     35  C   UNL     1      -5.089   2.736  -1.652  1.00  0.00     0.016 A 
ATOM     36  C   UNL     1      -6.915   1.369  -2.439  1.00  0.00     0.016 A 
ATOM     37  C   UNL     1      -5.828   3.084  -0.522  1.00  0.00     0.010 A 
ATOM     38  C   UNL     1      -7.694   1.804  -1.362  1.00  0.00     0.010 A 
ATOM     39  C   UNL     1      -7.154   2.655  -0.383  1.00  0.00    -0.014 A 
BRANCH  39  40
ATOM     40  C   UNL     1      -8.001   3.138   0.741  1.00  0.00     0.031 A 
ATOM     41  C   UNL     1      -8.658   2.170   1.687  1.00  0.00     0.074 A 
ATOM     42  C   UNL     1      -8.234   4.458   0.876  1.00  0.00     0.049 A 
ATOM     43  N   UNL     1      -9.597   2.391   2.573  1.00  0.00    -0.248 NA
ATOM     44  C   UNL     1      -8.215   0.770   1.615  1.00  0.00     0.031 C 
ATOM     45  C   UNL     1      -7.654   5.515   0.044  1.00  0.00     0.029 A 
ATOM     46  N   UNL     1      -9.039   5.137   1.758  1.00  0.00    -0.354 N 
ATOM     47  C   UNL     1      -9.895   1.152   3.128  1.00  0.00     0.074 A 
ATOM     48  C   UNL     1      -9.039   0.183   2.473  1.00  0.00     0.031 C 
ATOM     49  C   UNL     1      -8.106   6.705   0.464  1.00  0.00     0.029 A 
ATOM     50  C   UNL     1      -9.072   6.491   1.534  1.00  0.00     0.049 A 
ATOM     51  H   UNL     1      -9.544   4.696   2.479  1.00  0.00     0.167 HD
ATOM     52  C   UNL     1     -10.800   0.851   4.091  1.00  0.00     0.031 A 
ATOM     53  C   UNL     1      -9.828   7.458   2.083  1.00  0.00     0.031 A 
ATOM     54  C   UNL     1     -11.627   1.820   4.765  1.00  0.00     0.049 A 
ATOM     55  C   UNL     1     -10.841   7.099   3.126  1.00  0.00     0.074 A 
ATOM     56  C   UNL     1     -12.548   1.613   5.779  1.00  0.00     0.029 A 
ATOM     57  N   UNL     1     -11.627   3.181   4.502  1.00  0.00    -0.354 N 
ATOM     58  N   UNL     1     -11.133   5.921   3.619  1.00  0.00    -0.248 NA
ATOM     59  C   UNL     1     -11.635   8.204   3.681  1.00  0.00     0.031 C 
ATOM     60  C   UNL     1     -13.137   2.842   6.098  1.00  0.00     0.029 A 
ATOM     61  C   UNL     1     -12.545   3.822   5.319  1.00  0.00     0.049 A 
ATOM     62  H   UNL     1     -11.058   3.627   3.834  1.00  0.00     0.167 HD
ATOM     63  C   UNL     1     -12.139   6.141   4.549  1.00  0.00     0.074 A 
ATOM     64  C   UNL     1     -12.389   7.569   4.568  1.00  0.00     0.031 C 
ATOM     65  C   UNL     1     -12.798   5.240   5.316  1.00  0.00     0.031 A 
BRANCH  52  66
ATOM     66  C   UNL     1     -10.976  -0.600   4.449  1.00  0.00    -0.014 A 
ATOM     67  C   UNL     1     -10.002  -1.303   5.175  1.00  0.00     0.009 A 
ATOM     68  C   UNL     1     -12.161  -1.261   4.088  1.00  0.00     0.009 A 
ATOM     69  C   UNL     1     -10.197  -2.648   5.499  1.00  0.00     0.001 A 
ATOM     70  C   UNL     1     -12.365  -2.598   4.437  1.00  0.00     0.001 A 
ATOM     71  C   UNL     1     -11.379  -3.292   5.135  1.00  0.00     0.000 A 
ENDBRANCH  52  66
BRANCH  53  72
ATOM     72  C   UNL     1      -9.678   8.857   1.609  1.00  0.00    -0.014 A 
ATOM     73  C   UNL     1      -9.055   9.820   2.414  1.00  0.00     0.009 A 
ATOM     74  C   UNL     1     -10.123   9.222   0.327  1.00  0.00     0.009 A 
ATOM     75  C   UNL     1      -8.887  11.126   1.948  1.00  0.00     0.001 A 
ATOM     76  C   UNL     1      -9.928  10.520  -0.146  1.00  0.00     0.001 A 
ATOM     77  C   UNL     1      -9.316  11.472   0.666  1.00  0.00     0.000 A 
ENDBRANCH  53  72
BRANCH  65  78
ATOM     78  C   UNL     1     -13.839   5.782   6.253  1.00  0.00    -0.014 A 
ATOM     79  C   UNL     1     -15.076   6.242   5.776  1.00  0.00     0.009 A 
ATOM     80  C   UNL     1     -13.579   5.829   7.631  1.00  0.00     0.009 A 
ATOM     81  C   UNL     1     -16.019   6.774   6.659  1.00  0.00     0.001 A 
ATOM     82  C   UNL     1     -14.534   6.337   8.514  1.00  0.00     0.001 A 
ATOM     83  C   UNL     1     -15.748   6.818   8.026  1.00  0.00     0.000 A 
ENDBRANCH  65  78
ENDBRANCH  39  40
ENDBRANCH  32  34
ENDBRANCH  31  32
ENDBRANCH  30  31
ENDBRANCH   1  30
TORSDOF 13
