REMARK SMILES C[C@@H]1[C@H](C(=O)OCCOC(=O)c2ccc(-c3c4nc(c(-c5ccccc5)c5ccc([nH]5)c(-c5ccccc5)c5nc(c(-c6ccccc6)c6ccc3[nH]6)C=C5)C=C4)cc2)CCN1S(=O)(=O)N1CCCCCC1
REMARK SMILES IDX 6 1 4 2 5 3 3 4 1 5 2 6 62 7 60 8 61 9 63 10 64 11 65 12
REMARK SMILES IDX 66 13 67 14 68 15 69 16 72 18 71 19 70 20 7 22 8 23 9 24
REMARK SMILES IDX 10 25 11 26 12 27 13 28 59 29 14 30 58 31 15 32 16 33 17 34
REMARK SMILES IDX 52 35 18 36 57 37 51 38 53 39 19 40 56 41 50 42 49 43 20 45
REMARK SMILES IDX 42 46 27 47 41 48 28 49 31 50 40 51 54 52 29 53 30 54 39 56
REMARK SMILES IDX 55 57 32 58 21 59 22 60 26 61 23 62 25 63 24 64 43 65 44 66
REMARK SMILES IDX 48 67 45 68 47 69 46 70 33 71 34 72 38 73 35 74 37 75 36 76
REMARK H PARENT 53 44 31 55
REMARK Flexibility Score: 90.00
ROOT
ATOM      1  O   UNL     1       1.124   2.909   1.073  1.00  0.00    -0.462 OA
ENDROOT
BRANCH   1   2
ATOM      2  C   UNL     1       0.024   2.684   0.326  1.00  0.00     0.310 C 
ATOM      3  O   UNL     1      -0.645   3.567  -0.199  1.00  0.00    -0.252 OA
BRANCH   2   4
ATOM      4  C   UNL     1      -0.291   1.210   0.149  1.00  0.00     0.118 C 
ATOM      5  C   UNL     1       1.676   0.378   1.610  1.00  0.00     0.027 C 
ATOM      6  C   UNL     1       0.815   0.159   0.363  1.00  0.00     0.085 C 
ATOM      7  N   UNL     1       0.043  -1.123   0.382  1.00  0.00    -0.185 NA
ATOM      8  C   UNL     1      -1.425   0.683   1.003  1.00  0.00     0.034 C 
ATOM      9  C   UNL     1      -1.378  -0.816   0.710  1.00  0.00     0.105 C 
BRANCH   7  10
ATOM     10  S   UNL     1       0.641  -2.596   0.928  1.00  0.00     0.282 S 
ATOM     11  O   UNL     1       1.124  -2.420   2.276  1.00  0.00    -0.195 OA
ATOM     12  O   UNL     1      -0.385  -3.582   0.661  1.00  0.00    -0.195 OA
BRANCH  10  13
ATOM     13  N   UNL     1       1.945  -2.886  -0.100  1.00  0.00    -0.189 NA
BRANCH  13  14
ATOM     14  C   UNL     1       1.773  -3.785  -1.250  1.00  0.00     0.103 C 
BRANCH  14  15
ATOM     15  C   UNL     1       2.691  -5.004  -1.121  1.00  0.00     0.017 C 
BRANCH  15  16
ATOM     16  C   UNL     1       4.099  -4.783  -1.669  1.00  0.00     0.001 CG0
ATOM     17  G   UNL     1       4.908  -3.730  -0.925  1.00  0.00     0.000 G0
ENDBRANCH  15  16
ENDBRANCH  14  15
ENDBRANCH  13  14
BRANCH  13  18
ATOM     18  C   UNL     1       3.196  -2.124   0.053  1.00  0.00     0.103 C 
BRANCH  18  19
ATOM     19  C   UNL     1       4.276  -2.351  -0.995  1.00  0.00     0.017 C 
BRANCH  19  20
ATOM     20  C   UNL     1       4.908  -3.730  -0.925  1.00  0.00     0.001 CG0
ATOM     21  G   UNL     1       4.099  -4.783  -1.669  1.00  0.00     0.000 G0
ENDBRANCH  19  20
ENDBRANCH  18  19
ENDBRANCH  13  18
ENDBRANCH  10  13
ENDBRANCH   7  10
ENDBRANCH   2   4
ENDBRANCH   1   2
BRANCH   1  22
ATOM     22  C   UNL     1       1.730   4.215   1.072  1.00  0.00     0.274 C 
BRANCH  22  23
ATOM     23  C   UNL     1       2.918   4.237   0.104  1.00  0.00     0.275 C 
BRANCH  23  24
ATOM     24  O   UNL     1       2.466   4.290  -1.264  1.00  0.00    -0.458 OA
BRANCH  24  25
ATOM     25  C   UNL     1       2.381   3.098  -1.896  1.00  0.00     0.338 C 
ATOM     26  O   UNL     1       2.695   2.004  -1.458  1.00  0.00    -0.246 OA
BRANCH  25  27
ATOM     27  C   UNL     1       1.691   3.274  -3.181  1.00  0.00     0.060 A 
ATOM     28  C   UNL     1       0.453   2.651  -3.350  1.00  0.00     0.016 A 
ATOM     29  C   UNL     1       2.275   3.980  -4.230  1.00  0.00     0.016 A 
ATOM     30  C   UNL     1      -0.210   2.719  -4.568  1.00  0.00     0.010 A 
ATOM     31  C   UNL     1       1.599   4.067  -5.452  1.00  0.00     0.010 A 
ATOM     32  C   UNL     1       0.357   3.432  -5.629  1.00  0.00    -0.014 A 
BRANCH  32  33
ATOM     33  C   UNL     1      -0.347   3.481  -6.931  1.00  0.00     0.031 A 
ATOM     34  C   UNL     1       0.220   2.751  -8.114  1.00  0.00     0.074 A 
ATOM     35  C   UNL     1      -1.506   4.157  -7.038  1.00  0.00     0.049 A 
ATOM     36  N   UNL     1      -0.195   2.741  -9.355  1.00  0.00    -0.248 NA
ATOM     37  C   UNL     1       1.412   1.924  -7.870  1.00  0.00     0.031 C 
ATOM     38  C   UNL     1      -2.187   4.850  -5.941  1.00  0.00     0.029 A 
ATOM     39  N   UNL     1      -2.318   4.371  -8.122  1.00  0.00    -0.354 N 
ATOM     40  C   UNL     1       0.695   1.927 -10.043  1.00  0.00     0.074 A 
ATOM     41  C   UNL     1       1.688   1.482  -9.088  1.00  0.00     0.031 C 
ATOM     42  C   UNL     1      -3.318   5.401  -6.407  1.00  0.00     0.029 A 
ATOM     43  C   UNL     1      -3.409   5.157  -7.842  1.00  0.00     0.049 A 
ATOM     44  H   UNL     1      -2.136   3.997  -9.014  1.00  0.00     0.167 HD
ATOM     45  C   UNL     1       0.682   1.581 -11.352  1.00  0.00     0.031 A 
ATOM     46  C   UNL     1      -4.356   5.654  -8.659  1.00  0.00     0.031 A 
ATOM     47  C   UNL     1      -0.306   2.036 -12.295  1.00  0.00     0.049 A 
ATOM     48  C   UNL     1      -4.287   5.336 -10.128  1.00  0.00     0.074 A 
ATOM     49  C   UNL     1      -0.406   1.750 -13.646  1.00  0.00     0.029 A 
ATOM     50  N   UNL     1      -1.364   2.877 -11.985  1.00  0.00    -0.354 N 
ATOM     51  N   UNL     1      -3.436   4.573 -10.770  1.00  0.00    -0.248 NA
ATOM     52  C   UNL     1      -5.311   5.951 -10.984  1.00  0.00     0.031 C 
ATOM     53  C   UNL     1      -1.490   2.465 -14.164  1.00  0.00     0.029 A 
ATOM     54  C   UNL     1      -2.107   3.141 -13.123  1.00  0.00     0.049 A 
ATOM     55  H   UNL     1      -1.558   3.234 -11.088  1.00  0.00     0.167 HD
ATOM     56  C   UNL     1      -3.841   4.590 -12.099  1.00  0.00     0.074 A 
ATOM     57  C   UNL     1      -5.023   5.424 -12.165  1.00  0.00     0.031 C 
ATOM     58  C   UNL     1      -3.285   3.970 -13.168  1.00  0.00     0.031 A 
BRANCH  45  59
ATOM     59  C   UNL     1       1.794   0.698 -11.848  1.00  0.00    -0.014 A 
ATOM     60  C   UNL     1       1.878  -0.653 -11.477  1.00  0.00     0.009 A 
ATOM     61  C   UNL     1       2.755   1.219 -12.729  1.00  0.00     0.009 A 
ATOM     62  C   UNL     1       2.921  -1.454 -11.950  1.00  0.00     0.001 A 
ATOM     63  C   UNL     1       3.777   0.409 -13.226  1.00  0.00     0.001 A 
ATOM     64  C   UNL     1       3.866  -0.924 -12.828  1.00  0.00     0.000 A 
ENDBRANCH  45  59
BRANCH  46  65
ATOM     65  C   UNL     1      -5.429   6.533  -8.121  1.00  0.00    -0.014 A 
ATOM     66  C   UNL     1      -6.769   6.117  -8.135  1.00  0.00     0.009 A 
ATOM     67  C   UNL     1      -5.122   7.806  -7.616  1.00  0.00     0.009 A 
ATOM     68  C   UNL     1      -7.780   6.970  -7.686  1.00  0.00     0.001 A 
ATOM     69  C   UNL     1      -6.130   8.643  -7.134  1.00  0.00     0.001 A 
ATOM     70  C   UNL     1      -7.460   8.230  -7.182  1.00  0.00     0.000 A 
ENDBRANCH  46  65
BRANCH  58  71
ATOM     71  C   UNL     1      -3.981   4.129 -14.491  1.00  0.00    -0.014 A 
ATOM     72  C   UNL     1      -3.971   5.350 -15.184  1.00  0.00     0.009 A 
ATOM     73  C   UNL     1      -4.627   3.025 -15.069  1.00  0.00     0.009 A 
ATOM     74  C   UNL     1      -4.627   5.470 -16.411  1.00  0.00     0.001 A 
ATOM     75  C   UNL     1      -5.252   3.138 -16.311  1.00  0.00     0.001 A 
ATOM     76  C   UNL     1      -5.261   4.363 -16.976  1.00  0.00     0.000 A 
ENDBRANCH  58  71
ENDBRANCH  32  33
ENDBRANCH  25  27
ENDBRANCH  24  25
ENDBRANCH  23  24
ENDBRANCH  22  23
ENDBRANCH   1  22
TORSDOF 13
