REMARK SMILES O=C(C[C@@H](Br)C(=O)c1ccc2c(c1)CCC2)OCCOC(=O)c1ccc(-c2c3nc(c(-c4ccccc4)c4ccc([nH]4)c(-c4ccccc4)c4nc(c(-c5ccccc5)c5ccc2[nH]5)C=C4)C=C3)cc1
REMARK SMILES IDX 18 1 17 2 2 3 1 4 3 5 4 6 5 7 6 8 7 9 8 10 9 11 13 12 10 13
REMARK SMILES IDX 12 14 11 15 14 16 16 17 15 18 19 19 20 20 21 21 22 22 23 23
REMARK SMILES IDX 24 24 70 25 25 26 69 27 26 28 27 29 28 30 63 31 29 32 68 33
REMARK SMILES IDX 62 34 64 35 30 36 67 37 61 38 60 39 31 41 53 42 38 43 52 44
REMARK SMILES IDX 39 45 42 46 51 47 65 48 40 49 41 50 50 52 66 53 43 54 32 55
REMARK SMILES IDX 33 56 37 57 34 58 36 59 35 60 54 61 55 62 59 63 56 64 58 65
REMARK SMILES IDX 57 66 44 67 45 68 49 69 46 70 48 71 47 72
REMARK H PARENT 64 40 42 51
REMARK Flexibility Score: inf
ROOT
ATOM      1  C   UNL     1       3.958  -1.286   0.414  1.00  0.00     0.274 C 
ENDROOT
BRANCH   1   2
ATOM      2  O   UNL     1       2.885  -0.447   0.898  1.00  0.00    -0.462 OA
BRANCH   2   3
ATOM      3  C   UNL     1       2.939   0.912   0.884  1.00  0.00     0.307 C 
ATOM      4  O   UNL     1       2.288   1.580   1.680  1.00  0.00    -0.252 OA
BRANCH   3   5
ATOM      5  C   UNL     1       3.688   1.554  -0.252  1.00  0.00     0.146 C 
BRANCH   5   6
ATOM      6  C   UNL     1       4.531   2.750   0.131  1.00  0.00     0.140 C 
ATOM      7  Br  UNL     1       6.072   2.190   1.201  1.00  0.00    -0.080 Br
BRANCH   6   8
ATOM      8  C   UNL     1       5.092   3.532  -1.062  1.00  0.00     0.177 C 
ATOM      9  O   UNL     1       4.921   4.746  -1.173  1.00  0.00    -0.293 OA
BRANCH   8  10
ATOM     10  C   UNL     1       5.915   2.852  -2.108  1.00  0.00     0.019 A 
ATOM     11  C   UNL     1       5.408   1.770  -2.847  1.00  0.00     0.012 A 
ATOM     12  C   UNL     1       7.197   3.339  -2.386  1.00  0.00     0.015 A 
ATOM     13  C   UNL     1       6.182   1.099  -3.795  1.00  0.00     0.005 A 
ATOM     14  C   UNL     1       7.944   2.699  -3.367  1.00  0.00    -0.044 A 
ATOM     15  C   UNL     1       7.447   1.580  -4.046  1.00  0.00    -0.045 A 
ATOM     16  C   UNL     1       9.325   3.025  -3.845  1.00  0.00     0.036 C 
ATOM     17  C   UNL     1       8.454   1.041  -5.013  1.00  0.00     0.036 C 
ATOM     18  C   UNL     1       9.364   2.263  -5.181  1.00  0.00     0.010 C 
ENDBRANCH   8  10
ENDBRANCH   6   8
ENDBRANCH   5   6
ENDBRANCH   3   5
ENDBRANCH   2   3
ENDBRANCH   1   2
BRANCH   1  19
ATOM     19  C   UNL     1       3.620  -1.979  -0.912  1.00  0.00     0.275 C 
BRANCH  19  20
ATOM     20  O   UNL     1       3.250  -1.034  -1.934  1.00  0.00    -0.458 OA
BRANCH  20  21
ATOM     21  C   UNL     1       1.918  -0.964  -2.214  1.00  0.00     0.338 C 
ATOM     22  O   UNL     1       1.035  -1.642  -1.743  1.00  0.00    -0.246 OA
BRANCH  21  23
ATOM     23  C   UNL     1       1.678   0.216  -3.079  1.00  0.00     0.060 A 
ATOM     24  C   UNL     1       0.667   1.108  -2.705  1.00  0.00     0.016 A 
ATOM     25  C   UNL     1       2.463   0.479  -4.204  1.00  0.00     0.016 A 
ATOM     26  C   UNL     1       0.464   2.283  -3.438  1.00  0.00     0.010 A 
ATOM     27  C   UNL     1       2.277   1.669  -4.919  1.00  0.00     0.010 A 
ATOM     28  C   UNL     1       1.271   2.578  -4.547  1.00  0.00    -0.014 A 
BRANCH  28  29
ATOM     29  C   UNL     1       1.019   3.794  -5.365  1.00  0.00     0.031 A 
ATOM     30  C   UNL     1       0.386   3.657  -6.723  1.00  0.00     0.074 A 
ATOM     31  C   UNL     1       1.364   5.018  -4.917  1.00  0.00     0.049 A 
ATOM     32  N   UNL     1       0.112   4.584  -7.607  1.00  0.00    -0.248 NA
ATOM     33  C   UNL     1       0.023   2.295  -7.148  1.00  0.00     0.031 C 
ATOM     34  C   UNL     1       1.993   5.309  -3.629  1.00  0.00     0.029 A 
ATOM     35  N   UNL     1       1.241   6.250  -5.514  1.00  0.00    -0.354 N 
ATOM     36  C   UNL     1      -0.439   3.919  -8.693  1.00  0.00     0.074 A 
ATOM     37  C   UNL     1      -0.437   2.508  -8.373  1.00  0.00     0.031 C 
ATOM     38  C   UNL     1       2.201   6.634  -3.534  1.00  0.00     0.029 A 
ATOM     39  C   UNL     1       1.747   7.283  -4.761  1.00  0.00     0.049 A 
ATOM     40  H   UNL     1       0.829   6.381  -6.399  1.00  0.00     0.167 HD
ATOM     41  C   UNL     1      -0.917   4.432  -9.851  1.00  0.00     0.031 A 
ATOM     42  C   UNL     1       1.850   8.599  -5.036  1.00  0.00     0.031 A 
ATOM     43  C   UNL     1      -0.948   5.830 -10.179  1.00  0.00     0.049 A 
ATOM     44  C   UNL     1       1.356   9.134  -6.355  1.00  0.00     0.074 A 
ATOM     45  C   UNL     1      -1.487   6.437 -11.301  1.00  0.00     0.029 A 
ATOM     46  N   UNL     1      -0.410   6.837  -9.398  1.00  0.00    -0.354 N 
ATOM     47  N   UNL     1       0.762   8.501  -7.336  1.00  0.00    -0.248 NA
ATOM     48  C   UNL     1       1.554  10.572  -6.604  1.00  0.00     0.031 C 
ATOM     49  C   UNL     1      -1.229   7.809 -11.223  1.00  0.00     0.029 A 
ATOM     50  C   UNL     1      -0.566   8.057 -10.033  1.00  0.00     0.049 A 
ATOM     51  H   UNL     1       0.019   6.705  -8.522  1.00  0.00     0.167 HD
ATOM     52  C   UNL     1       0.498   9.463  -8.304  1.00  0.00     0.074 A 
ATOM     53  C   UNL     1       0.980  10.726  -7.790  1.00  0.00     0.031 C 
ATOM     54  C   UNL     1      -0.088   9.310  -9.515  1.00  0.00     0.031 A 
BRANCH  41  55
ATOM     55  C   UNL     1      -1.442   3.466 -10.870  1.00  0.00    -0.014 A 
ATOM     56  C   UNL     1      -2.700   2.864 -10.716  1.00  0.00     0.009 A 
ATOM     57  C   UNL     1      -0.695   3.206 -12.029  1.00  0.00     0.009 A 
ATOM     58  C   UNL     1      -3.191   2.001 -11.698  1.00  0.00     0.001 A 
ATOM     59  C   UNL     1      -1.197   2.358 -13.017  1.00  0.00     0.001 A 
ATOM     60  C   UNL     1      -2.442   1.753 -12.848  1.00  0.00     0.000 A 
ENDBRANCH  41  55
BRANCH  42  61
ATOM     61  C   UNL     1       2.483   9.526  -4.061  1.00  0.00    -0.014 A 
ATOM     62  C   UNL     1       1.715  10.489  -3.388  1.00  0.00     0.009 A 
ATOM     63  C   UNL     1       3.870   9.499  -3.856  1.00  0.00     0.009 A 
ATOM     64  C   UNL     1       2.329  11.428  -2.557  1.00  0.00     0.001 A 
ATOM     65  C   UNL     1       4.478  10.423  -3.004  1.00  0.00     0.001 A 
ATOM     66  C   UNL     1       3.710  11.395  -2.365  1.00  0.00     0.000 A 
ENDBRANCH  42  61
BRANCH  54  67
ATOM     67  C   UNL     1      -0.261  10.536 -10.366  1.00  0.00    -0.014 A 
ATOM     68  C   UNL     1       0.829  11.106 -11.041  1.00  0.00     0.009 A 
ATOM     69  C   UNL     1      -1.539  11.091 -10.542  1.00  0.00     0.009 A 
ATOM     70  C   UNL     1       0.645  12.221 -11.862  1.00  0.00     0.001 A 
ATOM     71  C   UNL     1      -1.722  12.191 -11.381  1.00  0.00     0.001 A 
ATOM     72  C   UNL     1      -0.630  12.759 -12.035  1.00  0.00     0.000 A 
ENDBRANCH  54  67
ENDBRANCH  28  29
ENDBRANCH  21  23
ENDBRANCH  20  21
ENDBRANCH  19  20
ENDBRANCH   1  19
TORSDOF 14
