REMARK SMILES O=C(OCCOC(=O)c1cc(-c2cccc(Cl)c2)ccc1Cl)c1ccc(-c2c3nc(c(-c4ccccc4)c4ccc([nH]4)c(-c4ccccc4)c4nc(c(-c5ccccc5)c5ccc2[nH]5)C=C4)C=C3)cc1
REMARK SMILES IDX 4 1 3 2 2 3 1 4 23 5 24 6 70 7 25 8 69 9 26 10 27 11 28 12
REMARK SMILES IDX 63 13 29 14 68 15 62 16 64 17 30 18 67 19 61 20 60 21 31 23
REMARK SMILES IDX 53 24 38 25 52 26 39 27 42 28 51 29 65 30 40 31 41 32 50 34
REMARK SMILES IDX 66 35 43 36 32 37 33 38 37 39 34 40 36 41 35 42 54 43 55 44
REMARK SMILES IDX 59 45 56 46 58 47 57 48 44 49 45 50 49 51 46 52 48 53 47 54
REMARK SMILES IDX 5 55 6 56 7 57 8 58 9 59 10 60 21 61 11 62 20 63 22 64 19 65
REMARK SMILES IDX 12 66 13 67 18 68 14 69 16 70 15 71 17 72
REMARK H PARENT 64 22 42 33
REMARK Flexibility Score: inf
ROOT
ATOM      1  C   UNL     1       4.295  -1.437   0.428  1.00  0.00     0.275 C 
ENDROOT
BRANCH   1   2
ATOM      2  O   UNL     1       3.371  -0.537   1.050  1.00  0.00    -0.458 OA
BRANCH   2   3
ATOM      3  C   UNL     1       3.203   0.787   0.855  1.00  0.00     0.338 C 
ATOM      4  O   UNL     1       2.364   1.367   1.546  1.00  0.00    -0.246 OA
BRANCH   3   5
ATOM      5  C   UNL     1       3.881   1.589  -0.224  1.00  0.00     0.060 A 
ATOM      6  C   UNL     1       5.004   1.254  -0.989  1.00  0.00     0.016 A 
ATOM      7  C   UNL     1       3.256   2.806  -0.521  1.00  0.00     0.016 A 
ATOM      8  C   UNL     1       5.433   2.053  -2.060  1.00  0.00     0.010 A 
ATOM      9  C   UNL     1       3.637   3.582  -1.614  1.00  0.00     0.010 A 
ATOM     10  C   UNL     1       4.746   3.218  -2.385  1.00  0.00    -0.014 A 
BRANCH  10  11
ATOM     11  C   UNL     1       5.276   4.200  -3.357  1.00  0.00     0.031 A 
ATOM     12  C   UNL     1       5.763   5.507  -2.804  1.00  0.00     0.074 A 
ATOM     13  C   UNL     1       5.263   3.981  -4.683  1.00  0.00     0.049 A 
ATOM     14  N   UNL     1       6.105   6.599  -3.431  1.00  0.00    -0.248 NA
ATOM     15  C   UNL     1       5.859   5.593  -1.335  1.00  0.00     0.031 C 
ATOM     16  C   UNL     1       4.901   2.727  -5.335  1.00  0.00     0.029 A 
ATOM     17  N   UNL     1       5.519   4.833  -5.728  1.00  0.00    -0.354 N 
ATOM     18  C   UNL     1       6.453   7.495  -2.431  1.00  0.00     0.074 A 
ATOM     19  C   UNL     1       6.179   6.862  -1.163  1.00  0.00     0.031 C 
ATOM     20  C   UNL     1       4.855   2.915  -6.665  1.00  0.00     0.029 A 
ATOM     21  C   UNL     1       5.199   4.302  -6.955  1.00  0.00     0.049 A 
ATOM     22  H   UNL     1       5.894   5.736  -5.610  1.00  0.00     0.167 HD
ATOM     23  C   UNL     1       7.006   8.722  -2.556  1.00  0.00     0.031 A 
ATOM     24  C   UNL     1       5.168   4.881  -8.171  1.00  0.00     0.031 A 
ATOM     25  C   UNL     1       7.264   9.339  -3.823  1.00  0.00     0.049 A 
ATOM     26  C   UNL     1       5.660   6.296  -8.301  1.00  0.00     0.074 A 
ATOM     27  C   UNL     1       7.854  10.559  -4.089  1.00  0.00     0.029 A 
ATOM     28  N   UNL     1       6.929   8.771  -5.045  1.00  0.00    -0.354 N 
ATOM     29  N   UNL     1       6.053   7.117  -7.355  1.00  0.00    -0.248 NA
ATOM     30  C   UNL     1       5.761   6.846  -9.658  1.00  0.00     0.031 C 
ATOM     31  C   UNL     1       7.820  10.756  -5.473  1.00  0.00     0.029 A 
ATOM     32  C   UNL     1       7.274   9.629  -6.072  1.00  0.00     0.049 A 
ATOM     33  H   UNL     1       6.509   7.889  -5.163  1.00  0.00     0.167 HD
ATOM     34  C   UNL     1       6.518   8.252  -8.006  1.00  0.00     0.074 A 
ATOM     35  C   UNL     1       6.327   8.024  -9.425  1.00  0.00     0.031 C 
ATOM     36  C   UNL     1       7.084   9.365  -7.477  1.00  0.00     0.031 A 
BRANCH  23  37
ATOM     37  C   UNL     1       7.327   9.443  -1.277  1.00  0.00    -0.014 A 
ATOM     38  C   UNL     1       8.301   8.951  -0.388  1.00  0.00     0.009 A 
ATOM     39  C   UNL     1       6.586  10.575  -0.911  1.00  0.00     0.009 A 
ATOM     40  C   UNL     1       8.466   9.528   0.873  1.00  0.00     0.001 A 
ATOM     41  C   UNL     1       6.782  11.174   0.334  1.00  0.00     0.001 A 
ATOM     42  C   UNL     1       7.704  10.638   1.233  1.00  0.00     0.000 A 
ENDBRANCH  23  37
BRANCH  24  43
ATOM     43  C   UNL     1       4.688   4.111  -9.349  1.00  0.00    -0.014 A 
ATOM     44  C   UNL     1       5.588   3.612 -10.302  1.00  0.00     0.009 A 
ATOM     45  C   UNL     1       3.318   3.846  -9.512  1.00  0.00     0.009 A 
ATOM     46  C   UNL     1       5.126   2.880 -11.401  1.00  0.00     0.001 A 
ATOM     47  C   UNL     1       2.860   3.098 -10.601  1.00  0.00     0.001 A 
ATOM     48  C   UNL     1       3.764   2.620 -11.547  1.00  0.00     0.000 A 
ENDBRANCH  24  43
BRANCH  36  49
ATOM     49  C   UNL     1       7.612  10.397  -8.431  1.00  0.00    -0.014 A 
ATOM     50  C   UNL     1       6.756  11.257  -9.131  1.00  0.00     0.009 A 
ATOM     51  C   UNL     1       9.001  10.577  -8.533  1.00  0.00     0.009 A 
ATOM     52  C   UNL     1       7.285  12.277  -9.924  1.00  0.00     0.001 A 
ATOM     53  C   UNL     1       9.525  11.615  -9.301  1.00  0.00     0.001 A 
ATOM     54  C   UNL     1       8.667  12.462  -9.998  1.00  0.00     0.000 A 
ENDBRANCH  36  49
ENDBRANCH  10  11
ENDBRANCH   3   5
ENDBRANCH   2   3
ENDBRANCH   1   2
BRANCH   1  55
ATOM     55  C   UNL     1       3.828  -1.960  -0.934  1.00  0.00     0.275 C 
BRANCH  55  56
ATOM     56  O   UNL     1       3.337  -0.928  -1.809  1.00  0.00    -0.458 OA
BRANCH  56  57
ATOM     57  C   UNL     1       1.986  -0.789  -1.900  1.00  0.00     0.339 C 
ATOM     58  O   UNL     1       1.148  -1.428  -1.299  1.00  0.00    -0.246 OA
BRANCH  57  59
ATOM     59  C   UNL     1       1.660   0.365  -2.773  1.00  0.00     0.079 A 
ATOM     60  C   UNL     1       0.839   1.393  -2.252  1.00  0.00     0.026 A 
ATOM     61  C   UNL     1       2.130   0.446  -4.085  1.00  0.00     0.055 A 
ATOM     62  C   UNL     1       0.540   2.542  -3.013  1.00  0.00    -0.017 A 
ATOM     63  C   UNL     1       1.827   1.571  -4.851  1.00  0.00     0.022 A 
ATOM     64  Cl  UNL     1       3.054  -0.803  -4.841  1.00  0.00    -0.083 Cl
ATOM     65  C   UNL     1       1.073   2.615  -4.311  1.00  0.00     0.010 A 
BRANCH  62  66
ATOM     66  C   UNL     1      -0.291   3.660  -2.516  1.00  0.00    -0.017 A 
ATOM     67  C   UNL     1      -1.394   4.110  -3.263  1.00  0.00     0.009 A 
ATOM     68  C   UNL     1       0.021   4.374  -1.350  1.00  0.00     0.029 A 
ATOM     69  C   UNL     1      -2.131   5.235  -2.878  1.00  0.00     0.002 A 
ATOM     70  C   UNL     1      -0.699   5.512  -0.975  1.00  0.00     0.041 A 
ATOM     71  C   UNL     1      -1.776   5.947  -1.736  1.00  0.00     0.020 A 
ATOM     72  Cl  UNL     1      -0.223   6.399   0.422  1.00  0.00    -0.084 Cl
ENDBRANCH  62  66
ENDBRANCH  57  59
ENDBRANCH  56  57
ENDBRANCH  55  56
ENDBRANCH   1  55
TORSDOF 12
