REMARK SMILES CC[NH2+][C@@]1(C(=O)OCCOC(=O)c2ccc(-c3c4nc(c(-c5ccccc5)c5ccc([nH]5)c(-c5ccccc5)c5nc(c(-c6ccccc6)c6ccc3[nH]6)C=C5)C=C4)cc2)CCC[C@H]1CC[NH+]1CCCCC1
REMARK SMILES IDX 8 1 7 2 5 3 6 4 4 5 61 6 64 7 62 8 63 9 3 10 2 13 1 14 65 15
REMARK SMILES IDX 66 16 67 17 68 18 72 19 69 21 71 22 70 23 9 24 10 25 11 26
REMARK SMILES IDX 12 27 13 28 14 29 60 30 15 31 59 32 16 33 17 34 18 35 53 36
REMARK SMILES IDX 19 37 58 38 52 39 54 40 20 41 57 42 51 43 50 44 21 46 43 47
REMARK SMILES IDX 28 48 42 49 29 50 32 51 41 52 55 53 30 54 31 55 40 57 56 58
REMARK SMILES IDX 33 59 22 60 23 61 27 62 24 63 26 64 25 65 44 66 45 67 49 68
REMARK SMILES IDX 46 69 48 70 47 71 34 72 35 73 39 74 36 75 38 76 37 77
REMARK H PARENT 3 11 3 12 67 20 54 45 32 56
REMARK Flexibility Score: inf
ROOT
ATOM      1  C   UNL     1       0.509   3.745   4.329  1.00  0.00     0.274 C 
ENDROOT
BRANCH   1   2
ATOM      2  O   UNL     1       0.091   3.871   2.951  1.00  0.00    -0.457 OA
BRANCH   2   3
ATOM      3  C   UNL     1       1.035   3.740   1.976  1.00  0.00     0.368 C 
ATOM      4  O   UNL     1       2.216   3.478   2.193  1.00  0.00    -0.245 OA
BRANCH   3   5
ATOM      5  C   UNL     1       0.464   4.047   0.535  1.00  0.00     0.197 C 
ATOM      6  C   UNL     1       0.915   5.479   0.191  1.00  0.00     0.081 C 
ATOM      7  C   UNL     1      -1.090   4.159   0.476  1.00  0.00     0.068 C 
ATOM      8  C   UNL     1      -0.056   6.374   0.941  1.00  0.00     0.008 C 
ATOM      9  C   UNL     1      -1.365   5.591   1.020  1.00  0.00     0.011 C 
BRANCH   5  10
ATOM     10  N   UNL     1       1.087   3.149  -0.475  1.00  0.00    -0.332 N 
ATOM     11  H   UNL     1       0.627   3.305  -1.373  1.00  0.00     0.347 HD
ATOM     12  H   UNL     1       2.081   3.375  -0.507  1.00  0.00     0.347 HD
BRANCH  10  13
ATOM     13  C   UNL     1       0.976   1.734  -0.139  1.00  0.00     0.257 C 
ATOM     14  C   UNL     1       1.394   0.857  -1.311  1.00  0.00     0.071 C 
ENDBRANCH  10  13
ENDBRANCH   5  10
BRANCH   7  15
ATOM     15  C   UNL     1      -1.770   4.038  -0.918  1.00  0.00     0.072 C 
BRANCH  15  16
ATOM     16  C   UNL     1      -2.001   2.622  -1.479  1.00  0.00     0.262 C 
BRANCH  16  17
ATOM     17  N   UNL     1      -2.570   1.657  -0.523  1.00  0.00    -0.335 N 
ATOM     18  C   UNL     1      -3.964   1.968  -0.176  1.00  0.00     0.262 C 
ATOM     19  C   UNL     1      -2.467   0.284  -1.044  1.00  0.00     0.262 C 
ATOM     20  H   UNL     1      -2.021   1.731   0.333  1.00  0.00     0.348 HD
ATOM     21  C   UNL     1      -4.487   1.007   0.896  1.00  0.00     0.062 C 
ATOM     22  C   UNL     1      -2.909  -0.728   0.014  1.00  0.00     0.062 C 
ATOM     23  C   UNL     1      -4.334  -0.451   0.475  1.00  0.00     0.012 C 
ENDBRANCH  16  17
ENDBRANCH  15  16
ENDBRANCH   7  15
ENDBRANCH   3   5
ENDBRANCH   2   3
ENDBRANCH   1   2
BRANCH   1  24
ATOM     24  C   UNL     1      -0.091   2.481   4.944  1.00  0.00     0.275 C 
BRANCH  24  25
ATOM     25  O   UNL     1       0.570   1.355   4.351  1.00  0.00    -0.458 OA
BRANCH  25  26
ATOM     26  C   UNL     1      -0.163   0.246   4.106  1.00  0.00     0.338 C 
ATOM     27  O   UNL     1      -1.297   0.019   4.501  1.00  0.00    -0.246 OA
BRANCH  26  28
ATOM     28  C   UNL     1       0.611  -0.649   3.205  1.00  0.00     0.060 A 
ATOM     29  C   UNL     1       1.734  -0.170   2.538  1.00  0.00     0.016 A 
ATOM     30  C   UNL     1       0.174  -1.948   2.934  1.00  0.00     0.016 A 
ATOM     31  C   UNL     1       2.331  -0.925   1.530  1.00  0.00     0.010 A 
ATOM     32  C   UNL     1       0.865  -2.751   2.005  1.00  0.00     0.010 A 
ATOM     33  C   UNL     1       1.944  -2.243   1.259  1.00  0.00    -0.014 A 
BRANCH  33  34
ATOM     34  C   UNL     1       2.647  -3.046   0.201  1.00  0.00     0.031 A 
ATOM     35  C   UNL     1       1.870  -3.857  -0.811  1.00  0.00     0.074 A 
ATOM     36  C   UNL     1       3.996  -3.046   0.091  1.00  0.00     0.049 A 
ATOM     37  N   UNL     1       2.287  -4.837  -1.577  1.00  0.00    -0.248 NA
ATOM     38  C   UNL     1       0.444  -3.536  -0.981  1.00  0.00     0.031 C 
ATOM     39  C   UNL     1       4.928  -2.270   0.913  1.00  0.00     0.029 A 
ATOM     40  N   UNL     1       4.824  -3.715  -0.784  1.00  0.00    -0.354 N 
ATOM     41  C   UNL     1       1.162  -5.310  -2.243  1.00  0.00     0.074 A 
ATOM     42  C   UNL     1       0.048  -4.488  -1.817  1.00  0.00     0.031 C 
ATOM     43  C   UNL     1       6.173  -2.427   0.446  1.00  0.00     0.029 A 
ATOM     44  C   UNL     1       6.159  -3.454  -0.585  1.00  0.00     0.049 A 
ATOM     45  H   UNL     1       4.492  -4.322  -1.484  1.00  0.00     0.167 HD
ATOM     46  C   UNL     1       1.066  -6.345  -3.114  1.00  0.00     0.031 A 
ATOM     47  C   UNL     1       7.271  -4.028  -1.084  1.00  0.00     0.031 A 
ATOM     48  C   UNL     1       2.184  -7.109  -3.605  1.00  0.00     0.049 A 
ATOM     49  C   UNL     1       7.147  -5.219  -1.981  1.00  0.00     0.074 A 
ATOM     50  C   UNL     1       2.179  -8.172  -4.495  1.00  0.00     0.029 A 
ATOM     51  N   UNL     1       3.509  -6.875  -3.278  1.00  0.00    -0.354 N 
ATOM     52  N   UNL     1       6.065  -5.772  -2.466  1.00  0.00    -0.248 NA
ATOM     53  C   UNL     1       8.396  -5.902  -2.346  1.00  0.00     0.031 C 
ATOM     54  C   UNL     1       3.498  -8.604  -4.676  1.00  0.00     0.029 A 
ATOM     55  C   UNL     1       4.326  -7.782  -3.932  1.00  0.00     0.049 A 
ATOM     56  H   UNL     1       3.823  -6.167  -2.670  1.00  0.00     0.167 HD
ATOM     57  C   UNL     1       6.498  -6.887  -3.169  1.00  0.00     0.074 A 
ATOM     58  C   UNL     1       7.944  -6.908  -3.082  1.00  0.00     0.031 C 
ATOM     59  C   UNL     1       5.758  -7.820  -3.813  1.00  0.00     0.031 A 
BRANCH  46  60
ATOM     60  C   UNL     1      -0.306  -6.767  -3.558  1.00  0.00    -0.014 A 
ATOM     61  C   UNL     1      -1.023  -6.058  -4.532  1.00  0.00     0.009 A 
ATOM     62  C   UNL     1      -0.847  -7.960  -3.048  1.00  0.00     0.009 A 
ATOM     63  C   UNL     1      -2.263  -6.528  -4.973  1.00  0.00     0.001 A 
ATOM     64  C   UNL     1      -2.075  -8.438  -3.507  1.00  0.00     0.001 A 
ATOM     65  C   UNL     1      -2.784  -7.720  -4.467  1.00  0.00     0.000 A 
ENDBRANCH  46  60
BRANCH  47  66
ATOM     66  C   UNL     1       8.603  -3.572  -0.604  1.00  0.00    -0.014 A 
ATOM     67  C   UNL     1       9.471  -2.870  -1.450  1.00  0.00     0.009 A 
ATOM     68  C   UNL     1       8.989  -3.804   0.728  1.00  0.00     0.009 A 
ATOM     69  C   UNL     1      10.694  -2.397  -0.966  1.00  0.00     0.001 A 
ATOM     70  C   UNL     1      10.192  -3.299   1.218  1.00  0.00     0.001 A 
ATOM     71  C   UNL     1      11.045  -2.598   0.369  1.00  0.00     0.000 A 
ENDBRANCH  47  66
BRANCH  59  72
ATOM     72  C   UNL     1       6.506  -8.945  -4.462  1.00  0.00    -0.014 A 
ATOM     73  C   UNL     1       7.020  -9.999  -3.691  1.00  0.00     0.009 A 
ATOM     74  C   UNL     1       6.701  -8.953  -5.851  1.00  0.00     0.009 A 
ATOM     75  C   UNL     1       7.744 -11.027  -4.298  1.00  0.00     0.001 A 
ATOM     76  C   UNL     1       7.409  -9.992  -6.456  1.00  0.00     0.001 A 
ATOM     77  C   UNL     1       7.937 -11.022  -5.679  1.00  0.00     0.000 A 
ENDBRANCH  59  72
ENDBRANCH  33  34
ENDBRANCH  26  28
ENDBRANCH  25  26
ENDBRANCH  24  25
ENDBRANCH   1  24
TORSDOF 16
