REMARK SMILES CC(C)(C)SCC(=O)N1CC(n2cc(C(=O)OCCOC(=O)c3ccc(-c4c5nc(c(-c6ccccc6)c6ccc([nH]6)c(-c6ccccc6)c6nc(c(-c7ccccc7)c7ccc4[nH]7)C=C6)C=C5)cc3)nn2)C1
REMARK SMILES IDX 18 1 17 2 15 3 16 4 14 5 12 6 13 7 72 8 71 9 11 10 7 11 8 12
REMARK SMILES IDX 9 13 10 14 73 15 6 16 5 17 2 18 1 19 3 20 4 21 19 22 20 23
REMARK SMILES IDX 21 24 22 25 23 26 24 27 70 28 25 29 69 30 26 31 27 32 28 33
REMARK SMILES IDX 63 34 29 35 68 36 62 37 64 38 30 39 67 40 61 41 60 42 31 44
REMARK SMILES IDX 53 45 38 46 52 47 39 48 42 49 51 50 65 51 40 52 41 53 50 55
REMARK SMILES IDX 66 56 43 57 32 58 33 59 37 60 34 61 36 62 35 63 54 64 55 65
REMARK SMILES IDX 59 66 56 67 58 68 57 69 44 70 45 71 49 72 46 73 48 74 47 75
REMARK H PARENT 64 43 42 54
REMARK Flexibility Score: inf
ROOT
ATOM      1  C   UNL     1      10.329  -1.536   1.816  1.00  0.00     0.275 C 
ENDROOT
BRANCH   1   2
ATOM      2  O   UNL     1       9.043  -2.166   1.706  1.00  0.00    -0.457 OA
BRANCH   2   3
ATOM      3  C   UNL     1       9.059  -3.505   1.415  1.00  0.00     0.360 C 
ATOM      4  O   UNL     1      10.065  -4.120   1.068  1.00  0.00    -0.244 OA
BRANCH   3   5
ATOM      5  C   UNL     1       7.763  -4.128   1.607  1.00  0.00     0.190 A 
ATOM      6  N   UNL     1       5.670  -4.543   1.954  1.00  0.00    -0.245 N 
ATOM      7  C   UNL     1       6.574  -3.524   1.964  1.00  0.00     0.147 A 
ATOM      8  N   UNL     1       6.250  -5.714   1.659  1.00  0.00    -0.066 NA
ATOM      9  N   UNL     1       7.541  -5.479   1.462  1.00  0.00    -0.123 NA
BRANCH   6  10
ATOM     10  C   UNL     1       4.267  -4.325   2.066  1.00  0.00     0.148 C 
ATOM     11  C   UNL     1       1.211  -4.809   0.860  1.00  0.00     0.232 C 
ATOM     12  O   UNL     1       0.461  -5.463   1.592  1.00  0.00    -0.274 OA
ATOM     13  N   UNL     1       2.550  -4.786   1.097  1.00  0.00    -0.338 N 
ATOM     14  C   UNL     1       3.345  -5.549   2.059  1.00  0.00     0.148 C 
ATOM     15  C   UNL     1       3.681  -3.996   0.671  1.00  0.00     0.148 C 
BRANCH  11  16
ATOM     16  C   UNL     1       0.647  -4.157  -0.392  1.00  0.00     0.170 C 
BRANCH  16  17
ATOM     17  S   UNL     1       1.239  -2.508  -0.855  1.00  0.00    -0.146 SA
BRANCH  17  18
ATOM     18  C   UNL     1       0.427  -1.371   0.355  1.00  0.00     0.008 C 
ATOM     19  C   UNL     1       0.898   0.040  -0.045  1.00  0.00     0.022 C 
ATOM     20  C   UNL     1       0.872  -1.648   1.794  1.00  0.00     0.022 C 
ATOM     21  C   UNL     1      -1.099  -1.437   0.240  1.00  0.00     0.022 C 
ENDBRANCH  17  18
ENDBRANCH  16  17
ENDBRANCH  11  16
ENDBRANCH   6  10
ENDBRANCH   3   5
ENDBRANCH   2   3
ENDBRANCH   1   2
BRANCH   1  22
ATOM     22  C   UNL     1      10.869  -1.643   3.234  1.00  0.00     0.275 C 
BRANCH  22  23
ATOM     23  O   UNL     1      11.211  -2.988   3.568  1.00  0.00    -0.458 OA
BRANCH  23  24
ATOM     24  C   UNL     1      10.262  -3.673   4.247  1.00  0.00     0.338 C 
ATOM     25  O   UNL     1       9.067  -3.430   4.288  1.00  0.00    -0.246 OA
BRANCH  24  26
ATOM     26  C   UNL     1      10.922  -4.606   5.165  1.00  0.00     0.060 A 
ATOM     27  C   UNL     1      10.117  -5.477   5.906  1.00  0.00     0.016 A 
ATOM     28  C   UNL     1      12.271  -4.396   5.487  1.00  0.00     0.016 A 
ATOM     29  C   UNL     1      10.628  -6.020   7.068  1.00  0.00     0.010 A 
ATOM     30  C   UNL     1      12.768  -4.910   6.658  1.00  0.00     0.010 A 
ATOM     31  C   UNL     1      11.922  -5.665   7.468  1.00  0.00    -0.014 A 
BRANCH  31  32
ATOM     32  C   UNL     1      12.469  -6.248   8.675  1.00  0.00     0.031 A 
ATOM     33  C   UNL     1      12.822  -7.674   8.487  1.00  0.00     0.074 A 
ATOM     34  C   UNL     1      12.771  -5.523   9.770  1.00  0.00     0.049 A 
ATOM     35  N   UNL     1      12.247  -8.698   9.019  1.00  0.00    -0.248 NA
ATOM     36  C   UNL     1      13.800  -8.010   7.434  1.00  0.00     0.031 C 
ATOM     37  C   UNL     1      12.720  -4.067   9.928  1.00  0.00     0.029 A 
ATOM     38  N   UNL     1      13.309  -5.936  10.949  1.00  0.00    -0.354 N 
ATOM     39  C   UNL     1      12.947  -9.800   8.542  1.00  0.00     0.074 A 
ATOM     40  C   UNL     1      13.716  -9.339   7.416  1.00  0.00     0.031 C 
ATOM     41  C   UNL     1      13.431  -3.713  11.025  1.00  0.00     0.029 A 
ATOM     42  C   UNL     1      13.874  -4.917  11.709  1.00  0.00     0.049 A 
ATOM     43  H   UNL     1      13.299  -6.876  11.241  1.00  0.00     0.167 HD
ATOM     44  C   UNL     1      13.108 -10.905   9.319  1.00  0.00     0.031 A 
ATOM     45  C   UNL     1      14.701  -5.064  12.778  1.00  0.00     0.031 A 
ATOM     46  C   UNL     1      12.153 -10.932  10.399  1.00  0.00     0.049 A 
ATOM     47  C   UNL     1      14.551  -6.454  13.268  1.00  0.00     0.074 A 
ATOM     48  C   UNL     1      10.775 -10.915  10.488  1.00  0.00     0.029 A 
ATOM     49  N   UNL     1      12.619 -10.570  11.640  1.00  0.00    -0.354 N 
ATOM     50  N   UNL     1      13.470  -6.899  13.839  1.00  0.00    -0.248 NA
ATOM     51  C   UNL     1      15.428  -7.471  12.710  1.00  0.00     0.031 C 
ATOM     52  C   UNL     1      10.488 -10.107  11.629  1.00  0.00     0.029 A 
ATOM     53  C   UNL     1      11.698  -9.741  12.220  1.00  0.00     0.049 A 
ATOM     54  H   UNL     1      13.470 -10.857  12.043  1.00  0.00     0.167 HD
ATOM     55  C   UNL     1      13.295  -8.168  13.308  1.00  0.00     0.074 A 
ATOM     56  C   UNL     1      14.583  -8.507  12.703  1.00  0.00     0.031 C 
ATOM     57  C   UNL     1      12.043  -8.690  13.150  1.00  0.00     0.031 A 
BRANCH  44  58
ATOM     58  C   UNL     1      14.429 -11.640   9.407  1.00  0.00    -0.014 A 
ATOM     59  C   UNL     1      14.518 -12.737  10.282  1.00  0.00     0.009 A 
ATOM     60  C   UNL     1      15.647 -11.119   8.926  1.00  0.00     0.009 A 
ATOM     61  C   UNL     1      15.757 -13.209  10.732  1.00  0.00     0.001 A 
ATOM     62  C   UNL     1      16.884 -11.616   9.339  1.00  0.00     0.001 A 
ATOM     63  C   UNL     1      16.938 -12.639  10.270  1.00  0.00     0.000 A 
ENDBRANCH  44  58
BRANCH  45  64
ATOM     64  C   UNL     1      15.820  -4.207  13.234  1.00  0.00    -0.014 A 
ATOM     65  C   UNL     1      16.383  -4.379  14.511  1.00  0.00     0.009 A 
ATOM     66  C   UNL     1      16.529  -3.415  12.313  1.00  0.00     0.009 A 
ATOM     67  C   UNL     1      17.628  -3.819  14.836  1.00  0.00     0.001 A 
ATOM     68  C   UNL     1      17.770  -2.853  12.639  1.00  0.00     0.001 A 
ATOM     69  C   UNL     1      18.327  -3.069  13.894  1.00  0.00     0.000 A 
ENDBRANCH  45  64
BRANCH  57  70
ATOM     70  C   UNL     1      10.891  -7.979  13.816  1.00  0.00    -0.014 A 
ATOM     71  C   UNL     1      10.515  -6.656  13.522  1.00  0.00     0.009 A 
ATOM     72  C   UNL     1      10.073  -8.728  14.674  1.00  0.00     0.009 A 
ATOM     73  C   UNL     1       9.370  -6.095  14.097  1.00  0.00     0.001 A 
ATOM     74  C   UNL     1       8.919  -8.176  15.229  1.00  0.00     0.001 A 
ATOM     75  C   UNL     1       8.570  -6.857  14.947  1.00  0.00     0.000 A 
ENDBRANCH  57  70
ENDBRANCH  31  32
ENDBRANCH  24  26
ENDBRANCH  23  24
ENDBRANCH  22  23
ENDBRANCH   1  22
TORSDOF 15
