REMARK SMILES Cc1cccc2c1[C@H]1c3c(C)cccc3[C@H](CC(=O)OCCOC(=O)c3ccc(-c4c5nc(c(-c6ccccc6)c6ccc([nH]6)c(-c6ccccc6)c6nc(c(-c7ccccc7)c7ccc4[nH]7)C=C6)C=C5)cc3)C[C@H]1CC2
REMARK SMILES IDX 22 1 21 2 20 3 18 4 19 5 17 6 16 7 1 8 2 9 3 10 7 11 4 12
REMARK SMILES IDX 6 13 8 14 5 15 77 16 9 17 75 18 76 19 10 20 15 21 74 22
REMARK SMILES IDX 12 23 11 24 14 25 13 26 23 27 24 28 25 29 26 30 27 31 73 32
REMARK SMILES IDX 28 33 72 34 29 35 30 36 31 37 66 38 32 39 71 40 65 41 67 42
REMARK SMILES IDX 33 43 70 44 64 45 63 46 34 48 56 49 41 50 55 51 42 52 45 53
REMARK SMILES IDX 54 54 68 55 43 56 44 57 53 59 69 60 46 61 35 62 36 63 40 64
REMARK SMILES IDX 37 65 39 66 38 67 57 68 58 69 62 70 59 71 61 72 60 73 47 74
REMARK SMILES IDX 48 75 52 76 49 77 51 78 50 79
REMARK H PARENT 67 47 45 58
REMARK Flexibility Score: inf
ROOT
ATOM      1  C   UNL     1       8.904  -3.986  -0.279  1.00  0.00     0.275 C 
ENDROOT
BRANCH   1   2
ATOM      2  C   UNL     1       9.161  -3.796   1.218  1.00  0.00     0.274 C 
BRANCH   2   3
ATOM      3  O   UNL     1       8.105  -3.064   1.873  1.00  0.00    -0.462 OA
BRANCH   3   4
ATOM      4  C   UNL     1       8.299  -1.727   1.898  1.00  0.00     0.306 C 
ATOM      5  O   UNL     1       9.285  -1.163   1.428  1.00  0.00    -0.252 OA
BRANCH   4   6
ATOM      6  C   UNL     1       7.246  -0.921   2.611  1.00  0.00     0.131 C 
BRANCH   6   7
ATOM      7  C   UNL     1       5.840  -1.434   2.994  1.00  0.00     0.031 C 
ATOM      8  C   UNL     1       0.975  -0.405  -0.342  1.00  0.00     0.044 C 
ATOM      9  C   UNL     1       0.573  -0.978   0.994  1.00  0.00    -0.047 A 
ATOM     10  C   UNL     1      -0.812  -1.091   1.229  1.00  0.00     0.004 A 
ATOM     11  C   UNL     1       1.491  -1.460   1.964  1.00  0.00    -0.034 A 
ATOM     12  C   UNL     1      -1.301  -1.698   2.379  1.00  0.00     0.001 A 
ATOM     13  C   UNL     1       0.976  -2.215   3.045  1.00  0.00    -0.044 A 
ATOM     14  C   UNL     1       3.005  -1.211   1.885  1.00  0.00     0.053 C 
ATOM     15  C   UNL     1      -0.411  -2.288   3.264  1.00  0.00     0.004 A 
ATOM     16  C   UNL     1       1.846  -3.106   3.897  1.00  0.00     0.036 C 
ATOM     17  C   UNL     1       3.607  -0.059   2.742  1.00  0.00    -0.034 A 
ATOM     18  C   UNL     1       3.698  -2.554   2.216  1.00  0.00     0.002 C 
ATOM     19  C   UNL     1       3.347  -3.017   3.644  1.00  0.00     0.009 C 
ATOM     20  C   UNL     1       2.953   1.188   2.976  1.00  0.00    -0.047 A 
ATOM     21  C   UNL     1       4.926  -0.215   3.282  1.00  0.00    -0.040 A 
ATOM     22  C   UNL     1       5.207  -2.398   1.990  1.00  0.00     0.013 C 
ATOM     23  C   UNL     1       3.564   2.175   3.780  1.00  0.00     0.004 A 
ATOM     24  C   UNL     1       1.611   1.585   2.426  1.00  0.00     0.044 C 
ATOM     25  C   UNL     1       5.459   0.779   4.136  1.00  0.00     0.004 A 
ATOM     26  C   UNL     1       4.794   1.968   4.371  1.00  0.00     0.001 A 
ENDBRANCH   6   7
ENDBRANCH   4   6
ENDBRANCH   3   4
ENDBRANCH   2   3
ENDBRANCH   1   2
BRANCH   1  27
ATOM     27  O   UNL     1       8.619  -2.738  -0.937  1.00  0.00    -0.458 OA
BRANCH  27  28
ATOM     28  C   UNL     1       7.347  -2.594  -1.373  1.00  0.00     0.338 C 
ATOM     29  O   UNL     1       6.438  -3.401  -1.294  1.00  0.00    -0.246 OA
BRANCH  28  30
ATOM     30  C   UNL     1       7.173  -1.282  -2.018  1.00  0.00     0.060 A 
ATOM     31  C   UNL     1       7.181  -0.110  -1.258  1.00  0.00     0.016 A 
ATOM     32  C   UNL     1       6.850  -1.242  -3.375  1.00  0.00     0.016 A 
ATOM     33  C   UNL     1       6.815   1.102  -1.843  1.00  0.00     0.010 A 
ATOM     34  C   UNL     1       6.527  -0.022  -3.970  1.00  0.00     0.010 A 
ATOM     35  C   UNL     1       6.476   1.154  -3.203  1.00  0.00    -0.014 A 
BRANCH  35  36
ATOM     36  C   UNL     1       6.021   2.419  -3.826  1.00  0.00     0.031 A 
ATOM     37  C   UNL     1       4.579   2.588  -4.213  1.00  0.00     0.074 A 
ATOM     38  C   UNL     1       6.899   3.411  -4.060  1.00  0.00     0.049 A 
ATOM     39  N   UNL     1       4.016   3.554  -4.893  1.00  0.00    -0.248 NA
ATOM     40  C   UNL     1       3.648   1.533  -3.779  1.00  0.00     0.031 C 
ATOM     41  C   UNL     1       8.312   3.399  -3.684  1.00  0.00     0.029 A 
ATOM     42  N   UNL     1       6.724   4.625  -4.678  1.00  0.00    -0.354 N 
ATOM     43  C   UNL     1       2.673   3.217  -4.986  1.00  0.00     0.074 A 
ATOM     44  C   UNL     1       2.503   1.953  -4.302  1.00  0.00     0.031 C 
ATOM     45  C   UNL     1       8.875   4.556  -4.069  1.00  0.00     0.029 A 
ATOM     46  C   UNL     1       7.877   5.365  -4.763  1.00  0.00     0.049 A 
ATOM     47  H   UNL     1       5.857   4.934  -5.026  1.00  0.00     0.167 HD
ATOM     48  C   UNL     1       1.671   3.900  -5.588  1.00  0.00     0.031 A 
ATOM     49  C   UNL     1       8.113   6.549  -5.357  1.00  0.00     0.031 A 
ATOM     50  C   UNL     1       1.833   5.160  -6.261  1.00  0.00     0.049 A 
ATOM     51  C   UNL     1       7.005   7.249  -6.089  1.00  0.00     0.074 A 
ATOM     52  C   UNL     1       0.871   5.921  -6.902  1.00  0.00     0.029 A 
ATOM     53  N   UNL     1       3.030   5.846  -6.374  1.00  0.00    -0.354 N 
ATOM     54  N   UNL     1       5.750   6.895  -6.213  1.00  0.00    -0.248 NA
ATOM     55  C   UNL     1       7.349   8.503  -6.777  1.00  0.00     0.031 C 
ATOM     56  C   UNL     1       1.494   7.056  -7.431  1.00  0.00     0.029 A 
ATOM     57  C   UNL     1       2.835   7.015  -7.088  1.00  0.00     0.049 A 
ATOM     58  H   UNL     1       3.891   5.546  -6.003  1.00  0.00     0.167 HD
ATOM     59  C   UNL     1       5.152   7.882  -6.985  1.00  0.00     0.074 A 
ATOM     60  C   UNL     1       6.179   8.855  -7.295  1.00  0.00     0.031 C 
ATOM     61  C   UNL     1       3.866   7.970  -7.397  1.00  0.00     0.031 A 
BRANCH  48  62
ATOM     62  C   UNL     1       0.302   3.291  -5.564  1.00  0.00    -0.014 A 
ATOM     63  C   UNL     1      -0.509   3.385  -4.424  1.00  0.00     0.009 A 
ATOM     64  C   UNL     1      -0.209   2.682  -6.721  1.00  0.00     0.009 A 
ATOM     65  C   UNL     1      -1.806   2.868  -4.440  1.00  0.00     0.001 A 
ATOM     66  C   UNL     1      -1.511   2.180  -6.738  1.00  0.00     0.001 A 
ATOM     67  C   UNL     1      -2.308   2.272  -5.597  1.00  0.00     0.000 A 
ENDBRANCH  48  62
BRANCH  49  68
ATOM     68  C   UNL     1       9.475   7.133  -5.301  1.00  0.00    -0.014 A 
ATOM     69  C   UNL     1       9.754   8.188  -4.421  1.00  0.00     0.009 A 
ATOM     70  C   UNL     1      10.508   6.609  -6.093  1.00  0.00     0.009 A 
ATOM     71  C   UNL     1      11.047   8.710  -4.337  1.00  0.00     0.001 A 
ATOM     72  C   UNL     1      11.803   7.122  -5.993  1.00  0.00     0.001 A 
ATOM     73  C   UNL     1      12.070   8.172  -5.117  1.00  0.00     0.000 A 
ENDBRANCH  49  68
BRANCH  61  74
ATOM     74  C   UNL     1       3.479   9.160  -8.222  1.00  0.00    -0.014 A 
ATOM     75  C   UNL     1       3.747   9.195  -9.598  1.00  0.00     0.009 A 
ATOM     76  C   UNL     1       2.759  10.212  -7.635  1.00  0.00     0.009 A 
ATOM     77  C   UNL     1       3.304  10.269 -10.372  1.00  0.00     0.001 A 
ATOM     78  C   UNL     1       2.305  11.276  -8.415  1.00  0.00     0.001 A 
ATOM     79  C   UNL     1       2.579  11.305  -9.782  1.00  0.00     0.000 A 
ENDBRANCH  61  74
ENDBRANCH  35  36
ENDBRANCH  28  30
ENDBRANCH  27  28
ENDBRANCH   1  27
TORSDOF 12
