REMARK SMILES Cc1ccc(-c2nn(CCC(=O)OCCOC(=O)c3ccc(-c4c5nc(c(-c6ccccc6)c6ccc([nH]6)c(-c6ccccc6)c6nc(c(-c7ccccc7)c7ccc4[nH]7)C=C6)C=C5)cc3)c(=O)c3noc(C)c23)cc1C
REMARK SMILES IDX 14 1 13 2 11 3 12 4 10 5 9 6 8 7 6 8 7 9 74 10 69 11 72 12
REMARK SMILES IDX 67 13 70 14 71 15 73 16 68 17 5 18 1 19 2 20 3 21 76 22 4 23
REMARK SMILES IDX 75 24 77 25 15 26 16 27 17 28 18 29 19 30 20 31 66 32 21 33
REMARK SMILES IDX 65 34 22 35 23 36 24 37 59 38 25 39 64 40 58 41 60 42 26 43
REMARK SMILES IDX 63 44 57 45 56 46 27 48 49 49 34 50 48 51 35 52 38 53 47 54
REMARK SMILES IDX 61 55 36 56 37 57 46 59 62 60 39 61 28 62 29 63 33 64 30 65
REMARK SMILES IDX 32 66 31 67 50 68 51 69 55 70 52 71 54 72 53 73 40 74 41 75
REMARK SMILES IDX 45 76 42 77 44 78 43 79
REMARK H PARENT 60 47 38 58
REMARK Flexibility Score: inf
ROOT
ATOM      1  C   UNL     1      -7.288  -5.735  -0.929  1.00  0.00     0.274 C 
ENDROOT
BRANCH   1   2
ATOM      2  O   UNL     1      -6.359  -4.715  -1.338  1.00  0.00    -0.462 OA
BRANCH   2   3
ATOM      3  C   UNL     1      -6.393  -4.342  -2.638  1.00  0.00     0.307 C 
ATOM      4  O   UNL     1      -7.003  -4.926  -3.525  1.00  0.00    -0.252 OA
BRANCH   3   5
ATOM      5  C   UNL     1      -5.540  -3.127  -2.899  1.00  0.00     0.146 C 
BRANCH   5   6
ATOM      6  C   UNL     1      -5.815  -1.964  -1.948  1.00  0.00     0.160 C 
BRANCH   6   7
ATOM      7  N   UNL     1      -4.982  -2.017  -0.748  1.00  0.00    -0.227 N 
ATOM      8  C   UNL     1      -2.842  -1.532   0.099  1.00  0.00     0.104 A 
ATOM      9  N   UNL     1      -3.701  -1.459  -0.880  1.00  0.00    -0.169 NA
ATOM     10  C   UNL     1      -3.179  -2.260   1.290  1.00  0.00     0.078 A 
ATOM     11  C   UNL     1      -4.483  -2.747   1.460  1.00  0.00     0.183 A 
ATOM     12  C   UNL     1      -2.525  -2.635   2.439  1.00  0.00     0.143 A 
ATOM     13  C   UNL     1      -5.496  -2.558   0.450  1.00  0.00     0.296 A 
ATOM     14  N   UNL     1      -4.636  -3.394   2.619  1.00  0.00    -0.074 NA
ATOM     15  O   UNL     1      -3.398  -3.325   3.233  1.00  0.00    -0.360 OA
ATOM     16  C   UNL     1      -1.168  -2.485   2.992  1.00  0.00     0.091 C 
ATOM     17  O   UNL     1      -6.672  -2.870   0.626  1.00  0.00    -0.265 OA
BRANCH   8  18
ATOM     18  C   UNL     1      -1.580  -0.786   0.009  1.00  0.00     0.003 A 
ATOM     19  C   UNL     1       2.016   1.573  -0.014  1.00  0.00     0.044 C 
ATOM     20  C   UNL     1       0.779   0.717  -0.028  1.00  0.00    -0.048 A 
ATOM     21  C   UNL     1      -0.475   1.352  -0.014  1.00  0.00     0.004 A 
ATOM     22  C   UNL     1       0.843  -0.694  -0.053  1.00  0.00    -0.048 A 
ATOM     23  C   UNL     1      -1.650   0.606   0.003  1.00  0.00     0.011 A 
ATOM     24  C   UNL     1      -0.349  -1.438  -0.049  1.00  0.00     0.014 A 
ATOM     25  C   UNL     1       2.140  -1.456  -0.065  1.00  0.00     0.044 C 
ENDBRANCH   8  18
ENDBRANCH   6   7
ENDBRANCH   5   6
ENDBRANCH   3   5
ENDBRANCH   2   3
ENDBRANCH   1   2
BRANCH   1  26
ATOM     26  C   UNL     1      -8.652  -5.150  -0.556  1.00  0.00     0.275 C 
BRANCH  26  27
ATOM     27  O   UNL     1      -9.223  -4.436  -1.670  1.00  0.00    -0.458 OA
BRANCH  27  28
ATOM     28  C   UNL     1      -9.480  -3.133  -1.435  1.00  0.00     0.338 C 
ATOM     29  O   UNL     1      -9.321  -2.510  -0.395  1.00  0.00    -0.246 OA
BRANCH  28  30
ATOM     30  C   UNL     1     -10.100  -2.479  -2.589  1.00  0.00     0.060 A 
ATOM     31  C   UNL     1      -9.454  -2.334  -3.821  1.00  0.00     0.016 A 
ATOM     32  C   UNL     1     -11.306  -1.829  -2.334  1.00  0.00     0.016 A 
ATOM     33  C   UNL     1     -10.016  -1.502  -4.797  1.00  0.00     0.010 A 
ATOM     34  C   UNL     1     -11.862  -1.011  -3.304  1.00  0.00     0.010 A 
ATOM     35  C   UNL     1     -11.223  -0.836  -4.542  1.00  0.00    -0.014 A 
BRANCH  35  36
ATOM     36  C   UNL     1     -11.872  -0.016  -5.588  1.00  0.00     0.031 A 
ATOM     37  C   UNL     1     -13.296  -0.383  -5.844  1.00  0.00     0.074 A 
ATOM     38  C   UNL     1     -11.503   1.254  -5.863  1.00  0.00     0.049 A 
ATOM     39  N   UNL     1     -14.253   0.010  -5.053  1.00  0.00    -0.248 NA
ATOM     40  C   UNL     1     -13.698  -1.410  -6.801  1.00  0.00     0.031 C 
ATOM     41  C   UNL     1     -10.680   2.084  -4.977  1.00  0.00     0.029 A 
ATOM     42  N   UNL     1     -11.961   2.134  -6.821  1.00  0.00    -0.354 N 
ATOM     43  C   UNL     1     -15.346  -0.787  -5.316  1.00  0.00     0.074 A 
ATOM     44  C   UNL     1     -14.979  -1.611  -6.449  1.00  0.00     0.031 C 
ATOM     45  C   UNL     1     -10.853   3.379  -5.316  1.00  0.00     0.029 A 
ATOM     46  C   UNL     1     -11.659   3.465  -6.531  1.00  0.00     0.049 A 
ATOM     47  H   UNL     1     -12.450   1.852  -7.627  1.00  0.00     0.167 HD
ATOM     48  C   UNL     1     -16.465  -0.774  -4.548  1.00  0.00     0.031 A 
ATOM     49  C   UNL     1     -12.435   4.541  -6.834  1.00  0.00     0.031 A 
ATOM     50  C   UNL     1     -16.433   0.075  -3.395  1.00  0.00     0.049 A 
ATOM     51  C   UNL     1     -13.698   4.278  -6.059  1.00  0.00     0.074 A 
ATOM     52  C   UNL     1     -16.113  -0.057  -2.059  1.00  0.00     0.029 A 
ATOM     53  N   UNL     1     -16.697   1.413  -3.557  1.00  0.00    -0.354 N 
ATOM     54  N   UNL     1     -13.910   4.527  -4.798  1.00  0.00    -0.248 NA
ATOM     55  C   UNL     1     -14.711   3.434  -6.698  1.00  0.00     0.031 C 
ATOM     56  C   UNL     1     -15.766   1.258  -1.614  1.00  0.00     0.029 A 
ATOM     57  C   UNL     1     -15.838   2.091  -2.728  1.00  0.00     0.049 A 
ATOM     58  H   UNL     1     -17.372   1.809  -4.153  1.00  0.00     0.167 HD
ATOM     59  C   UNL     1     -14.917   3.642  -4.412  1.00  0.00     0.074 A 
ATOM     60  C   UNL     1     -15.393   3.029  -5.636  1.00  0.00     0.031 C 
ATOM     61  C   UNL     1     -15.174   3.316  -3.112  1.00  0.00     0.031 A 
BRANCH  48  62
ATOM     62  C   UNL     1     -17.692  -1.515  -4.884  1.00  0.00    -0.014 A 
ATOM     63  C   UNL     1     -18.698  -0.836  -5.587  1.00  0.00     0.009 A 
ATOM     64  C   UNL     1     -17.946  -2.792  -4.375  1.00  0.00     0.009 A 
ATOM     65  C   UNL     1     -19.956  -1.410  -5.748  1.00  0.00     0.001 A 
ATOM     66  C   UNL     1     -19.206  -3.369  -4.547  1.00  0.00     0.001 A 
ATOM     67  C   UNL     1     -20.212  -2.673  -5.221  1.00  0.00     0.000 A 
ENDBRANCH  48  62
BRANCH  49  68
ATOM     68  C   UNL     1     -12.496   4.977  -8.267  1.00  0.00    -0.014 A 
ATOM     69  C   UNL     1     -11.315   5.001  -9.034  1.00  0.00     0.009 A 
ATOM     70  C   UNL     1     -13.671   5.436  -8.887  1.00  0.00     0.009 A 
ATOM     71  C   UNL     1     -11.325   5.381 -10.381  1.00  0.00     0.001 A 
ATOM     72  C   UNL     1     -13.690   5.788 -10.243  1.00  0.00     0.001 A 
ATOM     73  C   UNL     1     -12.518   5.752 -10.991  1.00  0.00     0.000 A 
ENDBRANCH  49  68
BRANCH  61  74
ATOM     74  C   UNL     1     -14.479   4.134  -2.073  1.00  0.00    -0.014 A 
ATOM     75  C   UNL     1     -14.909   5.441  -1.805  1.00  0.00     0.009 A 
ATOM     76  C   UNL     1     -13.427   3.597  -1.315  1.00  0.00     0.009 A 
ATOM     77  C   UNL     1     -14.319   6.183  -0.780  1.00  0.00     0.001 A 
ATOM     78  C   UNL     1     -12.848   4.335  -0.280  1.00  0.00     0.001 A 
ATOM     79  C   UNL     1     -13.298   5.626  -0.010  1.00  0.00     0.000 A 
ENDBRANCH  61  74
ENDBRANCH  35  36
ENDBRANCH  28  30
ENDBRANCH  27  28
ENDBRANCH  26  27
ENDBRANCH   1  26
TORSDOF 14
