REMARK SMILES O=C(OCCOC(=O)c1ccc(-c2c3nc(c(-c4ccccc4)c4ccc([nH]4)c(-c4ccccc4)c4nc(c(-c5ccccc5)c5ccc2[nH]5)C=C4)C=C3)cc1)C1=Cc2c(ccc(Cl)c2Cl)O[C@H]1C(F)(F)F
REMARK SMILES IDX 5 1 4 2 3 3 2 4 1 5 57 6 58 7 68 8 59 9 67 10 60 11 65 12
REMARK SMILES IDX 61 13 63 14 66 15 62 16 64 17 69 18 70 19 71 20 72 21 6 22
REMARK SMILES IDX 7 23 8 24 9 25 10 26 56 27 11 28 55 29 12 30 13 31 14 32
REMARK SMILES IDX 49 33 15 34 54 35 48 36 50 37 16 38 53 39 47 40 46 41 17 43
REMARK SMILES IDX 39 44 24 45 38 46 25 47 28 48 37 49 51 50 26 51 27 52 36 54
REMARK SMILES IDX 52 55 29 56 18 57 19 58 23 59 20 60 22 61 21 62 40 63 41 64
REMARK SMILES IDX 45 65 42 66 44 67 43 68 30 69 31 70 35 71 32 72 34 73 33 74
REMARK H PARENT 50 42 28 53
REMARK Flexibility Score: inf
ROOT
ATOM      1  C   UNL     1       2.655  -2.436   1.514  1.00  0.00     0.275 C 
ENDROOT
BRANCH   1   2
ATOM      2  C   UNL     1       2.619  -0.917   1.737  1.00  0.00     0.275 C 
BRANCH   2   3
ATOM      3  O   UNL     1       2.088  -0.178   0.613  1.00  0.00    -0.459 OA
BRANCH   3   4
ATOM      4  C   UNL     1       2.706   0.245  -0.511  1.00  0.00     0.338 C 
ATOM      5  O   UNL     1       2.063   0.899  -1.331  1.00  0.00    -0.246 OA
BRANCH   4   6
ATOM      6  C   UNL     1       4.149   0.019  -0.782  1.00  0.00     0.087 C 
ATOM      7  C   UNL     1       4.954  -0.703   0.010  1.00  0.00     0.029 C 
ATOM      8  C   UNL     1       4.735   1.031  -1.753  1.00  0.00     0.316 C 
ATOM      9  C   UNL     1       6.116   0.033   0.529  1.00  0.00     0.037 A 
ATOM     10  O   UNL     1       6.087   1.464  -1.431  1.00  0.00    -0.475 OA
ATOM     11  C   UNL     1       6.566   1.141  -0.193  1.00  0.00     0.129 A 
ATOM     12  C   UNL     1       6.691  -0.268   1.780  1.00  0.00     0.070 A 
ATOM     13  C   UNL     1       7.556   1.968   0.329  1.00  0.00     0.049 A 
ATOM     14  C   UNL     1       7.654   0.595   2.322  1.00  0.00     0.060 A 
ATOM     15  Cl  UNL     1       6.194  -1.686   2.653  1.00  0.00    -0.082 Cl
ATOM     16  C   UNL     1       8.077   1.712   1.598  1.00  0.00     0.026 A 
ATOM     17  Cl  UNL     1       8.334   0.357   3.894  1.00  0.00    -0.083 Cl
BRANCH   8  18
ATOM     18  C   UNL     1       4.713   0.459  -3.183  1.00  0.00     0.430 C 
ATOM     19  F   UNL     1       3.474   0.096  -3.581  1.00  0.00    -0.167 F 
ATOM     20  F   UNL     1       5.168   1.362  -4.085  1.00  0.00    -0.167 F 
ATOM     21  F   UNL     1       5.499  -0.643  -3.287  1.00  0.00    -0.167 F 
ENDBRANCH   8  18
ENDBRANCH   4   6
ENDBRANCH   3   4
ENDBRANCH   2   3
ENDBRANCH   1   2
BRANCH   1  22
ATOM     22  O   UNL     1       2.625  -2.768   0.122  1.00  0.00    -0.458 OA
BRANCH  22  23
ATOM     23  C   UNL     1       1.365  -2.792  -0.391  1.00  0.00     0.338 C 
ATOM     24  O   UNL     1       0.328  -2.775   0.238  1.00  0.00    -0.246 OA
BRANCH  23  25
ATOM     25  C   UNL     1       1.435  -2.673  -1.863  1.00  0.00     0.060 A 
ATOM     26  C   UNL     1       0.383  -2.006  -2.499  1.00  0.00     0.016 A 
ATOM     27  C   UNL     1       2.489  -3.212  -2.610  1.00  0.00     0.016 A 
ATOM     28  C   UNL     1       0.333  -1.954  -3.888  1.00  0.00     0.010 A 
ATOM     29  C   UNL     1       2.446  -3.146  -4.004  1.00  0.00     0.010 A 
ATOM     30  C   UNL     1       1.338  -2.568  -4.646  1.00  0.00    -0.014 A 
BRANCH  30  31
ATOM     31  C   UNL     1       1.108  -2.787  -6.091  1.00  0.00     0.031 A 
ATOM     32  C   UNL     1       0.617  -4.136  -6.539  1.00  0.00     0.074 A 
ATOM     33  C   UNL     1       1.275  -1.792  -6.979  1.00  0.00     0.049 A 
ATOM     34  N   UNL     1       0.267  -4.538  -7.733  1.00  0.00    -0.248 NA
ATOM     35  C   UNL     1       0.509  -5.174  -5.499  1.00  0.00     0.031 C 
ATOM     36  C   UNL     1       1.733  -0.441  -6.662  1.00  0.00     0.029 A 
ATOM     37  N   UNL     1       1.070  -1.773  -8.335  1.00  0.00    -0.354 N 
ATOM     38  C   UNL     1      -0.104  -5.869  -7.585  1.00  0.00     0.074 A 
ATOM     39  C   UNL     1       0.111  -6.222  -6.201  1.00  0.00     0.031 C 
ATOM     40  C   UNL     1       1.775   0.280  -7.797  1.00  0.00     0.029 A 
ATOM     41  C   UNL     1       1.357  -0.563  -8.915  1.00  0.00     0.049 A 
ATOM     42  H   UNL     1       0.747  -2.552  -8.843  1.00  0.00     0.167 HD
ATOM     43  C   UNL     1      -0.600  -6.718  -8.514  1.00  0.00     0.031 A 
ATOM     44  C   UNL     1       1.287  -0.183 -10.205  1.00  0.00     0.031 A 
ATOM     45  C   UNL     1      -0.805  -6.370  -9.892  1.00  0.00     0.049 A 
ATOM     46  C   UNL     1       0.779  -1.159 -11.233  1.00  0.00     0.074 A 
ATOM     47  C   UNL     1      -1.329  -7.145 -10.911  1.00  0.00     0.029 A 
ATOM     48  N   UNL     1      -0.481  -5.140 -10.444  1.00  0.00    -0.354 N 
ATOM     49  N   UNL     1       0.361  -2.391 -11.068  1.00  0.00    -0.248 NA
ATOM     50  C   UNL     1       0.716  -0.684 -12.623  1.00  0.00     0.031 C 
ATOM     51  C   UNL     1      -1.275  -6.399 -12.093  1.00  0.00     0.029 A 
ATOM     52  C   UNL     1      -0.766  -5.144 -11.798  1.00  0.00     0.049 A 
ATOM     53  H   UNL     1      -0.105  -4.378  -9.947  1.00  0.00     0.167 HD
ATOM     54  C   UNL     1      -0.042  -2.828 -12.324  1.00  0.00     0.074 A 
ATOM     55  C   UNL     1       0.172  -1.726 -13.239  1.00  0.00     0.031 C 
ATOM     56  C   UNL     1      -0.549  -4.032 -12.687  1.00  0.00     0.031 A 
BRANCH  43  57
ATOM     57  C   UNL     1      -0.924  -8.113  -8.059  1.00  0.00    -0.014 A 
ATOM     58  C   UNL     1      -2.017  -8.367  -7.214  1.00  0.00     0.009 A 
ATOM     59  C   UNL     1      -0.117  -9.185  -8.469  1.00  0.00     0.009 A 
ATOM     60  C   UNL     1      -2.266  -9.661  -6.751  1.00  0.00     0.001 A 
ATOM     61  C   UNL     1      -0.385 -10.481  -8.026  1.00  0.00     0.001 A 
ATOM     62  C   UNL     1      -1.451 -10.716  -7.158  1.00  0.00     0.000 A 
ENDBRANCH  43  57
BRANCH  44  63
ATOM     63  C   UNL     1       1.707   1.187 -10.598  1.00  0.00    -0.014 A 
ATOM     64  C   UNL     1       0.762   2.141 -11.005  1.00  0.00     0.009 A 
ATOM     65  C   UNL     1       3.064   1.544 -10.576  1.00  0.00     0.009 A 
ATOM     66  C   UNL     1       1.171   3.416 -11.405  1.00  0.00     0.001 A 
ATOM     67  C   UNL     1       3.467   2.827 -10.952  1.00  0.00     0.001 A 
ATOM     68  C   UNL     1       2.522   3.759 -11.375  1.00  0.00     0.000 A 
ENDBRANCH  44  63
BRANCH  56  69
ATOM     69  C   UNL     1      -0.935  -4.215 -14.127  1.00  0.00    -0.014 A 
ATOM     70  C   UNL     1       0.037  -4.384 -15.124  1.00  0.00     0.009 A 
ATOM     71  C   UNL     1      -2.293  -4.291 -14.476  1.00  0.00     0.009 A 
ATOM     72  C   UNL     1      -0.345  -4.606 -16.449  1.00  0.00     0.001 A 
ATOM     73  C   UNL     1      -2.671  -4.538 -15.796  1.00  0.00     0.001 A 
ATOM     74  C   UNL     1      -1.697  -4.689 -16.782  1.00  0.00     0.000 A 
ENDBRANCH  56  69
ENDBRANCH  30  31
ENDBRANCH  23  25
ENDBRANCH  22  23
ENDBRANCH   1  22
TORSDOF 12
