REMARK SMILES C[C@H](Nc1ncccc1C(=O)OCCOC(=O)c1ccc(-c2c3nc(c(-c4ccccc4)c4ccc([nH]4)c(-c4ccccc4)c4nc(c(-c5ccccc5)c5ccc2[nH]5)C=C4)C=C3)cc1)c1ccc(Cl)cc1
REMARK SMILES IDX 13 1 12 2 10 3 11 4 9 5 4 6 5 7 6 8 8 9 7 10 3 11 2 13 1 14
REMARK SMILES IDX 66 15 67 16 72 17 68 18 71 19 69 20 70 21 14 22 15 23 16 24
REMARK SMILES IDX 17 25 18 26 19 27 65 28 20 29 64 30 21 31 22 32 23 33 58 34
REMARK SMILES IDX 24 35 63 36 57 37 59 38 25 39 62 40 56 41 55 42 26 44 48 45
REMARK SMILES IDX 33 46 47 47 34 48 37 49 46 50 60 51 35 52 36 53 45 55 61 56
REMARK SMILES IDX 38 57 27 58 28 59 32 60 29 61 31 62 30 63 49 64 50 65 54 66
REMARK SMILES IDX 51 67 53 68 52 69 39 70 40 71 44 72 41 73 43 74 42 75
REMARK H PARENT 3 12 59 43 37 54
REMARK Flexibility Score: inf
ROOT
ATOM      1  C   UNL     1       5.309   1.853  -2.696  1.00  0.00     0.275 C 
ENDROOT
BRANCH   1   2
ATOM      2  O   UNL     1       4.793   0.566  -2.260  1.00  0.00    -0.458 OA
BRANCH   2   3
ATOM      3  C   UNL     1       4.147   0.551  -1.059  1.00  0.00     0.342 C 
ATOM      4  O   UNL     1       3.871   1.536  -0.394  1.00  0.00    -0.246 OA
BRANCH   3   5
ATOM      5  C   UNL     1       3.948  -0.832  -0.563  1.00  0.00     0.102 A 
ATOM      6  C   UNL     1       2.729  -1.341  -0.073  1.00  0.00     0.141 A 
ATOM      7  N   UNL     1       2.707  -2.459   0.693  1.00  0.00    -0.239 NA
ATOM      8  C   UNL     1       3.859  -3.139   0.886  1.00  0.00     0.113 A 
ATOM      9  C   UNL     1       5.117  -1.591  -0.393  1.00  0.00     0.021 A 
ATOM     10  C   UNL     1       5.068  -2.777   0.325  1.00  0.00     0.021 A 
BRANCH   6  11
ATOM     11  N   UNL     1       1.446  -0.919  -0.396  1.00  0.00    -0.363 N 
ATOM     12  H   UNL     1       0.758  -0.857   0.306  1.00  0.00     0.162 HD
BRANCH  11  13
ATOM     13  C   UNL     1       1.114  -0.565  -1.784  1.00  0.00     0.108 C 
ATOM     14  C   UNL     1       1.351  -1.785  -2.690  1.00  0.00     0.036 C 
BRANCH  13  15
ATOM     15  C   UNL     1      -0.369   0.197  -2.031  1.00  0.00    -0.026 A 
ATOM     16  C   UNL     1      -1.153   2.055  -1.752  1.00  0.00     0.007 A 
ATOM     17  C   UNL     1      -1.482  -1.068  -2.644  1.00  0.00     0.007 A 
ATOM     18  C   UNL     1      -2.893   2.354  -2.107  1.00  0.00     0.021 A 
ATOM     19  C   UNL     1      -3.114  -0.608  -3.048  1.00  0.00     0.021 A 
ATOM     20  C   UNL     1      -3.823   1.017  -2.743  1.00  0.00     0.041 A 
ATOM     21  Cl  UNL     1      -5.406   1.372  -3.340  1.00  0.00    -0.084 Cl
ENDBRANCH  13  15
ENDBRANCH  11  13
ENDBRANCH   6  11
ENDBRANCH   3   5
ENDBRANCH   2   3
ENDBRANCH   1   2
BRANCH   1  22
ATOM     22  C   UNL     1       4.383   2.607  -3.650  1.00  0.00     0.275 C 
BRANCH  22  23
ATOM     23  O   UNL     1       3.158   2.934  -2.968  1.00  0.00    -0.458 OA
BRANCH  23  24
ATOM     24  C   UNL     1       2.233   2.001  -3.221  1.00  0.00     0.338 C 
ATOM     25  O   UNL     1       2.354   1.099  -4.051  1.00  0.00    -0.246 OA
BRANCH  24  26
ATOM     26  C   UNL     1       0.960   2.065  -2.475  1.00  0.00     0.060 A 
ATOM     27  C   UNL     1       0.732   1.706  -0.731  1.00  0.00     0.016 A 
ATOM     28  C   UNL     1      -0.219   1.710  -3.662  1.00  0.00     0.016 A 
ATOM     29  C   UNL     1      -0.746   0.898  -0.076  1.00  0.00     0.010 A 
ATOM     30  C   UNL     1      -1.716   0.962  -3.162  1.00  0.00     0.010 A 
ATOM     31  C   UNL     1      -2.124   0.492  -1.224  1.00  0.00    -0.014 A 
BRANCH  31  32
ATOM     32  C   UNL     1      -3.507   0.131  -0.214  1.00  0.00     0.031 A 
ATOM     33  C   UNL     1      -4.630  -1.010  -0.353  1.00  0.00     0.074 A 
ATOM     34  C   UNL     1      -3.739   0.934   0.870  1.00  0.00     0.049 A 
ATOM     35  N   UNL     1      -5.545  -1.516   0.467  1.00  0.00    -0.248 NA
ATOM     36  C   UNL     1      -4.766  -1.689  -1.627  1.00  0.00     0.031 C 
ATOM     37  C   UNL     1      -2.933   2.080   1.303  1.00  0.00     0.029 A 
ATOM     38  N   UNL     1      -4.744   0.919   1.828  1.00  0.00    -0.354 N 
ATOM     39  C   UNL     1      -6.186  -2.563  -0.259  1.00  0.00     0.074 A 
ATOM     40  C   UNL     1      -5.354  -2.844  -1.398  1.00  0.00     0.031 C 
ATOM     41  C   UNL     1      -3.373   2.557   2.472  1.00  0.00     0.029 A 
ATOM     42  C   UNL     1      -4.628   1.907   2.788  1.00  0.00     0.049 A 
ATOM     43  H   UNL     1      -5.477   0.261   1.823  1.00  0.00     0.167 HD
ATOM     44  C   UNL     1      -7.470  -3.033  -0.268  1.00  0.00     0.031 A 
ATOM     45  C   UNL     1      -5.450   2.336   3.768  1.00  0.00     0.031 A 
ATOM     46  C   UNL     1      -8.486  -2.526   0.602  1.00  0.00     0.049 A 
ATOM     47  C   UNL     1      -6.807   1.716   3.881  1.00  0.00     0.074 A 
ATOM     48  C   UNL     1      -9.825  -2.866   0.669  1.00  0.00     0.029 A 
ATOM     49  N   UNL     1      -8.274  -1.498   1.500  1.00  0.00    -0.354 N 
ATOM     50  N   UNL     1      -7.342   0.775   3.143  1.00  0.00    -0.248 NA
ATOM     51  C   UNL     1      -7.686   2.232   4.938  1.00  0.00     0.031 C 
ATOM     52  C   UNL     1     -10.441  -1.985   1.562  1.00  0.00     0.029 A 
ATOM     53  C   UNL     1      -9.459  -1.190   2.130  1.00  0.00     0.049 A 
ATOM     54  H   UNL     1      -7.410  -1.054   1.663  1.00  0.00     0.167 HD
ATOM     55  C   UNL     1      -8.618   0.582   3.647  1.00  0.00     0.074 A 
ATOM     56  C   UNL     1      -8.767   1.483   4.771  1.00  0.00     0.031 C 
ATOM     57  C   UNL     1      -9.583  -0.265   3.219  1.00  0.00     0.031 A 
BRANCH  44  58
ATOM     58  C   UNL     1      -7.913  -3.921  -1.448  1.00  0.00    -0.014 A 
ATOM     59  C   UNL     1      -7.336  -5.176  -1.719  1.00  0.00     0.009 A 
ATOM     60  C   UNL     1      -8.842  -3.417  -2.384  1.00  0.00     0.009 A 
ATOM     61  C   UNL     1      -7.613  -5.852  -2.918  1.00  0.00     0.001 A 
ATOM     62  C   UNL     1      -9.155  -4.118  -3.556  1.00  0.00     0.001 A 
ATOM     63  C   UNL     1      -8.520  -5.324  -3.835  1.00  0.00     0.000 A 
ENDBRANCH  44  58
BRANCH  45  64
ATOM     64  C   UNL     1      -5.038   3.470   4.655  1.00  0.00    -0.014 A 
ATOM     65  C   UNL     1      -4.752   3.251   6.012  1.00  0.00     0.009 A 
ATOM     66  C   UNL     1      -4.863   4.767   4.138  1.00  0.00     0.009 A 
ATOM     67  C   UNL     1      -4.287   4.294   6.821  1.00  0.00     0.001 A 
ATOM     68  C   UNL     1      -4.358   5.798   4.939  1.00  0.00     0.001 A 
ATOM     69  C   UNL     1      -4.072   5.561   6.280  1.00  0.00     0.000 A 
ENDBRANCH  45  64
BRANCH  57  70
ATOM     70  C   UNL     1     -10.858  -0.305   3.996  1.00  0.00    -0.014 A 
ATOM     71  C   UNL     1     -11.783   0.746   3.953  1.00  0.00     0.009 A 
ATOM     72  C   UNL     1     -11.152  -1.458   4.739  1.00  0.00     0.009 A 
ATOM     73  C   UNL     1     -12.966   0.659   4.685  1.00  0.00     0.001 A 
ATOM     74  C   UNL     1     -12.348  -1.556   5.441  1.00  0.00     0.001 A 
ATOM     75  C   UNL     1     -13.248  -0.492   5.423  1.00  0.00     0.000 A 
ENDBRANCH  57  70
ENDBRANCH  31  32
ENDBRANCH  24  26
ENDBRANCH  23  24
ENDBRANCH  22  23
ENDBRANCH   1  22
TORSDOF 14
