REMARK SMILES COc1ccc(-c2cnc(N)c(C(=O)OCCOC(=O)c3ccc(-c4c5nc(c(-c6ccccc6)c6ccc([nH]6)c(-c6ccccc6)c6nc(c(-c7ccccc7)c7ccc4[nH]7)C=C6)C=C5)cc3)c2)c(C)c1
REMARK SMILES IDX 16 1 15 2 13 3 14 4 12 5 7 6 8 7 69 8 9 9 10 10 6 11 3 12
REMARK SMILES IDX 4 13 72 14 5 15 70 16 71 17 2 18 1 19 11 20 17 23 18 24
REMARK SMILES IDX 19 25 20 26 21 27 22 28 68 29 23 30 67 31 24 32 25 33 26 34
REMARK SMILES IDX 61 35 27 36 66 37 60 38 62 39 28 40 65 41 59 42 58 43 29 45
REMARK SMILES IDX 51 46 36 47 50 48 37 49 40 50 49 51 63 52 38 53 39 54 48 56
REMARK SMILES IDX 64 57 41 58 30 59 31 60 35 61 32 62 34 63 33 64 52 65 53 66
REMARK SMILES IDX 57 67 54 68 56 69 55 70 42 71 43 72 47 73 44 74 46 75 45 76
REMARK H PARENT 11 21 11 22 62 44 40 55
REMARK Flexibility Score: inf
ROOT
ATOM      1  C   UNL     1      -0.339 -11.823   3.010  1.00  0.00     0.275 C 
ENDROOT
BRANCH   1   2
ATOM      2  O   UNL     1       0.542 -10.686   3.033  1.00  0.00    -0.458 OA
BRANCH   2   3
ATOM      3  C   UNL     1       0.224  -9.639   3.823  1.00  0.00     0.342 C 
ATOM      4  O   UNL     1      -0.798  -9.510   4.470  1.00  0.00    -0.246 OA
BRANCH   3   5
ATOM      5  C   UNL     1       1.242  -8.584   3.695  1.00  0.00     0.102 A 
ATOM      6  C   UNL     1       1.700  -6.224   3.223  1.00  0.00     0.001 A 
ATOM      7  C   UNL     1       2.996  -6.533   3.653  1.00  0.00     0.122 A 
ATOM      8  C   UNL     1       0.819  -7.307   3.289  1.00  0.00     0.030 A 
ATOM      9  N   UNL     1       3.450  -7.766   4.016  1.00  0.00    -0.238 NA
ATOM     10  C   UNL     1       2.578  -8.789   4.005  1.00  0.00     0.138 A 
BRANCH   6  11
ATOM     11  C   UNL     1       1.333  -4.864   2.713  1.00  0.00    -0.014 A 
ATOM     12  C   UNL     1       0.845  -2.232   1.677  1.00  0.00     0.119 A 
ATOM     13  C   UNL     1       2.106  -2.793   1.576  1.00  0.00     0.047 A 
ATOM     14  C   UNL     1      -0.166  -2.970   2.283  1.00  0.00     0.050 A 
ATOM     15  C   UNL     1       2.335  -4.087   2.072  1.00  0.00     0.013 A 
ATOM     16  C   UNL     1       0.051  -4.266   2.809  1.00  0.00    -0.040 A 
ATOM     17  C   UNL     1      -1.166  -4.919   3.413  1.00  0.00     0.045 C 
BRANCH  12  18
ATOM     18  O   UNL     1       0.495  -0.972   1.286  1.00  0.00    -0.497 OA
ATOM     19  C   UNL     1       1.190  -0.447   0.162  1.00  0.00     0.278 C 
ENDBRANCH  12  18
ENDBRANCH   6  11
BRANCH  10  20
ATOM     20  N   UNL     1       3.107 -10.007   4.382  1.00  0.00    -0.383 N 
ATOM     21  H   UNL     1       4.066 -10.084   4.589  1.00  0.00     0.158 HD
ATOM     22  H   UNL     1       2.525 -10.799   4.444  1.00  0.00     0.158 HD
ENDBRANCH  10  20
ENDBRANCH   3   5
ENDBRANCH   2   3
ENDBRANCH   1   2
BRANCH   1  23
ATOM     23  C   UNL     1      -1.881 -11.646   2.965  1.00  0.00     0.275 C 
BRANCH  23  24
ATOM     24  O   UNL     1      -2.636 -10.773   2.068  1.00  0.00    -0.458 OA
BRANCH  24  25
ATOM     25  C   UNL     1      -2.244  -9.603   1.519  1.00  0.00     0.338 C 
ATOM     26  O   UNL     1      -2.886  -8.562   1.567  1.00  0.00    -0.246 OA
BRANCH  25  27
ATOM     27  C   UNL     1      -1.043  -9.717   0.696  1.00  0.00     0.060 A 
ATOM     28  C   UNL     1      -0.209  -8.607   0.494  1.00  0.00     0.016 A 
ATOM     29  C   UNL     1      -0.711 -10.978   0.218  1.00  0.00     0.016 A 
ATOM     30  C   UNL     1       1.038  -8.789  -0.080  1.00  0.00     0.010 A 
ATOM     31  C   UNL     1       0.570 -11.195  -0.192  1.00  0.00     0.010 A 
ATOM     32  C   UNL     1       1.405 -10.092  -0.406  1.00  0.00    -0.014 A 
BRANCH  32  33
ATOM     33  C   UNL     1       2.429 -10.408  -1.371  1.00  0.00     0.031 A 
ATOM     34  C   UNL     1       3.820 -10.615  -0.968  1.00  0.00     0.074 A 
ATOM     35  C   UNL     1       1.881 -10.704  -2.576  1.00  0.00     0.049 A 
ATOM     36  N   UNL     1       4.812 -10.447  -1.766  1.00  0.00    -0.248 NA
ATOM     37  C   UNL     1       4.231 -11.019   0.382  1.00  0.00     0.031 C 
ATOM     38  C   UNL     1       2.434 -11.387  -3.727  1.00  0.00     0.029 A 
ATOM     39  N   UNL     1       0.591 -10.371  -3.021  1.00  0.00    -0.354 N 
ATOM     40  C   UNL     1       5.878 -11.102  -1.193  1.00  0.00     0.074 A 
ATOM     41  C   UNL     1       5.536 -11.273   0.199  1.00  0.00     0.031 C 
ATOM     42  C   UNL     1       1.655 -11.096  -4.793  1.00  0.00     0.029 A 
ATOM     43  C   UNL     1       0.698 -10.076  -4.372  1.00  0.00     0.049 A 
ATOM     44  H   UNL     1      -0.230 -10.352  -2.479  1.00  0.00     0.167 HD
ATOM     45  C   UNL     1       6.822 -11.652  -2.005  1.00  0.00     0.031 A 
ATOM     46  C   UNL     1       0.670  -8.769  -4.788  1.00  0.00     0.031 A 
ATOM     47  C   UNL     1       6.466 -11.473  -3.413  1.00  0.00     0.049 A 
ATOM     48  C   UNL     1       2.024  -8.331  -5.337  1.00  0.00     0.074 A 
ATOM     49  C   UNL     1       5.893 -12.307  -4.360  1.00  0.00     0.029 A 
ATOM     50  N   UNL     1       6.311 -10.187  -3.899  1.00  0.00    -0.354 N 
ATOM     51  N   UNL     1       3.128  -9.007  -5.161  1.00  0.00    -0.248 NA
ATOM     52  C   UNL     1       2.264  -7.079  -6.052  1.00  0.00     0.031 C 
ATOM     53  C   UNL     1       5.389 -11.495  -5.420  1.00  0.00     0.029 A 
ATOM     54  C   UNL     1       5.663 -10.174  -5.117  1.00  0.00     0.049 A 
ATOM     55  H   UNL     1       6.624  -9.379  -3.431  1.00  0.00     0.167 HD
ATOM     56  C   UNL     1       4.176  -8.366  -5.746  1.00  0.00     0.074 A 
ATOM     57  C   UNL     1       3.594  -7.135  -6.256  1.00  0.00     0.031 C 
ATOM     58  C   UNL     1       5.437  -8.889  -5.761  1.00  0.00     0.031 A 
BRANCH  45  59
ATOM     59  C   UNL     1       7.885 -12.603  -1.529  1.00  0.00    -0.014 A 
ATOM     60  C   UNL     1       8.320 -13.635  -2.380  1.00  0.00     0.009 A 
ATOM     61  C   UNL     1       8.510 -12.521  -0.273  1.00  0.00     0.009 A 
ATOM     62  C   UNL     1       9.283 -14.570  -1.986  1.00  0.00     0.001 A 
ATOM     63  C   UNL     1       9.461 -13.468   0.137  1.00  0.00     0.001 A 
ATOM     64  C   UNL     1       9.845 -14.495  -0.719  1.00  0.00     0.000 A 
ENDBRANCH  45  59
BRANCH  46  65
ATOM     65  C   UNL     1      -0.258  -7.871  -4.014  1.00  0.00    -0.014 A 
ATOM     66  C   UNL     1      -1.620  -8.235  -3.903  1.00  0.00     0.009 A 
ATOM     67  C   UNL     1       0.212  -6.856  -3.168  1.00  0.00     0.009 A 
ATOM     68  C   UNL     1      -2.442  -7.696  -2.905  1.00  0.00     0.001 A 
ATOM     69  C   UNL     1      -0.623  -6.294  -2.187  1.00  0.00     0.001 A 
ATOM     70  C   UNL     1      -1.936  -6.739  -2.033  1.00  0.00     0.000 A 
ENDBRANCH  46  65
BRANCH  58  71
ATOM     71  C   UNL     1       6.612  -8.203  -6.388  1.00  0.00    -0.014 A 
ATOM     72  C   UNL     1       6.522  -7.511  -7.599  1.00  0.00     0.009 A 
ATOM     73  C   UNL     1       7.896  -8.339  -5.818  1.00  0.00     0.009 A 
ATOM     74  C   UNL     1       7.649  -6.905  -8.164  1.00  0.00     0.001 A 
ATOM     75  C   UNL     1       9.026  -7.765  -6.392  1.00  0.00     0.001 A 
ATOM     76  C   UNL     1       8.897  -7.028  -7.558  1.00  0.00     0.000 A 
ENDBRANCH  58  71
ENDBRANCH  32  33
ENDBRANCH  25  27
ENDBRANCH  24  25
ENDBRANCH  23  24
ENDBRANCH   1  23
TORSDOF 14
