REMARK SMILES COCc1nc2ccccc2n1CC(=O)OCCOC(=O)c1ccc(-c2c3nc(c(-c4ccccc4)c4ccc([nH]4)c(-c4ccccc4)c4nc(c(-c5ccccc5)c5ccc2[nH]5)C=C4)C=C3)cc1
REMARK SMILES IDX 17 1 16 2 14 3 15 4 13 5 12 6 4 7 5 8 6 9 11 10 7 11 10 12
REMARK SMILES IDX 8 13 9 14 3 15 2 16 1 17 18 18 19 19 20 20 21 21 22 22 23 23
REMARK SMILES IDX 69 24 24 25 68 26 25 27 26 28 27 29 62 30 28 31 67 32 61 33
REMARK SMILES IDX 63 34 29 35 66 36 60 37 59 38 30 40 52 41 37 42 51 43 38 44
REMARK SMILES IDX 41 45 50 46 64 47 39 48 40 49 49 51 65 52 42 53 31 54 32 55
REMARK SMILES IDX 36 56 33 57 35 58 34 59 53 60 54 61 58 62 55 63 57 64 56 65
REMARK SMILES IDX 43 66 44 67 48 68 45 69 47 70 46 71
REMARK H PARENT 63 39 41 50
REMARK Flexibility Score: inf
ROOT
ATOM      1  C   UNL     1       2.833   3.433   5.143  1.00  0.00     0.274 C 
ENDROOT
BRANCH   1   2
ATOM      2  O   UNL     1       1.927   2.379   4.726  1.00  0.00    -0.461 OA
BRANCH   2   3
ATOM      3  C   UNL     1       0.680   2.404   5.263  1.00  0.00     0.326 C 
ATOM      4  O   UNL     1       0.282   3.275   6.035  1.00  0.00    -0.250 OA
BRANCH   3   5
ATOM      5  C   UNL     1      -0.250   1.326   4.772  1.00  0.00     0.246 C 
BRANCH   5   6
ATOM      6  N   UNL     1       0.317   0.066   4.316  1.00  0.00    -0.315 N 
ATOM      7  C   UNL     1       0.834  -0.225   3.062  1.00  0.00     0.136 A 
ATOM      8  N   UNL     1       1.090  -1.516   2.961  1.00  0.00    -0.231 NA
ATOM      9  C   UNL     1       0.580  -2.094   4.087  1.00  0.00     0.089 A 
ATOM     10  C   UNL     1       0.090  -1.134   4.963  1.00  0.00     0.069 A 
ATOM     11  C   UNL     1       0.472  -3.451   4.411  1.00  0.00     0.030 A 
ATOM     12  C   UNL     1      -0.525  -1.471   6.177  1.00  0.00     0.028 A 
ATOM     13  C   UNL     1      -0.148  -3.808   5.612  1.00  0.00     0.002 A 
ATOM     14  C   UNL     1      -0.640  -2.832   6.478  1.00  0.00     0.002 A 
BRANCH   7  15
ATOM     15  C   UNL     1       1.063   0.763   1.963  1.00  0.00     0.235 C 
BRANCH  15  16
ATOM     16  O   UNL     1       0.248   0.418   0.834  1.00  0.00    -0.377 OA
ATOM     17  C   UNL     1       0.892  -0.512  -0.035  1.00  0.00     0.195 C 
ENDBRANCH  15  16
ENDBRANCH   7  15
ENDBRANCH   5   6
ENDBRANCH   3   5
ENDBRANCH   2   3
ENDBRANCH   1   2
BRANCH   1  18
ATOM     18  C   UNL     1       3.204   4.335   3.959  1.00  0.00     0.275 C 
BRANCH  18  19
ATOM     19  O   UNL     1       2.071   5.146   3.614  1.00  0.00    -0.458 OA
BRANCH  19  20
ATOM     20  C   UNL     1       1.338   4.734   2.551  1.00  0.00     0.338 C 
ATOM     21  O   UNL     1       1.696   3.989   1.655  1.00  0.00    -0.246 OA
BRANCH  20  22
ATOM     22  C   UNL     1      -0.070   5.000   2.910  1.00  0.00     0.060 A 
ATOM     23  C   UNL     1      -0.439   6.120   3.659  1.00  0.00     0.016 A 
ATOM     24  C   UNL     1      -0.967   3.948   2.723  1.00  0.00     0.016 A 
ATOM     25  C   UNL     1      -1.649   6.106   4.343  1.00  0.00     0.010 A 
ATOM     26  C   UNL     1      -2.125   3.895   3.480  1.00  0.00     0.010 A 
ATOM     27  C   UNL     1      -2.451   4.957   4.318  1.00  0.00    -0.014 A 
BRANCH  27  28
ATOM     28  C   UNL     1      -3.787   5.003   4.894  1.00  0.00     0.031 A 
ATOM     29  C   UNL     1      -4.788   5.477   3.915  1.00  0.00     0.074 A 
ATOM     30  C   UNL     1      -4.207   4.602   6.107  1.00  0.00     0.049 A 
ATOM     31  N   UNL     1      -5.228   6.683   3.802  1.00  0.00    -0.248 NA
ATOM     32  C   UNL     1      -5.213   4.567   2.842  1.00  0.00     0.031 C 
ATOM     33  C   UNL     1      -3.519   3.791   7.109  1.00  0.00     0.029 A 
ATOM     34  N   UNL     1      -5.438   4.817   6.665  1.00  0.00    -0.354 N 
ATOM     35  C   UNL     1      -6.123   6.654   2.744  1.00  0.00     0.074 A 
ATOM     36  C   UNL     1      -5.922   5.396   2.075  1.00  0.00     0.031 C 
ATOM     37  C   UNL     1      -4.405   3.431   8.073  1.00  0.00     0.029 A 
ATOM     38  C   UNL     1      -5.666   4.123   7.842  1.00  0.00     0.049 A 
ATOM     39  H   UNL     1      -6.106   5.418   6.263  1.00  0.00     0.167 HD
ATOM     40  C   UNL     1      -7.128   7.564   2.655  1.00  0.00     0.031 A 
ATOM     41  C   UNL     1      -6.815   4.133   8.560  1.00  0.00     0.031 A 
ATOM     42  C   UNL     1      -6.964   8.620   3.622  1.00  0.00     0.049 A 
ATOM     43  C   UNL     1      -7.548   5.378   8.240  1.00  0.00     0.074 A 
ATOM     44  C   UNL     1      -6.104   9.682   3.796  1.00  0.00     0.029 A 
ATOM     45  N   UNL     1      -7.575   8.388   4.830  1.00  0.00    -0.354 N 
ATOM     46  N   UNL     1      -7.145   6.562   8.598  1.00  0.00    -0.248 NA
ATOM     47  C   UNL     1      -8.646   5.357   7.282  1.00  0.00     0.031 C 
ATOM     48  C   UNL     1      -6.031   9.898   5.203  1.00  0.00     0.029 A 
ATOM     49  C   UNL     1      -6.869   8.983   5.843  1.00  0.00     0.049 A 
ATOM     50  H   UNL     1      -8.402   7.868   4.950  1.00  0.00     0.167 HD
ATOM     51  C   UNL     1      -7.614   7.400   7.606  1.00  0.00     0.074 A 
ATOM     52  C   UNL     1      -8.676   6.651   6.951  1.00  0.00     0.031 C 
ATOM     53  C   UNL     1      -6.889   8.484   7.207  1.00  0.00     0.031 A 
BRANCH  40  54
ATOM     54  C   UNL     1      -8.469   7.284   2.026  1.00  0.00    -0.014 A 
ATOM     55  C   UNL     1      -8.930   5.999   1.685  1.00  0.00     0.009 A 
ATOM     56  C   UNL     1      -9.423   8.318   2.008  1.00  0.00     0.009 A 
ATOM     57  C   UNL     1     -10.266   5.750   1.361  1.00  0.00     0.001 A 
ATOM     58  C   UNL     1     -10.770   8.067   1.723  1.00  0.00     0.001 A 
ATOM     59  C   UNL     1     -11.191   6.781   1.403  1.00  0.00     0.000 A 
ENDBRANCH  40  54
BRANCH  41  60
ATOM     60  C   UNL     1      -7.437   3.113   9.428  1.00  0.00    -0.014 A 
ATOM     61  C   UNL     1      -7.346   1.755   9.083  1.00  0.00     0.009 A 
ATOM     62  C   UNL     1      -8.395   3.489  10.386  1.00  0.00     0.009 A 
ATOM     63  C   UNL     1      -8.232   0.817   9.624  1.00  0.00     0.001 A 
ATOM     64  C   UNL     1      -9.283   2.550  10.924  1.00  0.00     0.001 A 
ATOM     65  C   UNL     1      -9.215   1.218  10.525  1.00  0.00     0.000 A 
ENDBRANCH  41  60
BRANCH  53  66
ATOM     66  C   UNL     1      -5.880   9.053   8.174  1.00  0.00    -0.014 A 
ATOM     67  C   UNL     1      -5.961  10.423   8.473  1.00  0.00     0.009 A 
ATOM     68  C   UNL     1      -4.818   8.317   8.726  1.00  0.00     0.009 A 
ATOM     69  C   UNL     1      -5.011  11.041   9.287  1.00  0.00     0.001 A 
ATOM     70  C   UNL     1      -3.885   8.929   9.571  1.00  0.00     0.001 A 
ATOM     71  C   UNL     1      -3.978  10.292   9.843  1.00  0.00     0.000 A 
ENDBRANCH  53  66
ENDBRANCH  27  28
ENDBRANCH  20  22
ENDBRANCH  19  20
ENDBRANCH  18  19
ENDBRANCH   1  18
TORSDOF 14
