REMARK SMILES Cc1ccc(C(=O)OCCOC(=O)c2ccc(-c3c4nc(c(-c5ccccc5)c5ccc([nH]5)c(-c5ccccc5)c5nc(c(-c6ccccc6)c6ccc3[nH]6)C=C5)C=C4)cc2)c(Oc2cccc(F)c2C(N)=O)c1
REMARK SMILES IDX 9 1 8 2 6 3 7 4 5 5 1 6 2 7 3 8 74 9 4 10 62 11 63 12 64 13
REMARK SMILES IDX 65 14 70 15 66 16 68 17 67 18 69 19 71 20 72 21 73 22 10 25
REMARK SMILES IDX 11 26 12 27 13 28 14 29 15 30 61 31 16 32 60 33 17 34 18 35
REMARK SMILES IDX 19 36 54 37 20 38 59 39 53 40 55 41 21 42 58 43 52 44 51 45
REMARK SMILES IDX 22 47 44 48 29 49 43 50 30 51 33 52 42 53 56 54 31 55 32 56
REMARK SMILES IDX 41 58 57 59 34 60 23 61 24 62 28 63 25 64 27 65 26 66 45 67
REMARK SMILES IDX 46 68 50 69 47 70 49 71 48 72 35 73 36 74 40 75 37 76 39 77
REMARK SMILES IDX 38 78
REMARK H PARENT 72 23 72 24 55 46 33 57
REMARK Flexibility Score: inf
ROOT
ATOM      1  C   UNL     1      -4.483   1.563  -2.229  1.00  0.00     0.275 C 
ENDROOT
BRANCH   1   2
ATOM      2  O   UNL     1      -3.188   0.946  -2.080  1.00  0.00    -0.458 OA
BRANCH   2   3
ATOM      3  C   UNL     1      -2.604   1.309  -0.902  1.00  0.00     0.342 C 
ATOM      4  O   UNL     1      -3.150   2.040  -0.086  1.00  0.00    -0.246 OA
BRANCH   3   5
ATOM      5  C   UNL     1      -1.192   0.879  -0.729  1.00  0.00     0.102 A 
ATOM      6  C   UNL     1       2.970  -0.042  -0.021  1.00  0.00     0.044 C 
ATOM      7  C   UNL     1       1.523   0.269  -0.271  1.00  0.00    -0.047 A 
ATOM      8  C   UNL     1       0.668  -0.663  -0.883  1.00  0.00     0.004 A 
ATOM      9  C   UNL     1       1.002   1.494   0.148  1.00  0.00     0.051 A 
ATOM     10  C   UNL     1      -0.681  -0.355  -1.134  1.00  0.00     0.020 A 
ATOM     11  C   UNL     1      -0.338   1.794  -0.093  1.00  0.00     0.142 A 
BRANCH  11  12
ATOM     12  O   UNL     1      -0.883   2.961   0.370  1.00  0.00    -0.455 OA
BRANCH  12  13
ATOM     13  C   UNL     1      -0.410   4.176  -0.042  1.00  0.00     0.143 A 
ATOM     14  C   UNL     1      -0.682   5.174   0.907  1.00  0.00     0.048 A 
ATOM     15  C   UNL     1       0.243   4.509  -1.234  1.00  0.00     0.117 A 
ATOM     16  C   UNL     1      -0.222   6.473   0.731  1.00  0.00     0.007 A 
ATOM     17  C   UNL     1       0.731   5.809  -1.384  1.00  0.00     0.139 A 
ATOM     18  C   UNL     1       0.515   6.782  -0.406  1.00  0.00     0.040 A 
ATOM     19  F   UNL     1       1.391   6.174  -2.492  1.00  0.00    -0.206 F 
BRANCH  15  20
ATOM     20  C   UNL     1       0.432   3.598  -2.380  1.00  0.00     0.255 C 
ATOM     21  N   UNL     1      -0.696   3.032  -2.909  1.00  0.00    -0.365 N 
ATOM     22  O   UNL     1       1.537   3.377  -2.854  1.00  0.00    -0.269 OA
ATOM     23  H   UNL     1      -1.576   3.224  -2.511  1.00  0.00     0.159 HD
ATOM     24  H   UNL     1      -0.627   2.433  -3.687  1.00  0.00     0.159 HD
ENDBRANCH  15  20
ENDBRANCH  12  13
ENDBRANCH  11  12
ENDBRANCH   3   5
ENDBRANCH   2   3
ENDBRANCH   1   2
BRANCH   1  25
ATOM     25  C   UNL     1      -5.527   0.747  -2.999  1.00  0.00     0.275 C 
BRANCH  25  26
ATOM     26  O   UNL     1      -5.461  -0.703  -3.027  1.00  0.00    -0.458 OA
BRANCH  26  27
ATOM     27  C   UNL     1      -4.863  -1.535  -2.148  1.00  0.00     0.338 C 
ATOM     28  O   UNL     1      -4.351  -2.595  -2.499  1.00  0.00    -0.246 OA
BRANCH  27  29
ATOM     29  C   UNL     1      -4.835  -1.130  -0.738  1.00  0.00     0.060 A 
ATOM     30  C   UNL     1      -3.719  -1.489   0.039  1.00  0.00     0.016 A 
ATOM     31  C   UNL     1      -5.846  -0.320  -0.229  1.00  0.00     0.016 A 
ATOM     32  C   UNL     1      -3.566  -0.969   1.313  1.00  0.00     0.010 A 
ATOM     33  C   UNL     1      -5.638   0.302   0.974  1.00  0.00     0.010 A 
ATOM     34  C   UNL     1      -4.535  -0.076   1.759  1.00  0.00    -0.014 A 
BRANCH  34  35
ATOM     35  C   UNL     1      -4.744   0.184   3.168  1.00  0.00     0.031 A 
ATOM     36  C   UNL     1      -4.056   1.288   3.847  1.00  0.00     0.074 A 
ATOM     37  C   UNL     1      -5.755  -0.598   3.612  1.00  0.00     0.049 A 
ATOM     38  N   UNL     1      -3.895   1.366   5.120  1.00  0.00    -0.248 NA
ATOM     39  C   UNL     1      -3.409   2.397   3.143  1.00  0.00     0.031 C 
ATOM     40  C   UNL     1      -6.635  -0.531   4.758  1.00  0.00     0.029 A 
ATOM     41  N   UNL     1      -6.096  -1.822   3.018  1.00  0.00    -0.354 N 
ATOM     42  C   UNL     1      -3.571   2.682   5.387  1.00  0.00     0.074 A 
ATOM     43  C   UNL     1      -3.070   3.211   4.149  1.00  0.00     0.031 C 
ATOM     44  C   UNL     1      -7.169  -1.758   4.955  1.00  0.00     0.029 A 
ATOM     45  C   UNL     1      -6.529  -2.680   4.014  1.00  0.00     0.049 A 
ATOM     46  H   UNL     1      -6.038  -2.034   2.058  1.00  0.00     0.167 HD
ATOM     47  C   UNL     1      -4.037   3.241   6.540  1.00  0.00     0.031 A 
ATOM     48  C   UNL     1      -5.675  -3.696   4.348  1.00  0.00     0.031 A 
ATOM     49  C   UNL     1      -4.741   2.224   7.319  1.00  0.00     0.049 A 
ATOM     50  C   UNL     1      -5.093  -3.423   5.715  1.00  0.00     0.074 A 
ATOM     51  C   UNL     1      -6.089   1.919   7.417  1.00  0.00     0.029 A 
ATOM     52  N   UNL     1      -4.045   1.100   7.747  1.00  0.00    -0.354 N 
ATOM     53  N   UNL     1      -4.779  -2.235   6.164  1.00  0.00    -0.248 NA
ATOM     54  C   UNL     1      -4.954  -4.471   6.718  1.00  0.00     0.031 C 
ATOM     55  C   UNL     1      -6.192   0.554   7.802  1.00  0.00     0.029 A 
ATOM     56  C   UNL     1      -4.912   0.037   7.921  1.00  0.00     0.049 A 
ATOM     57  H   UNL     1      -3.074   1.065   7.904  1.00  0.00     0.167 HD
ATOM     58  C   UNL     1      -4.550  -2.325   7.512  1.00  0.00     0.074 A 
ATOM     59  C   UNL     1      -4.615  -3.750   7.799  1.00  0.00     0.031 C 
ATOM     60  C   UNL     1      -4.398  -1.254   8.344  1.00  0.00     0.031 A 
BRANCH  47  61
ATOM     61  C   UNL     1      -4.204   4.726   6.779  1.00  0.00    -0.014 A 
ATOM     62  C   UNL     1      -5.175   5.155   7.707  1.00  0.00     0.009 A 
ATOM     63  C   UNL     1      -3.498   5.745   6.119  1.00  0.00     0.009 A 
ATOM     64  C   UNL     1      -5.473   6.508   7.916  1.00  0.00     0.001 A 
ATOM     65  C   UNL     1      -3.799   7.105   6.314  1.00  0.00     0.001 A 
ATOM     66  C   UNL     1      -4.792   7.486   7.208  1.00  0.00     0.000 A 
ENDBRANCH  47  61
BRANCH  48  67
ATOM     67  C   UNL     1      -4.929  -4.301   3.183  1.00  0.00    -0.014 A 
ATOM     68  C   UNL     1      -5.674  -4.761   2.068  1.00  0.00     0.009 A 
ATOM     69  C   UNL     1      -3.539  -4.209   3.029  1.00  0.00     0.009 A 
ATOM     70  C   UNL     1      -5.072  -5.015   0.828  1.00  0.00     0.001 A 
ATOM     71  C   UNL     1      -2.931  -4.494   1.790  1.00  0.00     0.001 A 
ATOM     72  C   UNL     1      -3.698  -4.870   0.686  1.00  0.00     0.000 A 
ENDBRANCH  48  67
BRANCH  60  73
ATOM     73  C   UNL     1      -3.804  -1.332   9.722  1.00  0.00    -0.014 A 
ATOM     74  C   UNL     1      -2.925  -2.345  10.119  1.00  0.00     0.009 A 
ATOM     75  C   UNL     1      -3.972  -0.242  10.605  1.00  0.00     0.009 A 
ATOM     76  C   UNL     1      -2.291  -2.301  11.362  1.00  0.00     0.001 A 
ATOM     77  C   UNL     1      -3.288  -0.161  11.815  1.00  0.00     0.001 A 
ATOM     78  C   UNL     1      -2.460  -1.204  12.202  1.00  0.00     0.000 A 
ENDBRANCH  60  73
ENDBRANCH  34  35
ENDBRANCH  27  29
ENDBRANCH  26  27
ENDBRANCH  25  26
ENDBRANCH   1  25
TORSDOF 14
