REMARK SMILES C[C@@H](NC(=O)CNC(=O)N1CC(=O)Nc2ccccc21)C(=O)OCCOC(=O)c1ccc(-c2c3nc(c(-c4ccccc4)c4ccc([nH]4)c(-c4ccccc4)c4nc(c(-c5ccccc5)c5ccc2[nH]5)C=C4)C=C3)cc1
REMARK SMILES IDX 24 1 23 2 21 3 22 4 2 5 1 6 3 7 4 8 5 10 6 11 7 12 8 13 9 15
REMARK SMILES IDX 10 16 11 17 20 18 12 19 15 20 19 21 13 22 14 23 16 24 18 25
REMARK SMILES IDX 17 27 25 28 26 29 27 30 28 31 29 32 30 33 76 34 31 35 75 36
REMARK SMILES IDX 32 37 33 38 34 39 69 40 35 41 74 42 68 43 70 44 36 45 73 46
REMARK SMILES IDX 67 47 66 48 37 50 59 51 44 52 58 53 45 54 48 55 57 56 71 57
REMARK SMILES IDX 46 58 47 59 56 61 72 62 49 63 38 64 39 65 43 66 40 67 42 68
REMARK SMILES IDX 41 69 60 70 61 71 65 72 62 73 64 74 63 75 50 76 51 77 55 78
REMARK SMILES IDX 52 79 54 80 53 81
REMARK H PARENT 3 9 7 14 14 26 70 49 48 60
REMARK Flexibility Score: inf
ROOT
ATOM      1  C   UNL     1      -3.434   1.941   0.382  1.00  0.00     0.274 C 
ENDROOT
BRANCH   1   2
ATOM      2  O   UNL     1      -2.351   3.077   1.089  1.00  0.00    -0.461 OA
BRANCH   2   3
ATOM      3  C   UNL     1      -1.264   3.248   2.005  1.00  0.00     0.328 C 
ATOM      4  O   UNL     1      -1.498   3.762   3.107  1.00  0.00    -0.250 OA
BRANCH   3   5
ATOM      5  C   UNL     1       0.317   3.177   1.601  1.00  0.00     0.189 C 
ATOM      6  C   UNL     1       1.325   2.019   1.362  1.00  0.00     0.043 C 
BRANCH   5   7
ATOM      7  N   UNL     1       0.494   4.108   0.535  1.00  0.00    -0.341 N 
ATOM      8  C   UNL     1      -0.021   3.857  -0.697  1.00  0.00     0.240 C 
ATOM      9  H   UNL     1       0.994   4.941   0.694  1.00  0.00     0.164 HD
ATOM     10  O   UNL     1       0.200   4.663  -1.599  1.00  0.00    -0.273 OA
BRANCH   8  11
ATOM     11  C   UNL     1      -1.024   2.659  -0.859  1.00  0.00     0.218 C 
BRANCH  11  12
ATOM     12  N   UNL     1      -1.029   1.414   0.191  1.00  0.00    -0.329 N 
ATOM     13  C   UNL     1      -1.353   0.679   1.323  1.00  0.00     0.322 C 
ATOM     14  H   UNL     1      -0.416   0.790  -0.262  1.00  0.00     0.165 HD
ATOM     15  O   UNL     1      -0.428  -0.104   1.313  1.00  0.00    -0.248 OA
BRANCH  13  16
ATOM     16  N   UNL     1      -2.434   0.579   2.260  1.00  0.00    -0.283 N 
ATOM     17  C   UNL     1      -3.168   1.554   3.191  1.00  0.00     0.227 C 
ATOM     18  C   UNL     1      -2.870  -0.740   2.878  1.00  0.00     0.070 A 
ATOM     19  C   UNL     1      -2.656   1.465   4.632  1.00  0.00     0.244 C 
ATOM     20  C   UNL     1      -2.803  -0.898   4.281  1.00  0.00     0.065 A 
ATOM     21  C   UNL     1      -3.713  -1.681   2.247  1.00  0.00     0.028 A 
ATOM     22  O   UNL     1      -2.693   2.388   5.441  1.00  0.00    -0.273 OA
ATOM     23  N   UNL     1      -2.445   0.186   5.080  1.00  0.00    -0.323 N 
ATOM     24  C   UNL     1      -3.289  -2.036   4.953  1.00  0.00     0.028 A 
ATOM     25  C   UNL     1      -4.257  -2.800   2.912  1.00  0.00     0.002 A 
ATOM     26  H   UNL     1      -2.042   0.034   5.965  1.00  0.00     0.170 HD
ATOM     27  C   UNL     1      -4.012  -2.999   4.260  1.00  0.00     0.002 A 
ENDBRANCH  13  16
ENDBRANCH  11  12
ENDBRANCH   8  11
ENDBRANCH   5   7
ENDBRANCH   3   5
ENDBRANCH   2   3
ENDBRANCH   1   2
BRANCH   1  28
ATOM     28  C   UNL     1      -3.317   0.270  -0.252  1.00  0.00     0.275 C 
BRANCH  28  29
ATOM     29  O   UNL     1      -2.302  -1.097  -0.091  1.00  0.00    -0.458 OA
BRANCH  29  30
ATOM     30  C   UNL     1      -1.454  -2.163   0.323  1.00  0.00     0.338 C 
ATOM     31  O   UNL     1      -1.257  -3.048  -0.522  1.00  0.00    -0.246 OA
BRANCH  30  32
ATOM     32  C   UNL     1      -0.792  -2.551   1.762  1.00  0.00     0.060 A 
ATOM     33  C   UNL     1       0.366  -1.975   2.354  1.00  0.00     0.016 A 
ATOM     34  C   UNL     1      -1.260  -3.628   2.515  1.00  0.00     0.016 A 
ATOM     35  C   UNL     1       0.737  -2.097   3.719  1.00  0.00     0.010 A 
ATOM     36  C   UNL     1      -0.833  -3.845   3.873  1.00  0.00     0.010 A 
ATOM     37  C   UNL     1       0.129  -3.035   4.531  1.00  0.00    -0.014 A 
BRANCH  37  38
ATOM     38  C   UNL     1       0.709  -3.338   5.902  1.00  0.00     0.031 A 
ATOM     39  C   UNL     1       1.298  -4.715   6.116  1.00  0.00     0.074 A 
ATOM     40  C   UNL     1       0.820  -2.472   6.943  1.00  0.00     0.049 A 
ATOM     41  N   UNL     1       1.718  -5.294   7.215  1.00  0.00    -0.248 NA
ATOM     42  C   UNL     1       1.383  -5.565   4.922  1.00  0.00     0.031 C 
ATOM     43  C   UNL     1       0.393  -1.073   6.968  1.00  0.00     0.029 A 
ATOM     44  N   UNL     1       1.349  -2.659   8.214  1.00  0.00    -0.354 N 
ATOM     45  C   UNL     1       2.029  -6.597   6.848  1.00  0.00     0.074 A 
ATOM     46  C   UNL     1       1.668  -6.739   5.455  1.00  0.00     0.031 C 
ATOM     47  C   UNL     1       0.661  -0.540   8.179  1.00  0.00     0.029 A 
ATOM     48  C   UNL     1       1.285  -1.550   9.035  1.00  0.00     0.049 A 
ATOM     49  H   UNL     1       1.739  -3.514   8.506  1.00  0.00     0.167 HD
ATOM     50  C   UNL     1       2.618  -7.588   7.558  1.00  0.00     0.031 A 
ATOM     51  C   UNL     1       1.683  -1.358  10.316  1.00  0.00     0.031 A 
ATOM     52  C   UNL     1       3.116  -7.467   8.897  1.00  0.00     0.049 A 
ATOM     53  C   UNL     1       2.354  -2.471  11.098  1.00  0.00     0.074 A 
ATOM     54  C   UNL     1       3.778  -8.418   9.655  1.00  0.00     0.029 A 
ATOM     55  N   UNL     1       3.053  -6.317   9.661  1.00  0.00    -0.354 N 
ATOM     56  N   UNL     1       2.640  -3.693  10.723  1.00  0.00    -0.248 NA
ATOM     57  C   UNL     1       2.778  -2.163  12.479  1.00  0.00     0.031 C 
ATOM     58  C   UNL     1       4.103  -7.846  10.889  1.00  0.00     0.029 A 
ATOM     59  C   UNL     1       3.673  -6.531  10.880  1.00  0.00     0.049 A 
ATOM     60  H   UNL     1       2.630  -5.473   9.381  1.00  0.00     0.167 HD
ATOM     61  C   UNL     1       3.312  -4.275  11.797  1.00  0.00     0.074 A 
ATOM     62  C   UNL     1       3.404  -3.276  12.836  1.00  0.00     0.031 C 
ATOM     63  C   UNL     1       3.808  -5.532  11.905  1.00  0.00     0.031 A 
BRANCH  50  64
ATOM     64  C   UNL     1       2.777  -8.904   6.855  1.00  0.00    -0.014 A 
ATOM     65  C   UNL     1       3.679  -9.052   5.788  1.00  0.00     0.009 A 
ATOM     66  C   UNL     1       1.986  -9.996   7.240  1.00  0.00     0.009 A 
ATOM     67  C   UNL     1       3.732 -10.247   5.073  1.00  0.00     0.001 A 
ATOM     68  C   UNL     1       2.073 -11.204   6.550  1.00  0.00     0.001 A 
ATOM     69  C   UNL     1       2.931 -11.322   5.456  1.00  0.00     0.000 A 
ENDBRANCH  50  64
BRANCH  51  70
ATOM     70  C   UNL     1       1.488  -0.044  11.004  1.00  0.00    -0.014 A 
ATOM     71  C   UNL     1       2.592   0.768  11.323  1.00  0.00     0.009 A 
ATOM     72  C   UNL     1       0.220   0.340  11.465  1.00  0.00     0.009 A 
ATOM     73  C   UNL     1       2.436   1.907  12.120  1.00  0.00     0.001 A 
ATOM     74  C   UNL     1       0.062   1.495  12.239  1.00  0.00     0.001 A 
ATOM     75  C   UNL     1       1.171   2.270  12.578  1.00  0.00     0.000 A 
ENDBRANCH  51  70
BRANCH  63  76
ATOM     76  C   UNL     1       4.564  -5.898  13.153  1.00  0.00    -0.014 A 
ATOM     77  C   UNL     1       3.910  -6.099  14.379  1.00  0.00     0.009 A 
ATOM     78  C   UNL     1       5.951  -6.112  13.084  1.00  0.00     0.009 A 
ATOM     79  C   UNL     1       4.633  -6.481  15.513  1.00  0.00     0.001 A 
ATOM     80  C   UNL     1       6.667  -6.519  14.212  1.00  0.00     0.001 A 
ATOM     81  C   UNL     1       6.009  -6.696  15.428  1.00  0.00     0.000 A 
ENDBRANCH  63  76
ENDBRANCH  37  38
ENDBRANCH  30  32
ENDBRANCH  29  30
ENDBRANCH  28  29
ENDBRANCH   1  28
TORSDOF 15
