REMARK SMILES CC1(C)C(n2c(SCC(=O)OCCOC(=O)c3ccc(-c4c5nc(c(-c6ccccc6)c6ccc([nH]6)c(-c6ccccc6)c6nc(c(-c7ccccc7)c7ccc4[nH]7)C=C6)C=C5)cc3)nc3cnccc32)C1(C)C
REMARK SMILES IDX 12 1 11 2 9 3 10 4 8 5 7 6 6 7 5 8 71 9 65 10 66 11 70 12
REMARK SMILES IDX 67 13 69 14 68 15 4 16 1 17 2 18 3 19 72 20 73 21 74 22
REMARK SMILES IDX 13 23 14 24 15 25 16 26 17 27 18 28 64 29 19 30 63 31 20 32
REMARK SMILES IDX 21 33 22 34 57 35 23 36 62 37 56 38 58 39 24 40 61 41 55 42
REMARK SMILES IDX 54 43 25 45 47 46 32 47 46 48 33 49 36 50 45 51 59 52 34 53
REMARK SMILES IDX 35 54 44 56 60 57 37 58 26 59 27 60 31 61 28 62 30 63 29 64
REMARK SMILES IDX 48 65 49 66 53 67 50 68 52 69 51 70 38 71 39 72 43 73 40 74
REMARK SMILES IDX 42 75 41 76
REMARK H PARENT 58 44 36 55
REMARK Flexibility Score: inf
ROOT
ATOM      1  C   UNL     1      -4.258  -2.614  -0.909  1.00  0.00     0.274 C 
ENDROOT
BRANCH   1   2
ATOM      2  O   UNL     1      -4.103  -2.638   0.528  1.00  0.00    -0.461 OA
BRANCH   2   3
ATOM      3  C   UNL     1      -3.586  -3.745   1.121  1.00  0.00     0.316 C 
ATOM      4  O   UNL     1      -3.157  -4.719   0.508  1.00  0.00    -0.251 OA
BRANCH   3   5
ATOM      5  C   UNL     1      -3.503  -3.636   2.628  1.00  0.00     0.200 C 
BRANCH   5   6
ATOM      6  S   UNL     1      -4.332  -2.256   3.366  1.00  0.00    -0.076 SA
BRANCH   6   7
ATOM      7  C   UNL     1      -3.106  -1.100   3.873  1.00  0.00     0.169 A 
ATOM      8  N   UNL     1      -2.002  -0.582   3.163  1.00  0.00    -0.315 N 
ATOM      9  C   UNL     1      -2.205   0.795   3.205  1.00  0.00     0.072 A 
ATOM     10  N   UNL     1      -3.515  -0.222   4.766  1.00  0.00    -0.221 NA
ATOM     11  C   UNL     1      -3.146   0.974   4.225  1.00  0.00     0.108 A 
ATOM     12  C   UNL     1      -1.754   1.887   2.465  1.00  0.00     0.049 A 
ATOM     13  C   UNL     1      -3.652   2.251   4.492  1.00  0.00     0.141 A 
ATOM     14  C   UNL     1      -2.333   3.112   2.784  1.00  0.00     0.113 A 
ATOM     15  N   UNL     1      -3.243   3.316   3.761  1.00  0.00    -0.262 NA
BRANCH   8  16
ATOM     16  C   UNL     1      -1.236  -1.324   2.113  1.00  0.00     0.102 C 
ATOM     17  C   UNL     1       0.938  -1.544  -0.778  1.00  0.00     0.014 C 
ATOM     18  C   UNL     1       0.310  -1.204   1.311  1.00  0.00    -0.007 C 
ATOM     19  C   UNL     1       1.064   0.111   2.320  1.00  0.00     0.014 C 
ATOM     20  C   UNL     1      -0.140  -2.305   2.589  1.00  0.00    -0.007 C 
ATOM     21  C   UNL     1      -0.365  -3.814   2.619  1.00  0.00     0.014 C 
ATOM     22  C   UNL     1       0.475  -2.098   4.017  1.00  0.00     0.014 C 
ENDBRANCH   8  16
ENDBRANCH   6   7
ENDBRANCH   5   6
ENDBRANCH   3   5
ENDBRANCH   2   3
ENDBRANCH   1   2
BRANCH   1  23
ATOM     23  C   UNL     1      -4.082  -1.151  -1.402  1.00  0.00     0.275 C 
BRANCH  23  24
ATOM     24  O   UNL     1      -2.673  -0.827  -1.585  1.00  0.00    -0.458 OA
BRANCH  24  25
ATOM     25  C   UNL     1      -2.055   0.168  -0.877  1.00  0.00     0.338 C 
ATOM     26  O   UNL     1      -2.547   1.193  -0.455  1.00  0.00    -0.246 OA
BRANCH  25  27
ATOM     27  C   UNL     1      -0.756  -0.413  -0.435  1.00  0.00     0.060 A 
ATOM     28  C   UNL     1       0.857   0.328  -0.047  1.00  0.00     0.016 A 
ATOM     29  C   UNL     1      -0.960  -2.175  -0.283  1.00  0.00     0.016 A 
ATOM     30  C   UNL     1       2.228  -0.789   0.538  1.00  0.00     0.010 A 
ATOM     31  C   UNL     1       0.337  -3.208   0.232  1.00  0.00     0.010 A 
ATOM     32  C   UNL     1       1.897  -2.588   0.742  1.00  0.00    -0.014 A 
BRANCH  32  33
ATOM     33  C   UNL     1       2.790  -3.659   1.288  1.00  0.00     0.031 A 
ATOM     34  C   UNL     1       4.045  -3.053   1.750  1.00  0.00     0.074 A 
ATOM     35  C   UNL     1       2.563  -5.011   1.484  1.00  0.00     0.049 A 
ATOM     36  N   UNL     1       5.093  -2.978   1.003  1.00  0.00    -0.248 NA
ATOM     37  C   UNL     1       4.135  -2.255   2.980  1.00  0.00     0.031 C 
ATOM     38  C   UNL     1       1.383  -5.871   1.200  1.00  0.00     0.029 A 
ATOM     39  N   UNL     1       3.362  -5.956   2.110  1.00  0.00    -0.354 N 
ATOM     40  C   UNL     1       6.064  -2.404   1.794  1.00  0.00     0.074 A 
ATOM     41  C   UNL     1       5.367  -1.748   2.867  1.00  0.00     0.031 C 
ATOM     42  C   UNL     1       1.409  -7.036   1.877  1.00  0.00     0.029 A 
ATOM     43  C   UNL     1       2.723  -7.169   2.441  1.00  0.00     0.049 A 
ATOM     44  H   UNL     1       4.312  -5.791   2.309  1.00  0.00     0.167 HD
ATOM     45  C   UNL     1       7.351  -2.818   1.666  1.00  0.00     0.031 A 
ATOM     46  C   UNL     1       3.226  -8.395   2.739  1.00  0.00     0.031 A 
ATOM     47  C   UNL     1       7.493  -3.684   0.515  1.00  0.00     0.049 A 
ATOM     48  C   UNL     1       4.557  -8.446   2.137  1.00  0.00     0.074 A 
ATOM     49  C   UNL     1       7.492  -3.490  -0.850  1.00  0.00     0.029 A 
ATOM     50  N   UNL     1       7.129  -4.994   0.741  1.00  0.00    -0.354 N 
ATOM     51  N   UNL     1       4.749  -8.467   0.852  1.00  0.00    -0.248 NA
ATOM     52  C   UNL     1       5.689  -8.058   2.958  1.00  0.00     0.031 C 
ATOM     53  C   UNL     1       6.944  -4.672  -1.424  1.00  0.00     0.029 A 
ATOM     54  C   UNL     1       6.712  -5.606  -0.417  1.00  0.00     0.049 A 
ATOM     55  H   UNL     1       7.164  -5.435   1.621  1.00  0.00     0.167 HD
ATOM     56  C   UNL     1       5.844  -7.646   0.687  1.00  0.00     0.074 A 
ATOM     57  C   UNL     1       6.478  -7.567   2.000  1.00  0.00     0.031 C 
ATOM     58  C   UNL     1       5.957  -6.843  -0.405  1.00  0.00     0.031 A 
BRANCH  45  59
ATOM     59  C   UNL     1       8.357  -2.791   2.778  1.00  0.00    -0.014 A 
ATOM     60  C   UNL     1       8.011  -2.684   4.139  1.00  0.00     0.009 A 
ATOM     61  C   UNL     1       9.698  -3.082   2.485  1.00  0.00     0.009 A 
ATOM     62  C   UNL     1       8.958  -2.812   5.157  1.00  0.00     0.001 A 
ATOM     63  C   UNL     1      10.645  -3.244   3.504  1.00  0.00     0.001 A 
ATOM     64  C   UNL     1      10.276  -3.100   4.838  1.00  0.00     0.000 A 
ENDBRANCH  45  59
BRANCH  46  65
ATOM     65  C   UNL     1       2.782  -9.420   3.714  1.00  0.00    -0.014 A 
ATOM     66  C   UNL     1       2.150  -9.025   4.904  1.00  0.00     0.009 A 
ATOM     67  C   UNL     1       3.286 -10.733   3.644  1.00  0.00     0.009 A 
ATOM     68  C   UNL     1       2.126  -9.872   6.022  1.00  0.00     0.001 A 
ATOM     69  C   UNL     1       3.257 -11.580   4.761  1.00  0.00     0.001 A 
ATOM     70  C   UNL     1       2.706 -11.137   5.960  1.00  0.00     0.000 A 
ENDBRANCH  46  65
BRANCH  58  71
ATOM     71  C   UNL     1       5.148  -7.186  -1.632  1.00  0.00    -0.014 A 
ATOM     72  C   UNL     1       5.859  -7.489  -2.802  1.00  0.00     0.009 A 
ATOM     73  C   UNL     1       3.748  -7.098  -1.712  1.00  0.00     0.009 A 
ATOM     74  C   UNL     1       5.205  -7.648  -4.025  1.00  0.00     0.001 A 
ATOM     75  C   UNL     1       3.087  -7.278  -2.936  1.00  0.00     0.001 A 
ATOM     76  C   UNL     1       3.819  -7.536  -4.094  1.00  0.00     0.000 A 
ENDBRANCH  58  71
ENDBRANCH  32  33
ENDBRANCH  25  27
ENDBRANCH  24  25
ENDBRANCH  23  24
ENDBRANCH   1  23
TORSDOF 14
