REMARK SMILES O=C(/C=C/c1cccs1)NCC(=O)OCCOC(=O)c1ccc(-c2c3nc(c(-c4ccccc4)c4ccc([nH]4)c(-c4ccccc4)c4nc(c(-c5ccccc5)c5ccc2[nH]5)C=C4)C=C3)cc1
REMARK SMILES IDX 15 1 14 2 12 3 13 4 11 5 10 6 1 7 2 8 3 10 4 11 5 12 6 13
REMARK SMILES IDX 9 14 7 15 8 16 16 17 17 18 18 19 19 20 20 21 21 22 67 23
REMARK SMILES IDX 22 24 66 25 23 26 24 27 25 28 60 29 26 30 65 31 59 32 61 33
REMARK SMILES IDX 27 34 64 35 58 36 57 37 28 39 50 40 35 41 49 42 36 43 39 44
REMARK SMILES IDX 48 45 62 46 37 47 38 48 47 50 63 51 40 52 29 53 30 54 34 55
REMARK SMILES IDX 31 56 33 57 32 58 51 59 52 60 56 61 53 62 55 63 54 64 41 65
REMARK SMILES IDX 42 66 46 67 43 68 45 69 44 70
REMARK H PARENT 10 9 61 38 39 49
REMARK Flexibility Score: inf
ROOT
ATOM      1  C   UNL     1       2.840  -0.093  -5.124  1.00  0.00     0.274 C 
ENDROOT
BRANCH   1   2
ATOM      2  O   UNL     1       2.439  -0.141  -3.744  1.00  0.00    -0.461 OA
BRANCH   2   3
ATOM      3  C   UNL     1       1.716  -1.225  -3.351  1.00  0.00     0.325 C 
ATOM      4  O   UNL     1       1.266  -2.079  -4.106  1.00  0.00    -0.250 OA
BRANCH   3   5
ATOM      5  C   UNL     1       1.484  -1.241  -1.846  1.00  0.00     0.239 C 
BRANCH   5   6
ATOM      6  N   UNL     1       2.370  -0.387  -1.067  1.00  0.00    -0.342 N 
ATOM      7  O   UNL     1       0.736   0.224   0.401  1.00  0.00    -0.270 OA
ATOM      8  C   UNL     1       1.911   0.250   0.048  1.00  0.00     0.244 C 
ATOM      9  H   UNL     1       3.307  -0.270  -1.346  1.00  0.00     0.164 HD
BRANCH   8  10
ATOM     10  C   UNL     1       2.882   0.992   0.887  1.00  0.00     0.072 C 
ATOM     11  C   UNL     1       4.218   1.030   0.784  1.00  0.00     0.024 C 
BRANCH  11  12
ATOM     12  C   UNL     1       4.991   1.754   1.745  1.00  0.00     0.027 A 
ATOM     13  C   UNL     1       4.723   2.037   3.077  1.00  0.00     0.020 A 
ATOM     14  S   UNL     1       6.521   2.410   1.298  1.00  0.00    -0.144 S 
ATOM     15  C   UNL     1       5.738   2.814   3.706  1.00  0.00     0.012 A 
ATOM     16  C   UNL     1       6.769   3.098   2.843  1.00  0.00     0.065 A 
ENDBRANCH  11  12
ENDBRANCH   8  10
ENDBRANCH   5   6
ENDBRANCH   3   5
ENDBRANCH   2   3
ENDBRANCH   1   2
BRANCH   1  17
ATOM     17  C   UNL     1       4.356  -0.273  -5.232  1.00  0.00     0.275 C 
BRANCH  17  18
ATOM     18  O   UNL     1       4.762  -1.614  -4.892  1.00  0.00    -0.458 OA
BRANCH  18  19
ATOM     19  C   UNL     1       4.949  -1.855  -3.572  1.00  0.00     0.338 C 
ATOM     20  O   UNL     1       4.832  -1.065  -2.648  1.00  0.00    -0.246 OA
BRANCH  19  21
ATOM     21  C   UNL     1       5.179  -3.296  -3.361  1.00  0.00     0.060 A 
ATOM     22  C   UNL     1       4.431  -3.931  -2.366  1.00  0.00     0.016 A 
ATOM     23  C   UNL     1       6.142  -4.008  -4.084  1.00  0.00     0.016 A 
ATOM     24  C   UNL     1       4.648  -5.276  -2.081  1.00  0.00     0.010 A 
ATOM     25  C   UNL     1       6.359  -5.361  -3.796  1.00  0.00     0.010 A 
ATOM     26  C   UNL     1       5.621  -5.999  -2.785  1.00  0.00    -0.014 A 
BRANCH  26  27
ATOM     27  C   UNL     1       5.867  -7.415  -2.424  1.00  0.00     0.031 A 
ATOM     28  C   UNL     1       7.070  -7.791  -1.607  1.00  0.00     0.074 A 
ATOM     29  C   UNL     1       4.976  -8.358  -2.783  1.00  0.00     0.049 A 
ATOM     30  N   UNL     1       7.427  -8.967  -1.157  1.00  0.00    -0.248 NA
ATOM     31  C   UNL     1       7.991  -6.702  -1.248  1.00  0.00     0.031 C 
ATOM     32  C   UNL     1       3.754  -8.115  -3.551  1.00  0.00     0.029 A 
ATOM     33  N   UNL     1       4.955  -9.706  -2.534  1.00  0.00    -0.354 N 
ATOM     34  C   UNL     1       8.615  -8.764  -0.468  1.00  0.00     0.074 A 
ATOM     35  C   UNL     1       8.931  -7.355  -0.580  1.00  0.00     0.031 C 
ATOM     36  C   UNL     1       3.091  -9.275  -3.693  1.00  0.00     0.029 A 
ATOM     37  C   UNL     1       3.856 -10.343  -3.056  1.00  0.00     0.049 A 
ATOM     38  H   UNL     1       5.660 -10.173  -2.029  1.00  0.00     0.167 HD
ATOM     39  C   UNL     1       9.372  -9.666   0.201  1.00  0.00     0.031 A 
ATOM     40  C   UNL     1       3.507 -11.643  -3.030  1.00  0.00     0.031 A 
ATOM     41  C   UNL     1       9.065 -11.068   0.309  1.00  0.00     0.049 A 
ATOM     42  C   UNL     1       4.388 -12.631  -2.319  1.00  0.00     0.074 A 
ATOM     43  C   UNL     1       9.766 -12.056   0.979  1.00  0.00     0.029 A 
ATOM     44  N   UNL     1       7.966 -11.682  -0.272  1.00  0.00    -0.354 N 
ATOM     45  N   UNL     1       5.499 -12.419  -1.656  1.00  0.00    -0.248 NA
ATOM     46  C   UNL     1       3.962 -14.037  -2.350  1.00  0.00     0.031 C 
ATOM     47  C   UNL     1       9.116 -13.277   0.765  1.00  0.00     0.029 A 
ATOM     48  C   UNL     1       7.983 -13.040   0.004  1.00  0.00     0.049 A 
ATOM     49  H   UNL     1       7.276 -11.222  -0.802  1.00  0.00     0.167 HD
ATOM     50  C   UNL     1       5.894 -13.660  -1.176  1.00  0.00     0.074 A 
ATOM     51  C   UNL     1       4.895 -14.616  -1.608  1.00  0.00     0.031 C 
ATOM     52  C   UNL     1       6.988 -13.980  -0.442  1.00  0.00     0.031 A 
BRANCH  39  53
ATOM     53  C   UNL     1      10.633  -9.163   0.845  1.00  0.00    -0.014 A 
ATOM     54  C   UNL     1      10.595  -8.386   2.013  1.00  0.00     0.009 A 
ATOM     55  C   UNL     1      11.878  -9.499   0.291  1.00  0.00     0.009 A 
ATOM     56  C   UNL     1      11.780  -7.929   2.596  1.00  0.00     0.001 A 
ATOM     57  C   UNL     1      13.061  -9.061   0.889  1.00  0.00     0.001 A 
ATOM     58  C   UNL     1      13.011  -8.270   2.035  1.00  0.00     0.000 A 
ENDBRANCH  39  53
BRANCH  40  59
ATOM     59  C   UNL     1       2.263 -12.087  -3.709  1.00  0.00    -0.014 A 
ATOM     60  C   UNL     1       1.148 -12.498  -2.964  1.00  0.00     0.009 A 
ATOM     61  C   UNL     1       2.189 -12.102  -5.110  1.00  0.00     0.009 A 
ATOM     62  C   UNL     1      -0.011 -12.933  -3.610  1.00  0.00     0.001 A 
ATOM     63  C   UNL     1       1.020 -12.513  -5.753  1.00  0.00     0.001 A 
ATOM     64  C   UNL     1      -0.076 -12.935  -5.003  1.00  0.00     0.000 A 
ENDBRANCH  40  59
BRANCH  52  65
ATOM     65  C   UNL     1       7.146 -15.420  -0.046  1.00  0.00    -0.014 A 
ATOM     66  C   UNL     1       7.524 -16.394  -0.983  1.00  0.00     0.009 A 
ATOM     67  C   UNL     1       6.932 -15.804   1.287  1.00  0.00     0.009 A 
ATOM     68  C   UNL     1       7.649 -17.731  -0.600  1.00  0.00     0.001 A 
ATOM     69  C   UNL     1       7.082 -17.137   1.672  1.00  0.00     0.001 A 
ATOM     70  C   UNL     1       7.431 -18.100   0.727  1.00  0.00     0.000 A 
ENDBRANCH  52  65
ENDBRANCH  26  27
ENDBRANCH  19  21
ENDBRANCH  18  19
ENDBRANCH  17  18
ENDBRANCH   1  17
TORSDOF 14
