REMARK SMILES Cc1ccc(S(=O)(=O)N(CC(=O)OCCOC(=O)c2ccc(-c3c4nc(c(-c5ccccc5)c5ccc([nH]5)c(-c5ccccc5)c5nc(c(-c6ccccc6)c6ccc3[nH]6)C=C5)C=C4)cc2)c2cc(Cl)cc(Cl)c2)cc1
REMARK SMILES IDX 14 1 13 2 11 3 12 4 10 5 9 6 6 7 7 8 8 9 5 10 1 11 2 12 3 13
REMARK SMILES IDX 76 14 4 15 75 16 67 17 68 18 74 19 69 20 72 21 70 22 71 23
REMARK SMILES IDX 73 24 15 25 16 26 17 27 18 28 19 29 20 30 66 31 21 32 65 33
REMARK SMILES IDX 22 34 23 35 24 36 59 37 25 38 64 39 58 40 60 41 26 42 63 43
REMARK SMILES IDX 57 44 56 45 27 47 49 48 34 49 48 50 35 51 38 52 47 53 61 54
REMARK SMILES IDX 36 55 37 56 46 58 62 59 39 60 28 61 29 62 33 63 30 64 32 65
REMARK SMILES IDX 31 66 50 67 51 68 55 69 52 70 54 71 53 72 40 73 41 74 45 75
REMARK SMILES IDX 42 76 44 77 43 78
REMARK H PARENT 60 46 38 57
REMARK Flexibility Score: inf
ROOT
ATOM      1  C   UNL     1      -4.824   3.259  -4.555  1.00  0.00     0.274 C 
ENDROOT
BRANCH   1   2
ATOM      2  O   UNL     1      -4.147   2.614  -3.478  1.00  0.00    -0.461 OA
BRANCH   2   3
ATOM      3  C   UNL     1      -4.563   1.377  -3.099  1.00  0.00     0.326 C 
ATOM      4  O   UNL     1      -5.374   0.709  -3.699  1.00  0.00    -0.250 OA
BRANCH   3   5
ATOM      5  C   UNL     1      -3.850   1.012  -1.827  1.00  0.00     0.258 C 
BRANCH   5   6
ATOM      6  N   UNL     1      -4.486   0.680  -0.513  1.00  0.00    -0.255 N 
BRANCH   6   7
ATOM      7  S   UNL     1      -3.845  -0.807   0.122  1.00  0.00     0.264 S 
ATOM      8  O   UNL     1      -4.105  -1.823  -0.870  1.00  0.00    -0.201 OA
ATOM      9  O   UNL     1      -4.211  -1.001   1.512  1.00  0.00    -0.201 OA
BRANCH   7  10
ATOM     10  C   UNL     1      -2.066  -0.560   0.161  1.00  0.00     0.088 A 
ATOM     11  C   UNL     1       2.219  -0.137   0.257  1.00  0.00     0.044 C 
ATOM     12  C   UNL     1       0.723  -0.264   0.201  1.00  0.00    -0.051 A 
ATOM     13  C   UNL     1       0.145  -1.502  -0.109  1.00  0.00     0.005 A 
ATOM     14  C   UNL     1      -0.111   0.821   0.509  1.00  0.00     0.005 A 
ATOM     15  C   UNL     1      -1.243  -1.649  -0.143  1.00  0.00     0.022 A 
ATOM     16  C   UNL     1      -1.505   0.675   0.500  1.00  0.00     0.022 A 
ENDBRANCH   7  10
ENDBRANCH   6   7
BRANCH   6  17
ATOM     17  C   UNL     1      -5.873   1.040  -0.154  1.00  0.00     0.055 A 
ATOM     18  C   UNL     1      -6.786   1.627  -1.038  1.00  0.00     0.047 A 
ATOM     19  C   UNL     1      -6.323   0.923   1.171  1.00  0.00     0.047 A 
ATOM     20  C   UNL     1      -8.074   2.032  -0.643  1.00  0.00     0.044 A 
ATOM     21  C   UNL     1      -7.622   1.294   1.560  1.00  0.00     0.044 A 
ATOM     22  Cl  UNL     1      -9.142   2.754  -1.791  1.00  0.00    -0.084 Cl
ATOM     23  C   UNL     1      -8.503   1.860   0.657  1.00  0.00     0.041 A 
ATOM     24  Cl  UNL     1      -8.132   1.045   3.186  1.00  0.00    -0.084 Cl
ENDBRANCH   6  17
ENDBRANCH   5   6
ENDBRANCH   3   5
ENDBRANCH   2   3
ENDBRANCH   1   2
BRANCH   1  25
ATOM     25  C   UNL     1      -6.027   4.121  -4.112  1.00  0.00     0.275 C 
BRANCH  25  26
ATOM     26  O   UNL     1      -6.420   4.210  -2.697  1.00  0.00    -0.458 OA
BRANCH  26  27
ATOM     27  C   UNL     1      -5.879   4.775  -1.582  1.00  0.00     0.338 C 
ATOM     28  O   UNL     1      -6.530   5.011  -0.573  1.00  0.00    -0.246 OA
BRANCH  27  29
ATOM     29  C   UNL     1      -4.424   4.892  -1.538  1.00  0.00     0.060 A 
ATOM     30  C   UNL     1      -3.668   4.448  -0.434  1.00  0.00     0.016 A 
ATOM     31  C   UNL     1      -3.813   5.330  -2.686  1.00  0.00     0.016 A 
ATOM     32  C   UNL     1      -2.279   4.363  -0.551  1.00  0.00     0.010 A 
ATOM     33  C   UNL     1      -2.533   4.928  -2.905  1.00  0.00     0.010 A 
ATOM     34  C   UNL     1      -1.730   4.569  -1.816  1.00  0.00    -0.014 A 
BRANCH  34  35
ATOM     35  C   UNL     1      -0.334   4.828  -2.128  1.00  0.00     0.031 A 
ATOM     36  C   UNL     1       0.661   3.771  -2.298  1.00  0.00     0.074 A 
ATOM     37  C   UNL     1      -0.150   6.101  -2.555  1.00  0.00     0.049 A 
ATOM     38  N   UNL     1       1.909   3.911  -2.013  1.00  0.00    -0.248 NA
ATOM     39  C   UNL     1       0.325   2.455  -2.839  1.00  0.00     0.031 C 
ATOM     40  C   UNL     1       0.919   6.713  -3.313  1.00  0.00     0.029 A 
ATOM     41  N   UNL     1      -1.029   7.171  -2.323  1.00  0.00    -0.354 N 
ATOM     42  C   UNL     1       2.562   2.886  -2.665  1.00  0.00     0.074 A 
ATOM     43  C   UNL     1       1.542   1.922  -3.014  1.00  0.00     0.031 C 
ATOM     44  C   UNL     1       0.804   8.055  -3.187  1.00  0.00     0.029 A 
ATOM     45  C   UNL     1      -0.270   8.322  -2.229  1.00  0.00     0.049 A 
ATOM     46  H   UNL     1      -2.008   7.112  -2.242  1.00  0.00     0.167 HD
ATOM     47  C   UNL     1       3.839   3.059  -3.109  1.00  0.00     0.031 A 
ATOM     48  C   UNL     1      -0.171   8.934  -1.010  1.00  0.00     0.031 A 
ATOM     49  C   UNL     1       4.248   4.455  -2.968  1.00  0.00     0.049 A 
ATOM     50  C   UNL     1       1.245   8.791  -0.507  1.00  0.00     0.074 A 
ATOM     51  C   UNL     1       4.256   5.490  -3.890  1.00  0.00     0.029 A 
ATOM     52  N   UNL     1       4.343   5.044  -1.712  1.00  0.00    -0.354 N 
ATOM     53  N   UNL     1       2.037   7.812  -0.849  1.00  0.00    -0.248 NA
ATOM     54  C   UNL     1       1.874   9.739   0.402  1.00  0.00     0.031 C 
ATOM     55  C   UNL     1       4.258   6.713  -3.174  1.00  0.00     0.029 A 
ATOM     56  C   UNL     1       4.272   6.421  -1.821  1.00  0.00     0.049 A 
ATOM     57  H   UNL     1       4.446   4.551  -0.866  1.00  0.00     0.167 HD
ATOM     58  C   UNL     1       3.279   8.042  -0.336  1.00  0.00     0.074 A 
ATOM     59  C   UNL     1       3.118   9.235   0.480  1.00  0.00     0.031 C 
ATOM     60  C   UNL     1       4.356   7.266  -0.640  1.00  0.00     0.031 A 
BRANCH  47  61
ATOM     61  C   UNL     1       4.541   2.077  -4.016  1.00  0.00    -0.014 A 
ATOM     62  C   UNL     1       5.444   2.539  -4.993  1.00  0.00     0.009 A 
ATOM     63  C   UNL     1       4.370   0.683  -3.935  1.00  0.00     0.009 A 
ATOM     64  C   UNL     1       6.081   1.672  -5.890  1.00  0.00     0.001 A 
ATOM     65  C   UNL     1       4.990  -0.189  -4.845  1.00  0.00     0.001 A 
ATOM     66  C   UNL     1       5.840   0.307  -5.828  1.00  0.00     0.000 A 
ENDBRANCH  47  61
BRANCH  48  67
ATOM     67  C   UNL     1      -1.393   8.804  -0.137  1.00  0.00    -0.014 A 
ATOM     68  C   UNL     1      -2.624   9.313  -0.613  1.00  0.00     0.009 A 
ATOM     69  C   UNL     1      -1.435   7.920   0.954  1.00  0.00     0.009 A 
ATOM     70  C   UNL     1      -3.848   8.885  -0.079  1.00  0.00     0.001 A 
ATOM     71  C   UNL     1      -2.664   7.510   1.500  1.00  0.00     0.001 A 
ATOM     72  C   UNL     1      -3.868   7.968   0.966  1.00  0.00     0.000 A 
ENDBRANCH  48  67
BRANCH  60  73
ATOM     73  C   UNL     1       5.660   7.313   0.095  1.00  0.00    -0.014 A 
ATOM     74  C   UNL     1       5.759   7.659   1.447  1.00  0.00     0.009 A 
ATOM     75  C   UNL     1       6.823   6.832  -0.542  1.00  0.00     0.009 A 
ATOM     76  C   UNL     1       6.981   7.584   2.119  1.00  0.00     0.001 A 
ATOM     77  C   UNL     1       8.031   6.706   0.139  1.00  0.00     0.001 A 
ATOM     78  C   UNL     1       8.112   7.098   1.468  1.00  0.00     0.000 A 
ENDBRANCH  60  73
ENDBRANCH  34  35
ENDBRANCH  27  29
ENDBRANCH  26  27
ENDBRANCH  25  26
ENDBRANCH   1  25
TORSDOF 15
