REMARK SMILES O=C(OCCOC(=O)[C@H]1CC(=O)N(c2cccc(OC(F)(F)F)c2)C1)c1ccc(-c2c3nc(c(-c4ccccc4)c4ccc([nH]4)c(-c4ccccc4)c4nc(c(-c5ccccc5)c5ccc2[nH]5)C=C4)C=C3)cc1
REMARK SMILES IDX 5 1 4 2 3 3 2 4 1 5 26 6 27 7 73 8 28 9 72 10 29 11 30 12
REMARK SMILES IDX 31 13 66 14 32 15 71 16 65 17 67 18 33 19 70 20 64 21 63 22
REMARK SMILES IDX 34 24 56 25 41 26 55 27 42 28 45 29 54 30 68 31 43 32 44 33
REMARK SMILES IDX 53 35 69 36 46 37 35 38 36 39 40 40 37 41 39 42 38 43 57 44
REMARK SMILES IDX 58 45 62 46 59 47 61 48 60 49 47 50 48 51 52 52 49 53 51 54
REMARK SMILES IDX 50 55 6 56 7 57 8 58 9 59 10 60 25 61 11 62 13 63 12 64
REMARK SMILES IDX 14 65 15 66 24 67 16 68 18 69 17 70 19 71 20 72 21 73 22 74
REMARK SMILES IDX 23 75
REMARK H PARENT 67 23 45 34
REMARK Flexibility Score: inf
ROOT
ATOM      1  C   UNL     1       4.632   4.636   1.753  1.00  0.00     0.274 C 
ENDROOT
BRANCH   1   2
ATOM      2  C   UNL     1       3.726   5.014   2.928  1.00  0.00     0.275 C 
BRANCH   2   3
ATOM      3  O   UNL     1       2.687   4.074   3.239  1.00  0.00    -0.458 OA
BRANCH   3   4
ATOM      4  C   UNL     1       1.433   4.027   2.733  1.00  0.00     0.338 C 
ATOM      5  O   UNL     1       0.574   3.342   3.281  1.00  0.00    -0.246 OA
BRANCH   4   6
ATOM      6  C   UNL     1       1.117   4.615   1.402  1.00  0.00     0.060 A 
ATOM      7  C   UNL     1       1.492   5.888   0.959  1.00  0.00     0.016 A 
ATOM      8  C   UNL     1       0.349   3.814   0.550  1.00  0.00     0.016 A 
ATOM      9  C   UNL     1       1.216   6.306  -0.349  1.00  0.00     0.010 A 
ATOM     10  C   UNL     1       0.073   4.225  -0.752  1.00  0.00     0.010 A 
ATOM     11  C   UNL     1       0.513   5.472  -1.219  1.00  0.00    -0.014 A 
BRANCH  11  12
ATOM     12  C   UNL     1       0.025   5.956  -2.533  1.00  0.00     0.031 A 
ATOM     13  C   UNL     1      -1.450   6.241  -2.640  1.00  0.00     0.074 A 
ATOM     14  C   UNL     1       0.842   6.074  -3.600  1.00  0.00     0.049 A 
ATOM     15  N   UNL     1      -2.153   6.606  -3.678  1.00  0.00    -0.248 NA
ATOM     16  C   UNL     1      -2.243   6.082  -1.405  1.00  0.00     0.031 C 
ATOM     17  C   UNL     1       2.289   5.852  -3.610  1.00  0.00     0.029 A 
ATOM     18  N   UNL     1       0.551   6.355  -4.915  1.00  0.00    -0.354 N 
ATOM     19  C   UNL     1      -3.460   6.718  -3.221  1.00  0.00     0.074 A 
ATOM     20  C   UNL     1      -3.470   6.316  -1.836  1.00  0.00     0.031 C 
ATOM     21  C   UNL     1       2.742   5.916  -4.878  1.00  0.00     0.029 A 
ATOM     22  C   UNL     1       1.621   6.190  -5.769  1.00  0.00     0.049 A 
ATOM     23  H   UNL     1      -0.339   6.647  -5.218  1.00  0.00     0.167 HD
ATOM     24  C   UNL     1      -4.556   7.135  -3.894  1.00  0.00     0.031 A 
ATOM     25  C   UNL     1       1.663   6.217  -7.117  1.00  0.00     0.031 A 
ATOM     26  C   UNL     1      -4.542   7.444  -5.295  1.00  0.00     0.049 A 
ATOM     27  C   UNL     1       0.399   6.534  -7.869  1.00  0.00     0.074 A 
ATOM     28  C   UNL     1      -5.568   7.915  -6.091  1.00  0.00     0.029 A 
ATOM     29  N   UNL     1      -3.438   7.264  -6.118  1.00  0.00    -0.354 N 
ATOM     30  N   UNL     1      -0.806   6.759  -7.406  1.00  0.00    -0.248 NA
ATOM     31  C   UNL     1       0.515   6.636  -9.330  1.00  0.00     0.031 C 
ATOM     32  C   UNL     1      -5.106   7.947  -7.412  1.00  0.00     0.029 A 
ATOM     33  C   UNL     1      -3.773   7.561  -7.425  1.00  0.00     0.049 A 
ATOM     34  H   UNL     1      -2.549   6.968  -5.815  1.00  0.00     0.167 HD
ATOM     35  C   UNL     1      -1.581   7.085  -8.507  1.00  0.00     0.074 A 
ATOM     36  C   UNL     1      -0.717   6.993  -9.668  1.00  0.00     0.031 C 
ATOM     37  C   UNL     1      -2.881   7.468  -8.552  1.00  0.00     0.031 A 
BRANCH  24  38
ATOM     38  C   UNL     1      -5.836   7.215  -3.108  1.00  0.00    -0.014 A 
ATOM     39  C   UNL     1      -5.984   8.128  -2.048  1.00  0.00     0.009 A 
ATOM     40  C   UNL     1      -6.878   6.315  -3.374  1.00  0.00     0.009 A 
ATOM     41  C   UNL     1      -7.114   8.088  -1.228  1.00  0.00     0.001 A 
ATOM     42  C   UNL     1      -8.022   6.301  -2.574  1.00  0.00     0.001 A 
ATOM     43  C   UNL     1      -8.131   7.173  -1.491  1.00  0.00     0.000 A 
ENDBRANCH  24  38
BRANCH  25  44
ATOM     44  C   UNL     1       2.912   5.925  -7.874  1.00  0.00    -0.014 A 
ATOM     45  C   UNL     1       3.864   6.919  -8.128  1.00  0.00     0.009 A 
ATOM     46  C   UNL     1       3.114   4.653  -8.429  1.00  0.00     0.009 A 
ATOM     47  C   UNL     1       5.000   6.633  -8.897  1.00  0.00     0.001 A 
ATOM     48  C   UNL     1       4.263   4.355  -9.167  1.00  0.00     0.001 A 
ATOM     49  C   UNL     1       5.206   5.349  -9.403  1.00  0.00     0.000 A 
ENDBRANCH  25  44
BRANCH  37  50
ATOM     50  C   UNL     1      -3.404   7.919  -9.882  1.00  0.00    -0.014 A 
ATOM     51  C   UNL     1      -3.713   7.013 -10.905  1.00  0.00     0.009 A 
ATOM     52  C   UNL     1      -3.625   9.290 -10.087  1.00  0.00     0.009 A 
ATOM     53  C   UNL     1      -4.206   7.479 -12.125  1.00  0.00     0.001 A 
ATOM     54  C   UNL     1      -4.145   9.750 -11.294  1.00  0.00     0.001 A 
ATOM     55  C   UNL     1      -4.427   8.845 -12.315  1.00  0.00     0.000 A 
ENDBRANCH  37  50
ENDBRANCH  11  12
ENDBRANCH   4   6
ENDBRANCH   3   4
ENDBRANCH   2   3
ENDBRANCH   1   2
BRANCH   1  56
ATOM     56  O   UNL     1       3.987   3.946   0.666  1.00  0.00    -0.462 OA
BRANCH  56  57
ATOM     57  C   UNL     1       4.082   2.590   0.709  1.00  0.00     0.311 C 
ATOM     58  O   UNL     1       4.567   1.968   1.648  1.00  0.00    -0.252 OA
BRANCH  57  59
ATOM     59  C   UNL     1       3.545   1.879  -0.514  1.00  0.00     0.128 C 
ATOM     60  C   UNL     1       2.276   1.108  -0.174  1.00  0.00     0.117 C 
ATOM     61  C   UNL     1       3.183   2.726  -1.717  1.00  0.00     0.141 C 
ATOM     62  C   UNL     1       1.386   1.254  -1.383  1.00  0.00     0.227 C 
ATOM     63  N   UNL     1       2.031   2.077  -2.302  1.00  0.00    -0.311 N 
ATOM     64  O   UNL     1       0.311   0.684  -1.500  1.00  0.00    -0.274 OA
BRANCH  63  65
ATOM     65  C   UNL     1       1.610   2.273  -3.641  1.00  0.00     0.047 A 
ATOM     66  C   UNL     1       2.577   2.360  -4.648  1.00  0.00     0.026 A 
ATOM     67  C   UNL     1       0.253   2.281  -4.013  1.00  0.00     0.073 A 
ATOM     68  C   UNL     1       2.204   2.388  -5.990  1.00  0.00     0.006 A 
ATOM     69  C   UNL     1      -0.117   2.408  -5.357  1.00  0.00     0.131 A 
ATOM     70  C   UNL     1       0.859   2.423  -6.346  1.00  0.00     0.047 A 
BRANCH  69  71
ATOM     71  O   UNL     1      -1.418   2.374  -5.778  1.00  0.00    -0.406 OA
BRANCH  71  72
ATOM     72  C   UNL     1      -2.171   3.513  -5.370  1.00  0.00     0.573 C 
ATOM     73  F   UNL     1      -2.495   3.423  -4.063  1.00  0.00    -0.132 F 
ATOM     74  F   UNL     1      -1.498   4.654  -5.601  1.00  0.00    -0.132 F 
ATOM     75  F   UNL     1      -3.315   3.546  -6.090  1.00  0.00    -0.132 F 
ENDBRANCH  71  72
ENDBRANCH  69  71
ENDBRANCH  63  65
ENDBRANCH  57  59
ENDBRANCH  56  57
ENDBRANCH   1  56
TORSDOF 14
