REMARK SMILES Cc1cc(C(=O)NC[C@@H]2CC[C@H](C(=O)OCCOC(=O)c3ccc(-c4c5nc(c(-c6ccccc6)c6ccc([nH]6)c(-c6ccccc6)c6nc(c(-c7ccccc7)c7ccc4[nH]7)C=C6)C=C5)cc3)O2)on1
REMARK SMILES IDX 16 1 15 2 13 3 14 4 12 5 9 6 10 7 69 8 11 9 8 10 7 11 5 12
REMARK SMILES IDX 6 13 4 15 1 16 2 17 3 18 71 19 70 20 17 21 18 22 19 23 20 24
REMARK SMILES IDX 21 25 22 26 68 27 23 28 67 29 24 30 25 31 26 32 61 33 27 34
REMARK SMILES IDX 66 35 60 36 62 37 28 38 65 39 59 40 58 41 29 43 51 44 36 45
REMARK SMILES IDX 50 46 37 47 40 48 49 49 63 50 38 51 39 52 48 54 64 55 41 56
REMARK SMILES IDX 30 57 31 58 35 59 32 60 34 61 33 62 52 63 53 64 57 65 54 66
REMARK SMILES IDX 56 67 55 68 42 69 43 70 47 71 44 72 46 73 45 74
REMARK H PARENT 7 14 62 42 40 53
REMARK Flexibility Score: inf
ROOT
ATOM      1  C   UNL     1      -1.210  -8.212  -1.803  1.00  0.00     0.274 C 
ENDROOT
BRANCH   1   2
ATOM      2  O   UNL     1      -0.845  -7.396  -0.673  1.00  0.00    -0.460 OA
BRANCH   2   3
ATOM      3  C   UNL     1      -1.815  -7.173   0.255  1.00  0.00     0.335 C 
ATOM      4  O   UNL     1      -2.973  -7.566   0.151  1.00  0.00    -0.249 OA
BRANCH   3   5
ATOM      5  C   UNL     1      -1.319  -6.344   1.452  1.00  0.00     0.228 C 
ATOM      6  C   UNL     1      -0.814  -4.138   0.901  1.00  0.00     0.138 C 
ATOM      7  C   UNL     1       0.468  -4.953   0.784  1.00  0.00     0.037 C 
ATOM      8  O   UNL     1      -1.842  -5.015   1.393  1.00  0.00    -0.361 OA
ATOM      9  C   UNL     1       0.180  -6.187   1.602  1.00  0.00     0.047 C 
BRANCH   6  10
ATOM     10  C   UNL     1      -1.272  -3.562  -0.443  1.00  0.00     0.148 C 
BRANCH  10  11
ATOM     11  N   UNL     1      -2.348  -2.604  -0.263  1.00  0.00    -0.347 N 
ATOM     12  C   UNL     1      -2.327  -1.237  -0.126  1.00  0.00     0.289 C 
ATOM     13  O   UNL     1      -3.425  -0.683  -0.048  1.00  0.00    -0.266 OA
ATOM     14  H   UNL     1      -3.248  -3.003  -0.233  1.00  0.00     0.164 HD
BRANCH  12  15
ATOM     15  C   UNL     1      -1.076  -0.513  -0.091  1.00  0.00     0.224 A 
ATOM     16  C   UNL     1       2.401   0.633   0.111  1.00  0.00     0.070 C 
ATOM     17  C   UNL     1       0.946   0.393  -0.006  1.00  0.00     0.081 A 
ATOM     18  C   UNL     1       0.246  -0.823   0.143  1.00  0.00     0.083 A 
ATOM     19  N   UNL     1       0.112   1.398  -0.280  1.00  0.00    -0.084 NA
ATOM     20  O   UNL     1      -1.151   0.835  -0.319  1.00  0.00    -0.351 OA
ENDBRANCH  12  15
ENDBRANCH  10  11
ENDBRANCH   6  10
ENDBRANCH   3   5
ENDBRANCH   2   3
ENDBRANCH   1   2
BRANCH   1  21
ATOM     21  C   UNL     1      -0.707  -9.652  -1.646  1.00  0.00     0.275 C 
BRANCH  21  22
ATOM     22  O   UNL     1      -1.400 -10.354  -0.596  1.00  0.00    -0.458 OA
BRANCH  22  23
ATOM     23  C   UNL     1      -0.834 -10.244   0.627  1.00  0.00     0.338 C 
ATOM     24  O   UNL     1       0.192  -9.650   0.915  1.00  0.00    -0.246 OA
BRANCH  23  25
ATOM     25  C   UNL     1      -1.718 -10.814   1.653  1.00  0.00     0.060 A 
ATOM     26  C   UNL     1      -2.217  -9.941   2.620  1.00  0.00     0.016 A 
ATOM     27  C   UNL     1      -1.948 -12.187   1.751  1.00  0.00     0.016 A 
ATOM     28  C   UNL     1      -2.917 -10.429   3.713  1.00  0.00     0.010 A 
ATOM     29  C   UNL     1      -2.660 -12.681   2.851  1.00  0.00     0.010 A 
ATOM     30  C   UNL     1      -3.122 -11.805   3.850  1.00  0.00    -0.014 A 
BRANCH  30  31
ATOM     31  C   UNL     1      -3.734 -12.303   5.103  1.00  0.00     0.031 A 
ATOM     32  C   UNL     1      -2.865 -12.935   6.152  1.00  0.00     0.074 A 
ATOM     33  C   UNL     1      -5.042 -12.096   5.341  1.00  0.00     0.049 A 
ATOM     34  N   UNL     1      -3.203 -13.429   7.316  1.00  0.00    -0.248 NA
ATOM     35  C   UNL     1      -1.426 -13.016   5.857  1.00  0.00     0.031 C 
ATOM     36  C   UNL     1      -5.972 -11.426   4.431  1.00  0.00     0.029 A 
ATOM     37  N   UNL     1      -5.805 -12.405   6.436  1.00  0.00    -0.354 N 
ATOM     38  C   UNL     1      -2.026 -13.904   7.879  1.00  0.00     0.074 A 
ATOM     39  C   UNL     1      -0.966 -13.645   6.929  1.00  0.00     0.031 C 
ATOM     40  C   UNL     1      -7.178 -11.351   5.019  1.00  0.00     0.029 A 
ATOM     41  C   UNL     1      -7.112 -12.002   6.324  1.00  0.00     0.049 A 
ATOM     42  H   UNL     1      -5.450 -12.872   7.227  1.00  0.00     0.167 HD
ATOM     43  C   UNL     1      -1.845 -14.503   9.079  1.00  0.00     0.031 A 
ATOM     44  C   UNL     1      -8.144 -12.150   7.175  1.00  0.00     0.031 A 
ATOM     45  C   UNL     1      -2.893 -14.750  10.031  1.00  0.00     0.049 A 
ATOM     46  C   UNL     1      -7.923 -12.849   8.486  1.00  0.00     0.074 A 
ATOM     47  C   UNL     1      -2.812 -15.376  11.263  1.00  0.00     0.029 A 
ATOM     48  N   UNL     1      -4.214 -14.369   9.860  1.00  0.00    -0.354 N 
ATOM     49  N   UNL     1      -6.813 -13.338   8.983  1.00  0.00    -0.248 NA
ATOM     50  C   UNL     1      -9.100 -13.020   9.349  1.00  0.00     0.031 C 
ATOM     51  C   UNL     1      -4.093 -15.395  11.828  1.00  0.00     0.029 A 
ATOM     52  C   UNL     1      -4.961 -14.750  10.961  1.00  0.00     0.049 A 
ATOM     53  H   UNL     1      -4.568 -13.897   9.072  1.00  0.00     0.167 HD
ATOM     54  C   UNL     1      -7.155 -13.864  10.222  1.00  0.00     0.074 A 
ATOM     55  C   UNL     1      -8.571 -13.618  10.407  1.00  0.00     0.031 C 
ATOM     56  C   UNL     1      -6.368 -14.498  11.124  1.00  0.00     0.031 A 
BRANCH  43  57
ATOM     57  C   UNL     1      -0.457 -14.972   9.404  1.00  0.00    -0.014 A 
ATOM     58  C   UNL     1       0.540 -14.072   9.808  1.00  0.00     0.009 A 
ATOM     59  C   UNL     1      -0.148 -16.338   9.311  1.00  0.00     0.009 A 
ATOM     60  C   UNL     1       1.830 -14.529  10.087  1.00  0.00     0.001 A 
ATOM     61  C   UNL     1       1.137 -16.794   9.609  1.00  0.00     0.001 A 
ATOM     62  C   UNL     1       2.127 -15.888   9.989  1.00  0.00     0.000 A 
ENDBRANCH  43  57
BRANCH  44  63
ATOM     63  C   UNL     1      -9.487 -11.639   6.805  1.00  0.00    -0.014 A 
ATOM     64  C   UNL     1     -10.015 -10.501   7.430  1.00  0.00     0.009 A 
ATOM     65  C   UNL     1     -10.246 -12.292   5.822  1.00  0.00     0.009 A 
ATOM     66  C   UNL     1     -11.287 -10.035   7.089  1.00  0.00     0.001 A 
ATOM     67  C   UNL     1     -11.508 -11.812   5.468  1.00  0.00     0.001 A 
ATOM     68  C   UNL     1     -12.030 -10.688   6.106  1.00  0.00     0.000 A 
ENDBRANCH  44  63
BRANCH  56  69
ATOM     69  C   UNL     1      -7.021 -14.947  12.396  1.00  0.00    -0.014 A 
ATOM     70  C   UNL     1      -7.832 -16.092  12.427  1.00  0.00     0.009 A 
ATOM     71  C   UNL     1      -6.805 -14.228  13.582  1.00  0.00     0.009 A 
ATOM     72  C   UNL     1      -8.438 -16.492  13.618  1.00  0.00     0.001 A 
ATOM     73  C   UNL     1      -7.397 -14.643  14.775  1.00  0.00     0.001 A 
ATOM     74  C   UNL     1      -8.219 -15.769  14.791  1.00  0.00     0.000 A 
ENDBRANCH  56  69
ENDBRANCH  30  31
ENDBRANCH  23  25
ENDBRANCH  22  23
ENDBRANCH  21  22
ENDBRANCH   1  21
TORSDOF 14
