REMARK SMILES O=C(C[C@@H]1CCCCO1)N[C@]1(C(=O)OCCOC(=O)c2ccc(-c3c4nc(c(-c5ccccc5)c5ccc([nH]5)c(-c5ccccc5)c5nc(c(-c6ccccc6)c6ccc3[nH]6)C=C5)C=C4)cc2)CCOC1
REMARK SMILES IDX 15 1 14 2 12 3 13 4 11 5 68 6 71 7 69 8 70 9 10 10 1 11 2 12
REMARK SMILES IDX 3 14 4 15 5 16 9 17 6 18 8 19 7 20 16 21 17 22 18 23 19 24
REMARK SMILES IDX 20 25 21 26 67 27 22 28 66 29 23 30 24 31 25 32 60 33 26 34
REMARK SMILES IDX 65 35 59 36 61 37 27 38 64 39 58 40 57 41 28 43 50 44 35 45
REMARK SMILES IDX 49 46 36 47 39 48 48 49 62 50 37 51 38 52 47 54 63 55 40 56
REMARK SMILES IDX 29 57 30 58 34 59 31 60 33 61 32 62 51 63 52 64 56 65 53 66
REMARK SMILES IDX 55 67 54 68 41 69 42 70 46 71 43 72 45 73 44 74
REMARK H PARENT 10 13 61 42 39 53
REMARK Flexibility Score: inf
ROOT
ATOM      1  C   UNL     1      -0.499   0.093   3.494  1.00  0.00     0.274 C 
ENDROOT
BRANCH   1   2
ATOM      2  O   UNL     1       0.587  -0.823   3.265  1.00  0.00    -0.460 OA
BRANCH   2   3
ATOM      3  C   UNL     1       0.604  -1.458   2.061  1.00  0.00     0.334 C 
ATOM      4  O   UNL     1      -0.284  -1.327   1.227  1.00  0.00    -0.249 OA
BRANCH   3   5
ATOM      5  C   UNL     1       1.898  -2.285   1.841  1.00  0.00     0.163 C 
ATOM      6  C   UNL     1       2.887  -2.187   3.000  1.00  0.00     0.071 C 
ATOM      7  C   UNL     1       1.595  -3.783   1.837  1.00  0.00     0.200 C 
ATOM      8  C   UNL     1       3.659  -3.478   2.882  1.00  0.00     0.163 C 
ATOM      9  O   UNL     1       2.730  -4.460   2.420  1.00  0.00    -0.378 OA
BRANCH   5  10
ATOM     10  N   UNL     1       2.570  -1.822   0.612  1.00  0.00    -0.338 N 
ATOM     11  O   UNL     1       1.088  -2.682  -0.930  1.00  0.00    -0.275 OA
ATOM     12  C   UNL     1       2.002  -1.922  -0.639  1.00  0.00     0.223 C 
ATOM     13  H   UNL     1       3.466  -1.422   0.690  1.00  0.00     0.164 HD
BRANCH  12  14
ATOM     14  C   UNL     1       2.555  -0.934  -1.628  1.00  0.00     0.132 C 
BRANCH  14  15
ATOM     15  C   UNL     1       2.568   0.471  -1.027  1.00  0.00     0.127 C 
ATOM     16  C   UNL     1       1.194   0.919  -0.475  1.00  0.00     0.033 C 
ATOM     17  O   UNL     1       3.182   1.340  -1.963  1.00  0.00    -0.378 OA
ATOM     18  C   UNL     1       0.629   2.255  -0.908  1.00  0.00     0.005 C 
ATOM     19  C   UNL     1       2.241   1.931  -2.840  1.00  0.00     0.160 C 
ATOM     20  C   UNL     1       1.410   2.892  -2.021  1.00  0.00     0.029 C 
ENDBRANCH  14  15
ENDBRANCH  12  14
ENDBRANCH   5  10
ENDBRANCH   3   5
ENDBRANCH   2   3
ENDBRANCH   1   2
BRANCH   1  21
ATOM     21  C   UNL     1       0.044   1.418   4.041  1.00  0.00     0.275 C 
BRANCH  21  22
ATOM     22  O   UNL     1       0.871   2.133   3.088  1.00  0.00    -0.458 OA
BRANCH  22  23
ATOM     23  C   UNL     1       2.219   2.008   3.243  1.00  0.00     0.338 C 
ATOM     24  O   UNL     1       2.786   1.288   4.037  1.00  0.00    -0.246 OA
BRANCH  23  25
ATOM     25  C   UNL     1       2.946   2.784   2.189  1.00  0.00     0.060 A 
ATOM     26  C   UNL     1       4.029   2.166   1.565  1.00  0.00     0.016 A 
ATOM     27  C   UNL     1       2.593   4.077   1.783  1.00  0.00     0.016 A 
ATOM     28  C   UNL     1       4.653   2.775   0.460  1.00  0.00     0.010 A 
ATOM     29  C   UNL     1       3.278   4.719   0.717  1.00  0.00     0.010 A 
ATOM     30  C   UNL     1       4.292   4.064   0.004  1.00  0.00    -0.014 A 
BRANCH  30  31
ATOM     31  C   UNL     1       5.101   4.680  -1.120  1.00  0.00     0.031 A 
ATOM     32  C   UNL     1       6.538   4.989  -0.843  1.00  0.00     0.074 A 
ATOM     33  C   UNL     1       4.660   4.984  -2.366  1.00  0.00     0.049 A 
ATOM     34  N   UNL     1       7.401   5.573  -1.631  1.00  0.00    -0.248 NA
ATOM     35  C   UNL     1       7.020   4.751   0.525  1.00  0.00     0.031 C 
ATOM     36  C   UNL     1       3.277   5.083  -2.767  1.00  0.00     0.029 A 
ATOM     37  N   UNL     1       5.321   5.196  -3.567  1.00  0.00    -0.354 N 
ATOM     38  C   UNL     1       8.470   5.899  -0.820  1.00  0.00     0.074 A 
ATOM     39  C   UNL     1       8.197   5.352   0.491  1.00  0.00     0.031 C 
ATOM     40  C   UNL     1       3.171   4.974  -4.100  1.00  0.00     0.029 A 
ATOM     41  C   UNL     1       4.496   5.086  -4.683  1.00  0.00     0.049 A 
ATOM     42  H   UNL     1       6.282   5.404  -3.624  1.00  0.00     0.167 HD
ATOM     43  C   UNL     1       9.522   6.693  -1.119  1.00  0.00     0.031 A 
ATOM     44  C   UNL     1       4.745   5.170  -6.013  1.00  0.00     0.031 A 
ATOM     45  C   UNL     1       9.724   7.311  -2.401  1.00  0.00     0.049 A 
ATOM     46  C   UNL     1       6.007   5.906  -6.368  1.00  0.00     0.074 A 
ATOM     47  C   UNL     1      10.726   8.181  -2.786  1.00  0.00     0.029 A 
ATOM     48  N   UNL     1       8.899   7.133  -3.506  1.00  0.00    -0.354 N 
ATOM     49  N   UNL     1       6.976   6.282  -5.572  1.00  0.00    -0.248 NA
ATOM     50  C   UNL     1       6.131   6.401  -7.747  1.00  0.00     0.031 C 
ATOM     51  C   UNL     1      10.496   8.548  -4.116  1.00  0.00     0.029 A 
ATOM     52  C   UNL     1       9.393   7.852  -4.582  1.00  0.00     0.049 A 
ATOM     53  H   UNL     1       8.085   6.579  -3.521  1.00  0.00     0.167 HD
ATOM     54  C   UNL     1       7.780   7.118  -6.324  1.00  0.00     0.074 A 
ATOM     55  C   UNL     1       7.232   7.137  -7.666  1.00  0.00     0.031 C 
ATOM     56  C   UNL     1       8.846   7.844  -5.916  1.00  0.00     0.031 A 
BRANCH  43  57
ATOM     57  C   UNL     1      10.414   7.038   0.037  1.00  0.00    -0.014 A 
ATOM     58  C   UNL     1      11.214   6.068   0.660  1.00  0.00     0.009 A 
ATOM     59  C   UNL     1      10.343   8.326   0.591  1.00  0.00     0.009 A 
ATOM     60  C   UNL     1      11.865   6.361   1.860  1.00  0.00     0.001 A 
ATOM     61  C   UNL     1      11.029   8.627   1.768  1.00  0.00     0.001 A 
ATOM     62  C   UNL     1      11.771   7.638   2.412  1.00  0.00     0.000 A 
ENDBRANCH  43  57
BRANCH  44  63
ATOM     63  C   UNL     1       3.753   4.817  -7.091  1.00  0.00    -0.014 A 
ATOM     64  C   UNL     1       4.101   3.923  -8.126  1.00  0.00     0.009 A 
ATOM     65  C   UNL     1       2.472   5.388  -7.147  1.00  0.00     0.009 A 
ATOM     66  C   UNL     1       3.194   3.602  -9.150  1.00  0.00     0.001 A 
ATOM     67  C   UNL     1       1.544   5.018  -8.128  1.00  0.00     0.001 A 
ATOM     68  C   UNL     1       1.906   4.130  -9.135  1.00  0.00     0.000 A 
ENDBRANCH  44  63
BRANCH  56  69
ATOM     69  C   UNL     1       9.558   8.642  -6.964  1.00  0.00    -0.014 A 
ATOM     70  C   UNL     1       9.056   9.860  -7.445  1.00  0.00     0.009 A 
ATOM     71  C   UNL     1      10.791   8.169  -7.438  1.00  0.00     0.009 A 
ATOM     72  C   UNL     1       9.777  10.583  -8.398  1.00  0.00     0.001 A 
ATOM     73  C   UNL     1      11.518   8.905  -8.370  1.00  0.00     0.001 A 
ATOM     74  C   UNL     1      11.008  10.108  -8.853  1.00  0.00     0.000 A 
ENDBRANCH  56  69
ENDBRANCH  30  31
ENDBRANCH  23  25
ENDBRANCH  22  23
ENDBRANCH  21  22
ENDBRANCH   1  21
TORSDOF 14
