REMARK SMILES O=C(OCCOC(=O)[C@@H]1CCCC[C@@H]1c1nc(C2CCCCC2)no1)c1ccc(-c2c3nc(c(-c4ccccc4)c4ccc([nH]4)c(-c4ccccc4)c4nc(c(-c5ccccc5)c5ccc2[nH]5)C=C4)C=C3)cc1
REMARK SMILES IDX 4 1 3 2 2 3 1 4 26 5 27 6 73 7 28 8 72 9 29 10 30 11 31 12
REMARK SMILES IDX 66 13 32 14 71 15 65 16 67 17 33 18 70 19 64 20 63 21 34 23
REMARK SMILES IDX 56 24 41 25 55 26 42 27 45 28 54 29 68 30 43 31 44 32 53 34
REMARK SMILES IDX 69 35 46 36 35 37 36 38 40 39 37 40 39 41 38 42 57 43 58 44
REMARK SMILES IDX 62 45 59 46 61 47 60 48 47 49 48 50 52 51 49 52 51 53 50 54
REMARK SMILES IDX 5 55 6 56 7 57 8 58 9 59 10 60 14 61 11 62 13 63 12 64 15 65
REMARK SMILES IDX 16 66 25 67 17 68 24 69 18 70 19 71 23 72 20 73 22 74 21 75
REMARK H PARENT 67 22 45 33
REMARK Flexibility Score: inf
ROOT
ATOM      1  C   UNL     1       4.024  -1.022  -0.927  1.00  0.00     0.275 C 
ENDROOT
BRANCH   1   2
ATOM      2  O   UNL     1       2.728  -1.097  -0.266  1.00  0.00    -0.458 OA
BRANCH   2   3
ATOM      3  C   UNL     1       2.284  -0.859   0.997  1.00  0.00     0.338 C 
ATOM      4  O   UNL     1       1.110  -1.127   1.258  1.00  0.00    -0.246 OA
BRANCH   3   5
ATOM      5  C   UNL     1       3.060  -0.160   2.076  1.00  0.00     0.060 A 
ATOM      6  C   UNL     1       4.426  -0.230   2.252  1.00  0.00     0.016 A 
ATOM      7  C   UNL     1       2.361   0.655   2.999  1.00  0.00     0.016 A 
ATOM      8  C   UNL     1       5.064   0.658   3.150  1.00  0.00     0.010 A 
ATOM      9  C   UNL     1       3.029   1.562   3.876  1.00  0.00     0.010 A 
ATOM     10  C   UNL     1       4.420   1.700   3.852  1.00  0.00    -0.014 A 
BRANCH  10  11
ATOM     11  C   UNL     1       5.222   2.714   4.700  1.00  0.00     0.031 A 
ATOM     12  C   UNL     1       5.795   2.133   5.952  1.00  0.00     0.074 A 
ATOM     13  C   UNL     1       5.584   4.017   4.454  1.00  0.00     0.049 A 
ATOM     14  N   UNL     1       6.728   2.611   6.730  1.00  0.00    -0.248 NA
ATOM     15  C   UNL     1       5.279   0.812   6.340  1.00  0.00     0.031 C 
ATOM     16  C   UNL     1       5.309   4.782   3.266  1.00  0.00     0.029 A 
ATOM     17  N   UNL     1       6.349   4.957   5.155  1.00  0.00    -0.354 N 
ATOM     18  C   UNL     1       6.953   1.623   7.667  1.00  0.00     0.074 A 
ATOM     19  C   UNL     1       6.043   0.535   7.379  1.00  0.00     0.031 C 
ATOM     20  C   UNL     1       5.851   5.997   3.249  1.00  0.00     0.029 A 
ATOM     21  C   UNL     1       6.557   6.164   4.482  1.00  0.00     0.049 A 
ATOM     22  H   UNL     1       6.713   4.781   6.053  1.00  0.00     0.167 HD
ATOM     23  C   UNL     1       7.830   1.617   8.692  1.00  0.00     0.031 A 
ATOM     24  C   UNL     1       7.254   7.294   4.725  1.00  0.00     0.031 A 
ATOM     25  C   UNL     1       8.617   2.743   9.101  1.00  0.00     0.049 A 
ATOM     26  C   UNL     1       8.078   7.324   5.958  1.00  0.00     0.074 A 
ATOM     27  C   UNL     1       9.427   2.854  10.215  1.00  0.00     0.029 A 
ATOM     28  N   UNL     1       8.649   3.970   8.453  1.00  0.00    -0.354 N 
ATOM     29  N   UNL     1       8.304   6.343   6.791  1.00  0.00    -0.248 NA
ATOM     30  C   UNL     1       8.763   8.581   6.278  1.00  0.00     0.031 C 
ATOM     31  C   UNL     1       9.886   4.173  10.288  1.00  0.00     0.029 A 
ATOM     32  C   UNL     1       9.430   4.860   9.175  1.00  0.00     0.049 A 
ATOM     33  H   UNL     1       8.188   4.178   7.609  1.00  0.00     0.167 HD
ATOM     34  C   UNL     1       9.182   6.851   7.724  1.00  0.00     0.074 A 
ATOM     35  C   UNL     1       9.471   8.220   7.338  1.00  0.00     0.031 C 
ATOM     36  C   UNL     1       9.700   6.224   8.803  1.00  0.00     0.031 A 
BRANCH  23  37
ATOM     37  C   UNL     1       7.837   0.356   9.496  1.00  0.00    -0.014 A 
ATOM     38  C   UNL     1       8.385  -0.828   8.974  1.00  0.00     0.009 A 
ATOM     39  C   UNL     1       7.148   0.321  10.716  1.00  0.00     0.009 A 
ATOM     40  C   UNL     1       8.193  -2.038   9.639  1.00  0.00     0.001 A 
ATOM     41  C   UNL     1       6.982  -0.886  11.390  1.00  0.00     0.001 A 
ATOM     42  C   UNL     1       7.489  -2.066  10.844  1.00  0.00     0.000 A 
ENDBRANCH  23  37
BRANCH  24  43
ATOM     43  C   UNL     1       7.237   8.473   3.788  1.00  0.00    -0.014 A 
ATOM     44  C   UNL     1       8.403   8.910   3.132  1.00  0.00     0.009 A 
ATOM     45  C   UNL     1       6.053   9.203   3.575  1.00  0.00     0.009 A 
ATOM     46  C   UNL     1       8.391  10.058   2.326  1.00  0.00     0.001 A 
ATOM     47  C   UNL     1       6.036  10.331   2.743  1.00  0.00     0.001 A 
ATOM     48  C   UNL     1       7.208  10.766   2.131  1.00  0.00     0.000 A 
ENDBRANCH  24  43
BRANCH  36  49
ATOM     49  C   UNL     1      10.658   7.017   9.633  1.00  0.00    -0.014 A 
ATOM     50  C   UNL     1      10.232   8.112  10.400  1.00  0.00     0.009 A 
ATOM     51  C   UNL     1      12.011   6.650   9.649  1.00  0.00     0.009 A 
ATOM     52  C   UNL     1      11.155   8.850  11.139  1.00  0.00     0.001 A 
ATOM     53  C   UNL     1      12.924   7.366  10.418  1.00  0.00     0.001 A 
ATOM     54  C   UNL     1      12.497   8.471  11.153  1.00  0.00     0.000 A 
ENDBRANCH  36  49
ENDBRANCH  10  11
ENDBRANCH   3   5
ENDBRANCH   2   3
ENDBRANCH   1   2
BRANCH   1  55
ATOM     55  C   UNL     1       4.180   0.210  -1.820  1.00  0.00     0.274 C 
BRANCH  55  56
ATOM     56  O   UNL     1       3.896   1.362  -1.038  1.00  0.00    -0.462 OA
BRANCH  56  57
ATOM     57  C   UNL     1       3.108   2.335  -1.568  1.00  0.00     0.309 C 
ATOM     58  O   UNL     1       2.689   2.373  -2.707  1.00  0.00    -0.252 OA
BRANCH  57  59
ATOM     59  C   UNL     1       2.687   3.284  -0.469  1.00  0.00     0.111 C 
ATOM     60  C   UNL     1       2.526   4.757  -0.849  1.00  0.00     0.016 C 
ATOM     61  C   UNL     1       3.498   3.117   0.814  1.00  0.00     0.093 C 
ATOM     62  C   UNL     1       1.782   5.535   0.248  1.00  0.00     0.001 C 
ATOM     63  C   UNL     1       2.708   3.909   1.903  1.00  0.00     0.014 C 
ATOM     64  C   UNL     1       2.449   5.378   1.601  1.00  0.00     0.001 C 
BRANCH  61  65
ATOM     65  C   UNL     1       5.059   3.139   0.717  1.00  0.00     0.230 A 
ATOM     66  N   UNL     1       5.937   2.499   1.478  1.00  0.00    -0.196 NA
ATOM     67  O   UNL     1       5.703   3.889  -0.230  1.00  0.00    -0.339 OA
ATOM     68  C   UNL     1       7.178   2.938   1.076  1.00  0.00     0.175 A 
ATOM     69  N   UNL     1       7.098   3.744   0.002  1.00  0.00    -0.062 NA
BRANCH  68  70
ATOM     70  C   UNL     1       8.509   2.587   1.792  1.00  0.00     0.061 C 
ATOM     71  C   UNL     1       8.864   3.582   2.923  1.00  0.00     0.012 C 
ATOM     72  C   UNL     1       8.562   1.170   2.409  1.00  0.00     0.012 C 
ATOM     73  C   UNL     1      10.156   3.247   3.687  1.00  0.00     0.001 C 
ATOM     74  C   UNL     1       9.875   0.823   3.121  1.00  0.00     0.001 C 
ATOM     75  C   UNL     1      10.162   1.823   4.235  1.00  0.00     0.000 C 
ENDBRANCH  68  70
ENDBRANCH  61  65
ENDBRANCH  57  59
ENDBRANCH  56  57
ENDBRANCH  55  56
ENDBRANCH   1  55
TORSDOF 13
