REMARK SMILES COc1cc2ccccc2cc1C(=O)Nc1cc(C(=O)OCCOC(=O)c2ccc(-c3c4nc(c(-c5ccccc5)c5ccc([nH]5)c(-c5ccccc5)c5nc(c(-c6ccccc6)c6ccc3[nH]6)C=C5)C=C4)cc2)ccc1C
REMARK SMILES IDX 22 1 21 2 19 3 20 4 18 5 16 6 17 7 77 8 76 9 78 10 75 11
REMARK SMILES IDX 15 12 13 13 14 14 12 16 3 17 4 18 5 19 11 20 6 21 10 22 7 23
REMARK SMILES IDX 9 24 8 25 2 26 1 27 23 28 24 29 25 30 26 31 27 32 28 33
REMARK SMILES IDX 74 34 29 35 73 36 30 37 31 38 32 39 67 40 33 41 72 42 66 43
REMARK SMILES IDX 68 44 34 45 71 46 65 47 64 48 35 50 57 51 42 52 56 53 43 54
REMARK SMILES IDX 46 55 55 56 69 57 44 58 45 59 54 61 70 62 47 63 36 64 37 65
REMARK SMILES IDX 41 66 38 67 40 68 39 69 58 70 59 71 63 72 60 73 62 74 61 75
REMARK SMILES IDX 48 76 49 77 53 78 50 79 52 80 51 81
REMARK H PARENT 15 15 68 49 46 60
REMARK Flexibility Score: inf
ROOT
ATOM      1  C   UNL     1      -0.128   5.295  -3.405  1.00  0.00     0.275 C 
ENDROOT
BRANCH   1   2
ATOM      2  O   UNL     1       0.402   3.977  -3.619  1.00  0.00    -0.458 OA
BRANCH   2   3
ATOM      3  C   UNL     1       0.664   3.360  -2.445  1.00  0.00     0.338 C 
ATOM      4  O   UNL     1       0.408   3.817  -1.342  1.00  0.00    -0.246 OA
BRANCH   3   5
ATOM      5  C   UNL     1       1.383   2.086  -2.550  1.00  0.00     0.062 A 
ATOM      6  C   UNL     1       2.996   0.746  -1.332  1.00  0.00     0.045 A 
ATOM      7  C   UNL     1       2.512   1.990  -1.730  1.00  0.00     0.042 A 
ATOM      8  C   UNL     1       2.466  -0.420  -1.921  1.00  0.00    -0.027 A 
ATOM      9  C   UNL     1       1.373  -0.299  -2.812  1.00  0.00     0.006 A 
ATOM     10  C   UNL     1       2.853  -1.810  -1.484  1.00  0.00     0.046 C 
ATOM     11  C   UNL     1       0.809   0.947  -3.107  1.00  0.00     0.016 A 
BRANCH   6  12
ATOM     12  N   UNL     1       3.920   0.657  -0.269  1.00  0.00    -0.322 N 
ATOM     13  C   UNL     1       4.059   1.431   0.876  1.00  0.00     0.259 C 
ATOM     14  O   UNL     1       5.067   1.276   1.569  1.00  0.00    -0.269 OA
ATOM     15  H   UNL     1       4.575  -0.073  -0.353  1.00  0.00     0.170 HD
BRANCH  13  16
ATOM     16  C   UNL     1       3.016   2.383   1.363  1.00  0.00     0.082 A 
ATOM     17  C   UNL     1       1.647   2.206   1.181  1.00  0.00     0.132 A 
ATOM     18  C   UNL     1       0.802   3.295   1.375  1.00  0.00     0.056 A 
ATOM     19  C   UNL     1       1.227   4.477   1.984  1.00  0.00    -0.015 A 
ATOM     20  C   UNL     1       3.451   3.539   2.052  1.00  0.00     0.026 A 
ATOM     21  C   UNL     1       0.330   5.532   2.216  1.00  0.00     0.009 A 
ATOM     22  C   UNL     1       2.553   4.568   2.424  1.00  0.00    -0.017 A 
ATOM     23  C   UNL     1       0.685   6.603   3.027  1.00  0.00     0.001 A 
ATOM     24  C   UNL     1       2.912   5.683   3.209  1.00  0.00     0.009 A 
ATOM     25  C   UNL     1       1.973   6.668   3.541  1.00  0.00     0.001 A 
BRANCH  17  26
ATOM     26  O   UNL     1       1.024   1.081   0.712  1.00  0.00    -0.496 OA
ATOM     27  C   UNL     1       1.195  -0.053   1.556  1.00  0.00     0.278 C 
ENDBRANCH  17  26
ENDBRANCH  13  16
ENDBRANCH   6  12
ENDBRANCH   3   5
ENDBRANCH   2   3
ENDBRANCH   1   2
BRANCH   1  28
ATOM     28  C   UNL     1      -1.302   5.627  -4.319  1.00  0.00     0.275 C 
BRANCH  28  29
ATOM     29  O   UNL     1      -2.326   4.630  -4.580  1.00  0.00    -0.458 OA
BRANCH  29  30
ATOM     30  C   UNL     1      -2.478   3.436  -3.964  1.00  0.00     0.338 C 
ATOM     31  O   UNL     1      -2.622   2.397  -4.602  1.00  0.00    -0.246 OA
BRANCH  30  32
ATOM     32  C   UNL     1      -2.612   3.430  -2.488  1.00  0.00     0.060 A 
ATOM     33  C   UNL     1      -2.529   2.207  -1.792  1.00  0.00     0.016 A 
ATOM     34  C   UNL     1      -2.820   4.610  -1.784  1.00  0.00     0.016 A 
ATOM     35  C   UNL     1      -2.637   2.167  -0.396  1.00  0.00     0.010 A 
ATOM     36  C   UNL     1      -2.818   4.584  -0.404  1.00  0.00     0.010 A 
ATOM     37  C   UNL     1      -2.794   3.364   0.299  1.00  0.00    -0.014 A 
BRANCH  37  38
ATOM     38  C   UNL     1      -3.215   3.496   1.699  1.00  0.00     0.031 A 
ATOM     39  C   UNL     1      -2.311   3.390   2.857  1.00  0.00     0.074 A 
ATOM     40  C   UNL     1      -4.476   3.954   1.812  1.00  0.00     0.049 A 
ATOM     41  N   UNL     1      -2.068   4.346   3.697  1.00  0.00    -0.248 NA
ATOM     42  C   UNL     1      -1.584   2.145   3.130  1.00  0.00     0.031 C 
ATOM     43  C   UNL     1      -5.168   4.543   2.937  1.00  0.00     0.029 A 
ATOM     44  N   UNL     1      -5.481   3.696   0.875  1.00  0.00    -0.354 N 
ATOM     45  C   UNL     1      -1.165   3.856   4.635  1.00  0.00     0.074 A 
ATOM     46  C   UNL     1      -0.861   2.492   4.199  1.00  0.00     0.031 C 
ATOM     47  C   UNL     1      -6.487   4.316   2.775  1.00  0.00     0.029 A 
ATOM     48  C   UNL     1      -6.632   3.430   1.618  1.00  0.00     0.049 A 
ATOM     49  H   UNL     1      -5.395   3.700  -0.106  1.00  0.00     0.167 HD
ATOM     50  C   UNL     1      -1.381   4.058   5.963  1.00  0.00     0.031 A 
ATOM     51  C   UNL     1      -7.049   2.128   1.685  1.00  0.00     0.031 A 
ATOM     52  C   UNL     1      -2.781   4.016   6.287  1.00  0.00     0.049 A 
ATOM     53  C   UNL     1      -6.920   1.590   3.091  1.00  0.00     0.074 A 
ATOM     54  C   UNL     1      -3.781   4.962   6.383  1.00  0.00     0.029 A 
ATOM     55  N   UNL     1      -3.390   2.776   6.264  1.00  0.00    -0.354 N 
ATOM     56  N   UNL     1      -5.969   1.916   3.926  1.00  0.00    -0.248 NA
ATOM     57  C   UNL     1      -7.914   0.699   3.677  1.00  0.00     0.031 C 
ATOM     58  C   UNL     1      -5.022   4.270   6.336  1.00  0.00     0.029 A 
ATOM     59  C   UNL     1      -4.756   2.914   6.243  1.00  0.00     0.049 A 
ATOM     60  H   UNL     1      -2.912   1.915   6.262  1.00  0.00     0.167 HD
ATOM     61  C   UNL     1      -6.285   1.417   5.164  1.00  0.00     0.074 A 
ATOM     62  C   UNL     1      -7.479   0.620   4.946  1.00  0.00     0.031 C 
ATOM     63  C   UNL     1      -5.590   1.729   6.294  1.00  0.00     0.031 A 
BRANCH  50  64
ATOM     64  C   UNL     1      -0.302   4.784   6.710  1.00  0.00    -0.014 A 
ATOM     65  C   UNL     1      -0.623   5.702   7.724  1.00  0.00     0.009 A 
ATOM     66  C   UNL     1       1.065   4.608   6.415  1.00  0.00     0.009 A 
ATOM     67  C   UNL     1       0.367   6.449   8.377  1.00  0.00     0.001 A 
ATOM     68  C   UNL     1       2.058   5.349   7.072  1.00  0.00     0.001 A 
ATOM     69  C   UNL     1       1.707   6.279   8.045  1.00  0.00     0.000 A 
ENDBRANCH  50  64
BRANCH  51  70
ATOM     70  C   UNL     1      -6.798   1.331   0.436  1.00  0.00    -0.014 A 
ATOM     71  C   UNL     1      -7.333   1.806  -0.783  1.00  0.00     0.009 A 
ATOM     72  C   UNL     1      -5.834   0.314   0.372  1.00  0.00     0.009 A 
ATOM     73  C   UNL     1      -6.848   1.362  -2.018  1.00  0.00     0.001 A 
ATOM     74  C   UNL     1      -5.367  -0.149  -0.871  1.00  0.00     0.001 A 
ATOM     75  C   UNL     1      -5.850   0.395  -2.061  1.00  0.00     0.000 A 
ENDBRANCH  51  70
BRANCH  63  76
ATOM     76  C   UNL     1      -5.649   0.983   7.604  1.00  0.00    -0.014 A 
ATOM     77  C   UNL     1      -6.103  -0.335   7.726  1.00  0.00     0.009 A 
ATOM     78  C   UNL     1      -5.040   1.554   8.747  1.00  0.00     0.009 A 
ATOM     79  C   UNL     1      -5.988  -1.032   8.934  1.00  0.00     0.001 A 
ATOM     80  C   UNL     1      -4.873   0.843   9.935  1.00  0.00     0.001 A 
ATOM     81  C   UNL     1      -5.360  -0.451  10.031  1.00  0.00     0.000 A 
ENDBRANCH  63  76
ENDBRANCH  37  38
ENDBRANCH  30  32
ENDBRANCH  29  30
ENDBRANCH  28  29
ENDBRANCH   1  28
TORSDOF 14
