REMARK SMILES Cc1oc2c(c1C(=O)NCCCC(=O)OCCOC(=O)c1ccc(-c3c4nc(c(-c5ccccc5)c5ccc([nH]5)c(-c5ccccc5)c5nc(c(-c6ccccc6)c6ccc3[nH]6)C=C5)C=C4)cc1)CCCC2
REMARK SMILES IDX 16 1 15 2 13 3 14 4 12 5 11 6 10 7 9 8 7 9 8 10 6 12 1 13
REMARK SMILES IDX 2 14 3 15 4 16 5 17 72 18 69 19 71 20 70 21 17 22 18 23
REMARK SMILES IDX 19 24 20 25 21 26 22 27 68 28 23 29 67 30 24 31 25 32 26 33
REMARK SMILES IDX 61 34 27 35 66 36 60 37 62 38 28 39 65 40 59 41 58 42 29 44
REMARK SMILES IDX 51 45 36 46 50 47 37 48 40 49 49 50 63 51 38 52 39 53 48 55
REMARK SMILES IDX 64 56 41 57 30 58 31 59 35 60 32 61 34 62 33 63 52 64 53 65
REMARK SMILES IDX 57 66 54 67 56 68 55 69 42 70 43 71 47 72 44 73 46 74 45 75
REMARK H PARENT 9 11 62 43 40 54
REMARK Flexibility Score: inf
ROOT
ATOM      1  C   UNL     1      -3.084   3.910   2.275  1.00  0.00     0.274 C 
ENDROOT
BRANCH   1   2
ATOM      2  O   UNL     1      -3.138   3.055   1.119  1.00  0.00    -0.462 OA
BRANCH   2   3
ATOM      3  C   UNL     1      -3.262   3.675  -0.085  1.00  0.00     0.305 C 
ATOM      4  O   UNL     1      -3.357   4.884  -0.252  1.00  0.00    -0.252 OA
BRANCH   3   5
ATOM      5  C   UNL     1      -3.325   2.670  -1.208  1.00  0.00     0.124 C 
BRANCH   5   6
ATOM      6  C   UNL     1      -2.015   1.957  -1.525  1.00  0.00     0.033 C 
BRANCH   6   7
ATOM      7  C   UNL     1      -1.458   1.001  -0.469  1.00  0.00     0.117 C 
BRANCH   7   8
ATOM      8  N   UNL     1      -2.321  -0.109  -0.171  1.00  0.00    -0.352 N 
ATOM      9  C   UNL     1      -2.092  -1.433   0.079  1.00  0.00     0.255 C 
ATOM     10  O   UNL     1      -3.124  -2.076   0.301  1.00  0.00    -0.269 OA
ATOM     11  H   UNL     1      -3.274   0.135  -0.141  1.00  0.00     0.163 HD
BRANCH   9  12
ATOM     12  C   UNL     1      -0.787  -2.109   0.067  1.00  0.00     0.084 A 
ATOM     13  C   UNL     1       1.284  -0.403   0.305  1.00  0.00     0.088 C 
ATOM     14  C   UNL     1       0.544  -1.675   0.146  1.00  0.00     0.114 A 
ATOM     15  O   UNL     1       1.406  -2.741   0.092  1.00  0.00    -0.465 OA
ATOM     16  C   UNL     1       0.662  -3.853   0.030  1.00  0.00     0.108 A 
ATOM     17  C   UNL     1      -0.674  -3.553   0.036  1.00  0.00     0.007 A 
ATOM     18  C   UNL     1       1.309  -5.182   0.021  1.00  0.00     0.076 C 
ATOM     19  C   UNL     1      -1.708  -4.632  -0.005  1.00  0.00     0.040 C 
ATOM     20  C   UNL     1       0.264  -6.239  -0.384  1.00  0.00     0.008 C 
ATOM     21  C   UNL     1      -1.091  -6.012   0.316  1.00  0.00     0.005 C 
ENDBRANCH   9  12
ENDBRANCH   7   8
ENDBRANCH   6   7
ENDBRANCH   5   6
ENDBRANCH   3   5
ENDBRANCH   2   3
ENDBRANCH   1   2
BRANCH   1  22
ATOM     22  C   UNL     1      -1.655   4.301   2.627  1.00  0.00     0.275 C 
BRANCH  22  23
ATOM     23  O   UNL     1      -1.128   5.260   1.708  1.00  0.00    -0.458 OA
BRANCH  23  24
ATOM     24  C   UNL     1      -0.384   4.745   0.704  1.00  0.00     0.338 C 
ATOM     25  O   UNL     1      -0.272   3.574   0.397  1.00  0.00    -0.246 OA
BRANCH  24  26
ATOM     26  C   UNL     1       0.465   5.786   0.117  1.00  0.00     0.060 A 
ATOM     27  C   UNL     1       1.168   5.472  -1.052  1.00  0.00     0.016 A 
ATOM     28  C   UNL     1       0.744   6.941   0.856  1.00  0.00     0.016 A 
ATOM     29  C   UNL     1       2.243   6.260  -1.416  1.00  0.00     0.010 A 
ATOM     30  C   UNL     1       1.827   7.713   0.503  1.00  0.00     0.010 A 
ATOM     31  C   UNL     1       2.598   7.335  -0.596  1.00  0.00    -0.014 A 
BRANCH  31  32
ATOM     32  C   UNL     1       3.773   8.113  -0.938  1.00  0.00     0.031 A 
ATOM     33  C   UNL     1       3.575   9.085  -2.032  1.00  0.00     0.074 A 
ATOM     34  C   UNL     1       4.897   8.088  -0.197  1.00  0.00     0.049 A 
ATOM     35  N   UNL     1       4.186   9.133  -3.168  1.00  0.00    -0.248 NA
ATOM     36  C   UNL     1       2.503  10.080  -1.873  1.00  0.00     0.031 C 
ATOM     37  C   UNL     1       5.078   7.424   1.098  1.00  0.00     0.029 A 
ATOM     38  N   UNL     1       6.072   8.758  -0.378  1.00  0.00    -0.354 N 
ATOM     39  C   UNL     1       3.709  10.279  -3.794  1.00  0.00     0.074 A 
ATOM     40  C   UNL     1       2.570  10.726  -3.035  1.00  0.00     0.031 C 
ATOM     41  C   UNL     1       6.197   7.901   1.685  1.00  0.00     0.029 A 
ATOM     42  C   UNL     1       6.873   8.789   0.753  1.00  0.00     0.049 A 
ATOM     43  H   UNL     1       6.325   9.180  -1.231  1.00  0.00     0.167 HD
ATOM     44  C   UNL     1       4.456  10.941  -4.716  1.00  0.00     0.031 A 
ATOM     45  C   UNL     1       7.995   9.521   0.938  1.00  0.00     0.031 A 
ATOM     46  C   UNL     1       5.567  10.157  -5.183  1.00  0.00     0.049 A 
ATOM     47  C   UNL     1       8.529   9.917  -0.381  1.00  0.00     0.074 A 
ATOM     48  C   UNL     1       5.770   9.113  -6.056  1.00  0.00     0.029 A 
ATOM     49  N   UNL     1       6.696  10.278  -4.418  1.00  0.00    -0.354 N 
ATOM     50  N   UNL     1       9.040   9.073  -1.228  1.00  0.00    -0.248 NA
ATOM     51  C   UNL     1       8.259  11.248  -0.913  1.00  0.00     0.031 C 
ATOM     52  C   UNL     1       6.995   8.496  -5.660  1.00  0.00     0.029 A 
ATOM     53  C   UNL     1       7.503   9.181  -4.559  1.00  0.00     0.049 A 
ATOM     54  H   UNL     1       6.899  11.052  -3.844  1.00  0.00     0.167 HD
ATOM     55  C   UNL     1       8.752   9.614  -2.465  1.00  0.00     0.074 A 
ATOM     56  C   UNL     1       8.462  11.017  -2.213  1.00  0.00     0.031 C 
ATOM     57  C   UNL     1       8.443   8.812  -3.522  1.00  0.00     0.031 A 
BRANCH  44  58
ATOM     58  C   UNL     1       4.486  12.447  -4.822  1.00  0.00    -0.014 A 
ATOM     59  C   UNL     1       5.236  13.030  -5.859  1.00  0.00     0.009 A 
ATOM     60  C   UNL     1       4.071  13.303  -3.782  1.00  0.00     0.009 A 
ATOM     61  C   UNL     1       5.590  14.385  -5.829  1.00  0.00     0.001 A 
ATOM     62  C   UNL     1       4.388  14.664  -3.770  1.00  0.00     0.001 A 
ATOM     63  C   UNL     1       5.170  15.200  -4.783  1.00  0.00     0.000 A 
ENDBRANCH  44  58
BRANCH  45  64
ATOM     64  C   UNL     1       8.578  10.029   2.194  1.00  0.00    -0.014 A 
ATOM     65  C   UNL     1       9.933  10.386   2.258  1.00  0.00     0.009 A 
ATOM     66  C   UNL     1       7.744  10.405   3.262  1.00  0.00     0.009 A 
ATOM     67  C   UNL     1      10.427  11.134   3.332  1.00  0.00     0.001 A 
ATOM     68  C   UNL     1       8.239  11.146   4.338  1.00  0.00     0.001 A 
ATOM     69  C   UNL     1       9.577  11.526   4.364  1.00  0.00     0.000 A 
ENDBRANCH  45  64
BRANCH  57  70
ATOM     70  C   UNL     1       8.918   7.388  -3.465  1.00  0.00    -0.014 A 
ATOM     71  C   UNL     1       8.466   6.468  -2.506  1.00  0.00     0.009 A 
ATOM     72  C   UNL     1       9.818   6.948  -4.446  1.00  0.00     0.009 A 
ATOM     73  C   UNL     1       8.935   5.151  -2.505  1.00  0.00     0.001 A 
ATOM     74  C   UNL     1      10.269   5.627  -4.459  1.00  0.00     0.001 A 
ATOM     75  C   UNL     1       9.835   4.732  -3.483  1.00  0.00     0.000 A 
ENDBRANCH  57  70
ENDBRANCH  31  32
ENDBRANCH  24  26
ENDBRANCH  23  24
ENDBRANCH  22  23
ENDBRANCH   1  22
TORSDOF 15
