REMARK SMILES COc1ccc2c(c1)c(CC(=O)OCCOC(=O)c1ccc(-c3c4nc(c(-c5ccccc5)c5ccc([nH]5)c(-c5ccccc5)c5nc(c(-c6ccccc6)c6ccc3[nH]6)C=C5)C=C4)cc1)c(C)n2Cc1ccn(C(F)F)c(=O)c1
REMARK SMILES IDX 14 1 13 2 11 3 12 4 10 5 9 6 3 7 4 8 8 9 5 10 7 11 6 12
REMARK SMILES IDX 69 13 67 14 68 15 2 16 1 17 70 18 71 19 72 20 80 21 73 22
REMARK SMILES IDX 78 23 74 24 79 25 75 26 76 27 77 28 15 29 16 30 17 31 18 32
REMARK SMILES IDX 19 33 20 34 66 35 21 36 65 37 22 38 23 39 24 40 59 41 25 42
REMARK SMILES IDX 64 43 58 44 60 45 26 46 63 47 57 48 56 49 27 51 49 52 34 53
REMARK SMILES IDX 48 54 35 55 38 56 47 57 61 58 36 59 37 60 46 62 62 63 39 64
REMARK SMILES IDX 28 65 29 66 33 67 30 68 32 69 31 70 50 71 51 72 55 73 52 74
REMARK SMILES IDX 54 75 53 76 40 77 41 78 45 79 42 80 44 81 43 82
REMARK H PARENT 60 50 38 61
REMARK Flexibility Score: inf
ROOT
ATOM      1  C   UNL     1      -1.870  -0.048  -7.249  1.00  0.00     0.274 C 
ENDROOT
BRANCH   1   2
ATOM      2  O   UNL     1      -1.252   1.109  -6.642  1.00  0.00    -0.462 OA
BRANCH   2   3
ATOM      3  C   UNL     1      -2.103   2.112  -6.332  1.00  0.00     0.310 C 
ATOM      4  O   UNL     1      -3.302   2.099  -6.606  1.00  0.00    -0.252 OA
BRANCH   3   5
ATOM      5  C   UNL     1      -1.461   3.345  -5.772  1.00  0.00     0.160 C 
BRANCH   5   6
ATOM      6  C   UNL     1      -0.100   3.379  -5.116  1.00  0.00    -0.008 A 
ATOM      7  C   UNL     1       1.355   1.131  -2.240  1.00  0.00     0.119 A 
ATOM      8  C   UNL     1       2.662   1.506  -2.417  1.00  0.00     0.048 A 
ATOM      9  C   UNL     1       0.374   1.669  -3.077  1.00  0.00     0.057 A 
ATOM     10  C   UNL     1       2.976   2.497  -3.359  1.00  0.00     0.031 A 
ATOM     11  C   UNL     1       0.619   2.658  -4.071  1.00  0.00     0.007 A 
ATOM     12  C   UNL     1       1.951   3.103  -4.128  1.00  0.00     0.049 A 
ATOM     13  N   UNL     1       1.988   4.146  -5.037  1.00  0.00    -0.340 N 
ATOM     14  C   UNL     1       0.704   4.480  -5.395  1.00  0.00     0.020 A 
ATOM     15  C   UNL     1       0.280   5.753  -6.057  1.00  0.00     0.065 C 
BRANCH   7  16
ATOM     16  O   UNL     1       0.945   0.119  -1.413  1.00  0.00    -0.497 OA
ATOM     17  C   UNL     1       1.248   0.298  -0.034  1.00  0.00     0.278 C 
ENDBRANCH   7  16
BRANCH  13  18
ATOM     18  C   UNL     1       3.197   4.814  -5.521  1.00  0.00     0.158 C 
BRANCH  18  19
ATOM     19  C   UNL     1       3.509   4.443  -6.956  1.00  0.00    -0.021 A 
ATOM     20  C   UNL     1       2.751   5.061  -8.026  1.00  0.00     0.024 A 
ATOM     21  C   UNL     1       4.453   3.544  -7.280  1.00  0.00     0.077 A 
ATOM     22  C   UNL     1       2.827   4.599  -9.277  1.00  0.00     0.095 A 
ATOM     23  C   UNL     1       4.641   3.105  -8.696  1.00  0.00     0.255 A 
ATOM     24  N   UNL     1       3.726   3.608  -9.608  1.00  0.00    -0.258 N 
ATOM     25  O   UNL     1       5.558   2.333  -8.952  1.00  0.00    -0.269 OA
BRANCH  24  26
ATOM     26  C   UNL     1       3.805   3.127 -10.962  1.00  0.00     0.451 C 
ATOM     27  F   UNL     1       4.968   3.508 -11.544  1.00  0.00    -0.185 F 
ATOM     28  F   UNL     1       3.729   1.776 -11.010  1.00  0.00    -0.185 F 
ENDBRANCH  24  26
ENDBRANCH  18  19
ENDBRANCH  13  18
ENDBRANCH   5   6
ENDBRANCH   3   5
ENDBRANCH   2   3
ENDBRANCH   1   2
BRANCH   1  29
ATOM     29  C   UNL     1      -2.052  -1.148  -6.202  1.00  0.00     0.275 C 
BRANCH  29  30
ATOM     30  O   UNL     1      -3.124  -0.765  -5.314  1.00  0.00    -0.458 OA
BRANCH  30  31
ATOM     31  C   UNL     1      -2.768  -0.383  -4.068  1.00  0.00     0.338 C 
ATOM     32  O   UNL     1      -1.722  -0.677  -3.489  1.00  0.00    -0.246 OA
BRANCH  31  33
ATOM     33  C   UNL     1      -3.647   0.740  -3.679  1.00  0.00     0.060 A 
ATOM     34  C   UNL     1      -5.024   0.727  -3.833  1.00  0.00     0.016 A 
ATOM     35  C   UNL     1      -3.032   1.952  -3.393  1.00  0.00     0.016 A 
ATOM     36  C   UNL     1      -5.691   1.955  -3.958  1.00  0.00     0.010 A 
ATOM     37  C   UNL     1      -3.683   3.155  -3.473  1.00  0.00     0.010 A 
ATOM     38  C   UNL     1      -4.973   3.164  -3.935  1.00  0.00    -0.014 A 
BRANCH  38  39
ATOM     39  C   UNL     1      -5.568   4.484  -4.093  1.00  0.00     0.031 A 
ATOM     40  C   UNL     1      -6.176   4.883  -2.807  1.00  0.00     0.074 A 
ATOM     41  C   UNL     1      -5.494   5.339  -5.143  1.00  0.00     0.049 A 
ATOM     42  N   UNL     1      -7.409   4.666  -2.511  1.00  0.00    -0.248 NA
ATOM     43  C   UNL     1      -5.337   5.259  -1.656  1.00  0.00     0.031 C 
ATOM     44  C   UNL     1      -4.740   5.271  -6.397  1.00  0.00     0.029 A 
ATOM     45  N   UNL     1      -6.146   6.536  -5.279  1.00  0.00    -0.354 N 
ATOM     46  C   UNL     1      -7.564   5.092  -1.207  1.00  0.00     0.074 A 
ATOM     47  C   UNL     1      -6.237   5.227  -0.669  1.00  0.00     0.031 C 
ATOM     48  C   UNL     1      -4.825   6.455  -7.064  1.00  0.00     0.029 A 
ATOM     49  C   UNL     1      -5.766   7.321  -6.370  1.00  0.00     0.049 A 
ATOM     50  H   UNL     1      -6.840   6.827  -4.644  1.00  0.00     0.167 HD
ATOM     51  C   UNL     1      -8.775   5.546  -0.792  1.00  0.00     0.031 A 
ATOM     52  C   UNL     1      -6.263   8.543  -6.729  1.00  0.00     0.031 A 
ATOM     53  C   UNL     1      -9.795   5.244  -1.770  1.00  0.00     0.049 A 
ATOM     54  C   UNL     1      -7.600   8.656  -6.101  1.00  0.00     0.074 A 
ATOM     55  C   UNL     1     -10.331   4.079  -2.280  1.00  0.00     0.029 A 
ATOM     56  N   UNL     1     -10.060   6.232  -2.691  1.00  0.00    -0.354 N 
ATOM     57  N   UNL     1      -8.613   7.925  -6.464  1.00  0.00    -0.248 NA
ATOM     58  C   UNL     1      -7.654   9.202  -4.755  1.00  0.00     0.031 C 
ATOM     59  C   UNL     1     -10.491   4.327  -3.673  1.00  0.00     0.029 A 
ATOM     60  C   UNL     1     -10.154   5.658  -3.931  1.00  0.00     0.049 A 
ATOM     61  H   UNL     1     -10.164   7.190  -2.492  1.00  0.00     0.167 HD
ATOM     62  C   UNL     1      -9.189   7.528  -5.268  1.00  0.00     0.074 A 
ATOM     63  C   UNL     1      -8.583   8.387  -4.247  1.00  0.00     0.031 C 
ATOM     64  C   UNL     1      -9.864   6.347  -5.170  1.00  0.00     0.031 A 
BRANCH  51  65
ATOM     65  C   UNL     1      -8.956   6.625   0.234  1.00  0.00    -0.014 A 
ATOM     66  C   UNL     1      -7.912   7.418   0.742  1.00  0.00     0.009 A 
ATOM     67  C   UNL     1     -10.268   7.047   0.512  1.00  0.00     0.009 A 
ATOM     68  C   UNL     1      -8.160   8.590   1.460  1.00  0.00     0.001 A 
ATOM     69  C   UNL     1     -10.520   8.237   1.198  1.00  0.00     0.001 A 
ATOM     70  C   UNL     1      -9.465   9.011   1.667  1.00  0.00     0.000 A 
ENDBRANCH  51  65
BRANCH  52  71
ATOM     71  C   UNL     1      -5.538   9.789  -7.126  1.00  0.00    -0.014 A 
ATOM     72  C   UNL     1      -4.214   9.992  -6.704  1.00  0.00     0.009 A 
ATOM     73  C   UNL     1      -6.241  10.919  -7.602  1.00  0.00     0.009 A 
ATOM     74  C   UNL     1      -3.636  11.272  -6.699  1.00  0.00     0.001 A 
ATOM     75  C   UNL     1      -5.658  12.200  -7.602  1.00  0.00     0.001 A 
ATOM     76  C   UNL     1      -4.362  12.378  -7.131  1.00  0.00     0.000 A 
ENDBRANCH  52  71
BRANCH  64  77
ATOM     77  C   UNL     1     -10.167   5.570  -6.431  1.00  0.00    -0.014 A 
ATOM     78  C   UNL     1     -11.505   5.205  -6.642  1.00  0.00     0.009 A 
ATOM     79  C   UNL     1      -9.180   4.990  -7.250  1.00  0.00     0.009 A 
ATOM     80  C   UNL     1     -11.850   4.246  -7.593  1.00  0.00     0.001 A 
ATOM     81  C   UNL     1      -9.532   4.049  -8.228  1.00  0.00     0.001 A 
ATOM     82  C   UNL     1     -10.863   3.663  -8.383  1.00  0.00     0.000 A 
ENDBRANCH  64  77
ENDBRANCH  38  39
ENDBRANCH  31  33
ENDBRANCH  30  31
ENDBRANCH  29  30
ENDBRANCH   1  29
TORSDOF 16
