REMARK SMILES C[C@H](NC(=O)c1ccc(NC(N)=O)cc1)C(=O)OCCOC(=O)c1ccc(-c2c3nc(c(-c4ccccc4)c4ccc([nH]4)c(-c4ccccc4)c4nc(c(-c5ccccc5)c5ccc2[nH]5)C=C4)C=C3)cc1
REMARK SMILES IDX 19 1 18 2 16 3 17 4 2 5 1 6 3 7 4 8 5 10 6 11 7 12 15 13
REMARK SMILES IDX 8 14 14 15 9 16 10 17 11 18 12 20 13 21 20 24 21 25 22 26
REMARK SMILES IDX 23 27 24 28 25 29 71 30 26 31 70 32 27 33 28 34 29 35 64 36
REMARK SMILES IDX 30 37 69 38 63 39 65 40 31 41 68 42 62 43 61 44 32 46 54 47
REMARK SMILES IDX 39 48 53 49 40 50 43 51 52 52 66 53 41 54 42 55 51 57 67 58
REMARK SMILES IDX 44 59 33 60 34 61 38 62 35 63 37 64 36 65 55 66 56 67 60 68
REMARK SMILES IDX 57 69 59 70 58 71 45 72 46 73 50 74 47 75 49 76 48 77
REMARK H PARENT 3 9 10 19 12 22 12 23 65 45 43 56
REMARK Flexibility Score: inf
ROOT
ATOM      1  C   UNL     1      -3.219  -0.623  -0.692  1.00  0.00     0.274 C 
ENDROOT
BRANCH   1   2
ATOM      2  O   UNL     1      -1.790  -0.771  -0.770  1.00  0.00    -0.461 OA
BRANCH   2   3
ATOM      3  C   UNL     1      -1.192  -0.216  -1.858  1.00  0.00     0.328 C 
ATOM      4  O   UNL     1      -1.795   0.266  -2.812  1.00  0.00    -0.250 OA
BRANCH   3   5
ATOM      5  C   UNL     1       0.344  -0.265  -1.790  1.00  0.00     0.189 C 
ATOM      6  C   UNL     1       0.836  -1.071  -2.982  1.00  0.00     0.043 C 
BRANCH   5   7
ATOM      7  N   UNL     1       0.878  -0.536  -0.443  1.00  0.00    -0.339 N 
ATOM      8  C   UNL     1       1.782  -1.404   0.104  1.00  0.00     0.251 C 
ATOM      9  H   UNL     1       0.484   0.058   0.235  1.00  0.00     0.164 HD
ATOM     10  O   UNL     1       2.062  -1.353   1.297  1.00  0.00    -0.269 OA
BRANCH   8  11
ATOM     11  C   UNL     1       2.384  -2.459  -0.713  1.00  0.00     0.039 A 
ATOM     12  C   UNL     1       1.868  -3.748  -0.594  1.00  0.00     0.016 A 
ATOM     13  C   UNL     1       3.410  -2.181  -1.615  1.00  0.00     0.016 A 
ATOM     14  C   UNL     1       2.292  -4.742  -1.475  1.00  0.00     0.027 A 
ATOM     15  C   UNL     1       3.808  -3.174  -2.515  1.00  0.00     0.027 A 
ATOM     16  C   UNL     1       3.224  -4.450  -2.475  1.00  0.00     0.042 A 
BRANCH  16  17
ATOM     17  N   UNL     1       3.568  -5.353  -3.499  1.00  0.00    -0.308 N 
ATOM     18  C   UNL     1       3.145  -6.648  -3.640  1.00  0.00     0.316 C 
ATOM     19  H   UNL     1       4.181  -5.016  -4.192  1.00  0.00     0.171 HD
ATOM     20  N   UNL     1       3.491  -7.178  -4.844  1.00  0.00    -0.351 N 
ATOM     21  O   UNL     1       2.520  -7.330  -2.841  1.00  0.00    -0.249 OA
ATOM     22  H   UNL     1       3.995  -6.637  -5.494  1.00  0.00     0.161 HD
ATOM     23  H   UNL     1       3.239  -8.104  -5.065  1.00  0.00     0.161 HD
ENDBRANCH  16  17
ENDBRANCH   8  11
ENDBRANCH   5   7
ENDBRANCH   3   5
ENDBRANCH   2   3
ENDBRANCH   1   2
BRANCH   1  24
ATOM     24  C   UNL     1      -3.603   0.499   0.279  1.00  0.00     0.275 C 
BRANCH  24  25
ATOM     25  O   UNL     1      -3.227   1.805  -0.206  1.00  0.00    -0.458 OA
BRANCH  25  26
ATOM     26  C   UNL     1      -1.960   2.182   0.068  1.00  0.00     0.338 C 
ATOM     27  O   UNL     1      -1.103   1.533   0.660  1.00  0.00    -0.246 OA
BRANCH  26  28
ATOM     28  C   UNL     1      -1.652   3.468  -0.575  1.00  0.00     0.060 A 
ATOM     29  C   UNL     1      -0.471   3.554  -1.320  1.00  0.00     0.016 A 
ATOM     30  C   UNL     1      -2.447   4.599  -0.379  1.00  0.00     0.016 A 
ATOM     31  C   UNL     1      -0.066   4.765  -1.862  1.00  0.00     0.010 A 
ATOM     32  C   UNL     1      -2.034   5.822  -0.917  1.00  0.00     0.010 A 
ATOM     33  C   UNL     1      -0.834   5.912  -1.646  1.00  0.00    -0.014 A 
BRANCH  33  34
ATOM     34  C   UNL     1      -0.326   7.223  -2.101  1.00  0.00     0.031 A 
ATOM     35  C   UNL     1       0.253   8.174  -1.096  1.00  0.00     0.074 A 
ATOM     36  C   UNL     1      -0.354   7.543  -3.406  1.00  0.00     0.049 A 
ATOM     37  N   UNL     1       0.635   9.414  -1.257  1.00  0.00    -0.248 NA
ATOM     38  C   UNL     1       0.424   7.659   0.272  1.00  0.00     0.031 C 
ATOM     39  C   UNL     1      -0.815   6.666  -4.483  1.00  0.00     0.029 A 
ATOM     40  N   UNL     1       0.010   8.700  -4.043  1.00  0.00    -0.354 N 
ATOM     41  C   UNL     1       1.058   9.840  -0.005  1.00  0.00     0.074 A 
ATOM     42  C   UNL     1       0.885   8.728   0.905  1.00  0.00     0.031 C 
ATOM     43  C   UNL     1      -0.713   7.322  -5.650  1.00  0.00     0.029 A 
ATOM     44  C   UNL     1      -0.233   8.677  -5.394  1.00  0.00     0.049 A 
ATOM     45  H   UNL     1       0.407   9.472  -3.579  1.00  0.00     0.167 HD
ATOM     46  C   UNL     1       1.539  11.054   0.353  1.00  0.00     0.031 A 
ATOM     47  C   UNL     1      -0.121   9.654  -6.312  1.00  0.00     0.031 A 
ATOM     48  C   UNL     1       1.710  12.153  -0.559  1.00  0.00     0.049 A 
ATOM     49  C   UNL     1       0.344  11.016  -5.880  1.00  0.00     0.074 A 
ATOM     50  C   UNL     1       2.181  13.428  -0.297  1.00  0.00     0.029 A 
ATOM     51  N   UNL     1       1.418  12.102  -1.913  1.00  0.00    -0.354 N 
ATOM     52  N   UNL     1       0.704  11.424  -4.687  1.00  0.00    -0.248 NA
ATOM     53  C   UNL     1       0.410  12.053  -6.918  1.00  0.00     0.031 C 
ATOM     54  C   UNL     1       2.135  14.161  -1.488  1.00  0.00     0.029 A 
ATOM     55  C   UNL     1       1.681  13.328  -2.499  1.00  0.00     0.049 A 
ATOM     56  H   UNL     1       1.074  11.312  -2.388  1.00  0.00     0.167 HD
ATOM     57  C   UNL     1       1.060  12.758  -4.833  1.00  0.00     0.074 A 
ATOM     58  C   UNL     1       0.881  13.087  -6.234  1.00  0.00     0.031 C 
ATOM     59  C   UNL     1       1.498  13.631  -3.894  1.00  0.00     0.031 A 
BRANCH  46  60
ATOM     60  C   UNL     1       1.854  11.265   1.805  1.00  0.00    -0.014 A 
ATOM     61  C   UNL     1       2.983  10.684   2.404  1.00  0.00     0.009 A 
ATOM     62  C   UNL     1       1.005  12.065   2.586  1.00  0.00     0.009 A 
ATOM     63  C   UNL     1       3.234  10.872   3.765  1.00  0.00     0.001 A 
ATOM     64  C   UNL     1       1.273  12.271   3.941  1.00  0.00     0.001 A 
ATOM     65  C   UNL     1       2.381  11.666   4.531  1.00  0.00     0.000 A 
ENDBRANCH  46  60
BRANCH  47  66
ATOM     66  C   UNL     1      -0.500   9.387  -7.722  1.00  0.00    -0.014 A 
ATOM     67  C   UNL     1       0.479   9.297  -8.722  1.00  0.00     0.009 A 
ATOM     68  C   UNL     1      -1.849   9.205  -8.072  1.00  0.00     0.009 A 
ATOM     69  C   UNL     1       0.114   9.043 -10.046  1.00  0.00     0.001 A 
ATOM     70  C   UNL     1      -2.208   8.926  -9.391  1.00  0.00     0.001 A 
ATOM     71  C   UNL     1      -1.227   8.851 -10.379  1.00  0.00     0.000 A 
ENDBRANCH  47  66
BRANCH  59  72
ATOM     72  C   UNL     1       1.852  15.014  -4.359  1.00  0.00    -0.014 A 
ATOM     73  C   UNL     1       0.859  15.956  -4.664  1.00  0.00     0.009 A 
ATOM     74  C   UNL     1       3.202  15.390  -4.445  1.00  0.00     0.009 A 
ATOM     75  C   UNL     1       1.212  17.244  -5.071  1.00  0.00     0.001 A 
ATOM     76  C   UNL     1       3.551  16.684  -4.830  1.00  0.00     0.001 A 
ATOM     77  C   UNL     1       2.557  17.608  -5.149  1.00  0.00     0.000 A 
ENDBRANCH  59  72
ENDBRANCH  33  34
ENDBRANCH  26  28
ENDBRANCH  25  26
ENDBRANCH  24  25
ENDBRANCH   1  24
TORSDOF 14
