REMARK SMILES COc1ccc(-n2ccnc2C[N@@H+]2Cc3[nH]cnc3C[C@H]2C(=O)OCCOC(=O)c2ccc(-c3c4nc(c(-c5ccccc5)c5ccc([nH]5)c(-c5ccccc5)c5nc(c(-c6ccccc6)c6ccc3[nH]6)C=C5)C=C4)cc2)cc1
REMARK SMILES IDX 25 1 24 2 22 3 23 4 21 5 13 6 14 7 15 9 20 10 16 11 19 12
REMARK SMILES IDX 17 13 18 15 12 16 11 17 7 18 8 19 9 20 10 21 6 22 3 23 4 24
REMARK SMILES IDX 79 25 5 26 78 27 2 28 1 29 26 30 27 31 28 32 29 33 30 34
REMARK SMILES IDX 31 35 77 36 32 37 76 38 33 39 34 40 35 41 70 42 36 43 75 44
REMARK SMILES IDX 69 45 71 46 37 47 74 48 68 49 67 50 38 52 60 53 45 54 59 55
REMARK SMILES IDX 46 56 49 57 58 58 72 59 47 60 48 61 57 63 73 64 50 65 39 66
REMARK SMILES IDX 40 67 44 68 41 69 43 70 42 71 61 72 62 73 66 74 63 75 65 76
REMARK SMILES IDX 64 77 51 78 52 79 56 80 53 81 55 82 54 83
REMARK H PARENT 13 8 16 14 71 51 49 62
REMARK Flexibility Score: inf
ROOT
ATOM      1  C   UNL     1       1.271   4.572  -7.210  1.00  0.00     0.274 C 
ENDROOT
BRANCH   1   2
ATOM      2  O   UNL     1       1.095   3.225  -6.750  1.00  0.00    -0.458 OA
BRANCH   2   3
ATOM      3  C   UNL     1      -0.132   2.650  -6.863  1.00  0.00     0.365 C 
ATOM      4  O   UNL     1      -1.135   3.252  -7.240  1.00  0.00    -0.245 OA
BRANCH   3   5
ATOM      5  C   UNL     1      -0.175   1.172  -6.402  1.00  0.00     0.301 C 
ATOM      6  N   UNL     1       1.008   0.353  -6.843  1.00  0.00    -0.312 N 
ATOM      7  C   UNL     1       2.288   0.675  -6.197  1.00  0.00     0.320 C 
ATOM      8  H   UNL     1       1.288   0.667  -7.772  1.00  0.00     0.349 HD
ATOM      9  C   UNL     1       2.084   1.330  -4.875  1.00  0.00     0.093 A 
ATOM     10  C   UNL     1      -0.397   1.135  -4.871  1.00  0.00     0.136 C 
ATOM     11  N   UNL     1       2.967   2.140  -4.217  1.00  0.00    -0.344 N 
ATOM     12  C   UNL     1       0.882   1.529  -4.236  1.00  0.00     0.074 A 
ATOM     13  C   UNL     1       2.269   2.760  -3.213  1.00  0.00     0.197 A 
ATOM     14  H   UNL     1       3.923   2.255  -4.425  1.00  0.00     0.167 HD
ATOM     15  N   UNL     1       1.008   2.387  -3.182  1.00  0.00    -0.241 NA
BRANCH   6  16
ATOM     16  C   UNL     1       0.636  -1.045  -7.102  1.00  0.00     0.340 C 
BRANCH  16  17
ATOM     17  C   UNL     1       1.702  -2.105  -7.083  1.00  0.00     0.168 A 
ATOM     18  N   UNL     1       2.188  -2.708  -5.928  1.00  0.00    -0.299 N 
ATOM     19  C   UNL     1       3.248  -3.498  -6.311  1.00  0.00     0.113 A 
ATOM     20  C   UNL     1       3.284  -3.435  -7.681  1.00  0.00     0.132 A 
ATOM     21  N   UNL     1       2.335  -2.571  -8.149  1.00  0.00    -0.236 NA
BRANCH  18  22
ATOM     22  C   UNL     1       1.784  -2.487  -4.594  1.00  0.00     0.047 A 
ATOM     23  C   UNL     1       1.004  -1.869  -1.996  1.00  0.00     0.119 A 
ATOM     24  C   UNL     1       0.058  -2.312  -2.921  1.00  0.00     0.048 A 
ATOM     25  C   UNL     1       2.352  -1.798  -2.351  1.00  0.00     0.048 A 
ATOM     26  C   UNL     1       0.441  -2.606  -4.230  1.00  0.00     0.030 A 
ATOM     27  C   UNL     1       2.749  -2.124  -3.648  1.00  0.00     0.030 A 
BRANCH  23  28
ATOM     28  O   UNL     1       0.545  -1.587  -0.738  1.00  0.00    -0.497 OA
ATOM     29  C   UNL     1       1.005  -0.328  -0.247  1.00  0.00     0.278 C 
ENDBRANCH  23  28
ENDBRANCH  18  22
ENDBRANCH  16  17
ENDBRANCH   6  16
ENDBRANCH   3   5
ENDBRANCH   2   3
ENDBRANCH   1   2
BRANCH   1  30
ATOM     30  C   UNL     1       1.963   4.567  -8.563  1.00  0.00     0.275 C 
BRANCH  30  31
ATOM     31  O   UNL     1       1.069   4.162  -9.601  1.00  0.00    -0.458 OA
BRANCH  31  32
ATOM     32  C   UNL     1       1.086   2.833  -9.845  1.00  0.00     0.338 C 
ATOM     33  O   UNL     1       1.555   1.956  -9.145  1.00  0.00    -0.246 OA
BRANCH  32  34
ATOM     34  C   UNL     1       0.709   2.568 -11.228  1.00  0.00     0.060 A 
ATOM     35  C   UNL     1       0.372   1.252 -11.568  1.00  0.00     0.016 A 
ATOM     36  C   UNL     1       1.010   3.535 -12.192  1.00  0.00     0.016 A 
ATOM     37  C   UNL     1       0.443   0.874 -12.892  1.00  0.00     0.010 A 
ATOM     38  C   UNL     1       1.102   3.150 -13.508  1.00  0.00     0.010 A 
ATOM     39  C   UNL     1       0.864   1.814 -13.836  1.00  0.00    -0.014 A 
BRANCH  39  40
ATOM     40  C   UNL     1       0.986   1.400 -15.217  1.00  0.00     0.031 A 
ATOM     41  C   UNL     1      -0.295   1.283 -15.951  1.00  0.00     0.074 A 
ATOM     42  C   UNL     1       2.178   1.324 -15.834  1.00  0.00     0.049 A 
ATOM     43  N   UNL     1      -0.742   0.264 -16.606  1.00  0.00    -0.248 NA
ATOM     44  C   UNL     1      -1.228   2.420 -15.887  1.00  0.00     0.031 C 
ATOM     45  C   UNL     1       3.487   1.719 -15.310  1.00  0.00     0.029 A 
ATOM     46  N   UNL     1       2.437   1.015 -17.133  1.00  0.00    -0.354 N 
ATOM     47  C   UNL     1      -1.955   0.666 -17.152  1.00  0.00     0.074 A 
ATOM     48  C   UNL     1      -2.260   1.957 -16.589  1.00  0.00     0.031 C 
ATOM     49  C   UNL     1       4.347   1.857 -16.344  1.00  0.00     0.029 A 
ATOM     50  C   UNL     1       3.676   1.455 -17.571  1.00  0.00     0.049 A 
ATOM     51  H   UNL     1       1.804   0.526 -17.707  1.00  0.00     0.167 HD
ATOM     52  C   UNL     1      -2.544  -0.003 -18.178  1.00  0.00     0.031 A 
ATOM     53  C   UNL     1       4.080   1.566 -18.858  1.00  0.00     0.031 A 
ATOM     54  C   UNL     1      -1.998  -1.317 -18.363  1.00  0.00     0.049 A 
ATOM     55  C   UNL     1       3.177   0.740 -19.695  1.00  0.00     0.074 A 
ATOM     56  C   UNL     1      -1.919  -2.452 -17.582  1.00  0.00     0.029 A 
ATOM     57  N   UNL     1      -1.092  -1.492 -19.381  1.00  0.00    -0.354 N 
ATOM     58  N   UNL     1       3.166  -0.561 -19.675  1.00  0.00    -0.248 NA
ATOM     59  C   UNL     1       1.991   1.359 -20.270  1.00  0.00     0.031 C 
ATOM     60  C   UNL     1      -0.656  -3.031 -17.898  1.00  0.00     0.029 A 
ATOM     61  C   UNL     1      -0.056  -2.234 -18.875  1.00  0.00     0.049 A 
ATOM     62  H   UNL     1      -1.171  -1.149 -20.301  1.00  0.00     0.167 HD
ATOM     63  C   UNL     1       1.829  -0.906 -19.810  1.00  0.00     0.074 A 
ATOM     64  C   UNL     1       1.175   0.301 -20.305  1.00  0.00     0.031 C 
ATOM     65  C   UNL     1       1.332  -2.041 -19.232  1.00  0.00     0.031 A 
BRANCH  52  66
ATOM     66  C   UNL     1      -3.380   0.675 -19.225  1.00  0.00    -0.014 A 
ATOM     67  C   UNL     1      -4.100  -0.112 -20.139  1.00  0.00     0.009 A 
ATOM     68  C   UNL     1      -3.270   2.050 -19.510  1.00  0.00     0.009 A 
ATOM     69  C   UNL     1      -4.643   0.445 -21.302  1.00  0.00     0.001 A 
ATOM     70  C   UNL     1      -3.848   2.616 -20.647  1.00  0.00     0.001 A 
ATOM     71  C   UNL     1      -4.514   1.808 -21.557  1.00  0.00     0.000 A 
ENDBRANCH  52  66
BRANCH  53  72
ATOM     72  C   UNL     1       5.052   2.518 -19.433  1.00  0.00    -0.014 A 
ATOM     73  C   UNL     1       5.599   2.305 -20.706  1.00  0.00     0.009 A 
ATOM     74  C   UNL     1       5.276   3.768 -18.826  1.00  0.00     0.009 A 
ATOM     75  C   UNL     1       6.318   3.316 -21.358  1.00  0.00     0.001 A 
ATOM     76  C   UNL     1       6.003   4.773 -19.469  1.00  0.00     0.001 A 
ATOM     77  C   UNL     1       6.512   4.551 -20.743  1.00  0.00     0.000 A 
ENDBRANCH  53  72
BRANCH  65  78
ATOM     78  C   UNL     1       2.321  -3.018 -18.643  1.00  0.00    -0.014 A 
ATOM     79  C   UNL     1       3.214  -2.664 -17.615  1.00  0.00     0.009 A 
ATOM     80  C   UNL     1       2.250  -4.366 -19.022  1.00  0.00     0.009 A 
ATOM     81  C   UNL     1       4.041  -3.618 -17.017  1.00  0.00     0.001 A 
ATOM     82  C   UNL     1       3.059  -5.326 -18.407  1.00  0.00     0.001 A 
ATOM     83  C   UNL     1       3.959  -4.951 -17.412  1.00  0.00     0.000 A 
ENDBRANCH  65  78
ENDBRANCH  39  40
ENDBRANCH  32  34
ENDBRANCH  31  32
ENDBRANCH  30  31
ENDBRANCH   1  30
TORSDOF 15
