REMARK SMILES O=C(OCCOC(=O)[C@@]1([NH2+]C2CC2)CCC[C@H]1CCn1ccnc1)c1ccc(-c2c3nc(c(-c4ccccc4)c4ccc([nH]4)c(-c4ccccc4)c4nc(c(-c5ccccc5)c5ccc2[nH]5)C=C4)C=C3)cc1
REMARK SMILES IDX 5 1 4 2 3 3 2 4 1 5 25 6 26 7 72 8 27 9 71 10 28 11 29 12
REMARK SMILES IDX 30 13 65 14 31 15 70 16 64 17 66 18 32 19 69 20 63 21 62 22
REMARK SMILES IDX 33 24 55 25 40 26 54 27 41 28 44 29 53 30 67 31 42 32 43 33
REMARK SMILES IDX 52 35 68 36 45 37 34 38 35 39 39 40 36 41 38 42 37 43 56 44
REMARK SMILES IDX 57 45 61 46 58 47 60 48 59 49 46 50 47 51 51 52 48 53 50 54
REMARK SMILES IDX 49 55 6 56 7 57 8 58 9 59 14 60 17 61 15 62 16 63 10 64
REMARK SMILES IDX 11 67 12 68 13 69 18 70 19 71 20 72 21 73 24 74 22 75 23 76
REMARK H PARENT 66 23 44 34 10 65 10 66
REMARK Flexibility Score: inf
ROOT
ATOM      1  C   UNL     1       4.401   1.911   0.770  1.00  0.00     0.274 C 
ENDROOT
BRANCH   1   2
ATOM      2  C   UNL     1       4.501   1.635  -0.744  1.00  0.00     0.275 C 
BRANCH   2   3
ATOM      3  O   UNL     1       3.467   0.969  -1.452  1.00  0.00    -0.458 OA
BRANCH   3   4
ATOM      4  C   UNL     1       2.416   0.477  -0.813  1.00  0.00     0.338 C 
ATOM      5  O   UNL     1       1.278   0.852  -1.069  1.00  0.00    -0.246 OA
BRANCH   4   6
ATOM      6  C   UNL     1       2.626  -0.818  -0.078  1.00  0.00     0.060 A 
ATOM      7  C   UNL     1       4.023  -1.696   0.766  1.00  0.00     0.016 A 
ATOM      8  C   UNL     1       1.138  -1.702  -0.411  1.00  0.00     0.016 A 
ATOM      9  C   UNL     1       3.864  -3.554   0.944  1.00  0.00     0.010 A 
ATOM     10  C   UNL     1       1.024  -3.356  -0.216  1.00  0.00     0.010 A 
ATOM     11  C   UNL     1       2.313  -4.331   0.370  1.00  0.00    -0.014 A 
BRANCH  11  12
ATOM     12  C   UNL     1       2.082  -5.790  -0.036  1.00  0.00     0.031 A 
ATOM     13  C   UNL     1       2.884  -6.595   0.892  1.00  0.00     0.074 A 
ATOM     14  C   UNL     1       1.275  -6.343  -1.030  1.00  0.00     0.049 A 
ATOM     15  N   UNL     1       4.034  -7.124   0.636  1.00  0.00    -0.248 NA
ATOM     16  C   UNL     1       2.569  -6.490   2.327  1.00  0.00     0.031 C 
ATOM     17  C   UNL     1       0.416  -5.681  -2.044  1.00  0.00     0.029 A 
ATOM     18  N   UNL     1       0.982  -7.681  -1.345  1.00  0.00    -0.354 N 
ATOM     19  C   UNL     1       4.409  -7.698   1.842  1.00  0.00     0.074 A 
ATOM     20  C   UNL     1       3.688  -6.983   2.859  1.00  0.00     0.031 C 
ATOM     21  C   UNL     1      -0.481  -6.538  -2.598  1.00  0.00     0.029 A 
ATOM     22  C   UNL     1      -0.194  -7.882  -2.148  1.00  0.00     0.049 A 
ATOM     23  H   UNL     1       1.543  -8.429  -1.037  1.00  0.00     0.167 HD
ATOM     24  C   UNL     1       4.823  -8.995   1.849  1.00  0.00     0.031 A 
ATOM     25  C   UNL     1      -0.847  -9.053  -2.482  1.00  0.00     0.031 A 
ATOM     26  C   UNL     1       5.298  -9.384   0.541  1.00  0.00     0.049 A 
ATOM     27  C   UNL     1       0.114 -10.157  -2.291  1.00  0.00     0.074 A 
ATOM     28  C   UNL     1       6.258  -8.905  -0.329  1.00  0.00     0.029 A 
ATOM     29  N   UNL     1       4.431 -10.133  -0.213  1.00  0.00    -0.354 N 
ATOM     30  N   UNL     1       1.150 -10.316  -3.059  1.00  0.00    -0.248 NA
ATOM     31  C   UNL     1       0.213 -10.672  -0.940  1.00  0.00     0.031 C 
ATOM     32  C   UNL     1       5.697  -9.052  -1.630  1.00  0.00     0.029 A 
ATOM     33  C   UNL     1       4.491  -9.742  -1.522  1.00  0.00     0.049 A 
ATOM     34  H   UNL     1       3.850 -10.847   0.137  1.00  0.00     0.167 HD
ATOM     35  C   UNL     1       2.191 -10.440  -2.156  1.00  0.00     0.074 A 
ATOM     36  C   UNL     1       1.545 -10.672  -0.858  1.00  0.00     0.031 C 
ATOM     37  C   UNL     1       3.443 -10.008  -2.478  1.00  0.00     0.031 A 
BRANCH  24  38
ATOM     38  C   UNL     1       4.245 -10.000   2.830  1.00  0.00    -0.014 A 
ATOM     39  C   UNL     1       4.721 -11.318   2.784  1.00  0.00     0.009 A 
ATOM     40  C   UNL     1       3.069  -9.787   3.583  1.00  0.00     0.009 A 
ATOM     41  C   UNL     1       4.020 -12.364   3.398  1.00  0.00     0.001 A 
ATOM     42  C   UNL     1       2.384 -10.820   4.223  1.00  0.00     0.001 A 
ATOM     43  C   UNL     1       2.849 -12.117   4.109  1.00  0.00     0.000 A 
ENDBRANCH  24  38
BRANCH  25  44
ATOM     44  C   UNL     1      -2.308  -9.402  -2.644  1.00  0.00    -0.014 A 
ATOM     45  C   UNL     1      -2.753 -10.674  -3.097  1.00  0.00     0.009 A 
ATOM     46  C   UNL     1      -3.274  -8.602  -2.018  1.00  0.00     0.009 A 
ATOM     47  C   UNL     1      -4.077 -11.125  -2.884  1.00  0.00     0.001 A 
ATOM     48  C   UNL     1      -4.589  -9.054  -1.797  1.00  0.00     0.001 A 
ATOM     49  C   UNL     1      -4.989 -10.319  -2.213  1.00  0.00     0.000 A 
ENDBRANCH  25  44
BRANCH  37  50
ATOM     50  C   UNL     1       3.732  -9.658  -3.919  1.00  0.00    -0.014 A 
ATOM     51  C   UNL     1       3.143  -8.591  -4.625  1.00  0.00     0.009 A 
ATOM     52  C   UNL     1       4.768 -10.372  -4.539  1.00  0.00     0.009 A 
ATOM     53  C   UNL     1       3.574  -8.274  -5.923  1.00  0.00     0.001 A 
ATOM     54  C   UNL     1       5.209 -10.042  -5.819  1.00  0.00     0.001 A 
ATOM     55  C   UNL     1       4.608  -8.998  -6.516  1.00  0.00     0.000 A 
ENDBRANCH  37  50
ENDBRANCH  11  12
ENDBRANCH   4   6
ENDBRANCH   3   4
ENDBRANCH   2   3
ENDBRANCH   1   2
BRANCH   1  56
ATOM     56  O   UNL     1       3.895   0.833   1.587  1.00  0.00    -0.457 OA
BRANCH  56  57
ATOM     57  C   UNL     1       2.528   0.784   1.780  1.00  0.00     0.368 C 
ATOM     58  O   UNL     1       1.800   1.717   1.464  1.00  0.00    -0.245 OA
BRANCH  57  59
ATOM     59  C   UNL     1       2.009  -0.662   2.328  1.00  0.00     0.197 C 
ATOM     60  C   UNL     1       0.480  -0.821   2.478  1.00  0.00     0.081 C 
ATOM     61  C   UNL     1       2.253  -2.294   1.365  1.00  0.00     0.064 C 
ATOM     62  C   UNL     1       0.232  -2.221   3.032  1.00  0.00     0.008 C 
ATOM     63  C   UNL     1       1.202  -3.183   2.361  1.00  0.00     0.011 C 
BRANCH  59  64
ATOM     64  N   UNL     1       2.516  -0.601   3.768  1.00  0.00    -0.329 N 
ATOM     65  H   UNL     1       3.521  -0.778   3.736  1.00  0.00     0.347 HD
ATOM     66  H   UNL     1       1.942  -1.290   4.254  1.00  0.00     0.347 HD
BRANCH  64  67
ATOM     67  C   UNL     1       2.316   0.669   4.576  1.00  0.00     0.183 C 
ATOM     68  C   UNL     1       1.455   1.862   4.200  1.00  0.00     0.071 C 
ATOM     69  C   UNL     1       1.031   0.979   5.320  1.00  0.00     0.071 C 
ENDBRANCH  64  67
ENDBRANCH  59  64
BRANCH  61  70
ATOM     70  C   UNL     1       3.102  -2.668  -0.663  1.00  0.00     0.032 C 
BRANCH  70  71
ATOM     71  C   UNL     1       4.790  -2.158  -1.347  1.00  0.00     0.123 C 
BRANCH  71  72
ATOM     72  N   UNL     1       6.097  -2.219  -0.642  1.00  0.00    -0.337 N 
ATOM     73  C   UNL     1       6.834  -1.159  -0.140  1.00  0.00     0.107 A 
ATOM     74  C   UNL     1       6.787  -3.337  -0.249  1.00  0.00     0.199 A 
ATOM     75  C   UNL     1       7.776  -1.699   0.703  1.00  0.00     0.130 A 
ATOM     76  N   UNL     1       7.754  -3.056   0.603  1.00  0.00    -0.245 NA
ENDBRANCH  71  72
ENDBRANCH  70  71
ENDBRANCH  61  70
ENDBRANCH  57  59
ENDBRANCH  56  57
ENDBRANCH   1  56
TORSDOF 16
