REMARK SMILES COc1ccc(-n2c(SCc3cn(-c4ccc(C(=O)OCCOC(=O)c5ccc(-c6c7nc(c(-c8ccccc8)c8ccc([nH]8)c(-c8ccccc8)c8nc(c(-c9ccccc9)c9ccc6[nH]9)C=C8)C=C7)cc5)cc4)nn3)nc3ccccc3c2=O)cc1
REMARK SMILES IDX 18 1 19 2 17 3 14 4 15 5 75 6 16 7 74 8 13 9 11 10 12 11
REMARK SMILES IDX 77 12 76 13 10 14 9 15 8 16 7 17 85 18 78 19 84 20 86 21
REMARK SMILES IDX 79 22 83 23 80 24 82 25 81 26 6 27 3 28 4 29 88 30 5 31
REMARK SMILES IDX 87 32 2 33 1 34 20 35 21 36 22 37 23 38 24 39 25 40 26 41
REMARK SMILES IDX 27 42 73 43 28 44 72 45 29 46 30 47 31 48 66 49 32 50 71 51
REMARK SMILES IDX 65 52 67 53 33 54 70 55 64 56 63 57 34 59 56 60 41 61 55 62
REMARK SMILES IDX 42 63 45 64 54 65 68 66 43 67 44 68 53 70 69 71 46 72 35 73
REMARK SMILES IDX 36 74 40 75 37 76 39 77 38 78 57 79 58 80 62 81 59 82 61 83
REMARK SMILES IDX 60 84 47 85 48 86 52 87 49 88 51 89 50 90
REMARK H PARENT 67 58 45 69
REMARK Flexibility Score: inf
ROOT
ATOM      1  C   UNL     1      -0.022  -8.911   2.619  1.00  0.00     0.338 C 
ATOM      2  O   UNL     1      -0.111  -9.398   1.500  1.00  0.00    -0.246 OA
ENDROOT
BRANCH   1   3
ATOM      3  C   UNL     1       0.214  -7.477   2.854  1.00  0.00     0.060 A 
ATOM      4  C   UNL     1       0.927  -4.833   3.046  1.00  0.00     0.066 A 
ATOM      5  C   UNL     1       0.188  -5.243   1.937  1.00  0.00     0.029 A 
ATOM      6  C   UNL     1       1.163  -5.687   4.134  1.00  0.00     0.029 A 
ATOM      7  C   UNL     1      -0.138  -6.585   1.830  1.00  0.00     0.018 A 
ATOM      8  C   UNL     1       0.795  -7.019   4.040  1.00  0.00     0.018 A 
BRANCH   4   9
ATOM      9  N   UNL     1       1.637  -3.629   2.955  1.00  0.00    -0.220 N 
ATOM     10  C   UNL     1       3.269  -2.209   2.977  1.00  0.00     0.093 A 
ATOM     11  C   UNL     1       2.860  -3.403   3.512  1.00  0.00     0.141 A 
ATOM     12  N   UNL     1       2.322  -1.757   2.111  1.00  0.00    -0.134 NA
ATOM     13  N   UNL     1       1.336  -2.643   2.085  1.00  0.00    -0.062 NA
BRANCH  10  14
ATOM     14  C   UNL     1       4.509  -1.470   3.231  1.00  0.00     0.138 C 
BRANCH  14  15
ATOM     15  S   UNL     1       5.041  -1.611   4.939  1.00  0.00    -0.081 SA
BRANCH  15  16
ATOM     16  C   UNL     1       3.492  -1.461   5.876  1.00  0.00     0.176 A 
ATOM     17  N   UNL     1       3.145  -0.146   6.085  1.00  0.00    -0.255 N 
ATOM     18  C   UNL     1       3.740   0.462   7.179  1.00  0.00     0.266 A 
ATOM     19  N   UNL     1       3.359  -2.299   6.863  1.00  0.00    -0.223 NA
ATOM     20  C   UNL     1       4.507  -0.499   8.044  1.00  0.00     0.066 A 
ATOM     21  O   UNL     1       3.727   1.658   7.444  1.00  0.00    -0.268 OA
ATOM     22  C   UNL     1       4.165  -1.866   7.942  1.00  0.00     0.079 A 
ATOM     23  C   UNL     1       5.674  -0.121   8.701  1.00  0.00     0.016 A 
ATOM     24  C   UNL     1       4.883  -2.826   8.651  1.00  0.00     0.029 A 
ATOM     25  C   UNL     1       6.465  -1.110   9.297  1.00  0.00     0.001 A 
ATOM     26  C   UNL     1       6.049  -2.447   9.313  1.00  0.00     0.002 A 
BRANCH  17  27
ATOM     27  C   UNL     1       2.330   0.509   5.135  1.00  0.00     0.052 A 
ATOM     28  C   UNL     1       0.934   1.173   2.813  1.00  0.00     0.119 A 
ATOM     29  C   UNL     1       0.286   0.463   3.819  1.00  0.00     0.048 A 
ATOM     30  C   UNL     1       2.225   1.662   3.015  1.00  0.00     0.048 A 
ATOM     31  C   UNL     1       0.997   0.100   4.967  1.00  0.00     0.030 A 
ATOM     32  C   UNL     1       2.915   1.357   4.192  1.00  0.00     0.030 A 
BRANCH  28  33
ATOM     33  O   UNL     1       0.280   1.413   1.634  1.00  0.00    -0.497 OA
ATOM     34  C   UNL     1       0.772   0.554   0.597  1.00  0.00     0.278 C 
ENDBRANCH  28  33
ENDBRANCH  17  27
ENDBRANCH  15  16
ENDBRANCH  14  15
ENDBRANCH  10  14
ENDBRANCH   4   9
ENDBRANCH   1   3
BRANCH   1  35
ATOM     35  O   UNL     1      -0.221  -9.543   3.798  1.00  0.00    -0.458 OA
BRANCH  35  36
ATOM     36  C   UNL     1      -0.835 -10.830   3.683  1.00  0.00     0.275 C 
BRANCH  36  37
ATOM     37  C   UNL     1      -2.350 -10.692   3.677  1.00  0.00     0.275 C 
BRANCH  37  38
ATOM     38  O   UNL     1      -2.844 -10.083   2.479  1.00  0.00    -0.458 OA
BRANCH  38  39
ATOM     39  C   UNL     1      -3.138  -8.766   2.582  1.00  0.00     0.338 C 
ATOM     40  O   UNL     1      -2.699  -7.967   3.392  1.00  0.00    -0.246 OA
BRANCH  39  41
ATOM     41  C   UNL     1      -4.280  -8.460   1.714  1.00  0.00     0.060 A 
ATOM     42  C   UNL     1      -4.565  -7.122   1.423  1.00  0.00     0.016 A 
ATOM     43  C   UNL     1      -5.190  -9.484   1.416  1.00  0.00     0.016 A 
ATOM     44  C   UNL     1      -5.816  -6.805   0.922  1.00  0.00     0.010 A 
ATOM     45  C   UNL     1      -6.440  -9.164   0.936  1.00  0.00     0.010 A 
ATOM     46  C   UNL     1      -6.763  -7.824   0.738  1.00  0.00    -0.014 A 
BRANCH  46  47
ATOM     47  C   UNL     1      -8.037  -7.490   0.122  1.00  0.00     0.031 A 
ATOM     48  C   UNL     1      -7.880  -7.068  -1.290  1.00  0.00     0.074 A 
ATOM     49  C   UNL     1      -9.236  -7.696   0.704  1.00  0.00     0.049 A 
ATOM     50  N   UNL     1      -8.127  -5.903  -1.787  1.00  0.00    -0.248 NA
ATOM     51  C   UNL     1      -7.209  -7.992  -2.224  1.00  0.00     0.031 C 
ATOM     52  C   UNL     1      -9.504  -8.360   1.982  1.00  0.00     0.029 A 
ATOM     53  N   UNL     1     -10.488  -7.460   0.216  1.00  0.00    -0.354 N 
ATOM     54  C   UNL     1      -7.857  -6.015  -3.145  1.00  0.00     0.074 A 
ATOM     55  C   UNL     1      -7.117  -7.238  -3.318  1.00  0.00     0.031 C 
ATOM     56  C   UNL     1     -10.816  -8.687   2.049  1.00  0.00     0.029 A 
ATOM     57  C   UNL     1     -11.498  -8.148   0.884  1.00  0.00     0.049 A 
ATOM     58  H   UNL     1     -10.662  -6.857  -0.543  1.00  0.00     0.167 HD
ATOM     59  C   UNL     1      -8.547  -5.267  -4.047  1.00  0.00     0.031 A 
ATOM     60  C   UNL     1     -12.783  -8.315   0.476  1.00  0.00     0.031 A 
ATOM     61  C   UNL     1      -9.173  -4.128  -3.421  1.00  0.00     0.049 A 
ATOM     62  C   UNL     1     -13.072  -7.280  -0.538  1.00  0.00     0.074 A 
ATOM     63  C   UNL     1      -8.731  -3.053  -2.676  1.00  0.00     0.029 A 
ATOM     64  N   UNL     1     -10.524  -4.219  -3.196  1.00  0.00    -0.354 N 
ATOM     65  N   UNL     1     -13.178  -6.014  -0.264  1.00  0.00    -0.248 NA
ATOM     66  C   UNL     1     -12.832  -7.599  -1.935  1.00  0.00     0.031 C 
ATOM     67  C   UNL     1      -9.750  -2.833  -1.701  1.00  0.00     0.029 A 
ATOM     68  C   UNL     1     -10.791  -3.728  -1.948  1.00  0.00     0.049 A 
ATOM     69  H   UNL     1     -11.189  -4.577  -3.827  1.00  0.00     0.167 HD
ATOM     70  C   UNL     1     -12.541  -5.381  -1.319  1.00  0.00     0.074 A 
ATOM     71  C   UNL     1     -12.466  -6.392  -2.373  1.00  0.00     0.031 C 
ATOM     72  C   UNL     1     -11.880  -4.202  -1.123  1.00  0.00     0.031 A 
BRANCH  59  73
ATOM     73  C   UNL     1      -9.079  -5.860  -5.335  1.00  0.00    -0.014 A 
ATOM     74  C   UNL     1      -9.822  -5.030  -6.193  1.00  0.00     0.009 A 
ATOM     75  C   UNL     1      -9.159  -7.247  -5.574  1.00  0.00     0.009 A 
ATOM     76  C   UNL     1     -10.673  -5.568  -7.167  1.00  0.00     0.001 A 
ATOM     77  C   UNL     1      -9.973  -7.784  -6.573  1.00  0.00     0.001 A 
ATOM     78  C   UNL     1     -10.756  -6.945  -7.348  1.00  0.00     0.000 A 
ENDBRANCH  59  73
BRANCH  60  79
ATOM     79  C   UNL     1     -13.706  -9.457   0.685  1.00  0.00    -0.014 A 
ATOM     80  C   UNL     1     -15.074  -9.335   0.377  1.00  0.00     0.009 A 
ATOM     81  C   UNL     1     -13.201 -10.751   0.898  1.00  0.00     0.009 A 
ATOM     82  C   UNL     1     -15.887 -10.469   0.233  1.00  0.00     0.001 A 
ATOM     83  C   UNL     1     -14.014 -11.881   0.760  1.00  0.00     0.001 A 
ATOM     84  C   UNL     1     -15.353 -11.742   0.408  1.00  0.00     0.000 A 
ENDBRANCH  60  79
BRANCH  72  85
ATOM     85  C   UNL     1     -12.148  -3.447   0.156  1.00  0.00    -0.014 A 
ATOM     86  C   UNL     1     -11.954  -3.980   1.443  1.00  0.00     0.009 A 
ATOM     87  C   UNL     1     -12.526  -2.100   0.048  1.00  0.00     0.009 A 
ATOM     88  C   UNL     1     -12.182  -3.201   2.583  1.00  0.00     0.001 A 
ATOM     89  C   UNL     1     -12.728  -1.315   1.183  1.00  0.00     0.001 A 
ATOM     90  C   UNL     1     -12.568  -1.869   2.451  1.00  0.00     0.000 A 
ENDBRANCH  72  85
ENDBRANCH  46  47
ENDBRANCH  39  41
ENDBRANCH  38  39
ENDBRANCH  37  38
ENDBRANCH  36  37
ENDBRANCH  35  36
ENDBRANCH   1  35
TORSDOF 17
