REMARK SMILES Cc1cc(C(=O)OCCOC(=O)c2ccc(-c3c4nc(c(-c5ccccc5)c5ccc([nH]5)c(-c5ccccc5)c5nc(c(-c6ccccc6)c6ccc3[nH]6)C=C5)C=C4)cc2)ccc1NC(=O)c1ccc(=O)n(CCOc2ccccc2)n1
REMARK SMILES IDX 5 1 6 2 4 3 1 4 2 5 3 6 63 7 62 8 61 9 64 10 65 11 66 13
REMARK SMILES IDX 67 14 68 15 82 16 69 17 72 18 70 19 71 20 73 21 74 22 75 23
REMARK SMILES IDX 76 24 77 25 81 26 78 27 80 28 79 29 7 30 8 31 9 32 10 33
REMARK SMILES IDX 11 34 12 35 13 36 14 37 60 38 15 39 59 40 16 41 17 42 18 43
REMARK SMILES IDX 53 44 19 45 58 46 52 47 54 48 20 49 57 50 51 51 50 52 21 54
REMARK SMILES IDX 43 55 28 56 42 57 29 58 32 59 41 60 55 61 30 62 31 63 40 65
REMARK SMILES IDX 56 66 33 67 22 68 23 69 27 70 24 71 26 72 25 73 44 74 45 75
REMARK SMILES IDX 49 76 46 77 48 78 47 79 34 80 35 81 39 82 36 83 38 84 37 85
REMARK H PARENT 64 12 54 53 32 64
REMARK Flexibility Score: inf
ROOT
ATOM      1  C   UNL     1      -2.114  -1.578  -1.242  1.00  0.00     0.338 C 
ATOM      2  O   UNL     1      -2.736  -1.485  -0.188  1.00  0.00    -0.246 OA
ENDROOT
BRANCH   1   3
ATOM      3  C   UNL     1      -1.016  -0.633  -1.485  1.00  0.00     0.060 A 
ATOM      4  C   UNL     1       2.542   0.087  -0.259  1.00  0.00     0.046 C 
ATOM      5  C   UNL     1       1.107   0.321  -0.639  1.00  0.00    -0.027 A 
ATOM      6  C   UNL     1       0.333  -0.794  -1.109  1.00  0.00     0.021 A 
ATOM      7  C   UNL     1       0.441   1.523  -0.371  1.00  0.00     0.044 A 
ATOM      8  C   UNL     1      -0.904   1.516  -0.656  1.00  0.00     0.027 A 
ATOM      9  C   UNL     1      -1.579   0.608  -1.425  1.00  0.00     0.018 A 
BRANCH   7  10
ATOM     10  N   UNL     1       1.017   2.693   0.197  1.00  0.00    -0.320 N 
ATOM     11  C   UNL     1       0.453   3.965   0.430  1.00  0.00     0.276 C 
ATOM     12  H   UNL     1       1.958   2.601   0.470  1.00  0.00     0.170 HD
ATOM     13  O   UNL     1       1.137   4.911   0.806  1.00  0.00    -0.267 OA
BRANCH  11  14
ATOM     14  C   UNL     1      -1.037   4.212   0.156  1.00  0.00     0.149 A 
ATOM     15  C   UNL     1      -1.388   4.499  -1.255  1.00  0.00     0.042 A 
ATOM     16  N   UNL     1      -1.907   3.970   1.101  1.00  0.00    -0.164 NA
ATOM     17  C   UNL     1      -2.576   4.035  -1.650  1.00  0.00     0.076 A 
ATOM     18  N   UNL     1      -3.210   3.646   0.667  1.00  0.00    -0.226 N 
ATOM     19  C   UNL     1      -3.455   3.344  -0.677  1.00  0.00     0.266 A 
ATOM     20  O   UNL     1      -4.279   2.533  -1.095  1.00  0.00    -0.268 OA
BRANCH  18  21
ATOM     21  C   UNL     1      -4.138   3.148   1.696  1.00  0.00     0.190 C 
BRANCH  21  22
ATOM     22  C   UNL     1      -5.008   4.251   2.319  1.00  0.00     0.253 C 
BRANCH  22  23
ATOM     23  O   UNL     1      -6.251   4.480   1.616  1.00  0.00    -0.492 OA
BRANCH  23  24
ATOM     24  C   UNL     1      -6.116   5.415   0.628  1.00  0.00     0.119 A 
ATOM     25  C   UNL     1      -6.238   6.774   0.883  1.00  0.00     0.046 A 
ATOM     26  C   UNL     1      -5.915   4.980  -0.673  1.00  0.00     0.046 A 
ATOM     27  C   UNL     1      -5.994   7.689  -0.147  1.00  0.00     0.004 A 
ATOM     28  C   UNL     1      -5.569   5.880  -1.678  1.00  0.00     0.004 A 
ATOM     29  C   UNL     1      -5.596   7.242  -1.410  1.00  0.00     0.000 A 
ENDBRANCH  23  24
ENDBRANCH  22  23
ENDBRANCH  21  22
ENDBRANCH  18  21
ENDBRANCH  11  14
ENDBRANCH   7  10
ENDBRANCH   1   3
BRANCH   1  30
ATOM     30  O   UNL     1      -2.519  -2.240  -2.346  1.00  0.00    -0.458 OA
BRANCH  30  31
ATOM     31  C   UNL     1      -3.796  -2.872  -2.160  1.00  0.00     0.275 C 
BRANCH  31  32
ATOM     32  C   UNL     1      -3.833  -4.283  -2.747  1.00  0.00     0.275 C 
BRANCH  32  33
ATOM     33  O   UNL     1      -2.597  -5.059  -2.774  1.00  0.00    -0.458 OA
BRANCH  33  34
ATOM     34  C   UNL     1      -1.546  -4.962  -1.925  1.00  0.00     0.338 C 
ATOM     35  O   UNL     1      -0.384  -5.109  -2.298  1.00  0.00    -0.246 OA
BRANCH  34  36
ATOM     36  C   UNL     1      -1.845  -4.651  -0.521  1.00  0.00     0.060 A 
ATOM     37  C   UNL     1      -0.920  -3.887   0.213  1.00  0.00     0.016 A 
ATOM     38  C   UNL     1      -3.083  -4.999   0.010  1.00  0.00     0.016 A 
ATOM     39  C   UNL     1      -1.271  -3.379   1.452  1.00  0.00     0.010 A 
ATOM     40  C   UNL     1      -3.494  -4.387   1.164  1.00  0.00     0.010 A 
ATOM     41  C   UNL     1      -2.563  -3.637   1.902  1.00  0.00    -0.014 A 
BRANCH  41  42
ATOM     42  C   UNL     1      -2.895  -3.598   3.308  1.00  0.00     0.031 A 
ATOM     43  C   UNL     1      -3.480  -2.401   3.915  1.00  0.00     0.074 A 
ATOM     44  C   UNL     1      -2.744  -4.840   3.825  1.00  0.00     0.049 A 
ATOM     45  N   UNL     1      -3.500  -2.193   5.180  1.00  0.00    -0.248 NA
ATOM     46  C   UNL     1      -4.058  -1.289   3.155  1.00  0.00     0.031 C 
ATOM     47  C   UNL     1      -3.203  -5.476   5.040  1.00  0.00     0.029 A 
ATOM     48  N   UNL     1      -1.903  -5.809   3.253  1.00  0.00    -0.354 N 
ATOM     49  C   UNL     1      -4.395  -1.169   5.413  1.00  0.00     0.074 A 
ATOM     50  C   UNL     1      -4.590  -0.538   4.132  1.00  0.00     0.031 C 
ATOM     51  C   UNL     1      -2.416  -6.551   5.274  1.00  0.00     0.029 A 
ATOM     52  C   UNL     1      -1.343  -6.551   4.277  1.00  0.00     0.049 A 
ATOM     53  H   UNL     1      -1.740  -5.937   2.291  1.00  0.00     0.167 HD
ATOM     54  C   UNL     1      -5.005  -1.130   6.632  1.00  0.00     0.031 A 
ATOM     55  C   UNL     1      -0.018  -6.319   4.526  1.00  0.00     0.031 A 
ATOM     56  C   UNL     1      -4.461  -2.195   7.477  1.00  0.00     0.049 A 
ATOM     57  C   UNL     1       0.111  -5.574   5.834  1.00  0.00     0.074 A 
ATOM     58  C   UNL     1      -4.895  -3.491   7.703  1.00  0.00     0.029 A 
ATOM     59  N   UNL     1      -3.114  -2.158   7.821  1.00  0.00    -0.354 N 
ATOM     60  N   UNL     1      -0.724  -4.658   6.259  1.00  0.00    -0.248 NA
ATOM     61  C   UNL     1       1.123  -5.932   6.818  1.00  0.00     0.031 C 
ATOM     62  C   UNL     1      -3.755  -4.265   8.060  1.00  0.00     0.029 A 
ATOM     63  C   UNL     1      -2.642  -3.438   8.056  1.00  0.00     0.049 A 
ATOM     64  H   UNL     1      -2.574  -1.339   7.888  1.00  0.00     0.167 HD
ATOM     65  C   UNL     1      -0.464  -4.411   7.581  1.00  0.00     0.074 A 
ATOM     66  C   UNL     1       0.724  -5.202   7.871  1.00  0.00     0.031 C 
ATOM     67  C   UNL     1      -1.244  -3.646   8.402  1.00  0.00     0.031 A 
BRANCH  54  68
ATOM     68  C   UNL     1      -6.274  -0.384   6.974  1.00  0.00    -0.014 A 
ATOM     69  C   UNL     1      -7.014  -0.792   8.104  1.00  0.00     0.009 A 
ATOM     70  C   UNL     1      -6.826   0.673   6.232  1.00  0.00     0.009 A 
ATOM     71  C   UNL     1      -8.247  -0.219   8.446  1.00  0.00     0.001 A 
ATOM     72  C   UNL     1      -8.065   1.249   6.564  1.00  0.00     0.001 A 
ATOM     73  C   UNL     1      -8.778   0.799   7.668  1.00  0.00     0.000 A 
ENDBRANCH  54  68
BRANCH  55  74
ATOM     74  C   UNL     1       0.847  -6.117   3.304  1.00  0.00    -0.014 A 
ATOM     75  C   UNL     1       0.776  -7.077   2.262  1.00  0.00     0.009 A 
ATOM     76  C   UNL     1       1.550  -4.934   3.031  1.00  0.00     0.009 A 
ATOM     77  C   UNL     1       1.285  -6.825   0.981  1.00  0.00     0.001 A 
ATOM     78  C   UNL     1       2.090  -4.695   1.750  1.00  0.00     0.001 A 
ATOM     79  C   UNL     1       1.935  -5.626   0.721  1.00  0.00     0.000 A 
ENDBRANCH  55  74
BRANCH  67  80
ATOM     80  C   UNL     1      -0.755  -3.061   9.700  1.00  0.00    -0.014 A 
ATOM     81  C   UNL     1       0.601  -2.863   9.987  1.00  0.00     0.009 A 
ATOM     82  C   UNL     1      -1.688  -2.510  10.606  1.00  0.00     0.009 A 
ATOM     83  C   UNL     1       1.007  -2.213  11.154  1.00  0.00     0.001 A 
ATOM     84  C   UNL     1      -1.287  -1.795  11.732  1.00  0.00     0.001 A 
ATOM     85  C   UNL     1       0.064  -1.667  12.018  1.00  0.00     0.000 A 
ENDBRANCH  67  80
ENDBRANCH  41  42
ENDBRANCH  34  36
ENDBRANCH  33  34
ENDBRANCH  32  33
ENDBRANCH  31  32
ENDBRANCH  30  31
ENDBRANCH   1  30
TORSDOF 17
