REMARK SMILES CC1=Nc2ncnn2[C@H](c2ccc(F)cc2)[C@@H]1C(=O)OCCOC(=O)c1ccc(-c2c3nc(c(-c4ccccc4)c4ccc([nH]4)c(-c4ccccc4)c4nc(c(-c5ccccc5)c5ccc2[nH]5)C=C4)C=C3)cc1
REMARK SMILES IDX 22 1 21 2 20 3 18 4 19 5 17 6 1 7 2 8 3 9 4 10 9 11 5 12
REMARK SMILES IDX 8 13 6 14 7 15 10 16 11 17 16 18 12 19 15 20 13 21 14 22
REMARK SMILES IDX 23 23 24 24 25 25 26 26 27 27 73 28 28 29 72 30 29 31 30 32
REMARK SMILES IDX 31 33 66 34 32 35 71 36 65 37 67 38 33 39 70 40 64 41 63 42
REMARK SMILES IDX 34 44 56 45 41 46 55 47 42 48 45 49 54 50 68 51 43 52 44 53
REMARK SMILES IDX 53 55 69 56 46 57 35 58 36 59 40 60 37 61 39 62 38 63 57 64
REMARK SMILES IDX 58 65 62 66 59 67 61 68 60 69 47 70 48 71 52 72 49 73 51 74
REMARK SMILES IDX 50 75
REMARK H PARENT 67 43 45 54
REMARK Flexibility Score: inf
ROOT
ATOM      1  C   UNL     1      -2.794  -2.384  -0.386  1.00  0.00     0.275 C 
ENDROOT
BRANCH   1   2
ATOM      2  C   UNL     1      -2.650  -1.745  -1.763  1.00  0.00     0.274 C 
BRANCH   2   3
ATOM      3  O   UNL     1      -1.422  -1.016  -2.000  1.00  0.00    -0.461 OA
BRANCH   3   4
ATOM      4  C   UNL     1      -1.365   0.314  -1.650  1.00  0.00     0.317 C 
ATOM      5  O   UNL     1      -2.151   0.890  -0.938  1.00  0.00    -0.251 OA
BRANCH   4   6
ATOM      6  C   UNL     1      -0.227   0.987  -2.384  1.00  0.00     0.173 C 
ATOM      7  C   UNL     1       1.611  -0.032  -0.813  1.00  0.00     0.063 C 
ATOM      8  C   UNL     1       0.921   1.181  -1.397  1.00  0.00     0.036 C 
ATOM      9  N   UNL     1       1.362   2.319  -0.973  1.00  0.00    -0.220 NA
ATOM     10  C   UNL     1       0.833   3.447  -1.475  1.00  0.00     0.248 A 
ATOM     11  C   UNL     1      -0.657   2.283  -3.165  1.00  0.00     0.161 C 
ATOM     12  N   UNL     1       1.181   4.684  -1.191  1.00  0.00    -0.198 NA
ATOM     13  N   UNL     1      -0.111   3.475  -2.477  1.00  0.00    -0.221 N 
ATOM     14  C   UNL     1       0.531   5.426  -2.121  1.00  0.00     0.248 A 
ATOM     15  N   UNL     1      -0.205   4.729  -2.982  1.00  0.00    -0.157 NA
BRANCH  11  16
ATOM     16  C   UNL     1      -2.134   2.492  -3.652  1.00  0.00    -0.022 A 
ATOM     17  C   UNL     1      -2.544   3.707  -4.241  1.00  0.00     0.009 A 
ATOM     18  C   UNL     1      -3.146   1.522  -3.568  1.00  0.00     0.009 A 
ATOM     19  C   UNL     1      -3.892   4.017  -4.475  1.00  0.00     0.039 A 
ATOM     20  C   UNL     1      -4.503   1.826  -3.753  1.00  0.00     0.039 A 
ATOM     21  C   UNL     1      -4.867   3.089  -4.173  1.00  0.00     0.123 A 
ATOM     22  F   UNL     1      -6.161   3.395  -4.327  1.00  0.00    -0.207 F 
ENDBRANCH  11  16
ENDBRANCH   4   6
ENDBRANCH   3   4
ENDBRANCH   2   3
ENDBRANCH   1   2
BRANCH   1  23
ATOM     23  O   UNL     1      -2.961  -1.388   0.614  1.00  0.00    -0.458 OA
BRANCH  23  24
ATOM     24  C   UNL     1      -1.793  -0.906   1.090  1.00  0.00     0.338 C 
ATOM     25  O   UNL     1      -0.672  -1.283   0.777  1.00  0.00    -0.246 OA
BRANCH  24  26
ATOM     26  C   UNL     1      -2.041   0.149   2.075  1.00  0.00     0.060 A 
ATOM     27  C   UNL     1      -0.934   0.891   2.497  1.00  0.00     0.016 A 
ATOM     28  C   UNL     1      -3.285   0.247   2.708  1.00  0.00     0.016 A 
ATOM     29  C   UNL     1      -1.005   1.559   3.696  1.00  0.00     0.010 A 
ATOM     30  C   UNL     1      -3.357   0.910   3.911  1.00  0.00     0.010 A 
ATOM     31  C   UNL     1      -2.186   1.466   4.432  1.00  0.00    -0.014 A 
BRANCH  31  32
ATOM     32  C   UNL     1      -2.135   1.860   5.824  1.00  0.00     0.031 A 
ATOM     33  C   UNL     1      -2.271   3.304   6.098  1.00  0.00     0.074 A 
ATOM     34  C   UNL     1      -2.101   0.920   6.788  1.00  0.00     0.049 A 
ATOM     35  N   UNL     1      -1.485   4.061   6.788  1.00  0.00    -0.248 NA
ATOM     36  C   UNL     1      -3.402   4.004   5.471  1.00  0.00     0.031 C 
ATOM     37  C   UNL     1      -2.275  -0.528   6.622  1.00  0.00     0.029 A 
ATOM     38  N   UNL     1      -2.058   1.077   8.139  1.00  0.00    -0.354 N 
ATOM     39  C   UNL     1      -2.109   5.303   6.827  1.00  0.00     0.074 A 
ATOM     40  C   UNL     1      -3.206   5.250   5.895  1.00  0.00     0.031 C 
ATOM     41  C   UNL     1      -2.576  -1.073   7.820  1.00  0.00     0.029 A 
ATOM     42  C   UNL     1      -2.506  -0.036   8.836  1.00  0.00     0.049 A 
ATOM     43  H   UNL     1      -1.740   1.898   8.578  1.00  0.00     0.167 HD
ATOM     44  C   UNL     1      -1.844   6.208   7.806  1.00  0.00     0.031 A 
ATOM     45  C   UNL     1      -2.895  -0.072  10.133  1.00  0.00     0.031 A 
ATOM     46  C   UNL     1      -0.575   5.979   8.441  1.00  0.00     0.049 A 
ATOM     47  C   UNL     1      -2.391   1.152  10.798  1.00  0.00     0.074 A 
ATOM     48  C   UNL     1       0.730   5.887   7.995  1.00  0.00     0.029 A 
ATOM     49  N   UNL     1      -0.570   5.463   9.714  1.00  0.00    -0.354 N 
ATOM     50  N   UNL     1      -1.140   1.369  11.079  1.00  0.00    -0.248 NA
ATOM     51  C   UNL     1      -3.246   2.330  10.813  1.00  0.00     0.031 C 
ATOM     52  C   UNL     1       1.340   4.902   8.825  1.00  0.00     0.029 A 
ATOM     53  C   UNL     1       0.381   4.475   9.744  1.00  0.00     0.049 A 
ATOM     54  H   UNL     1      -1.141   5.748  10.464  1.00  0.00     0.167 HD
ATOM     55  C   UNL     1      -0.964   2.731  10.883  1.00  0.00     0.074 A 
ATOM     56  C   UNL     1      -2.314   3.285  10.845  1.00  0.00     0.031 C 
ATOM     57  C   UNL     1       0.239   3.239  10.481  1.00  0.00     0.031 A 
BRANCH  44  58
ATOM     58  C   UNL     1      -2.933   7.041   8.431  1.00  0.00    -0.014 A 
ATOM     59  C   UNL     1      -2.588   8.028   9.367  1.00  0.00     0.009 A 
ATOM     60  C   UNL     1      -4.300   6.705   8.338  1.00  0.00     0.009 A 
ATOM     61  C   UNL     1      -3.554   8.604  10.202  1.00  0.00     0.001 A 
ATOM     62  C   UNL     1      -5.272   7.313   9.132  1.00  0.00     0.001 A 
ATOM     63  C   UNL     1      -4.894   8.245  10.085  1.00  0.00     0.000 A 
ENDBRANCH  44  58
BRANCH  45  64
ATOM     64  C   UNL     1      -3.894  -0.957  10.768  1.00  0.00    -0.014 A 
ATOM     65  C   UNL     1      -3.967  -1.053  12.166  1.00  0.00     0.009 A 
ATOM     66  C   UNL     1      -4.939  -1.528  10.019  1.00  0.00     0.009 A 
ATOM     67  C   UNL     1      -5.061  -1.667  12.789  1.00  0.00     0.001 A 
ATOM     68  C   UNL     1      -6.024  -2.155  10.639  1.00  0.00     0.001 A 
ATOM     69  C   UNL     1      -6.093  -2.209  12.026  1.00  0.00     0.000 A 
ENDBRANCH  45  64
BRANCH  57  70
ATOM     70  C   UNL     1       1.444   2.331  10.521  1.00  0.00    -0.014 A 
ATOM     71  C   UNL     1       1.500   1.107   9.830  1.00  0.00     0.009 A 
ATOM     72  C   UNL     1       2.609   2.785  11.159  1.00  0.00     0.009 A 
ATOM     73  C   UNL     1       2.669   0.340   9.819  1.00  0.00     0.001 A 
ATOM     74  C   UNL     1       3.784   2.030  11.127  1.00  0.00     0.001 A 
ATOM     75  C   UNL     1       3.811   0.804  10.466  1.00  0.00     0.000 A 
ENDBRANCH  57  70
ENDBRANCH  31  32
ENDBRANCH  24  26
ENDBRANCH  23  24
ENDBRANCH   1  23
TORSDOF 12
