REMARK SMILES O=C1NC(=O)/C(=C/c2ccc(OCc3cn(-c4ccc(C(=O)OCCOC(=O)c5ccc(-c6c7nc(c(-c8ccccc8)c8ccc([nH]8)c(-c8ccccc8)c8nc(c(-c9ccccc9)c9ccc6[nH]9)C=C8)C=C7)cc5)cc4)nn3)cc2)S1
REMARK SMILES IDX 23 1 21 2 22 3 20 4 17 5 18 6 78 7 19 8 77 9 16 10 14 11
REMARK SMILES IDX 15 12 80 13 79 14 13 15 12 16 11 17 8 18 9 19 82 20 10 21
REMARK SMILES IDX 81 22 7 23 1 24 2 25 3 26 83 27 4 28 6 30 5 31 24 32 25 33
REMARK SMILES IDX 26 34 27 35 28 36 29 37 30 38 76 39 31 40 75 41 32 42 33 43
REMARK SMILES IDX 34 44 69 45 35 46 74 47 68 48 70 49 36 50 73 51 67 52 66 53
REMARK SMILES IDX 37 55 59 56 44 57 58 58 45 59 48 60 57 61 71 62 46 63 47 64
REMARK SMILES IDX 56 66 72 67 49 68 38 69 39 70 43 71 40 72 42 73 41 74 60 75
REMARK SMILES IDX 61 76 65 77 62 78 64 79 63 80 50 81 51 82 55 83 52 84 54 85
REMARK SMILES IDX 53 86
REMARK H PARENT 3 29 70 54 48 65
REMARK Flexibility Score: inf
ROOT
ATOM      1  O   UNL     1      -8.167   9.853  -0.113  1.00  0.00    -0.458 OA
ENDROOT
BRANCH   1   2
ATOM      2  C   UNL     1      -7.710   9.433   1.093  1.00  0.00     0.338 C 
ATOM      3  O   UNL     1      -8.335   9.418   2.142  1.00  0.00    -0.246 OA
BRANCH   2   4
ATOM      4  C   UNL     1      -6.343   8.883   0.962  1.00  0.00     0.060 A 
ATOM      5  C   UNL     1      -3.738   7.898   0.922  1.00  0.00     0.066 A 
ATOM      6  C   UNL     1      -4.674   7.360   1.817  1.00  0.00     0.029 A 
ATOM      7  C   UNL     1      -4.122   8.878  -0.002  1.00  0.00     0.029 A 
ATOM      8  C   UNL     1      -5.965   7.875   1.856  1.00  0.00     0.018 A 
ATOM      9  C   UNL     1      -5.436   9.353   0.004  1.00  0.00     0.018 A 
BRANCH   5  10
ATOM     10  N   UNL     1      -2.393   7.484   1.026  1.00  0.00    -0.220 N 
ATOM     11  C   UNL     1      -0.218   7.406   1.173  1.00  0.00     0.120 A 
ATOM     12  C   UNL     1      -1.253   8.180   0.691  1.00  0.00     0.144 A 
ATOM     13  N   UNL     1      -0.746   6.278   1.739  1.00  0.00    -0.131 NA
ATOM     14  N   UNL     1      -2.061   6.335   1.651  1.00  0.00    -0.062 NA
BRANCH  11  15
ATOM     15  C   UNL     1       1.248   7.677   1.264  1.00  0.00     0.289 C 
BRANCH  15  16
ATOM     16  O   UNL     1       2.060   7.005   0.288  1.00  0.00    -0.487 OA
BRANCH  16  17
ATOM     17  C   UNL     1       2.160   5.642   0.356  1.00  0.00     0.119 A 
ATOM     18  C   UNL     1       2.187   2.840   0.132  1.00  0.00    -0.024 A 
ATOM     19  C   UNL     1       2.695   3.633  -0.900  1.00  0.00     0.012 A 
ATOM     20  C   UNL     1       1.755   3.454   1.309  1.00  0.00     0.012 A 
ATOM     21  C   UNL     1       2.675   5.028  -0.788  1.00  0.00     0.047 A 
ATOM     22  C   UNL     1       1.769   4.845   1.430  1.00  0.00     0.047 A 
BRANCH  18  23
ATOM     23  C   UNL     1       2.126   1.383  -0.002  1.00  0.00     0.029 C 
ATOM     24  O   UNL     1      -2.445  -0.730   0.020  1.00  0.00    -0.261 OA
ATOM     25  C   UNL     1      -1.265  -0.443  -0.005  1.00  0.00     0.290 C 
ATOM     26  N   UNL     1      -0.233  -1.327  -0.048  1.00  0.00    -0.282 N 
ATOM     27  S   UNL     1      -0.635   1.192   0.010  1.00  0.00    -0.022 SA
ATOM     28  C   UNL     1       1.036  -0.834  -0.074  1.00  0.00     0.265 C 
ATOM     29  H   UNL     1      -0.399  -2.297  -0.059  1.00  0.00     0.174 HD
ATOM     30  C   UNL     1       1.003   0.651  -0.027  1.00  0.00     0.083 C 
ATOM     31  O   UNL     1       2.047  -1.518  -0.114  1.00  0.00    -0.268 OA
ENDBRANCH  18  23
ENDBRANCH  16  17
ENDBRANCH  15  16
ENDBRANCH  11  15
ENDBRANCH   5  10
ENDBRANCH   2   4
ENDBRANCH   1   2
BRANCH   1  32
ATOM     32  C   UNL     1      -9.570  10.146  -0.156  1.00  0.00     0.275 C 
BRANCH  32  33
ATOM     33  C   UNL     1     -10.383   8.909  -0.513  1.00  0.00     0.275 C 
BRANCH  33  34
ATOM     34  O   UNL     1     -10.415   7.940   0.538  1.00  0.00    -0.458 OA
BRANCH  34  35
ATOM     35  C   UNL     1      -9.514   6.938   0.415  1.00  0.00     0.338 C 
ATOM     36  O   UNL     1      -8.467   6.955  -0.211  1.00  0.00    -0.246 OA
BRANCH  35  37
ATOM     37  C   UNL     1     -10.094   5.697   0.943  1.00  0.00     0.060 A 
ATOM     38  C   UNL     1      -9.247   4.609   1.166  1.00  0.00     0.016 A 
ATOM     39  C   UNL     1     -11.489   5.555   0.972  1.00  0.00     0.016 A 
ATOM     40  C   UNL     1      -9.805   3.352   1.317  1.00  0.00     0.010 A 
ATOM     41  C   UNL     1     -12.043   4.300   1.105  1.00  0.00     0.010 A 
ATOM     42  C   UNL     1     -11.197   3.200   1.228  1.00  0.00    -0.014 A 
BRANCH  42  43
ATOM     43  C   UNL     1     -11.773   1.891   1.496  1.00  0.00     0.031 A 
ATOM     44  C   UNL     1     -11.572   1.478   2.907  1.00  0.00     0.074 A 
ATOM     45  C   UNL     1     -12.530   1.200   0.620  1.00  0.00     0.049 A 
ATOM     46  N   UNL     1     -10.866   0.487   3.334  1.00  0.00    -0.248 NA
ATOM     47  C   UNL     1     -12.067   2.369   3.973  1.00  0.00     0.031 C 
ATOM     48  C   UNL     1     -13.000   1.638  -0.696  1.00  0.00     0.029 A 
ATOM     49  N   UNL     1     -13.142  -0.012   0.770  1.00  0.00    -0.354 N 
ATOM     50  C   UNL     1     -11.007   0.498   4.716  1.00  0.00     0.074 A 
ATOM     51  C   UNL     1     -11.582   1.772   5.061  1.00  0.00     0.031 C 
ATOM     52  C   UNL     1     -14.002   0.826  -1.108  1.00  0.00     0.029 A 
ATOM     53  C   UNL     1     -14.158  -0.257  -0.151  1.00  0.00     0.049 A 
ATOM     54  H   UNL     1     -12.886  -0.657   1.469  1.00  0.00     0.167 HD
ATOM     55  C   UNL     1     -10.940  -0.662   5.423  1.00  0.00     0.031 A 
ATOM     56  C   UNL     1     -15.092  -1.243  -0.098  1.00  0.00     0.031 A 
ATOM     57  C   UNL     1     -10.286  -1.703   4.668  1.00  0.00     0.049 A 
ATOM     58  C   UNL     1     -14.593  -2.286   0.823  1.00  0.00     0.074 A 
ATOM     59  C   UNL     1      -9.048  -1.851   4.075  1.00  0.00     0.029 A 
ATOM     60  N   UNL     1     -11.101  -2.645   4.092  1.00  0.00    -0.354 N 
ATOM     61  N   UNL     1     -13.587  -3.062   0.549  1.00  0.00    -0.248 NA
ATOM     62  C   UNL     1     -14.941  -2.184   2.229  1.00  0.00     0.031 C 
ATOM     63  C   UNL     1      -9.300  -2.565   2.865  1.00  0.00     0.029 A 
ATOM     64  C   UNL     1     -10.656  -2.888   2.821  1.00  0.00     0.049 A 
ATOM     65  H   UNL     1     -11.876  -3.075   4.521  1.00  0.00     0.167 HD
ATOM     66  C   UNL     1     -12.884  -3.141   1.740  1.00  0.00     0.074 A 
ATOM     67  C   UNL     1     -13.826  -2.689   2.764  1.00  0.00     0.031 C 
ATOM     68  C   UNL     1     -11.525  -3.281   1.734  1.00  0.00     0.031 A 
BRANCH  55  69
ATOM     69  C   UNL     1     -11.917  -0.975   6.535  1.00  0.00    -0.014 A 
ATOM     70  C   UNL     1     -11.810  -2.213   7.191  1.00  0.00     0.009 A 
ATOM     71  C   UNL     1     -13.111  -0.254   6.741  1.00  0.00     0.009 A 
ATOM     72  C   UNL     1     -12.875  -2.738   7.932  1.00  0.00     0.001 A 
ATOM     73  C   UNL     1     -14.159  -0.755   7.516  1.00  0.00     0.001 A 
ATOM     74  C   UNL     1     -14.053  -2.012   8.086  1.00  0.00     0.000 A 
ENDBRANCH  55  69
BRANCH  56  75
ATOM     75  C   UNL     1     -16.501  -1.251  -0.560  1.00  0.00    -0.014 A 
ATOM     76  C   UNL     1     -17.225  -2.455  -0.632  1.00  0.00     0.009 A 
ATOM     77  C   UNL     1     -17.228  -0.051  -0.637  1.00  0.00     0.009 A 
ATOM     78  C   UNL     1     -18.625  -2.456  -0.720  1.00  0.00     0.001 A 
ATOM     79  C   UNL     1     -18.625  -0.052  -0.730  1.00  0.00     0.001 A 
ATOM     80  C   UNL     1     -19.325  -1.254  -0.753  1.00  0.00     0.000 A 
ENDBRANCH  56  75
BRANCH  68  81
ATOM     81  C   UNL     1     -10.864  -3.673   0.435  1.00  0.00    -0.014 A 
ATOM     82  C   UNL     1     -10.975  -2.938  -0.760  1.00  0.00     0.009 A 
ATOM     83  C   UNL     1     -10.013  -4.788   0.449  1.00  0.00     0.009 A 
ATOM     84  C   UNL     1     -10.296  -3.343  -1.915  1.00  0.00     0.001 A 
ATOM     85  C   UNL     1      -9.315  -5.176  -0.695  1.00  0.00     0.001 A 
ATOM     86  C   UNL     1      -9.465  -4.461  -1.880  1.00  0.00     0.000 A 
ENDBRANCH  68  81
ENDBRANCH  42  43
ENDBRANCH  35  37
ENDBRANCH  34  35
ENDBRANCH  33  34
ENDBRANCH  32  33
ENDBRANCH   1  32
TORSDOF 16
