REMARK SMILES Cc1cc(Cl)ccc1Oc1cc(C)c(N)c(C(=O)OCCOC(=O)c2ccc(-c3c4nc(c(-c5ccccc5)c5ccc([nH]5)c(-c5ccccc5)c5nc(c(-c6ccccc6)c6ccc3[nH]6)C=C5)C=C4)cc2)c1
REMARK SMILES IDX 20 1 19 2 17 3 18 4 16 5 10 6 11 7 73 8 12 9 13 10 14 11
REMARK SMILES IDX 9 12 8 13 1 14 2 15 3 16 4 17 7 18 5 19 6 20 15 21 21 24
REMARK SMILES IDX 22 25 23 26 24 27 25 28 26 29 72 30 27 31 71 32 28 33 29 34
REMARK SMILES IDX 30 35 65 36 31 37 70 38 64 39 66 40 32 41 69 42 63 43 62 44
REMARK SMILES IDX 33 46 55 47 40 48 54 49 41 50 44 51 53 52 67 53 42 54 43 55
REMARK SMILES IDX 52 57 68 58 45 59 34 60 35 61 39 62 36 63 38 64 37 65 56 66
REMARK SMILES IDX 57 67 61 68 58 69 60 70 59 71 46 72 47 73 51 74 48 75 50 76
REMARK SMILES IDX 49 77
REMARK H PARENT 15 22 15 23 66 45 44 56
REMARK Flexibility Score: inf
ROOT
ATOM      1  C   UNL     1      -7.729  -0.068   4.118  1.00  0.00     0.275 C 
ENDROOT
BRANCH   1   2
ATOM      2  O   UNL     1      -6.735   0.064   3.077  1.00  0.00    -0.458 OA
BRANCH   2   3
ATOM      3  C   UNL     1      -7.217   0.132   1.809  1.00  0.00     0.340 C 
ATOM      4  O   UNL     1      -8.397   0.120   1.489  1.00  0.00    -0.246 OA
BRANCH   3   5
ATOM      5  C   UNL     1      -6.112   0.178   0.821  1.00  0.00     0.086 A 
ATOM      6  C   UNL     1      -4.107  -0.771  -0.087  1.00  0.00     0.128 A 
ATOM      7  C   UNL     1      -4.257  -0.028  -1.258  1.00  0.00     0.052 A 
ATOM      8  C   UNL     1      -5.085  -0.759   0.904  1.00  0.00     0.065 A 
ATOM      9  C   UNL     1      -5.252   0.949  -1.330  1.00  0.00    -0.024 A 
ATOM     10  C   UNL     1      -5.283   1.892  -2.502  1.00  0.00     0.047 C 
ATOM     11  C   UNL     1      -6.130   1.108  -0.241  1.00  0.00     0.049 A 
BRANCH   6  12
ATOM     12  O   UNL     1      -2.995  -1.526   0.150  1.00  0.00    -0.457 OA
BRANCH  12  13
ATOM     13  C   UNL     1      -1.741  -0.940   0.103  1.00  0.00     0.130 A 
ATOM     14  C   UNL     1      -2.304   1.569   0.541  1.00  0.00     0.048 C 
ATOM     15  C   UNL     1      -1.375   0.413   0.276  1.00  0.00    -0.007 A 
ATOM     16  C   UNL     1      -0.009   0.755   0.173  1.00  0.00     0.027 A 
ATOM     17  C   UNL     1       0.969  -0.217  -0.021  1.00  0.00     0.041 A 
ATOM     18  C   UNL     1      -0.736  -1.906  -0.081  1.00  0.00     0.049 A 
ATOM     19  Cl  UNL     1       2.624   0.241  -0.100  1.00  0.00    -0.084 Cl
ATOM     20  C   UNL     1       0.612  -1.552  -0.137  1.00  0.00     0.024 A 
ENDBRANCH  12  13
ENDBRANCH   6  12
BRANCH  11  21
ATOM     21  N   UNL     1      -6.816   2.315  -0.117  1.00  0.00    -0.398 N 
ATOM     22  H   UNL     1      -6.822   2.956  -0.864  1.00  0.00     0.156 HD
ATOM     23  H   UNL     1      -7.295   2.526   0.717  1.00  0.00     0.156 HD
ENDBRANCH  11  21
ENDBRANCH   3   5
ENDBRANCH   2   3
ENDBRANCH   1   2
BRANCH   1  24
ATOM     24  C   UNL     1      -7.883   1.233   4.904  1.00  0.00     0.275 C 
BRANCH  24  25
ATOM     25  O   UNL     1      -8.478   2.244   4.071  1.00  0.00    -0.458 OA
BRANCH  25  26
ATOM     26  C   UNL     1      -7.677   3.283   3.745  1.00  0.00     0.338 C 
ATOM     27  O   UNL     1      -6.540   3.499   4.129  1.00  0.00    -0.246 OA
BRANCH  26  28
ATOM     28  C   UNL     1      -8.342   4.145   2.753  1.00  0.00     0.060 A 
ATOM     29  C   UNL     1      -8.810   3.574   1.579  1.00  0.00     0.016 A 
ATOM     30  C   UNL     1      -8.305   5.534   2.878  1.00  0.00     0.016 A 
ATOM     31  C   UNL     1      -9.072   4.383   0.478  1.00  0.00     0.010 A 
ATOM     32  C   UNL     1      -8.740   6.345   1.818  1.00  0.00     0.010 A 
ATOM     33  C   UNL     1      -9.094   5.782   0.581  1.00  0.00    -0.014 A 
BRANCH  33  34
ATOM     34  C   UNL     1      -9.506   6.619  -0.590  1.00  0.00     0.031 A 
ATOM     35  C   UNL     1      -8.688   7.808  -1.039  1.00  0.00     0.074 A 
ATOM     36  C   UNL     1     -10.627   6.308  -1.280  1.00  0.00     0.049 A 
ATOM     37  N   UNL     1      -9.019   8.772  -1.863  1.00  0.00    -0.248 NA
ATOM     38  C   UNL     1      -7.329   7.939  -0.488  1.00  0.00     0.031 C 
ATOM     39  C   UNL     1     -11.499   5.159  -1.018  1.00  0.00     0.029 A 
ATOM     40  N   UNL     1     -11.222   6.923  -2.356  1.00  0.00    -0.354 N 
ATOM     41  C   UNL     1      -7.947   9.659  -1.871  1.00  0.00     0.074 A 
ATOM     42  C   UNL     1      -6.944   9.109  -0.984  1.00  0.00     0.031 C 
ATOM     43  C   UNL     1     -12.456   5.102  -1.951  1.00  0.00     0.029 A 
ATOM     44  C   UNL     1     -12.377   6.301  -2.769  1.00  0.00     0.049 A 
ATOM     45  H   UNL     1     -10.858   7.729  -2.788  1.00  0.00     0.167 HD
ATOM     46  C   UNL     1      -7.822  10.830  -2.543  1.00  0.00     0.031 A 
ATOM     47  C   UNL     1     -13.334   6.679  -3.636  1.00  0.00     0.031 A 
ATOM     48  C   UNL     1      -8.808  11.348  -3.458  1.00  0.00     0.049 A 
ATOM     49  C   UNL     1     -13.221   8.017  -4.295  1.00  0.00     0.074 A 
ATOM     50  C   UNL     1      -8.771  12.520  -4.196  1.00  0.00     0.029 A 
ATOM     51  N   UNL     1     -10.004  10.720  -3.770  1.00  0.00    -0.354 N 
ATOM     52  N   UNL     1     -12.247   8.889  -4.221  1.00  0.00    -0.248 NA
ATOM     53  C   UNL     1     -14.360   8.443  -5.118  1.00  0.00     0.031 C 
ATOM     54  C   UNL     1      -9.970  12.627  -4.911  1.00  0.00     0.029 A 
ATOM     55  C   UNL     1     -10.728  11.496  -4.661  1.00  0.00     0.049 A 
ATOM     56  H   UNL     1     -10.296   9.852  -3.411  1.00  0.00     0.167 HD
ATOM     57  C   UNL     1     -12.658   9.974  -4.978  1.00  0.00     0.074 A 
ATOM     58  C   UNL     1     -13.954   9.635  -5.531  1.00  0.00     0.031 C 
ATOM     59  C   UNL     1     -12.024  11.153  -5.185  1.00  0.00     0.031 A 
BRANCH  46  60
ATOM     60  C   UNL     1      -6.605  11.676  -2.273  1.00  0.00    -0.014 A 
ATOM     61  C   UNL     1      -5.337  11.337  -2.769  1.00  0.00     0.009 A 
ATOM     62  C   UNL     1      -6.752  12.878  -1.559  1.00  0.00     0.009 A 
ATOM     63  C   UNL     1      -4.239  12.170  -2.531  1.00  0.00     0.001 A 
ATOM     64  C   UNL     1      -5.659  13.720  -1.346  1.00  0.00     0.001 A 
ATOM     65  C   UNL     1      -4.401  13.362  -1.825  1.00  0.00     0.000 A 
ENDBRANCH  46  60
BRANCH  47  66
ATOM     66  C   UNL     1     -14.538   5.825  -3.818  1.00  0.00    -0.014 A 
ATOM     67  C   UNL     1     -14.773   5.163  -5.030  1.00  0.00     0.009 A 
ATOM     68  C   UNL     1     -15.436   5.631  -2.753  1.00  0.00     0.009 A 
ATOM     69  C   UNL     1     -15.880   4.321  -5.169  1.00  0.00     0.001 A 
ATOM     70  C   UNL     1     -16.518   4.760  -2.882  1.00  0.00     0.001 A 
ATOM     71  C   UNL     1     -16.742   4.109  -4.092  1.00  0.00     0.000 A 
ENDBRANCH  47  66
BRANCH  59  72
ATOM     72  C   UNL     1     -12.729  12.152  -6.053  1.00  0.00    -0.014 A 
ATOM     73  C   UNL     1     -13.829  12.877  -5.568  1.00  0.00     0.009 A 
ATOM     74  C   UNL     1     -12.281  12.380  -7.362  1.00  0.00     0.009 A 
ATOM     75  C   UNL     1     -14.486  13.792  -6.391  1.00  0.00     0.001 A 
ATOM     76  C   UNL     1     -12.926  13.314  -8.174  1.00  0.00     0.001 A 
ATOM     77  C   UNL     1     -14.032  14.012  -7.691  1.00  0.00     0.000 A 
ENDBRANCH  59  72
ENDBRANCH  33  34
ENDBRANCH  26  28
ENDBRANCH  25  26
ENDBRANCH  24  25
ENDBRANCH   1  24
TORSDOF 14
