REMARK SMILES Cc1ccc(N2C(=O)/C(=C3\C(=O)N(CC(=O)OCCOC(=O)c4ccc(-c5c6nc(c(-c7ccccc7)c7ccc([nH]7)c(-c7ccccc7)c7nc(c(-c8ccccc8)c8ccc5[nH]8)C=C7)C=C6)cc4)c4ccccc43)SC2=S)c(C)c1
REMARK SMILES IDX 18 1 17 2 15 3 16 4 14 5 13 6 6 7 7 8 78 9 8 10 9 11 77 12
REMARK SMILES IDX 79 13 10 14 11 15 76 16 12 17 71 18 75 19 72 20 74 21 73 22
REMARK SMILES IDX 5 23 1 24 2 25 3 26 82 27 4 28 80 29 81 30 19 31 20 32 21 33
REMARK SMILES IDX 22 34 23 35 24 36 70 37 25 38 69 39 26 40 27 41 28 42 63 43
REMARK SMILES IDX 29 44 68 45 62 46 64 47 30 48 67 49 61 50 60 51 31 53 53 54
REMARK SMILES IDX 38 55 52 56 39 57 42 58 51 59 65 60 40 61 41 62 50 64 66 65
REMARK SMILES IDX 43 66 32 67 33 68 37 69 34 70 36 71 35 72 54 73 55 74 59 75
REMARK SMILES IDX 56 76 58 77 57 78 44 79 45 80 49 81 46 82 48 83 47 84
REMARK H PARENT 64 52 42 63
REMARK Flexibility Score: inf
ROOT
ATOM      1  C   UNL     1     -10.632  -1.511  -3.559  1.00  0.00     0.274 C 
ENDROOT
BRANCH   1   2
ATOM      2  O   UNL     1      -9.557  -1.058  -2.709  1.00  0.00    -0.461 OA
BRANCH   2   3
ATOM      3  C   UNL     1      -9.377   0.289  -2.651  1.00  0.00     0.326 C 
ATOM      4  O   UNL     1     -10.066   1.108  -3.256  1.00  0.00    -0.250 OA
BRANCH   3   5
ATOM      5  C   UNL     1      -8.259   0.736  -1.713  1.00  0.00     0.248 C 
BRANCH   5   6
ATOM      6  N   UNL     1      -7.514  -0.283  -1.009  1.00  0.00    -0.296 N 
ATOM      7  N   UNL     1      -2.336  -1.902  -0.045  1.00  0.00    -0.261 N 
ATOM      8  C   UNL     1      -3.397  -1.708  -0.936  1.00  0.00     0.271 C 
ATOM      9  C   UNL     1      -2.530  -2.847   0.949  1.00  0.00     0.152 C 
ATOM     10  O   UNL     1      -3.331  -1.127  -2.005  1.00  0.00    -0.268 OA
ATOM     11  C   UNL     1      -4.637  -2.320  -0.350  1.00  0.00     0.094 C 
ATOM     12  S   UNL     1      -4.134  -3.529   0.778  1.00  0.00    -0.053 SA
ATOM     13  S   UNL     1      -1.568  -3.288   2.244  1.00  0.00    -0.051 S 
ATOM     14  C   UNL     1      -5.877  -1.812  -0.459  1.00  0.00     0.069 C 
ATOM     15  C   UNL     1      -6.324  -0.808  -1.494  1.00  0.00     0.260 C 
ATOM     16  C   UNL     1      -6.977  -1.900   0.534  1.00  0.00     0.012 A 
ATOM     17  O   UNL     1      -5.810  -0.539  -2.561  1.00  0.00    -0.269 OA
ATOM     18  C   UNL     1      -7.891  -0.892   0.194  1.00  0.00     0.053 A 
ATOM     19  C   UNL     1      -7.177  -2.636   1.696  1.00  0.00     0.011 A 
ATOM     20  C   UNL     1      -8.963  -0.571   1.009  1.00  0.00     0.027 A 
ATOM     21  C   UNL     1      -8.264  -2.329   2.522  1.00  0.00     0.001 A 
ATOM     22  C   UNL     1      -9.144  -1.297   2.186  1.00  0.00     0.002 A 
BRANCH   7  23
ATOM     23  C   UNL     1      -1.148  -1.119  -0.155  1.00  0.00     0.054 A 
ATOM     24  C   UNL     1       2.542   1.134  -0.086  1.00  0.00     0.044 C 
ATOM     25  C   UNL     1       1.270   0.343  -0.146  1.00  0.00    -0.051 A 
ATOM     26  C   UNL     1       1.291  -1.049  -0.198  1.00  0.00     0.005 A 
ATOM     27  C   UNL     1       0.035   1.002  -0.134  1.00  0.00     0.009 A 
ATOM     28  C   UNL     1       0.096  -1.770  -0.211  1.00  0.00     0.027 A 
ATOM     29  C   UNL     1      -1.182   0.292  -0.123  1.00  0.00    -0.027 A 
ATOM     30  C   UNL     1      -2.443   1.111  -0.043  1.00  0.00     0.046 C 
ENDBRANCH   7  23
ENDBRANCH   5   6
ENDBRANCH   3   5
ENDBRANCH   2   3
ENDBRANCH   1   2
BRANCH   1  31
ATOM     31  C   UNL     1     -11.871  -1.863  -2.739  1.00  0.00     0.275 C 
BRANCH  31  32
ATOM     32  O   UNL     1     -12.315  -0.706  -2.008  1.00  0.00    -0.458 OA
BRANCH  32  33
ATOM     33  C   UNL     1     -12.173  -0.783  -0.668  1.00  0.00     0.338 C 
ATOM     34  O   UNL     1     -11.777  -1.727  -0.007  1.00  0.00    -0.246 OA
BRANCH  33  35
ATOM     35  C   UNL     1     -12.611   0.479  -0.059  1.00  0.00     0.060 A 
ATOM     36  C   UNL     1     -13.713   0.453   0.792  1.00  0.00     0.016 A 
ATOM     37  C   UNL     1     -11.884   1.657  -0.248  1.00  0.00     0.016 A 
ATOM     38  C   UNL     1     -14.117   1.629   1.420  1.00  0.00     0.010 A 
ATOM     39  C   UNL     1     -12.242   2.813   0.445  1.00  0.00     0.010 A 
ATOM     40  C   UNL     1     -13.384   2.817   1.257  1.00  0.00    -0.014 A 
BRANCH  40  41
ATOM     41  C   UNL     1     -13.850   4.063   1.914  1.00  0.00     0.031 A 
ATOM     42  C   UNL     1     -14.396   5.194   1.088  1.00  0.00     0.074 A 
ATOM     43  C   UNL     1     -13.830   4.154   3.257  1.00  0.00     0.049 A 
ATOM     44  N   UNL     1     -14.997   6.285   1.490  1.00  0.00    -0.248 NA
ATOM     45  C   UNL     1     -14.246   5.096  -0.373  1.00  0.00     0.031 C 
ATOM     46  C   UNL     1     -13.291   3.138   4.163  1.00  0.00     0.029 A 
ATOM     47  N   UNL     1     -14.303   5.133   4.096  1.00  0.00    -0.354 N 
ATOM     48  C   UNL     1     -15.310   6.990   0.334  1.00  0.00     0.074 A 
ATOM     49  C   UNL     1     -14.776   6.240  -0.780  1.00  0.00     0.031 C 
ATOM     50  C   UNL     1     -13.515   3.520   5.430  1.00  0.00     0.029 A 
ATOM     51  C   UNL     1     -14.190   4.816   5.428  1.00  0.00     0.049 A 
ATOM     52  H   UNL     1     -14.685   5.981   3.773  1.00  0.00     0.167 HD
ATOM     53  C   UNL     1     -16.009   8.141   0.210  1.00  0.00     0.031 A 
ATOM     54  C   UNL     1     -14.604   5.479   6.525  1.00  0.00     0.031 A 
ATOM     55  C   UNL     1     -16.538   8.886   1.320  1.00  0.00     0.049 A 
ATOM     56  C   UNL     1     -15.354   6.772   6.364  1.00  0.00     0.074 A 
ATOM     57  C   UNL     1     -17.298  10.041   1.291  1.00  0.00     0.029 A 
ATOM     58  N   UNL     1     -16.359   8.553   2.653  1.00  0.00    -0.354 N 
ATOM     59  N   UNL     1     -15.716   7.382   5.261  1.00  0.00    -0.248 NA
ATOM     60  C   UNL     1     -15.769   7.461   7.595  1.00  0.00     0.031 C 
ATOM     61  C   UNL     1     -17.526  10.443   2.609  1.00  0.00     0.029 A 
ATOM     62  C   UNL     1     -16.967   9.500   3.457  1.00  0.00     0.049 A 
ATOM     63  H   UNL     1     -15.872   7.762   2.978  1.00  0.00     0.167 HD
ATOM     64  C   UNL     1     -16.417   8.512   5.663  1.00  0.00     0.074 A 
ATOM     65  C   UNL     1     -16.444   8.496   7.111  1.00  0.00     0.031 C 
ATOM     66  C   UNL     1     -16.985   9.475   4.897  1.00  0.00     0.031 A 
BRANCH  53  67
ATOM     67  C   UNL     1     -16.260   8.666  -1.175  1.00  0.00    -0.014 A 
ATOM     68  C   UNL     1     -15.665   9.867  -1.590  1.00  0.00     0.009 A 
ATOM     69  C   UNL     1     -17.158   8.018  -2.039  1.00  0.00     0.009 A 
ATOM     70  C   UNL     1     -15.972  10.416  -2.836  1.00  0.00     0.001 A 
ATOM     71  C   UNL     1     -17.441   8.555  -3.297  1.00  0.00     0.001 A 
ATOM     72  C   UNL     1     -16.856   9.757  -3.690  1.00  0.00     0.000 A 
ENDBRANCH  53  67
BRANCH  54  73
ATOM     73  C   UNL     1     -14.360   4.891   7.869  1.00  0.00    -0.014 A 
ATOM     74  C   UNL     1     -13.057   4.804   8.385  1.00  0.00     0.009 A 
ATOM     75  C   UNL     1     -15.422   4.368   8.622  1.00  0.00     0.009 A 
ATOM     76  C   UNL     1     -12.819   4.187   9.615  1.00  0.00     0.001 A 
ATOM     77  C   UNL     1     -15.185   3.776   9.866  1.00  0.00     0.001 A 
ATOM     78  C   UNL     1     -13.883   3.677  10.356  1.00  0.00     0.000 A 
ENDBRANCH  54  73
BRANCH  66  79
ATOM     79  C   UNL     1     -17.698  10.602   5.591  1.00  0.00    -0.014 A 
ATOM     80  C   UNL     1     -19.093  10.722   5.472  1.00  0.00     0.009 A 
ATOM     81  C   UNL     1     -16.982  11.612   6.250  1.00  0.00     0.009 A 
ATOM     82  C   UNL     1     -19.753  11.841   5.980  1.00  0.00     0.001 A 
ATOM     83  C   UNL     1     -17.649  12.716   6.783  1.00  0.00     0.001 A 
ATOM     84  C   UNL     1     -19.032  12.836   6.637  1.00  0.00     0.000 A 
ENDBRANCH  66  79
ENDBRANCH  40  41
ENDBRANCH  33  35
ENDBRANCH  32  33
ENDBRANCH  31  32
ENDBRANCH   1  31
TORSDOF 13
