REMARK SMILES C[C@H]1C[NH2+]C[C@@H](CC(=O)OCCOC(=O)c2ccc(-c3c4nc(c(-c5ccccc5)c5ccc([nH]5)c(-c5ccccc5)c5nc(c(-c6ccccc6)c6ccc3[nH]6)C=C5)C=C4)cc2)C1
REMARK SMILES IDX 12 1 11 2 10 3 8 4 9 5 7 6 6 7 1 8 2 9 3 10 64 11 4 12 5 13
REMARK SMILES IDX 13 16 14 17 15 18 16 19 17 20 63 21 18 22 62 23 19 24 20 25
REMARK SMILES IDX 21 26 56 27 22 28 61 29 55 30 57 31 23 32 60 33 54 34 53 35
REMARK SMILES IDX 24 37 46 38 31 39 45 40 32 41 35 42 44 43 58 44 33 45 34 46
REMARK SMILES IDX 43 48 59 49 36 50 25 51 26 52 30 53 27 54 29 55 28 56 47 57
REMARK SMILES IDX 48 58 52 59 49 60 51 61 50 62 37 63 38 64 42 65 39 66 41 67
REMARK SMILES IDX 40 68
REMARK H PARENT 4 14 4 15 57 36 35 47
REMARK Flexibility Score: inf
ROOT
ATOM      1  C   UNL     1      -0.539  -5.409  -1.634  1.00  0.00     0.275 C 
ENDROOT
BRANCH   1   2
ATOM      2  C   UNL     1      -0.611  -5.325  -0.108  1.00  0.00     0.274 C 
BRANCH   2   3
ATOM      3  O   UNL     1      -0.252  -4.013   0.364  1.00  0.00    -0.462 OA
BRANCH   3   4
ATOM      4  C   UNL     1       1.029  -3.833   0.764  1.00  0.00     0.306 C 
ATOM      5  O   UNL     1       1.883  -4.711   0.798  1.00  0.00    -0.252 OA
BRANCH   4   6
ATOM      6  C   UNL     1       1.290  -2.423   1.247  1.00  0.00     0.132 C 
BRANCH   6   7
ATOM      7  C   UNL     1       0.806  -1.292   0.320  1.00  0.00     0.056 C 
ATOM      8  C   UNL     1      -2.643   0.478   0.003  1.00  0.00     0.013 C 
ATOM      9  C   UNL     1      -1.163   0.217  -0.274  1.00  0.00     0.041 C 
ATOM     10  C   UNL     1      -0.305   1.410   0.154  1.00  0.00     0.263 C 
ATOM     11  C   UNL     1      -0.709  -1.058   0.448  1.00  0.00     0.019 C 
ATOM     12  N   UNL     1       1.112   1.157  -0.110  1.00  0.00    -0.346 N 
ATOM     13  C   UNL     1       1.581  -0.001   0.650  1.00  0.00     0.264 C 
ATOM     14  H   UNL     1       1.655   1.977   0.160  1.00  0.00     0.346 HD
ATOM     15  H   UNL     1       1.231   0.966  -1.105  1.00  0.00     0.346 HD
ENDBRANCH   6   7
ENDBRANCH   4   6
ENDBRANCH   3   4
ENDBRANCH   2   3
ENDBRANCH   1   2
BRANCH   1  16
ATOM     16  O   UNL     1       0.827  -5.419  -2.089  1.00  0.00    -0.458 OA
BRANCH  16  17
ATOM     17  C   UNL     1       1.317  -4.223  -2.487  1.00  0.00     0.338 C 
ATOM     18  O   UNL     1       0.718  -3.166  -2.575  1.00  0.00    -0.246 OA
BRANCH  17  19
ATOM     19  C   UNL     1       2.768  -4.343  -2.695  1.00  0.00     0.060 A 
ATOM     20  C   UNL     1       3.623  -3.618  -1.860  1.00  0.00     0.016 A 
ATOM     21  C   UNL     1       3.279  -5.117  -3.739  1.00  0.00     0.016 A 
ATOM     22  C   UNL     1       5.000  -3.667  -2.062  1.00  0.00     0.010 A 
ATOM     23  C   UNL     1       4.661  -5.162  -3.943  1.00  0.00     0.010 A 
ATOM     24  C   UNL     1       5.528  -4.432  -3.111  1.00  0.00    -0.014 A 
BRANCH  24  25
ATOM     25  C   UNL     1       6.987  -4.433  -3.365  1.00  0.00     0.031 A 
ATOM     26  C   UNL     1       7.546  -3.632  -4.505  1.00  0.00     0.074 A 
ATOM     27  C   UNL     1       7.809  -5.141  -2.569  1.00  0.00     0.049 A 
ATOM     28  N   UNL     1       8.779  -3.563  -4.940  1.00  0.00    -0.248 NA
ATOM     29  C   UNL     1       6.593  -2.798  -5.254  1.00  0.00     0.031 C 
ATOM     30  C   UNL     1       7.394  -5.924  -1.405  1.00  0.00     0.029 A 
ATOM     31  N   UNL     1       9.169  -5.319  -2.627  1.00  0.00    -0.354 N 
ATOM     32  C   UNL     1       8.750  -2.686  -6.016  1.00  0.00     0.074 A 
ATOM     33  C   UNL     1       7.375  -2.264  -6.182  1.00  0.00     0.031 C 
ATOM     34  C   UNL     1       8.477  -6.505  -0.862  1.00  0.00     0.029 A 
ATOM     35  C   UNL     1       9.652  -6.166  -1.661  1.00  0.00     0.049 A 
ATOM     36  H   UNL     1       9.742  -4.881  -3.297  1.00  0.00     0.167 HD
ATOM     37  C   UNL     1       9.777  -2.266  -6.792  1.00  0.00     0.031 A 
ATOM     38  C   UNL     1      10.896  -6.638  -1.460  1.00  0.00     0.031 A 
ATOM     39  C   UNL     1      11.142  -2.693  -6.637  1.00  0.00     0.049 A 
ATOM     40  C   UNL     1      12.006  -6.211  -2.380  1.00  0.00     0.074 A 
ATOM     41  C   UNL     1      12.248  -2.336  -7.389  1.00  0.00     0.029 A 
ATOM     42  N   UNL     1      11.586  -3.570  -5.661  1.00  0.00    -0.354 N 
ATOM     43  N   UNL     1      11.963  -5.389  -3.401  1.00  0.00    -0.248 NA
ATOM     44  C   UNL     1      13.338  -6.776  -2.118  1.00  0.00     0.031 C 
ATOM     45  C   UNL     1      13.358  -3.026  -6.888  1.00  0.00     0.029 A 
ATOM     46  C   UNL     1      12.948  -3.776  -5.798  1.00  0.00     0.049 A 
ATOM     47  H   UNL     1      11.017  -3.985  -4.973  1.00  0.00     0.167 HD
ATOM     48  C   UNL     1      13.261  -5.323  -3.889  1.00  0.00     0.074 A 
ATOM     49  C   UNL     1      14.073  -6.173  -3.043  1.00  0.00     0.031 C 
ATOM     50  C   UNL     1      13.739  -4.623  -4.945  1.00  0.00     0.031 A 
BRANCH  37  51
ATOM     51  C   UNL     1       9.455  -1.306  -7.901  1.00  0.00    -0.014 A 
ATOM     52  C   UNL     1       9.184   0.044  -7.633  1.00  0.00     0.009 A 
ATOM     53  C   UNL     1       9.466  -1.748  -9.233  1.00  0.00     0.009 A 
ATOM     54  C   UNL     1       8.907   0.929  -8.677  1.00  0.00     0.001 A 
ATOM     55  C   UNL     1       9.211  -0.857 -10.276  1.00  0.00     0.001 A 
ATOM     56  C   UNL     1       8.925   0.479  -9.997  1.00  0.00     0.000 A 
ENDBRANCH  37  51
BRANCH  38  57
ATOM     57  C   UNL     1      11.159  -7.604  -0.361  1.00  0.00    -0.014 A 
ATOM     58  C   UNL     1      11.911  -7.226   0.761  1.00  0.00     0.009 A 
ATOM     59  C   UNL     1      10.679  -8.920  -0.447  1.00  0.00     0.009 A 
ATOM     60  C   UNL     1      12.199  -8.156   1.763  1.00  0.00     0.001 A 
ATOM     61  C   UNL     1      10.945  -9.839   0.569  1.00  0.00     0.001 A 
ATOM     62  C   UNL     1      11.714  -9.460   1.668  1.00  0.00     0.000 A 
ENDBRANCH  38  57
BRANCH  50  63
ATOM     63  C   UNL     1      15.212  -4.721  -5.222  1.00  0.00    -0.014 A 
ATOM     64  C   UNL     1      15.765  -5.871  -5.806  1.00  0.00     0.009 A 
ATOM     65  C   UNL     1      16.049  -3.635  -4.925  1.00  0.00     0.009 A 
ATOM     66  C   UNL     1      17.137  -5.941  -6.059  1.00  0.00     0.001 A 
ATOM     67  C   UNL     1      17.415  -3.699  -5.201  1.00  0.00     0.001 A 
ATOM     68  C   UNL     1      17.959  -4.855  -5.760  1.00  0.00     0.000 A 
ENDBRANCH  50  63
ENDBRANCH  24  25
ENDBRANCH  17  19
ENDBRANCH  16  17
ENDBRANCH   1  16
TORSDOF 12
