REMARK SMILES CC(C)([NH2+]C[C@@H]1CCCO1)C(=O)OCCOC(=O)c1ccc(-c2c3nc(c(-c4ccccc4)c4ccc([nH]4)c(-c4ccccc4)c4nc(c(-c5ccccc5)c5ccc2[nH]5)C=C4)C=C3)cc1
REMARK SMILES IDX 14 1 13 2 11 3 12 4 2 5 1 6 3 7 4 8 5 11 6 12 7 13 10 14
REMARK SMILES IDX 8 15 9 16 15 17 16 18 17 19 18 20 19 21 20 22 66 23 21 24
REMARK SMILES IDX 65 25 22 26 23 27 24 28 59 29 25 30 64 31 58 32 60 33 26 34
REMARK SMILES IDX 63 35 57 36 56 37 27 39 49 40 34 41 48 42 35 43 38 44 47 45
REMARK SMILES IDX 61 46 36 47 37 48 46 50 62 51 39 52 28 53 29 54 33 55 30 56
REMARK SMILES IDX 32 57 31 58 50 59 51 60 55 61 52 62 54 63 53 64 40 65 41 66
REMARK SMILES IDX 45 67 42 68 44 69 43 70
REMARK H PARENT 4 9 4 10 60 38 38 49
REMARK Flexibility Score: inf
ROOT
ATOM      1  C   UNL     1       1.031  -0.974   4.637  1.00  0.00     0.274 C 
ENDROOT
BRANCH   1   2
ATOM      2  O   UNL     1       0.464  -0.228   3.540  1.00  0.00    -0.457 OA
BRANCH   2   3
ATOM      3  C   UNL     1       1.318   0.135   2.546  1.00  0.00     0.367 C 
ATOM      4  O   UNL     1       2.516  -0.145   2.548  1.00  0.00    -0.245 OA
BRANCH   3   5
ATOM      5  C   UNL     1       0.675   0.983   1.418  1.00  0.00     0.188 C 
ATOM      6  C   UNL     1       0.878   0.257   0.070  1.00  0.00     0.092 C 
ATOM      7  C   UNL     1       1.499   2.278   1.335  1.00  0.00     0.092 C 
BRANCH   5   8
ATOM      8  N   UNL     1      -0.803   1.125   1.494  1.00  0.00    -0.330 N 
ATOM      9  H   UNL     1      -1.185   0.180   1.543  1.00  0.00     0.347 HD
ATOM     10  H   UNL     1      -1.022   1.684   0.670  1.00  0.00     0.347 HD
BRANCH   8  11
ATOM     11  C   UNL     1      -1.424   1.887   2.584  1.00  0.00     0.293 C 
BRANCH  11  12
ATOM     12  C   UNL     1      -1.134   3.386   2.550  1.00  0.00     0.173 C 
ATOM     13  C   UNL     1      -2.174   4.284   3.184  1.00  0.00     0.040 C 
ATOM     14  O   UNL     1      -1.071   3.872   1.196  1.00  0.00    -0.372 OA
ATOM     15  C   UNL     1      -1.730   5.629   2.644  1.00  0.00     0.031 C 
ATOM     16  C   UNL     1      -1.182   5.299   1.264  1.00  0.00     0.161 C 
ENDBRANCH  11  12
ENDBRANCH   8  11
ENDBRANCH   5   8
ENDBRANCH   3   5
ENDBRANCH   2   3
ENDBRANCH   1   2
BRANCH   1  17
ATOM     17  C   UNL     1       0.677  -2.452   4.508  1.00  0.00     0.275 C 
BRANCH  17  18
ATOM     18  O   UNL     1       1.267  -2.960   3.301  1.00  0.00    -0.458 OA
BRANCH  18  19
ATOM     19  C   UNL     1       0.458  -3.691   2.501  1.00  0.00     0.338 C 
ATOM     20  O   UNL     1      -0.669  -4.084   2.743  1.00  0.00    -0.246 OA
BRANCH  19  21
ATOM     21  C   UNL     1       1.164  -3.964   1.234  1.00  0.00     0.060 A 
ATOM     22  C   UNL     1       1.851  -2.942   0.583  1.00  0.00     0.016 A 
ATOM     23  C   UNL     1       1.083  -5.223   0.646  1.00  0.00     0.016 A 
ATOM     24  C   UNL     1       2.383  -3.137  -0.687  1.00  0.00     0.010 A 
ATOM     25  C   UNL     1       1.726  -5.454  -0.576  1.00  0.00     0.010 A 
ATOM     26  C   UNL     1       2.367  -4.408  -1.267  1.00  0.00    -0.014 A 
BRANCH  26  27
ATOM     27  C   UNL     1       3.014  -4.653  -2.584  1.00  0.00     0.031 A 
ATOM     28  C   UNL     1       2.219  -5.254  -3.710  1.00  0.00     0.074 A 
ATOM     29  C   UNL     1       4.317  -4.362  -2.776  1.00  0.00     0.049 A 
ATOM     30  N   UNL     1       2.642  -5.801  -4.821  1.00  0.00    -0.248 NA
ATOM     31  C   UNL     1       0.755  -5.256  -3.558  1.00  0.00     0.031 C 
ATOM     32  C   UNL     1       5.201  -3.709  -1.806  1.00  0.00     0.029 A 
ATOM     33  N   UNL     1       5.130  -4.586  -3.861  1.00  0.00    -0.354 N 
ATOM     34  C   UNL     1       1.506  -6.276  -5.464  1.00  0.00     0.074 A 
ATOM     35  C   UNL     1       0.373  -5.941  -4.627  1.00  0.00     0.031 C 
ATOM     36  C   UNL     1       6.418  -3.557  -2.349  1.00  0.00     0.029 A 
ATOM     37  C   UNL     1       6.433  -4.198  -3.657  1.00  0.00     0.049 A 
ATOM     38  H   UNL     1       4.811  -4.985  -4.702  1.00  0.00     0.167 HD
ATOM     39  C   UNL     1       1.421  -6.944  -6.638  1.00  0.00     0.031 A 
ATOM     40  C   UNL     1       7.537  -4.395  -4.401  1.00  0.00     0.031 A 
ATOM     41  C   UNL     1       2.545  -7.233  -7.487  1.00  0.00     0.049 A 
ATOM     42  C   UNL     1       7.430  -5.191  -5.668  1.00  0.00     0.074 A 
ATOM     43  C   UNL     1       2.563  -7.894  -8.703  1.00  0.00     0.029 A 
ATOM     44  N   UNL     1       3.852  -6.860  -7.215  1.00  0.00    -0.354 N 
ATOM     45  N   UNL     1       6.364  -5.710  -6.228  1.00  0.00    -0.248 NA
ATOM     46  C   UNL     1       8.683  -5.459  -6.387  1.00  0.00     0.031 C 
ATOM     47  C   UNL     1       3.888  -7.955  -9.148  1.00  0.00     0.029 A 
ATOM     48  C   UNL     1       4.688  -7.295  -8.229  1.00  0.00     0.049 A 
ATOM     49  H   UNL     1       4.143  -6.360  -6.418  1.00  0.00     0.167 HD
ATOM     50  C   UNL     1       6.817  -6.366  -7.363  1.00  0.00     0.074 A 
ATOM     51  C   UNL     1       8.250  -6.159  -7.426  1.00  0.00     0.031 C 
ATOM     52  C   UNL     1       6.110  -7.085  -8.267  1.00  0.00     0.031 A 
BRANCH  39  53
ATOM     53  C   UNL     1       0.070  -7.459  -7.047  1.00  0.00    -0.014 A 
ATOM     54  C   UNL     1      -0.925  -6.607  -7.546  1.00  0.00     0.009 A 
ATOM     55  C   UNL     1      -0.193  -8.836  -6.959  1.00  0.00     0.009 A 
ATOM     56  C   UNL     1      -2.169  -7.121  -7.923  1.00  0.00     0.001 A 
ATOM     57  C   UNL     1      -1.427  -9.350  -7.358  1.00  0.00     0.001 A 
ATOM     58  C   UNL     1      -2.417  -8.491  -7.832  1.00  0.00     0.000 A 
ENDBRANCH  39  53
BRANCH  40  59
ATOM     59  C   UNL     1       8.854  -3.905  -3.916  1.00  0.00    -0.014 A 
ATOM     60  C   UNL     1       9.499  -2.839  -4.558  1.00  0.00     0.009 A 
ATOM     61  C   UNL     1       9.464  -4.495  -2.797  1.00  0.00     0.009 A 
ATOM     62  C   UNL     1      10.734  -2.379  -4.092  1.00  0.00     0.001 A 
ATOM     63  C   UNL     1      10.683  -4.014  -2.316  1.00  0.00     0.001 A 
ATOM     64  C   UNL     1      11.320  -2.960  -2.968  1.00  0.00     0.000 A 
ENDBRANCH  40  59
BRANCH  52  65
ATOM     65  C   UNL     1       6.878  -7.685  -9.407  1.00  0.00    -0.014 A 
ATOM     66  C   UNL     1       7.656  -8.838  -9.223  1.00  0.00     0.009 A 
ATOM     67  C   UNL     1       6.794  -7.110 -10.684  1.00  0.00     0.009 A 
ATOM     68  C   UNL     1       8.355  -9.392 -10.296  1.00  0.00     0.001 A 
ATOM     69  C   UNL     1       7.478  -7.678 -11.759  1.00  0.00     0.001 A 
ATOM     70  C   UNL     1       8.263  -8.814 -11.563  1.00  0.00     0.000 A 
ENDBRANCH  52  65
ENDBRANCH  26  27
ENDBRANCH  19  21
ENDBRANCH  18  19
ENDBRANCH  17  18
ENDBRANCH   1  17
TORSDOF 14
