REMARK SMILES C[C@H](Cc1cccs1)N(C)C(=O)N1CC[C@@H](CC(=O)OCCOC(=O)c2ccc(-c3c4nc(c(-c5ccccc5)c5ccc([nH]5)c(-c5ccccc5)c5nc(c(-c6ccccc6)c6ccc3[nH]6)C=C5)C=C4)cc2)C1
REMARK SMILES IDX 18 1 19 2 17 3 16 4 13 5 14 6 74 7 15 8 11 9 12 10 9 11
REMARK SMILES IDX 10 12 2 13 1 14 3 15 4 16 5 17 8 18 6 19 7 20 20 21 21 22
REMARK SMILES IDX 22 23 23 24 24 25 25 26 26 27 27 28 73 29 28 30 72 31 29 32
REMARK SMILES IDX 30 33 31 34 66 35 32 36 71 37 65 38 67 39 33 40 70 41 64 42
REMARK SMILES IDX 63 43 34 45 56 46 41 47 55 48 42 49 45 50 54 51 68 52 43 53
REMARK SMILES IDX 44 54 53 56 69 57 46 58 35 59 36 60 40 61 37 62 39 63 38 64
REMARK SMILES IDX 57 65 58 66 62 67 59 68 61 69 60 70 47 71 48 72 52 73 49 74
REMARK SMILES IDX 51 75 50 76
REMARK H PARENT 67 44 45 55
REMARK Flexibility Score: inf
ROOT
ATOM      1  C   UNL     1      -7.240  -1.759   1.329  1.00  0.00     0.306 C 
ATOM      2  O   UNL     1      -7.379  -2.151   2.481  1.00  0.00    -0.252 OA
ENDROOT
BRANCH   1   3
ATOM      3  C   UNL     1      -6.796  -0.348   0.986  1.00  0.00     0.128 C 
BRANCH   3   4
ATOM      4  C   UNL     1      -5.551  -0.107   0.123  1.00  0.00     0.021 C 
ATOM      5  N   UNL     1      -3.262  -0.681  -0.210  1.00  0.00    -0.324 N 
ATOM      6  C   UNL     1      -3.961  -1.228  -1.357  1.00  0.00     0.122 C 
ATOM      7  C   UNL     1      -4.218  -0.324   0.825  1.00  0.00     0.125 C 
ATOM      8  C   UNL     1      -5.436  -0.867  -1.195  1.00  0.00     0.027 C 
BRANCH   5   9
ATOM      9  C   UNL     1      -1.938  -0.778   0.156  1.00  0.00     0.320 C 
ATOM     10  O   UNL     1      -1.630  -0.546   1.330  1.00  0.00    -0.248 OA
BRANCH   9  11
ATOM     11  N   UNL     1      -0.957  -1.106  -0.770  1.00  0.00    -0.325 N 
ATOM     12  C   UNL     1      -1.136  -1.144  -2.210  1.00  0.00     0.149 C 
BRANCH  11  13
ATOM     13  C   UNL     1       0.451  -1.225  -0.289  1.00  0.00     0.088 C 
ATOM     14  C   UNL     1       0.628  -2.382   0.703  1.00  0.00     0.031 C 
BRANCH  13  15
ATOM     15  C   UNL     1       1.020   0.163   0.108  1.00  0.00     0.071 C 
BRANCH  15  16
ATOM     16  C   UNL     1       1.913   0.222   1.312  1.00  0.00     0.007 A 
ATOM     17  C   UNL     1       3.293   0.189   1.365  1.00  0.00     0.015 A 
ATOM     18  S   UNL     1       1.233   0.464   2.869  1.00  0.00    -0.149 S 
ATOM     19  C   UNL     1       3.787   0.377   2.689  1.00  0.00     0.012 A 
ATOM     20  C   UNL     1       2.770   0.531   3.604  1.00  0.00     0.065 A 
ENDBRANCH  15  16
ENDBRANCH  13  15
ENDBRANCH  11  13
ENDBRANCH   9  11
ENDBRANCH   5   9
ENDBRANCH   3   4
ENDBRANCH   1   3
BRANCH   1  21
ATOM     21  O   UNL     1      -7.584  -2.477   0.230  1.00  0.00    -0.462 OA
BRANCH  21  22
ATOM     22  C   UNL     1      -8.121  -3.799   0.443  1.00  0.00     0.274 C 
BRANCH  22  23
ATOM     23  C   UNL     1      -7.048  -4.891   0.364  1.00  0.00     0.275 C 
BRANCH  23  24
ATOM     24  O   UNL     1      -6.246  -4.944   1.560  1.00  0.00    -0.458 OA
BRANCH  24  25
ATOM     25  C   UNL     1      -5.142  -4.171   1.516  1.00  0.00     0.338 C 
ATOM     26  O   UNL     1      -4.771  -3.494   0.564  1.00  0.00    -0.246 OA
BRANCH  25  27
ATOM     27  C   UNL     1      -4.429  -4.159   2.796  1.00  0.00     0.060 A 
ATOM     28  C   UNL     1      -4.438  -2.985   3.551  1.00  0.00     0.016 A 
ATOM     29  C   UNL     1      -3.614  -5.231   3.160  1.00  0.00     0.016 A 
ATOM     30  C   UNL     1      -3.596  -2.854   4.647  1.00  0.00     0.010 A 
ATOM     31  C   UNL     1      -2.794  -5.114   4.287  1.00  0.00     0.010 A 
ATOM     32  C   UNL     1      -2.768  -3.918   5.025  1.00  0.00    -0.014 A 
BRANCH  32  33
ATOM     33  C   UNL     1      -1.923  -3.776   6.231  1.00  0.00     0.031 A 
ATOM     34  C   UNL     1      -0.436  -3.612   6.119  1.00  0.00     0.074 A 
ATOM     35  C   UNL     1      -2.522  -3.776   7.436  1.00  0.00     0.049 A 
ATOM     36  N   UNL     1       0.451  -3.526   7.078  1.00  0.00    -0.248 NA
ATOM     37  C   UNL     1       0.131  -3.548   4.764  1.00  0.00     0.031 C 
ATOM     38  C   UNL     1      -3.965  -3.900   7.659  1.00  0.00     0.029 A 
ATOM     39  N   UNL     1      -1.998  -3.650   8.695  1.00  0.00    -0.354 N 
ATOM     40  C   UNL     1       1.684  -3.452   6.445  1.00  0.00     0.074 A 
ATOM     41  C   UNL     1       1.432  -3.482   5.019  1.00  0.00     0.031 C 
ATOM     42  C   UNL     1      -4.213  -3.810   8.974  1.00  0.00     0.029 A 
ATOM     43  C   UNL     1      -2.947  -3.672   9.686  1.00  0.00     0.049 A 
ATOM     44  H   UNL     1      -1.034  -3.552   8.872  1.00  0.00     0.167 HD
ATOM     45  C   UNL     1       2.912  -3.376   7.010  1.00  0.00     0.031 A 
ATOM     46  C   UNL     1      -2.813  -3.601  11.022  1.00  0.00     0.031 A 
ATOM     47  C   UNL     1       3.153  -3.265   8.424  1.00  0.00     0.049 A 
ATOM     48  C   UNL     1      -1.442  -3.474  11.613  1.00  0.00     0.074 A 
ATOM     49  C   UNL     1       4.361  -3.103   9.081  1.00  0.00     0.029 A 
ATOM     50  N   UNL     1       2.167  -3.292   9.397  1.00  0.00    -0.354 N 
ATOM     51  N   UNL     1      -0.286  -3.390  11.001  1.00  0.00    -0.248 NA
ATOM     52  C   UNL     1      -1.356  -3.437  13.079  1.00  0.00     0.031 C 
ATOM     53  C   UNL     1       4.107  -3.061  10.457  1.00  0.00     0.029 A 
ATOM     54  C   UNL     1       2.740  -3.172  10.652  1.00  0.00     0.049 A 
ATOM     55  H   UNL     1       1.202  -3.382   9.222  1.00  0.00     0.167 HD
ATOM     56  C   UNL     1       0.664  -3.275  12.005  1.00  0.00     0.074 A 
ATOM     57  C   UNL     1      -0.052  -3.283  13.265  1.00  0.00     0.031 C 
ATOM     58  C   UNL     1       2.010  -3.176  11.892  1.00  0.00     0.031 A 
BRANCH  45  59
ATOM     59  C   UNL     1       4.104  -3.442   6.102  1.00  0.00    -0.014 A 
ATOM     60  C   UNL     1       4.566  -2.310   5.420  1.00  0.00     0.009 A 
ATOM     61  C   UNL     1       4.817  -4.646   5.988  1.00  0.00     0.009 A 
ATOM     62  C   UNL     1       5.709  -2.386   4.621  1.00  0.00     0.001 A 
ATOM     63  C   UNL     1       5.967  -4.715   5.200  1.00  0.00     0.001 A 
ATOM     64  C   UNL     1       6.410  -3.587   4.513  1.00  0.00     0.000 A 
ENDBRANCH  45  59
BRANCH  46  65
ATOM     65  C   UNL     1      -4.019  -3.653  11.884  1.00  0.00    -0.014 A 
ATOM     66  C   UNL     1      -4.473  -2.501  12.541  1.00  0.00     0.009 A 
ATOM     67  C   UNL     1      -4.737  -4.851  12.032  1.00  0.00     0.009 A 
ATOM     68  C   UNL     1      -5.617  -2.549  13.341  1.00  0.00     0.001 A 
ATOM     69  C   UNL     1      -5.893  -4.890  12.812  1.00  0.00     0.001 A 
ATOM     70  C   UNL     1      -6.329  -3.741  13.471  1.00  0.00     0.000 A 
ENDBRANCH  46  65
BRANCH  58  71
ATOM     71  C   UNL     1       2.788  -3.046  13.167  1.00  0.00    -0.014 A 
ATOM     72  C   UNL     1       3.018  -4.161  13.986  1.00  0.00     0.009 A 
ATOM     73  C   UNL     1       3.317  -1.801  13.538  1.00  0.00     0.009 A 
ATOM     74  C   UNL     1       3.741  -4.024  15.172  1.00  0.00     0.001 A 
ATOM     75  C   UNL     1       4.057  -1.672  14.714  1.00  0.00     0.001 A 
ATOM     76  C   UNL     1       4.262  -2.781  15.533  1.00  0.00     0.000 A 
ENDBRANCH  58  71
ENDBRANCH  32  33
ENDBRANCH  25  27
ENDBRANCH  24  25
ENDBRANCH  23  24
ENDBRANCH  22  23
ENDBRANCH  21  22
ENDBRANCH   1  21
TORSDOF 17
