REMARK SMILES CC[C@@H](NC(=O)Cc1c(C)c2ccc(OC)c(C)c2oc1=O)C(=O)OCCOC(=O)c1ccc(-c2c3nc(c(-c4ccccc4)c4ccc([nH]4)c(-c4ccccc4)c4nc(c(-c5ccccc5)c5ccc2[nH]5)C=C4)C=C3)cc1
REMARK SMILES IDX 26 1 25 2 23 3 24 4 3 5 2 6 1 7 4 8 5 9 6 11 7 12 8 13 9 14
REMARK SMILES IDX 21 15 10 16 11 17 20 18 22 19 12 20 19 21 13 22 17 23 14 24
REMARK SMILES IDX 18 25 15 26 16 27 27 28 28 29 29 30 30 31 31 32 32 33 78 34
REMARK SMILES IDX 33 35 77 36 34 37 35 38 36 39 71 40 37 41 76 42 70 43 72 44
REMARK SMILES IDX 38 45 75 46 69 47 68 48 39 50 61 51 46 52 60 53 47 54 50 55
REMARK SMILES IDX 59 56 73 57 48 58 49 59 58 61 74 62 51 63 40 64 41 65 45 66
REMARK SMILES IDX 42 67 44 68 43 69 62 70 63 71 67 72 64 73 66 74 65 75 52 76
REMARK SMILES IDX 53 77 57 78 54 79 56 80 55 81
REMARK H PARENT 4 10 72 49 50 60
REMARK Flexibility Score: inf
ROOT
ATOM      1  C   UNL     1      -0.269  -4.272  -4.048  1.00  0.00     0.274 C 
ENDROOT
BRANCH   1   2
ATOM      2  O   UNL     1       0.057  -3.445  -2.908  1.00  0.00    -0.461 OA
BRANCH   2   3
ATOM      3  C   UNL     1       0.905  -3.966  -1.982  1.00  0.00     0.328 C 
ATOM      4  O   UNL     1       1.371  -5.098  -2.021  1.00  0.00    -0.250 OA
BRANCH   3   5
ATOM      5  C   UNL     1       1.161  -3.001  -0.806  1.00  0.00     0.192 C 
BRANCH   5   6
ATOM      6  C   UNL     1       0.978  -1.503  -1.103  1.00  0.00     0.033 C 
ATOM      7  C   UNL     1       1.495  -0.566  -0.016  1.00  0.00     0.007 C 
ENDBRANCH   5   6
BRANCH   5   8
ATOM      8  N   UNL     1       0.616  -3.462   0.476  1.00  0.00    -0.342 N 
ATOM      9  C   UNL     1      -0.595  -3.946   0.863  1.00  0.00     0.225 C 
ATOM     10  H   UNL     1       1.265  -3.409   1.214  1.00  0.00     0.164 HD
ATOM     11  O   UNL     1      -0.780  -4.061   2.078  1.00  0.00    -0.275 OA
BRANCH   9  12
ATOM     12  C   UNL     1      -1.662  -4.413  -0.124  1.00  0.00     0.143 C 
BRANCH  12  13
ATOM     13  C   UNL     1      -2.387  -3.372  -0.939  1.00  0.00     0.051 A 
ATOM     14  C   UNL     1      -2.481  -2.049  -0.701  1.00  0.00    -0.029 A 
ATOM     15  C   UNL     1      -3.078  -3.955  -2.127  1.00  0.00     0.340 A 
ATOM     16  C   UNL     1      -2.203  -1.397   0.625  1.00  0.00     0.046 C 
ATOM     17  C   UNL     1      -2.754  -1.176  -1.858  1.00  0.00     0.021 A 
ATOM     18  O   UNL     1      -3.626  -3.085  -3.052  1.00  0.00    -0.422 OA
ATOM     19  O   UNL     1      -3.184  -5.169  -2.271  1.00  0.00    -0.246 OA
ATOM     20  C   UNL     1      -2.314   0.150  -1.914  1.00  0.00     0.016 A 
ATOM     21  C   UNL     1      -3.311  -1.716  -3.012  1.00  0.00     0.145 A 
ATOM     22  C   UNL     1      -2.425   0.895  -3.092  1.00  0.00     0.047 A 
ATOM     23  C   UNL     1      -3.517  -0.966  -4.185  1.00  0.00     0.034 A 
ATOM     24  C   UNL     1      -3.040   0.355  -4.224  1.00  0.00     0.125 A 
ATOM     25  C   UNL     1      -4.169  -1.605  -5.381  1.00  0.00     0.052 C 
BRANCH  24  26
ATOM     26  O   UNL     1      -3.196   1.026  -5.408  1.00  0.00    -0.496 OA
ATOM     27  C   UNL     1      -2.847   2.405  -5.428  1.00  0.00     0.278 C 
ENDBRANCH  24  26
ENDBRANCH  12  13
ENDBRANCH   9  12
ENDBRANCH   5   8
ENDBRANCH   3   5
ENDBRANCH   2   3
ENDBRANCH   1   2
BRANCH   1  28
ATOM     28  C   UNL     1      -0.133  -3.465  -5.339  1.00  0.00     0.275 C 
BRANCH  28  29
ATOM     29  O   UNL     1       1.262  -3.276  -5.618  1.00  0.00    -0.458 OA
BRANCH  29  30
ATOM     30  C   UNL     1       1.815  -2.203  -5.006  1.00  0.00     0.338 C 
ATOM     31  O   UNL     1       1.259  -1.265  -4.480  1.00  0.00    -0.246 OA
BRANCH  30  32
ATOM     32  C   UNL     1       3.241  -2.507  -4.836  1.00  0.00     0.060 A 
ATOM     33  C   UNL     1       3.717  -2.660  -3.532  1.00  0.00     0.016 A 
ATOM     34  C   UNL     1       4.088  -2.643  -5.931  1.00  0.00     0.016 A 
ATOM     35  C   UNL     1       5.050  -2.940  -3.298  1.00  0.00     0.010 A 
ATOM     36  C   UNL     1       5.436  -2.902  -5.702  1.00  0.00     0.010 A 
ATOM     37  C   UNL     1       5.915  -3.030  -4.386  1.00  0.00    -0.014 A 
BRANCH  37  38
ATOM     38  C   UNL     1       7.359  -3.086  -4.132  1.00  0.00     0.031 A 
ATOM     39  C   UNL     1       8.131  -1.807  -4.202  1.00  0.00     0.074 A 
ATOM     40  C   UNL     1       7.939  -4.250  -3.801  1.00  0.00     0.049 A 
ATOM     41  N   UNL     1       9.421  -1.623  -4.160  1.00  0.00    -0.248 NA
ATOM     42  C   UNL     1       7.343  -0.567  -4.332  1.00  0.00     0.031 C 
ATOM     43  C   UNL     1       7.235  -5.516  -3.589  1.00  0.00     0.029 A 
ATOM     44  N   UNL     1       9.255  -4.552  -3.586  1.00  0.00    -0.354 N 
ATOM     45  C   UNL     1       9.601  -0.253  -4.286  1.00  0.00     0.074 A 
ATOM     46  C   UNL     1       8.295   0.351  -4.407  1.00  0.00     0.031 C 
ATOM     47  C   UNL     1       8.135  -6.466  -3.284  1.00  0.00     0.029 A 
ATOM     48  C   UNL     1       9.473  -5.883  -3.336  1.00  0.00     0.049 A 
ATOM     49  H   UNL     1       9.975  -3.881  -3.608  1.00  0.00     0.167 HD
ATOM     50  C   UNL     1      10.766   0.428  -4.303  1.00  0.00     0.031 A 
ATOM     51  C   UNL     1      10.632  -6.554  -3.205  1.00  0.00     0.031 A 
ATOM     52  C   UNL     1      12.048  -0.203  -4.183  1.00  0.00     0.049 A 
ATOM     53  C   UNL     1      11.919  -5.791  -3.338  1.00  0.00     0.074 A 
ATOM     54  C   UNL     1      13.300   0.380  -4.218  1.00  0.00     0.029 A 
ATOM     55  N   UNL     1      12.236  -1.565  -4.000  1.00  0.00    -0.354 N 
ATOM     56  N   UNL     1      12.093  -4.503  -3.525  1.00  0.00    -0.248 NA
ATOM     57  C   UNL     1      13.164  -6.563  -3.257  1.00  0.00     0.031 C 
ATOM     58  C   UNL     1      14.249  -0.637  -4.098  1.00  0.00     0.029 A 
ATOM     59  C   UNL     1      13.586  -1.846  -3.936  1.00  0.00     0.049 A 
ATOM     60  H   UNL     1      11.514  -2.231  -3.926  1.00  0.00     0.167 HD
ATOM     61  C   UNL     1      13.465  -4.307  -3.570  1.00  0.00     0.074 A 
ATOM     62  C   UNL     1      14.078  -5.608  -3.384  1.00  0.00     0.031 C 
ATOM     63  C   UNL     1      14.156  -3.155  -3.748  1.00  0.00     0.031 A 
BRANCH  50  64
ATOM     64  C   UNL     1      10.707   1.913  -4.494  1.00  0.00    -0.014 A 
ATOM     65  C   UNL     1      10.329   2.765  -3.446  1.00  0.00     0.009 A 
ATOM     66  C   UNL     1      11.095   2.470  -5.722  1.00  0.00     0.009 A 
ATOM     67  C   UNL     1      10.338   4.149  -3.627  1.00  0.00     0.001 A 
ATOM     68  C   UNL     1      11.122   3.854  -5.894  1.00  0.00     0.001 A 
ATOM     69  C   UNL     1      10.742   4.692  -4.847  1.00  0.00     0.000 A 
ENDBRANCH  50  64
BRANCH  51  70
ATOM     70  C   UNL     1      10.602  -8.018  -2.966  1.00  0.00    -0.014 A 
ATOM     71  C   UNL     1      10.909  -8.537  -1.701  1.00  0.00     0.009 A 
ATOM     72  C   UNL     1      10.192  -8.899  -3.980  1.00  0.00     0.009 A 
ATOM     73  C   UNL     1      10.800  -9.908  -1.454  1.00  0.00     0.001 A 
ATOM     74  C   UNL     1      10.062 -10.266  -3.724  1.00  0.00     0.001 A 
ATOM     75  C   UNL     1      10.367 -10.769  -2.462  1.00  0.00     0.000 A 
ENDBRANCH  51  70
BRANCH  63  76
ATOM     76  C   UNL     1      15.653  -3.232  -3.735  1.00  0.00    -0.014 A 
ATOM     77  C   UNL     1      16.357  -3.673  -4.864  1.00  0.00     0.009 A 
ATOM     78  C   UNL     1      16.361  -2.723  -2.635  1.00  0.00     0.009 A 
ATOM     79  C   UNL     1      17.750  -3.603  -4.891  1.00  0.00     0.001 A 
ATOM     80  C   UNL     1      17.752  -2.633  -2.676  1.00  0.00     0.001 A 
ATOM     81  C   UNL     1      18.444  -3.073  -3.803  1.00  0.00     0.000 A 
ENDBRANCH  63  76
ENDBRANCH  37  38
ENDBRANCH  30  32
ENDBRANCH  29  30
ENDBRANCH  28  29
ENDBRANCH   1  28
TORSDOF 16
