REMARK SMILES O=C(OCCOC(=O)[C@H]1[C@@H](C(=O)Nc2ccccc2-c2ccccc2)[C@@H]2C=C[C@H]1O2)c1ccc(-c2c3nc(c(-c4ccccc4)c4ccc([nH]4)c(-c4ccccc4)c4nc(c(-c5ccccc5)c5ccc2[nH]5)C=C4)C=C3)cc1
REMARK SMILES IDX 5 1 4 2 3 3 2 4 1 5 31 6 32 7 78 8 33 9 77 10 34 11 35 12
REMARK SMILES IDX 36 13 71 14 37 15 76 16 70 17 72 18 38 19 75 20 69 21 68 22
REMARK SMILES IDX 39 24 61 25 46 26 60 27 47 28 50 29 59 30 73 31 48 32 49 33
REMARK SMILES IDX 58 35 74 36 51 37 40 38 41 39 45 40 42 41 44 42 43 43 62 44
REMARK SMILES IDX 63 45 67 46 64 47 66 48 65 49 52 50 53 51 57 52 54 53 56 54
REMARK SMILES IDX 55 55 6 56 7 57 8 58 9 59 10 60 29 61 26 62 28 63 30 64
REMARK SMILES IDX 27 65 11 66 12 67 13 68 14 70 15 71 19 72 16 73 18 74 17 75
REMARK SMILES IDX 20 76 21 77 25 78 22 79 24 80 23 81
REMARK H PARENT 72 23 50 34 13 69
REMARK Flexibility Score: inf
ROOT
ATOM      1  C   UNL     1      -0.106  -0.716   3.098  1.00  0.00     0.274 C 
ENDROOT
BRANCH   1   2
ATOM      2  C   UNL     1       0.641  -1.853   3.799  1.00  0.00     0.275 C 
BRANCH   2   3
ATOM      3  O   UNL     1       1.653  -1.434   4.733  1.00  0.00    -0.458 OA
BRANCH   3   4
ATOM      4  C   UNL     1       2.939  -1.056   4.557  1.00  0.00     0.338 C 
ATOM      5  O   UNL     1       3.623  -0.821   5.553  1.00  0.00    -0.246 OA
BRANCH   4   6
ATOM      6  C   UNL     1       3.587  -0.826   3.223  1.00  0.00     0.060 A 
ATOM      7  C   UNL     1       3.144  -1.316   1.993  1.00  0.00     0.016 A 
ATOM      8  C   UNL     1       4.752  -0.032   3.222  1.00  0.00     0.016 A 
ATOM      9  C   UNL     1       3.809  -1.006   0.805  1.00  0.00     0.010 A 
ATOM     10  C   UNL     1       5.416   0.297   2.035  1.00  0.00     0.010 A 
ATOM     11  C   UNL     1       4.957  -0.215   0.819  1.00  0.00    -0.014 A 
BRANCH  11  12
ATOM     12  C   UNL     1       5.787  -0.159  -0.402  1.00  0.00     0.031 A 
ATOM     13  C   UNL     1       6.995  -1.044  -0.461  1.00  0.00     0.074 A 
ATOM     14  C   UNL     1       5.400   0.532  -1.489  1.00  0.00     0.049 A 
ATOM     15  N   UNL     1       7.803  -1.270  -1.462  1.00  0.00    -0.248 NA
ATOM     16  C   UNL     1       7.317  -1.798   0.762  1.00  0.00     0.031 C 
ATOM     17  C   UNL     1       4.172   1.317  -1.595  1.00  0.00     0.029 A 
ATOM     18  N   UNL     1       5.979   0.645  -2.729  1.00  0.00    -0.354 N 
ATOM     19  C   UNL     1       8.714  -2.205  -0.993  1.00  0.00     0.074 A 
ATOM     20  C   UNL     1       8.403  -2.454   0.395  1.00  0.00     0.031 C 
ATOM     21  C   UNL     1       4.083   1.798  -2.845  1.00  0.00     0.029 A 
ATOM     22  C   UNL     1       5.264   1.427  -3.600  1.00  0.00     0.049 A 
ATOM     23  H   UNL     1       6.827   0.206  -2.970  1.00  0.00     0.167 HD
ATOM     24  C   UNL     1       9.708  -2.824  -1.667  1.00  0.00     0.031 A 
ATOM     25  C   UNL     1       5.515   1.815  -4.864  1.00  0.00     0.031 A 
ATOM     26  C   UNL     1      10.034  -2.548  -3.037  1.00  0.00     0.049 A 
ATOM     27  C   UNL     1       6.726   1.252  -5.543  1.00  0.00     0.074 A 
ATOM     28  C   UNL     1      11.044  -3.087  -3.810  1.00  0.00     0.029 A 
ATOM     29  N   UNL     1       9.357  -1.635  -3.835  1.00  0.00    -0.354 N 
ATOM     30  N   UNL     1       7.579   0.367  -5.087  1.00  0.00    -0.248 NA
ATOM     31  C   UNL     1       6.990   1.705  -6.913  1.00  0.00     0.031 C 
ATOM     32  C   UNL     1      11.021  -2.451  -5.056  1.00  0.00     0.029 A 
ATOM     33  C   UNL     1       9.951  -1.568  -5.083  1.00  0.00     0.049 A 
ATOM     34  H   UNL     1       8.571  -1.113  -3.555  1.00  0.00     0.167 HD
ATOM     35  C   UNL     1       8.455   0.118  -6.130  1.00  0.00     0.074 A 
ATOM     36  C   UNL     1       8.025   0.945  -7.242  1.00  0.00     0.031 C 
ATOM     37  C   UNL     1       9.511  -0.730  -6.169  1.00  0.00     0.031 A 
BRANCH  24  38
ATOM     38  C   UNL     1      10.536  -3.800  -0.881  1.00  0.00    -0.014 A 
ATOM     39  C   UNL     1      10.003  -5.021  -0.433  1.00  0.00     0.009 A 
ATOM     40  C   UNL     1      11.844  -3.454  -0.516  1.00  0.00     0.009 A 
ATOM     41  C   UNL     1      10.746  -5.847   0.413  1.00  0.00     0.001 A 
ATOM     42  C   UNL     1      12.596  -4.297   0.302  1.00  0.00     0.001 A 
ATOM     43  C   UNL     1      12.041  -5.484   0.780  1.00  0.00     0.000 A 
ENDBRANCH  24  38
BRANCH  25  44
ATOM     44  C   UNL     1       4.616   2.779  -5.561  1.00  0.00    -0.014 A 
ATOM     45  C   UNL     1       3.843   2.388  -6.665  1.00  0.00     0.009 A 
ATOM     46  C   UNL     1       4.542   4.115  -5.130  1.00  0.00     0.009 A 
ATOM     47  C   UNL     1       3.041   3.317  -7.337  1.00  0.00     0.001 A 
ATOM     48  C   UNL     1       3.718   5.035  -5.785  1.00  0.00     0.001 A 
ATOM     49  C   UNL     1       2.977   4.638  -6.895  1.00  0.00     0.000 A 
ENDBRANCH  25  44
BRANCH  37  50
ATOM     50  C   UNL     1      10.242  -0.834  -7.474  1.00  0.00    -0.014 A 
ATOM     51  C   UNL     1      11.038   0.216  -7.955  1.00  0.00     0.009 A 
ATOM     52  C   UNL     1      10.148  -2.019  -8.220  1.00  0.00     0.009 A 
ATOM     53  C   UNL     1      11.694   0.096  -9.181  1.00  0.00     0.001 A 
ATOM     54  C   UNL     1      10.834  -2.151  -9.426  1.00  0.00     0.001 A 
ATOM     55  C   UNL     1      11.596  -1.089  -9.911  1.00  0.00     0.000 A 
ENDBRANCH  37  50
ENDBRANCH  11  12
ENDBRANCH   4   6
ENDBRANCH   3   4
ENDBRANCH   2   3
ENDBRANCH   1   2
BRANCH   1  56
ATOM     56  O   UNL     1       0.757   0.264   2.508  1.00  0.00    -0.462 OA
BRANCH  56  57
ATOM     57  C   UNL     1       1.091   1.316   3.316  1.00  0.00     0.312 C 
ATOM     58  O   UNL     1       0.772   1.424   4.493  1.00  0.00    -0.252 OA
BRANCH  57  59
ATOM     59  C   UNL     1       1.944   2.291   2.549  1.00  0.00     0.147 C 
ATOM     60  C   UNL     1       1.249   3.612   2.120  1.00  0.00     0.129 C 
ATOM     61  C   UNL     1       3.085   2.811   3.433  1.00  0.00     0.157 C 
ATOM     62  C   UNL     1       2.110   4.656   2.855  1.00  0.00     0.155 C 
ATOM     63  C   UNL     1       4.079   3.557   2.580  1.00  0.00     0.004 C 
ATOM     64  O   UNL     1       2.443   3.942   4.067  1.00  0.00    -0.365 OA
ATOM     65  C   UNL     1       3.476   4.699   2.227  1.00  0.00     0.004 C 
BRANCH  60  66
ATOM     66  C   UNL     1      -0.247   3.715   2.388  1.00  0.00     0.231 C 
ATOM     67  O   UNL     1      -0.963   2.714   2.487  1.00  0.00    -0.274 OA
ATOM     68  N   UNL     1      -0.875   4.925   2.473  1.00  0.00    -0.325 N 
ATOM     69  H   UNL     1      -1.738   4.902   2.948  1.00  0.00     0.169 HD
BRANCH  68  70
ATOM     70  C   UNL     1      -0.506   6.199   2.001  1.00  0.00     0.049 A 
ATOM     71  C   UNL     1      -0.767   7.250   2.893  1.00  0.00     0.027 A 
ATOM     72  C   UNL     1       0.097   6.462   0.746  1.00  0.00     0.005 A 
ATOM     73  C   UNL     1      -0.334   8.544   2.614  1.00  0.00     0.002 A 
ATOM     74  C   UNL     1       0.505   7.788   0.487  1.00  0.00     0.011 A 
ATOM     75  C   UNL     1       0.314   8.811   1.416  1.00  0.00     0.001 A 
BRANCH  72  76
ATOM     76  C   UNL     1       0.303   5.444  -0.305  1.00  0.00    -0.016 A 
ATOM     77  C   UNL     1       1.554   5.327  -0.934  1.00  0.00     0.009 A 
ATOM     78  C   UNL     1      -0.686   4.496  -0.631  1.00  0.00     0.009 A 
ATOM     79  C   UNL     1       1.833   4.255  -1.776  1.00  0.00     0.001 A 
ATOM     80  C   UNL     1      -0.398   3.406  -1.454  1.00  0.00     0.001 A 
ATOM     81  C   UNL     1       0.868   3.278  -2.014  1.00  0.00     0.000 A 
ENDBRANCH  72  76
ENDBRANCH  68  70
ENDBRANCH  60  66
ENDBRANCH  57  59
ENDBRANCH  56  57
ENDBRANCH   1  56
TORSDOF 14
