REMARK SMILES C[C@H]1[C@H](C)CC[C@@]2(C(=O)OCCOC(=O)c3ccc(-c4c5nc(c(-c6ccccc6)c6ccc([nH]6)c(-c6ccccc6)c6nc(c(-c7ccccc7)c7ccc4[nH]7)C=C6)C=C5)cc3)CC[C@@]3(C)C(=CC[C@@H]4[C@@]5(C)CC[C@H](O)C(C)(C)[C@@H]5CC[C@]43C)[C@H]12
REMARK SMILES IDX 12 1 11 2 10 3 8 4 9 5 7 6 1 7 2 8 3 9 86 10 4 11 5 12 68 13
REMARK SMILES IDX 6 14 64 15 66 16 69 17 65 18 67 19 84 20 70 21 71 22 83 23
REMARK SMILES IDX 85 24 72 25 82 26 73 27 74 28 81 29 75 30 78 31 76 32 79 33
REMARK SMILES IDX 80 34 77 35 13 37 14 38 15 39 16 40 17 41 63 42 18 43 62 44
REMARK SMILES IDX 19 45 20 46 21 47 56 48 22 49 61 50 55 51 57 52 23 53 60 54
REMARK SMILES IDX 54 55 53 56 24 58 46 59 31 60 45 61 32 62 35 63 44 64 58 65
REMARK SMILES IDX 33 66 34 67 43 69 59 70 36 71 25 72 26 73 30 74 27 75 29 76
REMARK SMILES IDX 28 77 47 78 48 79 52 80 49 81 51 82 50 83 37 84 38 85 42 86
REMARK SMILES IDX 39 87 41 88 40 89
REMARK H PARENT 77 36 57 57 35 68
REMARK Flexibility Score: inf
ROOT
ATOM      1  C   UNL     1      -3.891  -1.569  -0.007  1.00  0.00     0.275 C 
ENDROOT
BRANCH   1   2
ATOM      2  C   UNL     1      -2.448  -1.044  -0.073  1.00  0.00     0.274 C 
BRANCH   2   3
ATOM      3  O   UNL     1      -1.391  -1.988   0.210  1.00  0.00    -0.462 OA
BRANCH   3   4
ATOM      4  C   UNL     1      -1.086  -2.104   1.530  1.00  0.00     0.312 C 
ATOM      5  O   UNL     1      -1.889  -1.802   2.391  1.00  0.00    -0.252 OA
BRANCH   4   6
ATOM      6  C   UNL     1       0.393  -2.423   1.850  1.00  0.00     0.075 C 
ATOM      7  C   UNL     1       2.365   0.515   0.133  1.00  0.00     0.008 C 
ATOM      8  C   UNL     1       1.417  -0.690   0.245  1.00  0.00    -0.003 C 
ATOM      9  C   UNL     1       1.968  -1.866  -0.628  1.00  0.00    -0.011 C 
ATOM     10  C   UNL     1       1.200  -1.094   1.753  1.00  0.00     0.036 C 
ATOM     11  C   UNL     1       1.993  -1.528  -2.128  1.00  0.00     0.008 C 
ATOM     12  C   UNL     1       1.182  -3.172  -0.480  1.00  0.00     0.005 C 
ATOM     13  C   UNL     1       0.481  -0.094   2.728  1.00  0.00    -0.063 C 
ATOM     14  C   UNL     1       0.942  -3.553   0.965  1.00  0.00     0.020 C 
ATOM     15  C   UNL     1       0.529  -2.933   3.316  1.00  0.00     0.020 C 
ATOM     16  C   UNL     1       0.447  -0.472   4.252  1.00  0.00    -0.006 C 
ATOM     17  C   UNL     1      -0.302   0.892   2.244  1.00  0.00    -0.027 C 
ATOM     18  C   UNL     1       0.036  -1.973   4.403  1.00  0.00     0.013 C 
ATOM     19  C   UNL     1       1.893  -0.363   4.805  1.00  0.00     0.017 C 
ATOM     20  C   UNL     1      -0.572   0.504   5.134  1.00  0.00    -0.020 C 
ATOM     21  C   UNL     1      -1.425   1.550   2.997  1.00  0.00     0.032 C 
ATOM     22  C   UNL     1      -1.852   0.768   4.261  1.00  0.00     0.006 C 
ATOM     23  C   UNL     1      -1.003  -0.142   6.478  1.00  0.00     0.008 C 
ATOM     24  C   UNL     1       0.144   1.832   5.498  1.00  0.00     0.012 C 
ATOM     25  C   UNL     1      -3.193   1.293   4.957  1.00  0.00    -0.025 C 
ATOM     26  C   UNL     1      -2.169   0.558   7.190  1.00  0.00     0.005 C 
ATOM     27  C   UNL     1      -3.171   2.825   5.122  1.00  0.00     0.012 C 
ATOM     28  C   UNL     1      -4.402   0.941   4.028  1.00  0.00     0.010 C 
ATOM     29  C   UNL     1      -3.425   0.512   6.301  1.00  0.00     0.003 C 
ATOM     30  C   UNL     1      -5.783   1.145   4.655  1.00  0.00     0.033 C 
ATOM     31  C   UNL     1      -4.800   0.775   7.035  1.00  0.00    -0.006 C 
ATOM     32  C   UNL     1      -5.947   0.479   6.021  1.00  0.00     0.120 C 
ATOM     33  C   UNL     1      -4.939   2.185   7.645  1.00  0.00     0.014 C 
ATOM     34  C   UNL     1      -4.970  -0.207   8.230  1.00  0.00     0.014 C 
BRANCH  32  35
ATOM     35  O   UNL     1      -7.229   0.815   6.553  1.00  0.00    -0.393 OA
ATOM     36  H   UNL     1      -7.280   1.773   6.693  1.00  0.00     0.210 HD
ENDBRANCH  32  35
ENDBRANCH   4   6
ENDBRANCH   3   4
ENDBRANCH   2   3
ENDBRANCH   1   2
BRANCH   1  37
ATOM     37  O   UNL     1      -4.272  -2.030   1.299  1.00  0.00    -0.458 OA
BRANCH  37  38
ATOM     38  C   UNL     1      -3.982  -3.332   1.554  1.00  0.00     0.338 C 
ATOM     39  O   UNL     1      -3.663  -4.175   0.725  1.00  0.00    -0.246 OA
BRANCH  38  40
ATOM     40  C   UNL     1      -3.884  -3.560   3.020  1.00  0.00     0.060 A 
ATOM     41  C   UNL     1      -2.909  -4.459   3.486  1.00  0.00     0.016 A 
ATOM     42  C   UNL     1      -4.657  -2.845   3.933  1.00  0.00     0.016 A 
ATOM     43  C   UNL     1      -2.724  -4.668   4.857  1.00  0.00     0.010 A 
ATOM     44  C   UNL     1      -4.469  -3.052   5.301  1.00  0.00     0.010 A 
ATOM     45  C   UNL     1      -3.535  -3.994   5.773  1.00  0.00    -0.014 A 
BRANCH  45  46
ATOM     46  C   UNL     1      -3.710  -4.515   7.152  1.00  0.00     0.031 A 
ATOM     47  C   UNL     1      -4.921  -5.383   7.378  1.00  0.00     0.074 A 
ATOM     48  C   UNL     1      -2.896  -4.219   8.181  1.00  0.00     0.049 A 
ATOM     49  N   UNL     1      -5.356  -5.941   8.477  1.00  0.00    -0.248 NA
ATOM     50  C   UNL     1      -5.768  -5.638   6.198  1.00  0.00     0.031 C 
ATOM     51  C   UNL     1      -1.686  -3.408   8.114  1.00  0.00     0.029 A 
ATOM     52  N   UNL     1      -2.991  -4.557   9.510  1.00  0.00    -0.354 N 
ATOM     53  C   UNL     1      -6.516  -6.609   8.110  1.00  0.00     0.074 A 
ATOM     54  C   UNL     1      -6.777  -6.302   6.725  1.00  0.00     0.031 C 
ATOM     55  C   UNL     1      -1.184  -3.253   9.354  1.00  0.00     0.029 A 
ATOM     56  C   UNL     1      -2.017  -3.991  10.299  1.00  0.00     0.049 A 
ATOM     57  H   UNL     1      -3.692  -5.150   9.864  1.00  0.00     0.167 HD
ATOM     58  C   UNL     1      -7.274  -7.459   8.836  1.00  0.00     0.031 A 
ATOM     59  C   UNL     1      -1.817  -4.083  11.629  1.00  0.00     0.031 A 
ATOM     60  C   UNL     1      -7.021  -7.780  10.207  1.00  0.00     0.049 A 
ATOM     61  C   UNL     1      -2.701  -4.996  12.441  1.00  0.00     0.074 A 
ATOM     62  C   UNL     1      -7.694  -8.662  11.029  1.00  0.00     0.029 A 
ATOM     63  N   UNL     1      -6.003  -7.216  10.959  1.00  0.00    -0.354 N 
ATOM     64  N   UNL     1      -3.728  -5.715  12.056  1.00  0.00    -0.248 NA
ATOM     65  C   UNL     1      -2.360  -5.153  13.864  1.00  0.00     0.031 C 
ATOM     66  C   UNL     1      -7.098  -8.610  12.294  1.00  0.00     0.029 A 
ATOM     67  C   UNL     1      -6.031  -7.726  12.242  1.00  0.00     0.049 A 
ATOM     68  H   UNL     1      -5.356  -6.551  10.628  1.00  0.00     0.167 HD
ATOM     69  C   UNL     1      -4.111  -6.458  13.167  1.00  0.00     0.074 A 
ATOM     70  C   UNL     1      -3.211  -6.095  14.243  1.00  0.00     0.031 C 
ATOM     71  C   UNL     1      -5.106  -7.370  13.285  1.00  0.00     0.031 A 
BRANCH  58  72
ATOM     72  C   UNL     1      -8.425  -8.098   8.117  1.00  0.00    -0.014 A 
ATOM     73  C   UNL     1      -8.197  -9.045   7.102  1.00  0.00     0.009 A 
ATOM     74  C   UNL     1      -9.738  -7.697   8.394  1.00  0.00     0.009 A 
ATOM     75  C   UNL     1      -9.257  -9.533   6.339  1.00  0.00     0.001 A 
ATOM     76  C   UNL     1     -10.800  -8.212   7.649  1.00  0.00     0.001 A 
ATOM     77  C   UNL     1     -10.558  -9.116   6.614  1.00  0.00     0.000 A 
ENDBRANCH  58  72
BRANCH  59  78
ATOM     78  C   UNL     1      -0.698  -3.355  12.286  1.00  0.00    -0.014 A 
ATOM     79  C   UNL     1       0.434  -4.050  12.743  1.00  0.00     0.009 A 
ATOM     80  C   UNL     1      -0.786  -1.975  12.527  1.00  0.00     0.009 A 
ATOM     81  C   UNL     1       1.432  -3.388  13.465  1.00  0.00     0.001 A 
ATOM     82  C   UNL     1       0.225  -1.312  13.230  1.00  0.00     0.001 A 
ATOM     83  C   UNL     1       1.325  -2.021  13.710  1.00  0.00     0.000 A 
ENDBRANCH  59  78
BRANCH  71  84
ATOM     84  C   UNL     1      -5.228  -8.096  14.593  1.00  0.00    -0.014 A 
ATOM     85  C   UNL     1      -5.720  -7.461  15.743  1.00  0.00     0.009 A 
ATOM     86  C   UNL     1      -4.895  -9.459  14.655  1.00  0.00     0.009 A 
ATOM     87  C   UNL     1      -5.843  -8.171  16.939  1.00  0.00     0.001 A 
ATOM     88  C   UNL     1      -5.048 -10.173  15.843  1.00  0.00     0.001 A 
ATOM     89  C   UNL     1      -5.513  -9.526  16.986  1.00  0.00     0.000 A 
ENDBRANCH  71  84
ENDBRANCH  45  46
ENDBRANCH  38  40
ENDBRANCH  37  38
ENDBRANCH   1  37
TORSDOF 12
