REMARK SMILES CCC(CC)(NC(=O)c1ccc(NC(C)=O)cc1)C(=O)OCCOC(=O)c1ccc(-c2c3nc(c(-c4ccccc4)c4ccc([nH]4)c(-c4ccccc4)c4nc(c(-c5ccccc5)c5ccc2[nH]5)C=C4)C=C3)cc1
REMARK SMILES IDX 22 1 21 2 19 3 20 4 3 5 2 6 1 7 4 8 5 9 6 10 7 11 8 13 9 14
REMARK SMILES IDX 10 15 18 16 11 17 17 18 12 19 13 20 14 21 15 23 16 24 23 25
REMARK SMILES IDX 24 26 25 27 26 28 27 29 28 30 74 31 29 32 73 33 30 34 31 35
REMARK SMILES IDX 32 36 67 37 33 38 72 39 66 40 68 41 34 42 71 43 65 44 64 45
REMARK SMILES IDX 35 47 57 48 42 49 56 50 43 51 46 52 55 53 69 54 44 55 45 56
REMARK SMILES IDX 54 58 70 59 47 60 36 61 37 62 41 63 38 64 40 65 39 66 58 67
REMARK SMILES IDX 59 68 63 69 60 70 62 71 61 72 48 73 49 74 53 75 50 76 52 77
REMARK SMILES IDX 51 78
REMARK H PARENT 6 12 13 22 68 46 46 57
REMARK Flexibility Score: inf
ROOT
ATOM      1  C   UNL     1       4.676  -2.474  -0.352  1.00  0.00     0.274 C 
ENDROOT
BRANCH   1   2
ATOM      2  O   UNL     1       3.400  -2.720  -0.986  1.00  0.00    -0.460 OA
BRANCH   2   3
ATOM      3  C   UNL     1       2.310  -2.227  -0.359  1.00  0.00     0.331 C 
ATOM      4  O   UNL     1       2.389  -1.549   0.663  1.00  0.00    -0.249 OA
BRANCH   3   5
ATOM      5  C   UNL     1       0.942  -2.718  -0.936  1.00  0.00     0.137 C 
BRANCH   5   6
ATOM      6  C   UNL     1       0.022  -1.447  -1.088  1.00  0.00     0.037 C 
ATOM      7  C   UNL     1      -0.232  -0.556   0.124  1.00  0.00     0.007 C 
ENDBRANCH   5   6
BRANCH   5   8
ATOM      8  C   UNL     1       0.399  -3.705   0.141  1.00  0.00     0.037 C 
ATOM      9  C   UNL     1      -1.100  -3.984   0.100  1.00  0.00     0.007 C 
ENDBRANCH   5   8
BRANCH   5  10
ATOM     10  N   UNL     1       0.822  -3.370  -2.294  1.00  0.00    -0.336 N 
ATOM     11  C   UNL     1       1.414  -4.382  -2.997  1.00  0.00     0.252 C 
ATOM     12  H   UNL     1       0.112  -2.943  -2.826  1.00  0.00     0.165 HD
ATOM     13  O   UNL     1       0.712  -5.071  -3.736  1.00  0.00    -0.269 OA
BRANCH  11  14
ATOM     14  C   UNL     1       2.868  -4.521  -3.116  1.00  0.00     0.039 A 
ATOM     15  C   UNL     1       3.488  -3.910  -4.211  1.00  0.00     0.016 A 
ATOM     16  C   UNL     1       3.612  -5.317  -2.251  1.00  0.00     0.016 A 
ATOM     17  C   UNL     1       4.877  -3.971  -4.357  1.00  0.00     0.027 A 
ATOM     18  C   UNL     1       5.007  -5.367  -2.397  1.00  0.00     0.027 A 
ATOM     19  C   UNL     1       5.654  -4.635  -3.409  1.00  0.00     0.041 A 
BRANCH  19  20
ATOM     20  N   UNL     1       7.058  -4.498  -3.318  1.00  0.00    -0.326 N 
ATOM     21  C   UNL     1       7.856  -3.633  -4.051  1.00  0.00     0.221 C 
ATOM     22  H   UNL     1       7.516  -5.077  -2.666  1.00  0.00     0.169 HD
ATOM     23  C   UNL     1       9.219  -3.440  -3.431  1.00  0.00     0.114 C 
ATOM     24  O   UNL     1       7.557  -3.037  -5.079  1.00  0.00    -0.275 OA
ENDBRANCH  19  20
ENDBRANCH  11  14
ENDBRANCH   5  10
ENDBRANCH   3   5
ENDBRANCH   2   3
ENDBRANCH   1   2
BRANCH   1  25
ATOM     25  C   UNL     1       5.578  -1.655  -1.264  1.00  0.00     0.275 C 
BRANCH  25  26
ATOM     26  O   UNL     1       4.941  -0.403  -1.536  1.00  0.00    -0.458 OA
BRANCH  26  27
ATOM     27  C   UNL     1       4.460  -0.266  -2.792  1.00  0.00     0.338 C 
ATOM     28  O   UNL     1       4.598  -0.996  -3.753  1.00  0.00    -0.246 OA
BRANCH  27  29
ATOM     29  C   UNL     1       3.686   0.967  -2.845  1.00  0.00     0.060 A 
ATOM     30  C   UNL     1       2.539   1.082  -2.062  1.00  0.00     0.016 A 
ATOM     31  C   UNL     1       4.083   1.981  -3.709  1.00  0.00     0.016 A 
ATOM     32  C   UNL     1       1.755   2.218  -2.160  1.00  0.00     0.010 A 
ATOM     33  C   UNL     1       3.350   3.162  -3.734  1.00  0.00     0.010 A 
ATOM     34  C   UNL     1       2.186   3.287  -2.956  1.00  0.00    -0.014 A 
BRANCH  34  35
ATOM     35  C   UNL     1       1.465   4.574  -2.918  1.00  0.00     0.031 A 
ATOM     36  C   UNL     1       0.823   5.113  -4.157  1.00  0.00     0.074 A 
ATOM     37  C   UNL     1       1.444   5.265  -1.763  1.00  0.00     0.049 A 
ATOM     38  N   UNL     1       0.327   6.302  -4.374  1.00  0.00    -0.248 NA
ATOM     39  C   UNL     1       0.740   4.201  -5.310  1.00  0.00     0.031 C 
ATOM     40  C   UNL     1       2.016   4.810  -0.491  1.00  0.00     0.029 A 
ATOM     41  N   UNL     1       0.924   6.497  -1.468  1.00  0.00    -0.354 N 
ATOM     42  C   UNL     1      -0.081   6.301  -5.701  1.00  0.00     0.074 A 
ATOM     43  C   UNL     1       0.218   4.991  -6.239  1.00  0.00     0.031 C 
ATOM     44  C   UNL     1       1.784   5.732   0.453  1.00  0.00     0.029 A 
ATOM     45  C   UNL     1       1.131   6.878  -0.165  1.00  0.00     0.049 A 
ATOM     46  H   UNL     1       0.448   7.054  -2.126  1.00  0.00     0.167 HD
ATOM     47  C   UNL     1      -0.639   7.314  -6.403  1.00  0.00     0.031 A 
ATOM     48  C   UNL     1       0.866   8.042   0.452  1.00  0.00     0.031 A 
ATOM     49  C   UNL     1      -0.929   8.608  -5.843  1.00  0.00     0.049 A 
ATOM     50  C   UNL     1       0.270   9.154  -0.355  1.00  0.00     0.074 A 
ATOM     51  C   UNL     1      -1.475   9.718  -6.462  1.00  0.00     0.029 A 
ATOM     52  N   UNL     1      -0.701   8.957  -4.519  1.00  0.00    -0.354 N 
ATOM     53  N   UNL     1      -0.066   9.161  -1.623  1.00  0.00    -0.248 NA
ATOM     54  C   UNL     1       0.033  10.422   0.344  1.00  0.00     0.031 C 
ATOM     55  C   UNL     1      -1.548  10.749  -5.518  1.00  0.00     0.029 A 
ATOM     56  C   UNL     1      -1.088  10.267  -4.302  1.00  0.00     0.049 A 
ATOM     57  H   UNL     1      -0.319   8.360  -3.835  1.00  0.00     0.167 HD
ATOM     58  C   UNL     1      -0.559  10.431  -1.875  1.00  0.00     0.074 A 
ATOM     59  C   UNL     1      -0.500  11.158  -0.621  1.00  0.00     0.031 C 
ATOM     60  C   UNL     1      -1.011  10.956  -3.040  1.00  0.00     0.031 A 
BRANCH  47  61
ATOM     61  C   UNL     1      -0.916   7.072  -7.859  1.00  0.00    -0.014 A 
ATOM     62  C   UNL     1      -1.976   6.253  -8.277  1.00  0.00     0.009 A 
ATOM     63  C   UNL     1      -0.103   7.679  -8.829  1.00  0.00     0.009 A 
ATOM     64  C   UNL     1      -2.195   6.022  -9.638  1.00  0.00     0.001 A 
ATOM     65  C   UNL     1      -0.338   7.465 -10.188  1.00  0.00     0.001 A 
ATOM     66  C   UNL     1      -1.378   6.629 -10.591  1.00  0.00     0.000 A 
ENDBRANCH  47  61
BRANCH  48  67
ATOM     67  C   UNL     1       1.208   8.213   1.887  1.00  0.00    -0.014 A 
ATOM     68  C   UNL     1       0.197   8.283   2.856  1.00  0.00     0.009 A 
ATOM     69  C   UNL     1       2.549   8.267   2.300  1.00  0.00     0.009 A 
ATOM     70  C   UNL     1       0.522   8.415   4.208  1.00  0.00     0.001 A 
ATOM     71  C   UNL     1       2.871   8.369   3.655  1.00  0.00     0.001 A 
ATOM     72  C   UNL     1       1.857   8.450   4.607  1.00  0.00     0.000 A 
ENDBRANCH  48  67
BRANCH  60  73
ATOM     73  C   UNL     1      -1.498  12.373  -2.988  1.00  0.00    -0.014 A 
ATOM     74  C   UNL     1      -0.595  13.445  -2.939  1.00  0.00     0.009 A 
ATOM     75  C   UNL     1      -2.876  12.633  -3.012  1.00  0.00     0.009 A 
ATOM     76  C   UNL     1      -1.067  14.756  -2.884  1.00  0.00     0.001 A 
ATOM     77  C   UNL     1      -3.344  13.946  -2.979  1.00  0.00     0.001 A 
ATOM     78  C   UNL     1      -2.440  15.005  -2.907  1.00  0.00     0.000 A 
ENDBRANCH  60  73
ENDBRANCH  34  35
ENDBRANCH  27  29
ENDBRANCH  26  27
ENDBRANCH  25  26
ENDBRANCH   1  25
TORSDOF 16
