REMARK SMILES CC1=NN(c2ccccc2)C(=O)/C1=C\c1ccc(-c2cc(C(=O)OCCOC(=O)c3ccc(-c4c5nc(c(-c6ccccc6)c6ccc([nH]6)c(-c6ccccc6)c6nc(c(-c7ccccc7)c7ccc4[nH]7)C=C6)C=C5)cc3)ccc2Cl)o1
REMARK SMILES IDX 25 1 24 2 22 3 23 4 21 5 19 6 20 7 80 8 79 9 81 10 78 11
REMARK SMILES IDX 18 12 15 13 16 14 82 15 17 16 14 17 1 18 2 19 3 20 13 21
REMARK SMILES IDX 4 22 11 23 12 24 5 25 6 26 10 27 7 28 9 29 8 30 26 31 27 32
REMARK SMILES IDX 28 33 29 34 30 35 31 36 77 37 32 38 76 39 33 40 34 41 35 42
REMARK SMILES IDX 70 43 36 44 75 45 69 46 71 47 37 48 74 49 68 50 67 51 38 53
REMARK SMILES IDX 60 54 45 55 59 56 46 57 49 58 58 59 72 60 47 61 48 62 57 64
REMARK SMILES IDX 73 65 50 66 39 67 40 68 44 69 41 70 43 71 42 72 61 73 62 74
REMARK SMILES IDX 66 75 63 76 65 77 64 78 51 79 52 80 56 81 53 82 55 83 54 84
REMARK H PARENT 71 52 49 63
REMARK Flexibility Score: inf
ROOT
ATOM      1  C   UNL     1       5.884  -6.307  -6.675  1.00  0.00     0.275 C 
ENDROOT
BRANCH   1   2
ATOM      2  O   UNL     1       5.802  -6.475  -5.245  1.00  0.00    -0.458 OA
BRANCH   2   3
ATOM      3  C   UNL     1       5.987  -5.371  -4.479  1.00  0.00     0.338 C 
ATOM      4  O   UNL     1       6.296  -4.258  -4.868  1.00  0.00    -0.246 OA
BRANCH   3   5
ATOM      5  C   UNL     1       5.625  -5.681  -3.071  1.00  0.00     0.060 A 
ATOM      6  C   UNL     1       4.494  -5.010  -1.006  1.00  0.00     0.037 A 
ATOM      7  C   UNL     1       4.970  -4.713  -2.292  1.00  0.00     0.029 A 
ATOM      8  C   UNL     1       4.794  -6.269  -0.464  1.00  0.00     0.052 A 
ATOM      9  C   UNL     1       5.512  -7.213  -1.210  1.00  0.00     0.022 A 
ATOM     10  Cl  UNL     1       4.310  -6.724   1.134  1.00  0.00    -0.084 Cl
ATOM     11  C   UNL     1       5.909  -6.930  -2.518  1.00  0.00     0.017 A 
BRANCH   6  12
ATOM     12  C   UNL     1       3.754  -3.995  -0.269  1.00  0.00     0.136 A 
ATOM     13  C   UNL     1       1.982  -2.703   0.107  1.00  0.00     0.128 A 
ATOM     14  C   UNL     1       2.902  -2.494   1.131  1.00  0.00     0.051 A 
ATOM     15  O   UNL     1       2.518  -3.646  -0.748  1.00  0.00    -0.457 OA
ATOM     16  C   UNL     1       4.030  -3.296   0.881  1.00  0.00     0.051 A 
BRANCH  13  17
ATOM     17  C   UNL     1       0.685  -2.116   0.007  1.00  0.00     0.063 C 
ATOM     18  C   UNL     1      -1.963  -0.635   0.778  1.00  0.00     0.069 C 
ATOM     19  C   UNL     1      -0.657  -0.023   0.421  1.00  0.00     0.071 C 
ATOM     20  N   UNL     1      -0.412   1.252   0.555  1.00  0.00    -0.169 NA
ATOM     21  C   UNL     1       0.536  -0.784   0.014  1.00  0.00     0.068 C 
ATOM     22  N   UNL     1       0.905   1.433   0.154  1.00  0.00    -0.196 N 
ATOM     23  C   UNL     1       1.571   0.255  -0.217  1.00  0.00     0.280 C 
ATOM     24  O   UNL     1       2.700   0.057  -0.614  1.00  0.00    -0.267 OA
BRANCH  22  25
ATOM     25  C   UNL     1       1.447   2.736   0.150  1.00  0.00     0.069 A 
ATOM     26  C   UNL     1       0.850   3.764   0.893  1.00  0.00     0.028 A 
ATOM     27  C   UNL     1       2.604   3.027  -0.580  1.00  0.00     0.028 A 
ATOM     28  C   UNL     1       1.417   5.041   0.927  1.00  0.00     0.002 A 
ATOM     29  C   UNL     1       3.164   4.303  -0.556  1.00  0.00     0.002 A 
ATOM     30  C   UNL     1       2.573   5.311   0.199  1.00  0.00     0.000 A 
ENDBRANCH  22  25
ENDBRANCH  13  17
ENDBRANCH   6  12
ENDBRANCH   3   5
ENDBRANCH   2   3
ENDBRANCH   1   2
BRANCH   1  31
ATOM     31  C   UNL     1       4.490  -6.317  -7.307  1.00  0.00     0.275 C 
BRANCH  31  32
ATOM     32  O   UNL     1       3.791  -5.091  -7.022  1.00  0.00    -0.458 OA
BRANCH  32  33
ATOM     33  C   UNL     1       2.949  -5.151  -5.968  1.00  0.00     0.338 C 
ATOM     34  O   UNL     1       2.686  -6.119  -5.275  1.00  0.00    -0.246 OA
BRANCH  33  35
ATOM     35  C   UNL     1       2.423  -3.812  -5.679  1.00  0.00     0.060 A 
ATOM     36  C   UNL     1       3.120  -3.024  -4.770  1.00  0.00     0.016 A 
ATOM     37  C   UNL     1       1.183  -3.405  -6.154  1.00  0.00     0.016 A 
ATOM     38  C   UNL     1       2.529  -1.901  -4.208  1.00  0.00     0.010 A 
ATOM     39  C   UNL     1       0.646  -2.199  -5.693  1.00  0.00     0.010 A 
ATOM     40  C   UNL     1       1.289  -1.460  -4.679  1.00  0.00    -0.014 A 
BRANCH  40  41
ATOM     41  C   UNL     1       0.654  -0.239  -4.111  1.00  0.00     0.031 A 
ATOM     42  C   UNL     1      -0.725  -0.337  -3.508  1.00  0.00     0.074 A 
ATOM     43  C   UNL     1       1.297   0.946  -4.186  1.00  0.00     0.049 A 
ATOM     44  N   UNL     1      -1.539   0.616  -3.134  1.00  0.00    -0.248 NA
ATOM     45  C   UNL     1      -1.276  -1.691  -3.317  1.00  0.00     0.031 C 
ATOM     46  C   UNL     1       2.653   1.144  -4.710  1.00  0.00     0.029 A 
ATOM     47  N   UNL     1       0.899   2.213  -3.838  1.00  0.00    -0.354 N 
ATOM     48  C   UNL     1      -2.720  -0.014  -2.752  1.00  0.00     0.074 A 
ATOM     49  C   UNL     1      -2.518  -1.433  -2.932  1.00  0.00     0.031 C 
ATOM     50  C   UNL     1       2.976   2.443  -4.636  1.00  0.00     0.029 A 
ATOM     51  C   UNL     1       1.825   3.186  -4.145  1.00  0.00     0.049 A 
ATOM     52  H   UNL     1       0.034   2.407  -3.409  1.00  0.00     0.167 HD
ATOM     53  C   UNL     1      -3.862   0.553  -2.289  1.00  0.00     0.031 A 
ATOM     54  C   UNL     1       1.743   4.529  -4.074  1.00  0.00     0.031 A 
ATOM     55  C   UNL     1      -3.995   1.972  -2.063  1.00  0.00     0.049 A 
ATOM     56  C   UNL     1       0.460   5.123  -3.562  1.00  0.00     0.074 A 
ATOM     57  C   UNL     1      -5.064   2.662  -1.518  1.00  0.00     0.029 A 
ATOM     58  N   UNL     1      -3.020   2.919  -2.360  1.00  0.00    -0.354 N 
ATOM     59  N   UNL     1      -0.631   4.513  -3.162  1.00  0.00    -0.248 NA
ATOM     60  C   UNL     1       0.392   6.588  -3.494  1.00  0.00     0.031 C 
ATOM     61  C   UNL     1      -4.769   4.028  -1.559  1.00  0.00     0.029 A 
ATOM     62  C   UNL     1      -3.488   4.188  -2.064  1.00  0.00     0.049 A 
ATOM     63  H   UNL     1      -2.129   2.716  -2.725  1.00  0.00     0.167 HD
ATOM     64  C   UNL     1      -1.496   5.516  -2.749  1.00  0.00     0.074 A 
ATOM     65  C   UNL     1      -0.798   6.772  -2.941  1.00  0.00     0.031 C 
ATOM     66  C   UNL     1      -2.757   5.415  -2.262  1.00  0.00     0.031 A 
BRANCH  53  67
ATOM     67  C   UNL     1      -5.061  -0.332  -2.022  1.00  0.00    -0.014 A 
ATOM     68  C   UNL     1      -5.085  -1.284  -0.991  1.00  0.00     0.009 A 
ATOM     69  C   UNL     1      -6.233  -0.158  -2.776  1.00  0.00     0.009 A 
ATOM     70  C   UNL     1      -6.226  -2.049  -0.730  1.00  0.00     0.001 A 
ATOM     71  C   UNL     1      -7.385  -0.902  -2.500  1.00  0.00     0.001 A 
ATOM     72  C   UNL     1      -7.380  -1.851  -1.480  1.00  0.00     0.000 A 
ENDBRANCH  53  67
BRANCH  54  73
ATOM     73  C   UNL     1       2.889   5.388  -4.504  1.00  0.00    -0.014 A 
ATOM     74  C   UNL     1       3.539   6.234  -3.591  1.00  0.00     0.009 A 
ATOM     75  C   UNL     1       3.354   5.368  -5.829  1.00  0.00     0.009 A 
ATOM     76  C   UNL     1       4.620   7.029  -3.984  1.00  0.00     0.001 A 
ATOM     77  C   UNL     1       4.453   6.142  -6.217  1.00  0.00     0.001 A 
ATOM     78  C   UNL     1       5.082   6.975  -5.295  1.00  0.00     0.000 A 
ENDBRANCH  54  73
BRANCH  66  79
ATOM     79  C   UNL     1      -3.433   6.701  -1.872  1.00  0.00    -0.014 A 
ATOM     80  C   UNL     1      -3.871   7.618  -2.840  1.00  0.00     0.009 A 
ATOM     81  C   UNL     1      -3.661   6.979  -0.516  1.00  0.00     0.009 A 
ATOM     82  C   UNL     1      -4.493   8.806  -2.454  1.00  0.00     0.001 A 
ATOM     83  C   UNL     1      -4.315   8.150  -0.135  1.00  0.00     0.001 A 
ATOM     84  C   UNL     1      -4.721   9.068  -1.103  1.00  0.00     0.000 A 
ENDBRANCH  66  79
ENDBRANCH  40  41
ENDBRANCH  33  35
ENDBRANCH  32  33
ENDBRANCH  31  32
ENDBRANCH   1  31
TORSDOF 14
