REMARK SMILES CC(C)C[C@@H](CNc1ccccc1C(N)=O)C(=O)OCCOC(=O)c1ccc(-c2c3nc(c(-c4ccccc4)c4ccc([nH]4)c(-c4ccccc4)c4nc(c(-c5ccccc5)c5ccc2[nH]5)C=C4)C=C3)cc1
REMARK SMILES IDX 20 1 19 2 17 3 18 4 5 5 4 6 2 7 1 8 3 9 6 10 7 11 8 13 9 14
REMARK SMILES IDX 13 15 10 16 12 17 11 18 14 19 15 20 16 21 21 24 22 25 23 26
REMARK SMILES IDX 24 27 25 28 26 29 72 30 27 31 71 32 28 33 29 34 30 35 65 36
REMARK SMILES IDX 31 37 70 38 64 39 66 40 32 41 69 42 63 43 62 44 33 46 55 47
REMARK SMILES IDX 40 48 54 49 41 50 44 51 53 52 67 53 42 54 43 55 52 57 68 58
REMARK SMILES IDX 45 59 34 60 35 61 39 62 36 63 38 64 37 65 56 66 57 67 61 68
REMARK SMILES IDX 58 69 60 70 59 71 46 72 47 73 51 74 48 75 50 76 49 77
REMARK H PARENT 7 12 15 22 15 23 66 45 44 56
REMARK Flexibility Score: inf
ROOT
ATOM      1  C   UNL     1      -4.936  -1.154  -1.670  1.00  0.00     0.274 C 
ENDROOT
BRANCH   1   2
ATOM      2  O   UNL     1      -3.504  -1.279  -1.566  1.00  0.00    -0.462 OA
BRANCH   2   3
ATOM      3  C   UNL     1      -2.780  -0.187  -1.931  1.00  0.00     0.310 C 
ATOM      4  O   UNL     1      -3.264   0.875  -2.309  1.00  0.00    -0.252 OA
BRANCH   3   5
ATOM      5  C   UNL     1      -1.278  -0.400  -1.832  1.00  0.00     0.118 C 
BRANCH   5   6
ATOM      6  C   UNL     1      -0.851  -1.448  -0.786  1.00  0.00     0.020 C 
BRANCH   6   7
ATOM      7  C   UNL     1       0.664  -1.492  -0.489  1.00  0.00    -0.017 C 
ATOM      8  C   UNL     1       1.194  -0.166   0.064  1.00  0.00     0.007 C 
ATOM      9  C   UNL     1       0.967  -2.613   0.509  1.00  0.00     0.007 C 
ENDBRANCH   6   7
ENDBRANCH   5   6
BRANCH   5  10
ATOM     10  C   UNL     1      -0.716  -0.607  -3.240  1.00  0.00     0.128 C 
BRANCH  10  11
ATOM     11  N   UNL     1      -1.190  -1.846  -3.833  1.00  0.00    -0.384 N 
ATOM     12  H   UNL     1      -0.972  -2.697  -3.389  1.00  0.00     0.160 HD
BRANCH  11  13
ATOM     13  C   UNL     1      -1.937  -1.874  -5.001  1.00  0.00     0.047 A 
ATOM     14  C   UNL     1      -3.087  -2.687  -4.982  1.00  0.00     0.026 A 
ATOM     15  C   UNL     1      -1.718  -1.083  -6.149  1.00  0.00     0.062 A 
ATOM     16  C   UNL     1      -3.993  -2.711  -6.045  1.00  0.00     0.002 A 
ATOM     17  C   UNL     1      -2.627  -1.123  -7.225  1.00  0.00     0.016 A 
ATOM     18  C   UNL     1      -3.764  -1.926  -7.167  1.00  0.00     0.001 A 
BRANCH  15  19
ATOM     19  C   UNL     1      -0.484  -0.263  -6.333  1.00  0.00     0.250 C 
ATOM     20  N   UNL     1      -0.652   0.970  -6.906  1.00  0.00    -0.366 N 
ATOM     21  O   UNL     1       0.632  -0.639  -5.998  1.00  0.00    -0.269 OA
ATOM     22  H   UNL     1      -1.551   1.270  -7.174  1.00  0.00     0.159 HD
ATOM     23  H   UNL     1       0.126   1.556  -7.051  1.00  0.00     0.159 HD
ENDBRANCH  15  19
ENDBRANCH  11  13
ENDBRANCH  10  11
ENDBRANCH   5  10
ENDBRANCH   3   5
ENDBRANCH   2   3
ENDBRANCH   1   2
BRANCH   1  24
ATOM     24  C   UNL     1      -5.588  -0.865  -0.314  1.00  0.00     0.275 C 
BRANCH  24  25
ATOM     25  O   UNL     1      -5.183   0.412   0.210  1.00  0.00    -0.458 OA
BRANCH  25  26
ATOM     26  C   UNL     1      -4.143   0.361   1.074  1.00  0.00     0.338 C 
ATOM     27  O   UNL     1      -3.570  -0.631   1.489  1.00  0.00    -0.246 OA
BRANCH  26  28
ATOM     28  C   UNL     1      -3.675   1.721   1.379  1.00  0.00     0.060 A 
ATOM     29  C   UNL     1      -2.389   2.069   0.962  1.00  0.00     0.016 A 
ATOM     30  C   UNL     1      -4.424   2.586   2.178  1.00  0.00     0.016 A 
ATOM     31  C   UNL     1      -1.826   3.275   1.362  1.00  0.00     0.010 A 
ATOM     32  C   UNL     1      -3.855   3.797   2.588  1.00  0.00     0.010 A 
ATOM     33  C   UNL     1      -2.543   4.131   2.206  1.00  0.00    -0.014 A 
BRANCH  33  34
ATOM     34  C   UNL     1      -1.852   5.303   2.791  1.00  0.00     0.031 A 
ATOM     35  C   UNL     1      -1.337   5.223   4.200  1.00  0.00     0.074 A 
ATOM     36  C   UNL     1      -1.624   6.401   2.049  1.00  0.00     0.049 A 
ATOM     37  N   UNL     1      -0.719   6.133   4.909  1.00  0.00    -0.248 NA
ATOM     38  C   UNL     1      -1.542   3.946   4.903  1.00  0.00     0.031 C 
ATOM     39  C   UNL     1      -2.011   6.573   0.649  1.00  0.00     0.029 A 
ATOM     40  N   UNL     1      -0.992   7.574   2.372  1.00  0.00    -0.354 N 
ATOM     41  C   UNL     1      -0.486   5.550   6.148  1.00  0.00     0.074 A 
ATOM     42  C   UNL     1      -1.034   4.212   6.098  1.00  0.00     0.031 C 
ATOM     43  C   UNL     1      -1.593   7.779   0.228  1.00  0.00     0.029 A 
ATOM     44  C   UNL     1      -0.943   8.473   1.337  1.00  0.00     0.049 A 
ATOM     45  H   UNL     1      -0.610   7.753   3.261  1.00  0.00     0.167 HD
ATOM     46  C   UNL     1       0.126   6.081   7.232  1.00  0.00     0.031 A 
ATOM     47  C   UNL     1      -0.439   9.720   1.293  1.00  0.00     0.031 A 
ATOM     48  C   UNL     1       0.683   7.405   7.283  1.00  0.00     0.049 A 
ATOM     49  C   UNL     1       0.197  10.304   2.523  1.00  0.00     0.074 A 
ATOM     50  C   UNL     1       1.320   8.036   8.337  1.00  0.00     0.029 A 
ATOM     51  N   UNL     1       0.673   8.301   6.226  1.00  0.00    -0.354 N 
ATOM     52  N   UNL     1       0.389   9.751   3.696  1.00  0.00    -0.248 NA
ATOM     53  C   UNL     1       0.687  11.686   2.419  1.00  0.00     0.031 C 
ATOM     54  C   UNL     1       1.669   9.328   7.927  1.00  0.00     0.029 A 
ATOM     55  C   UNL     1       1.283   9.485   6.605  1.00  0.00     0.049 A 
ATOM     56  H   UNL     1       0.290   8.123   5.337  1.00  0.00     0.167 HD
ATOM     57  C   UNL     1       1.040  10.708   4.463  1.00  0.00     0.074 A 
ATOM     58  C   UNL     1       1.220  11.872   3.619  1.00  0.00     0.031 C 
ATOM     59  C   UNL     1       1.456  10.629   5.750  1.00  0.00     0.031 A 
BRANCH  46  60
ATOM     60  C   UNL     1       0.179   5.232   8.469  1.00  0.00    -0.014 A 
ATOM     61  C   UNL     1       1.071   4.154   8.578  1.00  0.00     0.009 A 
ATOM     62  C   UNL     1      -0.678   5.521   9.541  1.00  0.00     0.009 A 
ATOM     63  C   UNL     1       1.078   3.360   9.727  1.00  0.00     0.001 A 
ATOM     64  C   UNL     1      -0.654   4.738  10.697  1.00  0.00     0.001 A 
ATOM     65  C   UNL     1       0.217   3.654  10.785  1.00  0.00     0.000 A 
ENDBRANCH  46  60
BRANCH  47  66
ATOM     66  C   UNL     1      -0.522  10.509   0.038  1.00  0.00    -0.014 A 
ATOM     67  C   UNL     1       0.626  10.746  -0.731  1.00  0.00     0.009 A 
ATOM     68  C   UNL     1      -1.751  11.032  -0.392  1.00  0.00     0.009 A 
ATOM     69  C   UNL     1       0.548  11.507  -1.899  1.00  0.00     0.001 A 
ATOM     70  C   UNL     1      -1.830  11.773  -1.573  1.00  0.00     0.001 A 
ATOM     71  C   UNL     1      -0.679  12.016  -2.321  1.00  0.00     0.000 A 
ENDBRANCH  47  66
BRANCH  59  72
ATOM     72  C   UNL     1       2.177  11.820   6.308  1.00  0.00    -0.014 A 
ATOM     73  C   UNL     1       1.482  12.978   6.688  1.00  0.00     0.009 A 
ATOM     74  C   UNL     1       3.569  11.769   6.483  1.00  0.00     0.009 A 
ATOM     75  C   UNL     1       2.173  14.076   7.205  1.00  0.00     0.001 A 
ATOM     76  C   UNL     1       4.254  12.860   7.019  1.00  0.00     0.001 A 
ATOM     77  C   UNL     1       3.557  14.015   7.372  1.00  0.00     0.000 A 
ENDBRANCH  59  72
ENDBRANCH  33  34
ENDBRANCH  26  28
ENDBRANCH  25  26
ENDBRANCH  24  25
ENDBRANCH   1  24
TORSDOF 17
