REMARK SMILES CCCCCCNC(=O)Nc1cccc(-c2ccc([C@@H](C)C(=O)OCCOC(=O)c3ccc(-c4c5nc(c(-c6ccccc6)c6ccc([nH]6)c(-c6ccccc6)c6nc(c(-c7ccccc7)c7ccc4[nH]7)C=C6)C=C5)cc3)cc2F)c1
REMARK SMILES IDX 20 1 21 2 19 3 16 4 17 5 79 6 18 7 78 8 80 9 15 10 11 11
REMARK SMILES IDX 12 12 81 13 13 14 14 15 10 16 7 17 8 18 9 20 6 22 5 23 4 24
REMARK SMILES IDX 3 25 2 26 1 27 22 28 23 29 24 30 25 31 26 32 27 33 28 34
REMARK SMILES IDX 29 35 30 36 31 37 77 38 32 39 76 40 33 41 34 42 35 43 70 44
REMARK SMILES IDX 36 45 75 46 69 47 71 48 37 49 74 50 68 51 67 52 38 54 60 55
REMARK SMILES IDX 45 56 59 57 46 58 49 59 58 60 72 61 47 62 48 63 57 65 73 66
REMARK SMILES IDX 50 67 39 68 40 69 44 70 41 71 43 72 42 73 61 74 62 75 66 76
REMARK SMILES IDX 63 77 65 78 64 79 51 80 52 81 56 82 53 83 55 84 54 85
REMARK H PARENT 7 19 10 21 71 53 49 64
REMARK Flexibility Score: inf
ROOT
ATOM      1  C   UNL     1      -2.225   3.131  -5.470  1.00  0.00     0.126 C 
ATOM      2  C   UNL     1      -3.038   4.373  -5.111  1.00  0.00     0.025 C 
ENDROOT
BRANCH   1   3
ATOM      3  C   UNL     1      -2.750   1.877  -4.788  1.00  0.00    -0.031 A 
ATOM      4  C   UNL     1      -3.871  -0.448  -3.581  1.00  0.00     0.018 A 
ATOM      5  C   UNL     1      -3.443   0.642  -2.804  1.00  0.00     0.012 A 
ATOM      6  C   UNL     1      -3.702  -0.356  -4.966  1.00  0.00     0.131 A 
ATOM      7  C   UNL     1      -2.891   1.786  -3.397  1.00  0.00     0.005 A 
ATOM      8  C   UNL     1      -3.159   0.782  -5.564  1.00  0.00     0.044 A 
ATOM      9  F   UNL     1      -4.086  -1.365  -5.763  1.00  0.00    -0.206 F 
BRANCH   4  10
ATOM     10  C   UNL     1      -4.450  -1.640  -2.946  1.00  0.00    -0.013 A 
ATOM     11  C   UNL     1      -4.298  -4.011  -2.392  1.00  0.00     0.043 A 
ATOM     12  C   UNL     1      -5.465  -3.920  -1.633  1.00  0.00     0.026 A 
ATOM     13  C   UNL     1      -3.845  -2.896  -3.104  1.00  0.00     0.035 A 
ATOM     14  C   UNL     1      -6.095  -2.685  -1.483  1.00  0.00     0.003 A 
ATOM     15  C   UNL     1      -5.578  -1.551  -2.115  1.00  0.00     0.009 A 
BRANCH  11  16
ATOM     16  N   UNL     1      -3.586  -5.220  -2.371  1.00  0.00    -0.308 N 
ATOM     17  N   UNL     1      -1.331  -4.550  -2.097  1.00  0.00    -0.338 N 
ATOM     18  C   UNL     1      -2.256  -5.457  -2.499  1.00  0.00     0.319 C 
ATOM     19  H   UNL     1      -0.410  -4.736  -2.392  1.00  0.00     0.165 HD
ATOM     20  O   UNL     1      -1.869  -6.560  -2.889  1.00  0.00    -0.249 OA
ATOM     21  H   UNL     1      -4.140  -6.024  -2.242  1.00  0.00     0.171 HD
BRANCH  17  22
ATOM     22  C   UNL     1      -1.489  -3.345  -1.300  1.00  0.00     0.117 C 
BRANCH  22  23
ATOM     23  C   UNL     1      -0.475  -3.209  -0.169  1.00  0.00     0.021 C 
BRANCH  23  24
ATOM     24  C   UNL     1       0.962  -2.912  -0.598  1.00  0.00     0.002 C 
BRANCH  24  25
ATOM     25  C   UNL     1       1.156  -1.716  -1.536  1.00  0.00    -0.000 C 
BRANCH  25  26
ATOM     26  C   UNL     1       0.494  -0.404  -1.105  1.00  0.00    -0.003 C 
ATOM     27  C   UNL     1       0.998   0.131   0.225  1.00  0.00     0.004 C 
ENDBRANCH  25  26
ENDBRANCH  24  25
ENDBRANCH  23  24
ENDBRANCH  22  23
ENDBRANCH  17  22
ENDBRANCH  11  16
ENDBRANCH   4  10
ENDBRANCH   1   3
BRANCH   1  28
ATOM     28  C   UNL     1      -0.740   3.427  -5.314  1.00  0.00     0.313 C 
ATOM     29  O   UNL     1      -0.105   4.011  -6.189  1.00  0.00    -0.252 OA
BRANCH  28  30
ATOM     30  O   UNL     1      -0.216   3.042  -4.121  1.00  0.00    -0.462 OA
BRANCH  30  31
ATOM     31  C   UNL     1       1.184   3.324  -3.923  1.00  0.00     0.274 C 
BRANCH  31  32
ATOM     32  C   UNL     1       2.067   2.105  -4.200  1.00  0.00     0.275 C 
BRANCH  32  33
ATOM     33  O   UNL     1       1.985   1.681  -5.570  1.00  0.00    -0.458 OA
BRANCH  33  34
ATOM     34  C   UNL     1       1.089   0.696  -5.811  1.00  0.00     0.338 C 
ATOM     35  O   UNL     1       0.372   0.124  -5.010  1.00  0.00    -0.246 OA
BRANCH  34  36
ATOM     36  C   UNL     1       1.033   0.454  -7.257  1.00  0.00     0.060 A 
ATOM     37  C   UNL     1      -0.074   0.919  -7.969  1.00  0.00     0.016 A 
ATOM     38  C   UNL     1       2.033  -0.283  -7.890  1.00  0.00     0.016 A 
ATOM     39  C   UNL     1      -0.197   0.636  -9.325  1.00  0.00     0.010 A 
ATOM     40  C   UNL     1       1.918  -0.552  -9.256  1.00  0.00     0.010 A 
ATOM     41  C   UNL     1       0.797  -0.104  -9.978  1.00  0.00    -0.014 A 
BRANCH  41  42
ATOM     42  C   UNL     1       0.653  -0.432 -11.414  1.00  0.00     0.031 A 
ATOM     43  C   UNL     1       0.330  -1.836 -11.834  1.00  0.00     0.074 A 
ATOM     44  C   UNL     1       0.821   0.531 -12.338  1.00  0.00     0.049 A 
ATOM     45  N   UNL     1       0.254  -2.340 -13.039  1.00  0.00    -0.248 NA
ATOM     46  C   UNL     1       0.065  -2.800 -10.755  1.00  0.00     0.031 C 
ATOM     47  C   UNL     1       1.107   1.938 -12.051  1.00  0.00     0.029 A 
ATOM     48  N   UNL     1       0.784   0.467 -13.707  1.00  0.00    -0.354 N 
ATOM     49  C   UNL     1      -0.042  -3.686 -12.864  1.00  0.00     0.074 A 
ATOM     50  C   UNL     1      -0.118  -3.921 -11.438  1.00  0.00     0.031 C 
ATOM     51  C   UNL     1       1.224   2.604 -13.211  1.00  0.00     0.029 A 
ATOM     52  C   UNL     1       1.065   1.665 -14.317  1.00  0.00     0.049 A 
ATOM     53  H   UNL     1       0.576  -0.357 -14.204  1.00  0.00     0.167 HD
ATOM     54  C   UNL     1      -0.232  -4.637 -13.809  1.00  0.00     0.031 A 
ATOM     55  C   UNL     1       1.208   1.965 -15.621  1.00  0.00     0.031 A 
ATOM     56  C   UNL     1      -0.157  -4.400 -15.226  1.00  0.00     0.049 A 
ATOM     57  C   UNL     1       1.036   0.883 -16.649  1.00  0.00     0.074 A 
ATOM     58  C   UNL     1      -0.356  -5.295 -16.263  1.00  0.00     0.029 A 
ATOM     59  N   UNL     1       0.143  -3.176 -15.804  1.00  0.00    -0.354 N 
ATOM     60  N   UNL     1       0.746  -0.383 -16.472  1.00  0.00    -0.248 NA
ATOM     61  C   UNL     1       1.211   1.272 -18.055  1.00  0.00     0.031 C 
ATOM     62  C   UNL     1      -0.132  -4.621 -17.469  1.00  0.00     0.029 A 
ATOM     63  C   UNL     1       0.158  -3.297 -17.183  1.00  0.00     0.049 A 
ATOM     64  H   UNL     1       0.319  -2.344 -15.307  1.00  0.00     0.167 HD
ATOM     65  C   UNL     1       0.688  -0.939 -17.743  1.00  0.00     0.074 A 
ATOM     66  C   UNL     1       0.957   0.132 -18.681  1.00  0.00     0.031 C 
ATOM     67  C   UNL     1       0.435  -2.221 -18.100  1.00  0.00     0.031 A 
BRANCH  54  68
ATOM     68  C   UNL     1      -0.498  -6.036 -13.329  1.00  0.00    -0.014 A 
ATOM     69  C   UNL     1      -1.730  -6.392 -12.760  1.00  0.00     0.009 A 
ATOM     70  C   UNL     1       0.498  -7.016 -13.464  1.00  0.00     0.009 A 
ATOM     71  C   UNL     1      -1.946  -7.694 -12.301  1.00  0.00     0.001 A 
ATOM     72  C   UNL     1       0.271  -8.322 -13.027  1.00  0.00     0.001 A 
ATOM     73  C   UNL     1      -0.946  -8.658 -12.437  1.00  0.00     0.000 A 
ENDBRANCH  54  68
BRANCH  55  74
ATOM     74  C   UNL     1       1.564   3.349 -16.022  1.00  0.00    -0.014 A 
ATOM     75  C   UNL     1       0.620   4.181 -16.641  1.00  0.00     0.009 A 
ATOM     76  C   UNL     1       2.852   3.850 -15.772  1.00  0.00     0.009 A 
ATOM     77  C   UNL     1       0.964   5.482 -17.016  1.00  0.00     0.001 A 
ATOM     78  C   UNL     1       3.185   5.159 -16.125  1.00  0.00     0.001 A 
ATOM     79  C   UNL     1       2.243   5.971 -16.752  1.00  0.00     0.000 A 
ENDBRANCH  55  74
BRANCH  67  80
ATOM     80  C   UNL     1       0.414  -2.528 -19.570  1.00  0.00    -0.014 A 
ATOM     81  C   UNL     1       1.603  -2.615 -20.309  1.00  0.00     0.009 A 
ATOM     82  C   UNL     1      -0.810  -2.769 -20.213  1.00  0.00     0.009 A 
ATOM     83  C   UNL     1       1.564  -2.909 -21.674  1.00  0.00     0.001 A 
ATOM     84  C   UNL     1      -0.844  -3.087 -21.571  1.00  0.00     0.001 A 
ATOM     85  C   UNL     1       0.342  -3.148 -22.302  1.00  0.00     0.000 A 
ENDBRANCH  67  80
ENDBRANCH  41  42
ENDBRANCH  34  36
ENDBRANCH  33  34
ENDBRANCH  32  33
ENDBRANCH  31  32
ENDBRANCH  30  31
ENDBRANCH  28  30
ENDBRANCH   1  28
TORSDOF 19
