REMARK SMILES O=C(OCCOC(=O)c1[nH]ncc1C[N@H+]1CCC[C@@H](c2nc3ccccc3o2)C1)c1ccc(-c2c3nc(c(-c4ccccc4)c4ccc([nH]4)c(-c4ccccc4)c4nc(c(-c5ccccc5)c5ccc2[nH]5)C=C4)C=C3)cc1
REMARK SMILES IDX 5 1 4 2 3 3 2 4 1 5 30 6 31 7 77 8 32 9 76 10 33 11 34 12
REMARK SMILES IDX 35 13 70 14 36 15 75 16 69 17 71 18 37 19 74 20 68 21 67 22
REMARK SMILES IDX 38 24 60 25 45 26 59 27 46 28 49 29 58 30 72 31 47 32 48 33
REMARK SMILES IDX 57 35 73 36 50 37 39 38 40 39 44 40 41 41 43 42 42 43 61 44
REMARK SMILES IDX 62 45 66 46 63 47 65 48 64 49 51 50 52 51 56 52 53 53 55 54
REMARK SMILES IDX 54 55 6 56 7 57 8 58 9 59 10 60 13 61 11 62 12 64 14 65
REMARK SMILES IDX 15 66 16 67 29 68 17 70 19 71 18 72 20 73 21 74 28 75 22 76
REMARK SMILES IDX 27 77 23 78 26 79 24 80 25 81
REMARK H PARENT 71 23 49 34 10 63 15 69
REMARK Flexibility Score: inf
ROOT
ATOM      1  C   UNL     1       4.020  -0.383   2.100  1.00  0.00     0.275 C 
ENDROOT
BRANCH   1   2
ATOM      2  C   UNL     1       4.402   0.708   1.093  1.00  0.00     0.275 C 
BRANCH   2   3
ATOM      3  O   UNL     1       3.339   1.016   0.172  1.00  0.00    -0.458 OA
BRANCH   3   4
ATOM      4  C   UNL     1       3.007   0.528  -1.045  1.00  0.00     0.338 C 
ATOM      5  O   UNL     1       2.019   1.022  -1.590  1.00  0.00    -0.246 OA
BRANCH   4   6
ATOM      6  C   UNL     1       3.695  -0.602  -1.769  1.00  0.00     0.060 A 
ATOM      7  C   UNL     1       4.866  -1.260  -1.391  1.00  0.00     0.016 A 
ATOM      8  C   UNL     1       3.065  -1.051  -2.951  1.00  0.00     0.016 A 
ATOM      9  C   UNL     1       5.400  -2.303  -2.167  1.00  0.00     0.010 A 
ATOM     10  C   UNL     1       3.576  -2.110  -3.715  1.00  0.00     0.010 A 
ATOM     11  C   UNL     1       4.762  -2.738  -3.334  1.00  0.00    -0.014 A 
BRANCH  11  12
ATOM     12  C   UNL     1       5.361  -3.816  -4.161  1.00  0.00     0.031 A 
ATOM     13  C   UNL     1       6.115  -3.461  -5.404  1.00  0.00     0.074 A 
ATOM     14  C   UNL     1       5.301  -5.100  -3.763  1.00  0.00     0.049 A 
ATOM     15  N   UNL     1       6.731  -4.255  -6.240  1.00  0.00    -0.248 NA
ATOM     16  C   UNL     1       6.202  -2.032  -5.743  1.00  0.00     0.031 C 
ATOM     17  C   UNL     1       4.657  -5.546  -2.539  1.00  0.00     0.029 A 
ATOM     18  N   UNL     1       5.807  -6.256  -4.297  1.00  0.00    -0.354 N 
ATOM     19  C   UNL     1       7.284  -3.425  -7.202  1.00  0.00     0.074 A 
ATOM     20  C   UNL     1       6.913  -2.068  -6.861  1.00  0.00     0.031 C 
ATOM     21  C   UNL     1       4.883  -6.855  -2.350  1.00  0.00     0.029 A 
ATOM     22  C   UNL     1       5.598  -7.367  -3.508  1.00  0.00     0.049 A 
ATOM     23  H   UNL     1       6.275  -6.290  -5.162  1.00  0.00     0.167 HD
ATOM     24  C   UNL     1       8.039  -3.769  -8.271  1.00  0.00     0.031 A 
ATOM     25  C   UNL     1       5.917  -8.657  -3.719  1.00  0.00     0.031 A 
ATOM     26  C   UNL     1       8.382  -5.122  -8.616  1.00  0.00     0.049 A 
ATOM     27  C   UNL     1       6.513  -9.012  -5.047  1.00  0.00     0.074 A 
ATOM     28  C   UNL     1       9.168  -5.579  -9.658  1.00  0.00     0.029 A 
ATOM     29  N   UNL     1       7.934  -6.240  -7.930  1.00  0.00    -0.354 N 
ATOM     30  N   UNL     1       7.020  -8.222  -5.959  1.00  0.00    -0.248 NA
ATOM     31  C   UNL     1       6.521 -10.438  -5.399  1.00  0.00     0.031 C 
ATOM     32  C   UNL     1       9.152  -6.980  -9.633  1.00  0.00     0.029 A 
ATOM     33  C   UNL     1       8.385  -7.390  -8.555  1.00  0.00     0.049 A 
ATOM     34  H   UNL     1       7.377  -6.220  -7.119  1.00  0.00     0.167 HD
ATOM     35  C   UNL     1       7.441  -9.056  -6.982  1.00  0.00     0.074 A 
ATOM     36  C   UNL     1       7.120 -10.412  -6.582  1.00  0.00     0.031 C 
ATOM     37  C   UNL     1       8.054  -8.726  -8.143  1.00  0.00     0.031 A 
BRANCH  24  38
ATOM     38  C   UNL     1       8.502  -2.654  -9.157  1.00  0.00    -0.014 A 
ATOM     39  C   UNL     1       9.565  -1.821  -8.776  1.00  0.00     0.009 A 
ATOM     40  C   UNL     1       7.859  -2.428 -10.383  1.00  0.00     0.009 A 
ATOM     41  C   UNL     1       9.957  -0.762  -9.596  1.00  0.00     0.001 A 
ATOM     42  C   UNL     1       8.265  -1.378 -11.208  1.00  0.00     0.001 A 
ATOM     43  C   UNL     1       9.308  -0.542 -10.811  1.00  0.00     0.000 A 
ENDBRANCH  24  38
BRANCH  25  44
ATOM     44  C   UNL     1       5.628  -9.727  -2.728  1.00  0.00    -0.014 A 
ATOM     45  C   UNL     1       6.682 -10.451  -2.147  1.00  0.00     0.009 A 
ATOM     46  C   UNL     1       4.311 -10.103  -2.427  1.00  0.00     0.009 A 
ATOM     47  C   UNL     1       6.424 -11.536  -1.304  1.00  0.00     0.001 A 
ATOM     48  C   UNL     1       4.058 -11.175  -1.566  1.00  0.00     0.001 A 
ATOM     49  C   UNL     1       5.112 -11.896  -1.012  1.00  0.00     0.000 A 
ENDBRANCH  25  44
BRANCH  37  50
ATOM     50  C   UNL     1       8.470  -9.869  -9.015  1.00  0.00    -0.014 A 
ATOM     51  C   UNL     1       7.543 -10.536  -9.829  1.00  0.00     0.009 A 
ATOM     52  C   UNL     1       9.806 -10.295  -8.998  1.00  0.00     0.009 A 
ATOM     53  C   UNL     1       7.946 -11.632 -10.592  1.00  0.00     0.001 A 
ATOM     54  C   UNL     1      10.209 -11.377  -9.777  1.00  0.00     0.001 A 
ATOM     55  C   UNL     1       9.277 -12.050 -10.567  1.00  0.00     0.000 A 
ENDBRANCH  37  50
ENDBRANCH  11  12
ENDBRANCH   4   6
ENDBRANCH   3   4
ENDBRANCH   2   3
ENDBRANCH   1   2
BRANCH   1  56
ATOM     56  O   UNL     1       3.365  -1.488   1.465  1.00  0.00    -0.457 OA
BRANCH  56  57
ATOM     57  C   UNL     1       1.998  -1.420   1.454  1.00  0.00     0.356 C 
ATOM     58  O   UNL     1       1.323  -0.623   2.081  1.00  0.00    -0.244 OA
BRANCH  57  59
ATOM     59  C   UNL     1       1.498  -2.287   0.430  1.00  0.00     0.152 A 
ATOM     60  N   UNL     1       0.490  -1.877  -0.401  1.00  0.00    -0.271 N 
ATOM     61  C   UNL     1       1.888  -3.541  -0.023  1.00  0.00     0.059 A 
ATOM     62  N   UNL     1       0.321  -2.671  -1.466  1.00  0.00    -0.183 NA
ATOM     63  H   UNL     1      -0.057  -1.075  -0.232  1.00  0.00     0.190 HD
ATOM     64  C   UNL     1       1.188  -3.660  -1.254  1.00  0.00     0.145 A 
BRANCH  61  65
ATOM     65  C   UNL     1       2.918  -4.451   0.571  1.00  0.00     0.303 C 
BRANCH  65  66
ATOM     66  N   UNL     1       2.508  -5.845   0.814  1.00  0.00    -0.330 N 
ATOM     67  C   UNL     1       1.892  -6.027   2.130  1.00  0.00     0.262 C 
ATOM     68  C   UNL     1       1.721  -6.499  -0.244  1.00  0.00     0.275 C 
ATOM     69  H   UNL     1       3.399  -6.342   0.795  1.00  0.00     0.348 HD
ATOM     70  C   UNL     1       1.722  -7.516   2.447  1.00  0.00     0.062 C 
ATOM     71  C   UNL     1       1.542  -8.007  -0.003  1.00  0.00     0.131 C 
ATOM     72  C   UNL     1       0.915  -8.240   1.372  1.00  0.00     0.025 C 
BRANCH  71  73
ATOM     73  C   UNL     1       0.717  -8.623  -1.088  1.00  0.00     0.204 A 
ATOM     74  N   UNL     1      -0.326  -8.133  -1.732  1.00  0.00    -0.213 NA
ATOM     75  O   UNL     1       1.113  -9.865  -1.508  1.00  0.00    -0.440 OA
ATOM     76  C   UNL     1      -0.621  -9.101  -2.663  1.00  0.00     0.109 A 
ATOM     77  C   UNL     1       0.264 -10.158  -2.533  1.00  0.00     0.154 A 
ATOM     78  C   UNL     1      -1.605  -9.167  -3.657  1.00  0.00     0.032 A 
ATOM     79  C   UNL     1       0.269 -11.297  -3.329  1.00  0.00     0.049 A 
ATOM     80  C   UNL     1      -1.637 -10.302  -4.485  1.00  0.00     0.003 A 
ATOM     81  C   UNL     1      -0.714 -11.344  -4.324  1.00  0.00     0.004 A 
ENDBRANCH  71  73
ENDBRANCH  65  66
ENDBRANCH  61  65
ENDBRANCH  57  59
ENDBRANCH  56  57
ENDBRANCH   1  56
TORSDOF 14
