REMARK SMILES CC(C)C[C@H](NC(=O)CNC(=O)[C@@H](NC(=O)OCc1ccccc1)C(C)C)C(=O)N[C@@H](C)C(=O)OCCOC(=O)c1ccc(-c2c3nc(c(-c4ccccc4)c4ccc([nH]4)c(-c4ccccc4)c4nc(c(-c5ccccc5)c5ccc2[nH]5)C=C4)C=C3)cc1
REMARK SMILES IDX 31 1 32 2 30 3 28 4 29 5 5 7 4 8 2 9 1 10 3 11 6 12 7 13
REMARK SMILES IDX 8 15 9 16 10 17 11 18 12 20 13 21 14 22 15 23 16 25 17 26
REMARK SMILES IDX 18 27 19 28 20 29 24 30 21 31 23 32 22 33 25 34 26 35 27 36
REMARK SMILES IDX 33 37 34 38 35 39 36 40 37 41 38 42 39 43 40 44 41 45 42 46
REMARK SMILES IDX 88 47 43 48 87 49 44 50 45 51 46 52 81 53 47 54 86 55 80 56
REMARK SMILES IDX 82 57 48 58 85 59 79 60 78 61 49 63 71 64 56 65 70 66 57 67
REMARK SMILES IDX 60 68 69 69 83 70 58 71 59 72 68 74 84 75 61 76 50 77 51 78
REMARK SMILES IDX 55 79 52 80 54 81 53 82 72 83 73 84 77 85 74 86 76 87 75 88
REMARK SMILES IDX 62 89 63 90 67 91 64 92 66 93 65 94
REMARK H PARENT 30 6 6 14 10 19 14 24 82 62 60 73
REMARK Flexibility Score: inf
ROOT
ATOM      1  C   UNL     1      -3.634  -0.507   3.796  1.00  0.00     0.189 C 
ATOM      2  C   UNL     1      -3.634   0.952   4.250  1.00  0.00     0.043 C 
ENDROOT
BRANCH   1   3
ATOM      3  N   UNL     1      -4.483  -0.630   2.601  1.00  0.00    -0.341 N 
ATOM      4  C   UNL     1      -4.158  -0.689   1.275  1.00  0.00     0.243 C 
ATOM      5  O   UNL     1      -5.082  -0.709   0.458  1.00  0.00    -0.273 OA
ATOM      6  H   UNL     1      -5.448  -0.678   2.788  1.00  0.00     0.164 HD
BRANCH   4   7
ATOM      7  C   UNL     1      -2.704  -0.911   0.811  1.00  0.00     0.171 C 
BRANCH   7   8
ATOM      8  C   UNL     1      -2.362  -2.385   1.030  1.00  0.00     0.038 C 
BRANCH   8   9
ATOM      9  C   UNL     1      -3.340  -3.510   0.629  1.00  0.00    -0.015 C 
ATOM     10  C   UNL     1      -3.522  -3.570  -0.889  1.00  0.00     0.007 C 
ATOM     11  C   UNL     1      -2.801  -4.884   1.065  1.00  0.00     0.007 C 
ENDBRANCH   8   9
ENDBRANCH   7   8
BRANCH   7  12
ATOM     12  N   UNL     1      -1.833   0.120   1.444  1.00  0.00    -0.343 N 
ATOM     13  C   UNL     1      -0.528   0.433   1.610  1.00  0.00     0.240 C 
ATOM     14  H   UNL     1      -2.394   0.797   1.887  1.00  0.00     0.164 HD
ATOM     15  O   UNL     1      -0.314   1.603   1.962  1.00  0.00    -0.273 OA
BRANCH  13  16
ATOM     16  C   UNL     1       0.677  -0.461   1.333  1.00  0.00     0.216 C 
BRANCH  16  17
ATOM     17  N   UNL     1       0.486  -1.857   1.596  1.00  0.00    -0.345 N 
ATOM     18  C   UNL     1       0.528  -2.927   0.767  1.00  0.00     0.243 C 
ATOM     19  H   UNL     1       0.293  -2.074   2.537  1.00  0.00     0.164 HD
ATOM     20  O   UNL     1       0.360  -4.054   1.243  1.00  0.00    -0.273 OA
BRANCH  18  21
ATOM     21  C   UNL     1       0.791  -2.790  -0.732  1.00  0.00     0.177 C 
BRANCH  21  22
ATOM     22  N   UNL     1      -0.078  -1.826  -1.429  1.00  0.00    -0.309 N 
ATOM     23  C   UNL     1       0.188  -0.625  -1.996  1.00  0.00     0.408 C 
ATOM     24  H   UNL     1      -1.020  -2.105  -1.495  1.00  0.00     0.167 HD
ATOM     25  O   UNL     1      -0.689   0.060  -2.509  1.00  0.00    -0.225 OA
BRANCH  23  26
ATOM     26  O   UNL     1       1.491  -0.358  -1.990  1.00  0.00    -0.445 OA
BRANCH  26  27
ATOM     27  C   UNL     1       2.151   0.157  -3.148  1.00  0.00     0.270 C 
BRANCH  27  28
ATOM     28  C   UNL     1       1.649  -0.243  -4.517  1.00  0.00    -0.011 A 
ATOM     29  C   UNL     1       1.990   0.590  -5.588  1.00  0.00     0.007 A 
ATOM     30  C   UNL     1       0.893  -1.395  -4.785  1.00  0.00     0.007 A 
ATOM     31  C   UNL     1       1.505   0.337  -6.869  1.00  0.00     0.000 A 
ATOM     32  C   UNL     1       0.384  -1.636  -6.061  1.00  0.00     0.000 A 
ATOM     33  C   UNL     1       0.679  -0.760  -7.099  1.00  0.00     0.000 A 
ENDBRANCH  27  28
ENDBRANCH  26  27
ENDBRANCH  23  26
ENDBRANCH  21  22
BRANCH  21  34
ATOM     34  C   UNL     1       2.295  -2.811  -1.044  1.00  0.00     0.015 C 
ATOM     35  C   UNL     1       3.177  -3.103   0.160  1.00  0.00     0.010 C 
ATOM     36  C   UNL     1       2.529  -3.832  -2.141  1.00  0.00     0.010 C 
ENDBRANCH  21  34
ENDBRANCH  18  21
ENDBRANCH  16  17
ENDBRANCH  13  16
ENDBRANCH   7  12
ENDBRANCH   4   7
ENDBRANCH   1   3
BRANCH   1  37
ATOM     37  C   UNL     1      -4.002  -1.409   4.999  1.00  0.00     0.328 C 
ATOM     38  O   UNL     1      -3.485  -1.283   6.106  1.00  0.00    -0.250 OA
BRANCH  37  39
ATOM     39  O   UNL     1      -4.855  -2.422   4.662  1.00  0.00    -0.461 OA
BRANCH  39  40
ATOM     40  C   UNL     1      -4.973  -3.506   5.618  1.00  0.00     0.274 C 
BRANCH  40  41
ATOM     41  C   UNL     1      -4.464  -4.853   5.045  1.00  0.00     0.275 C 
BRANCH  41  42
ATOM     42  O   UNL     1      -3.057  -5.181   5.249  1.00  0.00    -0.458 OA
BRANCH  42  43
ATOM     43  C   UNL     1      -2.204  -4.375   4.588  1.00  0.00     0.338 C 
ATOM     44  O   UNL     1      -2.537  -3.345   4.022  1.00  0.00    -0.246 OA
BRANCH  43  45
ATOM     45  C   UNL     1      -0.777  -4.763   4.504  1.00  0.00     0.060 A 
ATOM     46  C   UNL     1       0.087  -3.677   4.457  1.00  0.00     0.016 A 
ATOM     47  C   UNL     1      -0.281  -6.030   4.170  1.00  0.00     0.016 A 
ATOM     48  C   UNL     1       1.378  -3.836   3.961  1.00  0.00     0.010 A 
ATOM     49  C   UNL     1       1.083  -6.195   3.776  1.00  0.00     0.010 A 
ATOM     50  C   UNL     1       1.944  -5.094   3.641  1.00  0.00    -0.014 A 
BRANCH  50  51
ATOM     51  C   UNL     1       3.412  -5.103   3.231  1.00  0.00     0.031 A 
ATOM     52  C   UNL     1       3.964  -5.665   1.911  1.00  0.00     0.074 A 
ATOM     53  C   UNL     1       4.242  -4.335   3.982  1.00  0.00     0.049 A 
ATOM     54  N   UNL     1       5.130  -5.417   1.337  1.00  0.00    -0.248 NA
ATOM     55  C   UNL     1       3.094  -6.512   1.075  1.00  0.00     0.031 C 
ATOM     56  C   UNL     1       3.880  -3.699   5.261  1.00  0.00     0.029 A 
ATOM     57  N   UNL     1       5.523  -3.886   3.762  1.00  0.00    -0.354 N 
ATOM     58  C   UNL     1       5.069  -5.940   0.037  1.00  0.00     0.074 A 
ATOM     59  C   UNL     1       3.797  -6.628  -0.053  1.00  0.00     0.031 C 
ATOM     60  C   UNL     1       4.849  -2.862   5.638  1.00  0.00     0.029 A 
ATOM     61  C   UNL     1       5.989  -3.062   4.761  1.00  0.00     0.049 A 
ATOM     62  H   UNL     1       6.053  -4.129   2.970  1.00  0.00     0.167 HD
ATOM     63  C   UNL     1       5.949  -5.780  -0.995  1.00  0.00     0.031 A 
ATOM     64  C   UNL     1       7.223  -2.602   5.038  1.00  0.00     0.031 A 
ATOM     65  C   UNL     1       7.259  -5.194  -0.858  1.00  0.00     0.049 A 
ATOM     66  C   UNL     1       8.324  -2.916   4.083  1.00  0.00     0.074 A 
ATOM     67  C   UNL     1       8.274  -5.131  -1.801  1.00  0.00     0.029 A 
ATOM     68  N   UNL     1       7.764  -4.643   0.305  1.00  0.00    -0.354 N 
ATOM     69  N   UNL     1       8.235  -3.370   2.858  1.00  0.00    -0.248 NA
ATOM     70  C   UNL     1       9.695  -2.694   4.554  1.00  0.00     0.031 C 
ATOM     71  C   UNL     1       9.431  -4.666  -1.168  1.00  0.00     0.029 A 
ATOM     72  C   UNL     1       9.113  -4.366   0.145  1.00  0.00     0.049 A 
ATOM     73  H   UNL     1       7.244  -4.473   1.123  1.00  0.00     0.167 HD
ATOM     74  C   UNL     1       9.539  -3.475   2.405  1.00  0.00     0.074 A 
ATOM     75  C   UNL     1      10.398  -3.016   3.477  1.00  0.00     0.031 C 
ATOM     76  C   UNL     1       9.976  -3.917   1.203  1.00  0.00     0.031 A 
BRANCH  63  77
ATOM     77  C   UNL     1       5.606  -6.267  -2.392  1.00  0.00    -0.014 A 
ATOM     78  C   UNL     1       5.243  -5.355  -3.402  1.00  0.00     0.009 A 
ATOM     79  C   UNL     1       5.857  -7.587  -2.780  1.00  0.00     0.009 A 
ATOM     80  C   UNL     1       4.972  -5.767  -4.710  1.00  0.00     0.001 A 
ATOM     81  C   UNL     1       5.661  -7.990  -4.110  1.00  0.00     0.001 A 
ATOM     82  C   UNL     1       5.182  -7.092  -5.065  1.00  0.00     0.000 A 
ENDBRANCH  63  77
BRANCH  64  83
ATOM     83  C   UNL     1       7.501  -2.022   6.384  1.00  0.00    -0.014 A 
ATOM     84  C   UNL     1       8.062  -0.752   6.560  1.00  0.00     0.009 A 
ATOM     85  C   UNL     1       7.222  -2.798   7.528  1.00  0.00     0.009 A 
ATOM     86  C   UNL     1       8.339  -0.280   7.848  1.00  0.00     0.001 A 
ATOM     87  C   UNL     1       7.448  -2.306   8.810  1.00  0.00     0.001 A 
ATOM     88  C   UNL     1       8.021  -1.050   8.969  1.00  0.00     0.000 A 
ENDBRANCH  64  83
BRANCH  76  89
ATOM     89  C   UNL     1      11.457  -3.898   0.970  1.00  0.00    -0.014 A 
ATOM     90  C   UNL     1      12.307  -4.790   1.641  1.00  0.00     0.009 A 
ATOM     91  C   UNL     1      12.008  -2.977   0.068  1.00  0.00     0.009 A 
ATOM     92  C   UNL     1      13.687  -4.730   1.445  1.00  0.00     0.001 A 
ATOM     93  C   UNL     1      13.385  -2.944  -0.155  1.00  0.00     0.001 A 
ATOM     94  C   UNL     1      14.223  -3.811   0.544  1.00  0.00     0.000 A 
ENDBRANCH  76  89
ENDBRANCH  50  51
ENDBRANCH  43  45
ENDBRANCH  42  43
ENDBRANCH  41  42
ENDBRANCH  40  41
ENDBRANCH  39  40
ENDBRANCH  37  39
ENDBRANCH   1  37
TORSDOF 24
