REMARK SMILES O=C(OCCOC(=O)c1ccc(-c2c3nc(c(-c4ccccc4)c4ccc([nH]4)c(-c4ccccc4)c4nc(c(-c5ccccc5)c5ccc2[nH]5)C=C4)C=C3)cc1)C1=Cc2cc(Cl)cc(-c3ccc(O)cc3)c2O[C@@H]1C(F)(F)F
REMARK SMILES IDX 4 1 3 2 2 3 1 4 57 5 58 6 74 7 59 8 73 9 60 10 72 11 61 12
REMARK SMILES IDX 64 13 62 14 63 15 75 16 76 17 77 18 78 19 65 20 66 21 71 22
REMARK SMILES IDX 67 23 70 24 68 25 69 26 5 28 6 29 7 30 8 31 9 32 10 33 56 34
REMARK SMILES IDX 11 35 55 36 12 37 13 38 14 39 49 40 15 41 54 42 48 43 50 44
REMARK SMILES IDX 16 45 53 46 47 47 46 48 17 50 39 51 24 52 38 53 25 54 28 55
REMARK SMILES IDX 37 56 51 57 26 58 27 59 36 61 52 62 29 63 18 64 19 65 23 66
REMARK SMILES IDX 20 67 22 68 21 69 40 70 41 71 45 72 42 73 44 74 43 75 30 76
REMARK SMILES IDX 31 77 35 78 32 79 34 80 33 81
REMARK H PARENT 69 27 50 49 28 60
REMARK Flexibility Score: inf
ROOT
ATOM      1  C   UNL     1       3.888  -0.473  -1.224  1.00  0.00     0.275 C 
ENDROOT
BRANCH   1   2
ATOM      2  O   UNL     1       3.034  -1.683  -1.692  1.00  0.00    -0.459 OA
BRANCH   2   3
ATOM      3  C   UNL     1       3.237  -2.793  -0.974  1.00  0.00     0.338 C 
ATOM      4  O   UNL     1       2.647  -3.841  -0.978  1.00  0.00    -0.246 OA
BRANCH   3   5
ATOM      5  C   UNL     1       4.071  -2.152   0.014  1.00  0.00     0.087 C 
ATOM      6  C   UNL     1       5.437  -1.942  -0.468  1.00  0.00     0.027 C 
ATOM      7  C   UNL     1       2.813  -0.761   0.467  1.00  0.00     0.316 C 
ATOM      8  C   UNL     1       6.088  -0.318  -0.901  1.00  0.00     0.019 A 
ATOM      9  O   UNL     1       3.471   0.987  -0.040  1.00  0.00    -0.475 OA
ATOM     10  C   UNL     1       7.282  -0.313  -1.571  1.00  0.00     0.032 A 
ATOM     11  C   UNL     1       5.128   1.140  -0.806  1.00  0.00     0.135 A 
ATOM     12  C   UNL     1       7.617   0.907  -2.153  1.00  0.00     0.042 A 
ATOM     13  C   UNL     1       5.534   2.289  -1.444  1.00  0.00     0.026 A 
ATOM     14  Cl  UNL     1       9.075   0.957  -3.090  1.00  0.00    -0.084 Cl
ATOM     15  C   UNL     1       6.808   2.108  -2.092  1.00  0.00     0.033 A 
BRANCH   7  16
ATOM     16  C   UNL     1       2.344  -1.435   1.824  1.00  0.00     0.430 C 
ATOM     17  F   UNL     1       1.090  -1.095   2.148  1.00  0.00    -0.167 F 
ATOM     18  F   UNL     1       2.265  -2.791   1.637  1.00  0.00    -0.167 F 
ATOM     19  F   UNL     1       3.166  -1.347   2.883  1.00  0.00    -0.167 F 
ENDBRANCH   7  16
BRANCH  13  20
ATOM     20  C   UNL     1       4.866   3.565  -1.655  1.00  0.00    -0.014 A 
ATOM     21  C   UNL     1       4.489   3.931  -2.966  1.00  0.00     0.012 A 
ATOM     22  C   UNL     1       4.826   4.545  -0.656  1.00  0.00     0.012 A 
ATOM     23  C   UNL     1       4.105   5.237  -3.271  1.00  0.00     0.047 A 
ATOM     24  C   UNL     1       4.440   5.857  -0.961  1.00  0.00     0.047 A 
ATOM     25  C   UNL     1       4.091   6.191  -2.266  1.00  0.00     0.115 A 
BRANCH  25  26
ATOM     26  O   UNL     1       3.746   7.464  -2.611  1.00  0.00    -0.508 OA
ATOM     27  H   UNL     1       3.514   7.663  -3.497  1.00  0.00     0.293 HD
ENDBRANCH  25  26
ENDBRANCH  13  20
ENDBRANCH   3   5
ENDBRANCH   2   3
ENDBRANCH   1   2
BRANCH   1  28
ATOM     28  C   UNL     1       4.705  -0.175   0.775  1.00  0.00     0.275 C 
BRANCH  28  29
ATOM     29  O   UNL     1       3.892   0.596   2.072  1.00  0.00    -0.458 OA
BRANCH  29  30
ATOM     30  C   UNL     1       3.062   1.636   2.402  1.00  0.00     0.338 C 
ATOM     31  O   UNL     1       2.701   2.590   1.741  1.00  0.00    -0.246 OA
BRANCH  30  32
ATOM     32  C   UNL     1       2.350   1.182   3.640  1.00  0.00     0.060 A 
ATOM     33  C   UNL     1       0.968   0.927   3.573  1.00  0.00     0.016 A 
ATOM     34  C   UNL     1       3.099   0.659   4.697  1.00  0.00     0.016 A 
ATOM     35  C   UNL     1       0.386  -0.012   4.446  1.00  0.00     0.010 A 
ATOM     36  C   UNL     1       2.519  -0.277   5.559  1.00  0.00     0.010 A 
ATOM     37  C   UNL     1       1.173  -0.661   5.410  1.00  0.00    -0.014 A 
BRANCH  37  38
ATOM     38  C   UNL     1       0.539  -1.483   6.475  1.00  0.00     0.031 A 
ATOM     39  C   UNL     1       0.119  -0.713   7.693  1.00  0.00     0.074 A 
ATOM     40  C   UNL     1       0.382  -2.823   6.425  1.00  0.00     0.049 A 
ATOM     41  N   UNL     1      -0.453  -1.123   8.792  1.00  0.00    -0.248 NA
ATOM     42  C   UNL     1       0.418   0.731   7.666  1.00  0.00     0.031 C 
ATOM     43  C   UNL     1       0.759  -3.702   5.318  1.00  0.00     0.029 A 
ATOM     44  N   UNL     1      -0.147  -3.688   7.361  1.00  0.00    -0.354 N 
ATOM     45  C   UNL     1      -0.582   0.015   9.576  1.00  0.00     0.074 A 
ATOM     46  C   UNL     1       0.043   1.107   8.872  1.00  0.00     0.031 C 
ATOM     47  C   UNL     1       0.441  -4.976   5.635  1.00  0.00     0.029 A 
ATOM     48  C   UNL     1      -0.155  -5.010   6.970  1.00  0.00     0.049 A 
ATOM     49  H   UNL     1      -0.489  -3.387   8.233  1.00  0.00     0.167 HD
ATOM     50  C   UNL     1      -1.197   0.159  10.769  1.00  0.00     0.031 A 
ATOM     51  C   UNL     1      -0.607  -6.105   7.620  1.00  0.00     0.031 A 
ATOM     52  C   UNL     1      -1.781  -0.927  11.492  1.00  0.00     0.049 A 
ATOM     53  C   UNL     1      -1.231  -5.936   8.991  1.00  0.00     0.074 A 
ATOM     54  C   UNL     1      -2.433  -0.904  12.709  1.00  0.00     0.029 A 
ATOM     55  N   UNL     1      -1.762  -2.245  11.061  1.00  0.00    -0.354 N 
ATOM     56  N   UNL     1      -1.434  -4.839   9.682  1.00  0.00    -0.248 NA
ATOM     57  C   UNL     1      -1.710  -7.157   9.659  1.00  0.00     0.031 C 
ATOM     58  C   UNL     1      -2.760  -2.222  13.042  1.00  0.00     0.029 A 
ATOM     59  C   UNL     1      -2.374  -3.052  12.000  1.00  0.00     0.049 A 
ATOM     60  H   UNL     1      -1.370  -2.558  10.214  1.00  0.00     0.167 HD
ATOM     61  C   UNL     1      -2.109  -5.231  10.835  1.00  0.00     0.074 A 
ATOM     62  C   UNL     1      -2.286  -6.665  10.747  1.00  0.00     0.031 C 
ATOM     63  C   UNL     1      -2.553  -4.475  11.871  1.00  0.00     0.031 A 
BRANCH  50  64
ATOM     64  C   UNL     1      -1.214   1.547  11.338  1.00  0.00    -0.014 A 
ATOM     65  C   UNL     1      -1.946   2.575  10.714  1.00  0.00     0.009 A 
ATOM     66  C   UNL     1      -0.413   1.855  12.444  1.00  0.00     0.009 A 
ATOM     67  C   UNL     1      -1.820   3.894  11.149  1.00  0.00     0.001 A 
ATOM     68  C   UNL     1      -0.320   3.171  12.900  1.00  0.00     0.001 A 
ATOM     69  C   UNL     1      -1.007   4.191  12.242  1.00  0.00     0.000 A 
ENDBRANCH  50  64
BRANCH  51  70
ATOM     70  C   UNL     1      -0.543  -7.468   7.006  1.00  0.00    -0.014 A 
ATOM     71  C   UNL     1      -1.723  -8.150   6.658  1.00  0.00     0.009 A 
ATOM     72  C   UNL     1       0.681  -8.137   6.849  1.00  0.00     0.009 A 
ATOM     73  C   UNL     1      -1.683  -9.475   6.208  1.00  0.00     0.001 A 
ATOM     74  C   UNL     1       0.721  -9.453   6.370  1.00  0.00     0.001 A 
ATOM     75  C   UNL     1      -0.461 -10.126   6.063  1.00  0.00     0.000 A 
ENDBRANCH  51  70
BRANCH  63  76
ATOM     76  C   UNL     1      -3.331  -5.165  12.957  1.00  0.00    -0.014 A 
ATOM     77  C   UNL     1      -2.716  -6.037  13.868  1.00  0.00     0.009 A 
ATOM     78  C   UNL     1      -4.695  -4.868  13.114  1.00  0.00     0.009 A 
ATOM     79  C   UNL     1      -3.462  -6.624  14.893  1.00  0.00     0.001 A 
ATOM     80  C   UNL     1      -5.428  -5.427  14.160  1.00  0.00     0.001 A 
ATOM     81  C   UNL     1      -4.813  -6.312  15.043  1.00  0.00     0.000 A 
ENDBRANCH  63  76
ENDBRANCH  37  38
ENDBRANCH  30  32
ENDBRANCH  29  30
ENDBRANCH  28  29
ENDBRANCH   1  28
TORSDOF 14
