REMARK SMILES CCc1ccc2[nH]c(C(=O)c3cc(C)ccn3)c(CC(=O)OCCOC(=O)c3ccc(-c4c5nc(c(-c6ccccc6)c6ccc([nH]6)c(-c6ccccc6)c6nc(c(-c7ccccc7)c7ccc4[nH]7)C=C6)C=C5)cc3)c2c1
REMARK SMILES IDX 23 1 22 2 20 3 21 4 19 5 18 6 3 7 4 8 77 9 5 10 76 11 6 12
REMARK SMILES IDX 7 13 8 14 2 16 1 17 9 18 10 19 11 20 12 21 17 22 13 23 16 24
REMARK SMILES IDX 14 25 15 26 24 27 25 28 26 29 27 30 28 31 29 32 75 33 30 34
REMARK SMILES IDX 74 35 31 36 32 37 33 38 68 39 34 40 73 41 67 42 69 43 35 44
REMARK SMILES IDX 72 45 66 46 65 47 36 49 58 50 43 51 57 52 44 53 47 54 56 55
REMARK SMILES IDX 70 56 45 57 46 58 55 60 71 61 48 62 37 63 38 64 42 65 39 66
REMARK SMILES IDX 41 67 40 68 59 69 60 70 64 71 61 72 63 73 62 74 49 75 50 76
REMARK SMILES IDX 54 77 51 78 53 79 52 80
REMARK H PARENT 7 15 69 48 47 59
REMARK Flexibility Score: inf
ROOT
ATOM      1  C   UNL     1       1.416   7.636   4.548  1.00  0.00     0.274 C 
ENDROOT
BRANCH   1   2
ATOM      2  O   UNL     1       1.050   7.041   3.285  1.00  0.00    -0.462 OA
BRANCH   2   3
ATOM      3  C   UNL     1      -0.262   6.709   3.148  1.00  0.00     0.310 C 
ATOM      4  O   UNL     1      -1.098   6.820   4.043  1.00  0.00    -0.252 OA
BRANCH   3   5
ATOM      5  C   UNL     1      -0.656   6.229   1.767  1.00  0.00     0.161 C 
BRANCH   5   6
ATOM      6  C   UNL     1       0.461   5.953   0.807  1.00  0.00     0.000 A 
ATOM      7  C   UNL     1       1.319   2.236   0.455  1.00  0.00    -0.048 A 
ATOM      8  C   UNL     1       2.306   2.425  -0.519  1.00  0.00     0.006 A 
ATOM      9  C   UNL     1       0.713   3.365   1.035  1.00  0.00     0.014 A 
ATOM     10  C   UNL     1       2.673   3.703  -0.960  1.00  0.00     0.027 A 
ATOM     11  C   UNL     1       1.015   4.657   0.561  1.00  0.00     0.004 A 
ATOM     12  C   UNL     1       1.989   4.795  -0.419  1.00  0.00     0.046 A 
ATOM     13  N   UNL     1       2.080   6.136  -0.703  1.00  0.00    -0.352 N 
ATOM     14  C   UNL     1       1.016   6.813  -0.143  1.00  0.00     0.093 A 
ATOM     15  H   UNL     1       2.800   6.553  -1.230  1.00  0.00     0.167 HD
BRANCH   7  16
ATOM     16  C   UNL     1       0.857   0.876   0.928  1.00  0.00     0.032 C 
ATOM     17  C   UNL     1       1.143  -0.295  -0.003  1.00  0.00     0.009 C 
ENDBRANCH   7  16
BRANCH  14  18
ATOM     18  C   UNL     1       0.557   8.123  -0.578  1.00  0.00     0.227 C 
ATOM     19  O   UNL     1      -0.582   8.538  -0.381  1.00  0.00    -0.285 OA
BRANCH  18  20
ATOM     20  C   UNL     1       1.438   8.940  -1.444  1.00  0.00     0.113 A 
ATOM     21  C   UNL     1       1.223   8.944  -2.818  1.00  0.00     0.036 A 
ATOM     22  N   UNL     1       2.415   9.640  -0.824  1.00  0.00    -0.253 NA
ATOM     23  C   UNL     1       2.061   9.729  -3.613  1.00  0.00    -0.047 A 
ATOM     24  C   UNL     1       3.166  10.441  -1.605  1.00  0.00     0.112 A 
ATOM     25  C   UNL     1       1.928   9.745  -5.105  1.00  0.00     0.044 C 
ATOM     26  C   UNL     1       3.034  10.513  -2.985  1.00  0.00     0.023 A 
ENDBRANCH  18  20
ENDBRANCH  14  18
ENDBRANCH   5   6
ENDBRANCH   3   5
ENDBRANCH   2   3
ENDBRANCH   1   2
BRANCH   1  27
ATOM     27  C   UNL     1       1.551   9.149   4.404  1.00  0.00     0.275 C 
BRANCH  27  28
ATOM     28  O   UNL     1       0.364   9.679   3.790  1.00  0.00    -0.458 OA
BRANCH  28  29
ATOM     29  C   UNL     1       0.565  10.398   2.663  1.00  0.00     0.338 C 
ATOM     30  O   UNL     1       1.643  10.749   2.200  1.00  0.00    -0.246 OA
BRANCH  29  31
ATOM     31  C   UNL     1      -0.728  10.782   2.065  1.00  0.00     0.060 A 
ATOM     32  C   UNL     1      -1.800   9.889   2.004  1.00  0.00     0.016 A 
ATOM     33  C   UNL     1      -0.842  12.045   1.483  1.00  0.00     0.016 A 
ATOM     34  C   UNL     1      -2.951  10.229   1.293  1.00  0.00     0.010 A 
ATOM     35  C   UNL     1      -2.036  12.422   0.865  1.00  0.00     0.010 A 
ATOM     36  C   UNL     1      -3.098  11.511   0.746  1.00  0.00    -0.014 A 
BRANCH  36  37
ATOM     37  C   UNL     1      -4.368  11.925   0.090  1.00  0.00     0.031 A 
ATOM     38  C   UNL     1      -4.380  12.405  -1.336  1.00  0.00     0.074 A 
ATOM     39  C   UNL     1      -5.514  11.919   0.799  1.00  0.00     0.049 A 
ATOM     40  N   UNL     1      -5.344  12.996  -1.998  1.00  0.00    -0.248 NA
ATOM     41  C   UNL     1      -3.148  12.209  -2.117  1.00  0.00     0.031 C 
ATOM     42  C   UNL     1      -5.658  11.457   2.182  1.00  0.00     0.029 A 
ATOM     43  N   UNL     1      -6.780  12.324   0.454  1.00  0.00    -0.354 N 
ATOM     44  C   UNL     1      -4.822  13.286  -3.253  1.00  0.00     0.074 A 
ATOM     45  C   UNL     1      -3.455  12.806  -3.261  1.00  0.00     0.031 C 
ATOM     46  C   UNL     1      -6.939  11.577   2.556  1.00  0.00     0.029 A 
ATOM     47  C   UNL     1      -7.689  12.203   1.476  1.00  0.00     0.049 A 
ATOM     48  H   UNL     1      -7.013  12.667  -0.439  1.00  0.00     0.167 HD
ATOM     49  C   UNL     1      -5.426  13.899  -4.299  1.00  0.00     0.031 A 
ATOM     50  C   UNL     1      -8.973  12.595   1.562  1.00  0.00     0.031 A 
ATOM     51  C   UNL     1      -6.796  14.345  -4.304  1.00  0.00     0.049 A 
ATOM     52  C   UNL     1      -9.605  13.308   0.406  1.00  0.00     0.074 A 
ATOM     53  C   UNL     1      -7.502  14.951  -5.331  1.00  0.00     0.029 A 
ATOM     54  N   UNL     1      -7.670  14.225  -3.237  1.00  0.00    -0.354 N 
ATOM     55  N   UNL     1      -9.088  13.608  -0.759  1.00  0.00    -0.248 NA
ATOM     56  C   UNL     1     -10.994  13.753   0.586  1.00  0.00     0.031 C 
ATOM     57  C   UNL     1      -8.793  15.231  -4.871  1.00  0.00     0.029 A 
ATOM     58  C   UNL     1      -8.903  14.762  -3.573  1.00  0.00     0.049 A 
ATOM     59  H   UNL     1      -7.449  13.818  -2.368  1.00  0.00     0.167 HD
ATOM     60  C   UNL     1     -10.088  14.272  -1.455  1.00  0.00     0.074 A 
ATOM     61  C   UNL     1     -11.249  14.312  -0.589  1.00  0.00     0.031 C 
ATOM     62  C   UNL     1     -10.044  14.806  -2.698  1.00  0.00     0.031 A 
BRANCH  49  63
ATOM     63  C   UNL     1      -4.602  14.158  -5.528  1.00  0.00    -0.014 A 
ATOM     64  C   UNL     1      -4.290  13.130  -6.430  1.00  0.00     0.009 A 
ATOM     65  C   UNL     1      -4.192  15.469  -5.821  1.00  0.00     0.009 A 
ATOM     66  C   UNL     1      -3.564  13.408  -7.591  1.00  0.00     0.001 A 
ATOM     67  C   UNL     1      -3.486  15.746  -6.993  1.00  0.00     0.001 A 
ATOM     68  C   UNL     1      -3.168  14.715  -7.874  1.00  0.00     0.000 A 
ENDBRANCH  49  63
BRANCH  50  69
ATOM     69  C   UNL     1      -9.727  12.366   2.820  1.00  0.00    -0.014 A 
ATOM     70  C   UNL     1     -10.734  11.392   2.879  1.00  0.00     0.009 A 
ATOM     71  C   UNL     1      -9.424  13.106   3.974  1.00  0.00     0.009 A 
ATOM     72  C   UNL     1     -11.432  11.173   4.069  1.00  0.00     0.001 A 
ATOM     73  C   UNL     1     -10.104  12.865   5.168  1.00  0.00     0.001 A 
ATOM     74  C   UNL     1     -11.112  11.904   5.213  1.00  0.00     0.000 A 
ENDBRANCH  50  69
BRANCH  62  75
ATOM     75  C   UNL     1     -11.298  15.461  -3.197  1.00  0.00    -0.014 A 
ATOM     76  C   UNL     1     -11.678  16.732  -2.739  1.00  0.00     0.009 A 
ATOM     77  C   UNL     1     -12.100  14.805  -4.143  1.00  0.00     0.009 A 
ATOM     78  C   UNL     1     -12.857  17.321  -3.199  1.00  0.00     0.001 A 
ATOM     79  C   UNL     1     -13.267  15.406  -4.616  1.00  0.00     0.001 A 
ATOM     80  C   UNL     1     -13.649  16.659  -4.138  1.00  0.00     0.000 A 
ENDBRANCH  62  75
ENDBRANCH  36  37
ENDBRANCH  29  31
ENDBRANCH  28  29
ENDBRANCH  27  28
ENDBRANCH   1  27
TORSDOF 15
