REMARK SMILES C[C@@H](C(=O)OCCOC(=O)c1ccc(-c2c3nc(c(-c4ccccc4)c4ccc([nH]4)c(-c4ccccc4)c4nc(c(-c5ccccc5)c5ccc2[nH]5)C=C4)C=C3)cc1)c1ccc(C[SiH](C)C)cc1
REMARK SMILES IDX 6 1 5 2 3 3 4 4 2 5 1 6 59 7 60 8 68 9 61 10 67 11 62 12
REMARK SMILES IDX 63 13 64 14 65 15 66 16 7 18 8 19 9 20 10 21 11 22 12 23
REMARK SMILES IDX 58 24 13 25 57 26 14 27 15 28 16 29 51 30 17 31 56 32 50 33
REMARK SMILES IDX 52 34 18 35 55 36 49 37 48 38 19 40 41 41 26 42 40 43 27 44
REMARK SMILES IDX 30 45 39 46 53 47 28 48 29 49 38 51 54 52 31 53 20 54 21 55
REMARK SMILES IDX 25 56 22 57 24 58 23 59 42 60 43 61 47 62 44 63 46 64 45 65
REMARK SMILES IDX 32 66 33 67 37 68 34 69 36 70 35 71
REMARK H PARENT 64 17 52 39 30 50
REMARK Flexibility Score: inf
ROOT
ATOM      1  C   UNL     1       2.532  -3.416  -1.536  1.00  0.00     0.274 C 
ENDROOT
BRANCH   1   2
ATOM      2  O   UNL     1       1.979  -2.128  -1.193  1.00  0.00    -0.462 OA
BRANCH   2   3
ATOM      3  C   UNL     1       1.313  -1.435  -2.159  1.00  0.00     0.313 C 
ATOM      4  O   UNL     1       1.185  -1.830  -3.312  1.00  0.00    -0.252 OA
BRANCH   3   5
ATOM      5  C   UNL     1       0.784  -0.082  -1.644  1.00  0.00     0.126 C 
ATOM      6  C   UNL     1       1.277   0.175  -0.203  1.00  0.00     0.025 C 
BRANCH   5   7
ATOM      7  C   UNL     1      -0.732   0.132  -1.769  1.00  0.00    -0.034 A 
ATOM      8  C   UNL     1      -1.348   1.195  -1.086  1.00  0.00     0.005 A 
ATOM      9  C   UNL     1      -1.566  -0.656  -2.575  1.00  0.00     0.005 A 
ATOM     10  C   UNL     1      -2.737   1.359  -1.073  1.00  0.00     0.004 A 
ATOM     11  C   UNL     1      -2.962  -0.491  -2.561  1.00  0.00     0.004 A 
ATOM     12  C   UNL     1      -3.572   0.461  -1.736  1.00  0.00    -0.051 A 
BRANCH  12  13
ATOM     13  C   UNL     1      -5.082   0.516  -1.610  1.00  0.00     0.021 C 
BRANCH  13  14
ATOM     14  Si  UNL     1      -5.819   0.550   0.151  1.00  0.00     0.035 Si
ATOM     15  C   UNL     1      -5.577   2.233   0.933  1.00  0.00    -0.013 C 
ATOM     16  C   UNL     1      -7.639   0.151   0.131  1.00  0.00    -0.013 C 
ATOM     17  H   UNL     1      -5.137  -0.436   0.912  1.00  0.00     0.014 H 
ENDBRANCH  13  14
ENDBRANCH  12  13
ENDBRANCH   5   7
ENDBRANCH   3   5
ENDBRANCH   2   3
ENDBRANCH   1   2
BRANCH   1  18
ATOM     18  C   UNL     1       2.165  -4.399  -0.428  1.00  0.00     0.275 C 
BRANCH  18  19
ATOM     19  O   UNL     1       0.734  -4.531  -0.439  1.00  0.00    -0.458 OA
BRANCH  19  20
ATOM     20  C   UNL     1       0.122  -4.588   0.764  1.00  0.00     0.338 C 
ATOM     21  O   UNL     1       0.644  -4.704   1.862  1.00  0.00    -0.246 OA
BRANCH  20  22
ATOM     22  C   UNL     1      -1.332  -4.483   0.541  1.00  0.00     0.060 A 
ATOM     23  C   UNL     1      -1.828  -3.480  -0.291  1.00  0.00     0.016 A 
ATOM     24  C   UNL     1      -2.212  -5.340   1.204  1.00  0.00     0.016 A 
ATOM     25  C   UNL     1      -3.203  -3.323  -0.442  1.00  0.00     0.010 A 
ATOM     26  C   UNL     1      -3.593  -5.213   1.000  1.00  0.00     0.010 A 
ATOM     27  C   UNL     1      -4.106  -4.189   0.185  1.00  0.00    -0.014 A 
BRANCH  27  28
ATOM     28  C   UNL     1      -5.570  -3.943   0.058  1.00  0.00     0.031 A 
ATOM     29  C   UNL     1      -6.372  -3.574   1.276  1.00  0.00     0.074 A 
ATOM     30  C   UNL     1      -6.184  -3.957  -1.143  1.00  0.00     0.049 A 
ATOM     31  N   UNL     1      -7.670  -3.457   1.408  1.00  0.00    -0.248 NA
ATOM     32  C   UNL     1      -5.614  -3.294   2.505  1.00  0.00     0.031 C 
ATOM     33  C   UNL     1      -5.532  -4.187  -2.433  1.00  0.00     0.029 A 
ATOM     34  N   UNL     1      -7.502  -3.742  -1.474  1.00  0.00    -0.354 N 
ATOM     35  C   UNL     1      -7.885  -3.146   2.745  1.00  0.00     0.074 A 
ATOM     36  C   UNL     1      -6.586  -3.084   3.380  1.00  0.00     0.031 C 
ATOM     37  C   UNL     1      -6.439  -4.045  -3.415  1.00  0.00     0.029 A 
ATOM     38  C   UNL     1      -7.752  -3.804  -2.824  1.00  0.00     0.049 A 
ATOM     39  H   UNL     1      -8.202  -3.561  -0.805  1.00  0.00     0.167 HD
ATOM     40  C   UNL     1      -9.056  -2.937   3.390  1.00  0.00     0.031 A 
ATOM     41  C   UNL     1      -8.909  -3.714  -3.509  1.00  0.00     0.031 A 
ATOM     42  C   UNL     1     -10.351  -2.955   2.766  1.00  0.00     0.049 A 
ATOM     43  C   UNL     1     -10.206  -3.566  -2.762  1.00  0.00     0.074 A 
ATOM     44  C   UNL     1     -11.595  -2.801   3.354  1.00  0.00     0.029 A 
ATOM     45  N   UNL     1     -10.566  -3.114   1.408  1.00  0.00    -0.354 N 
ATOM     46  N   UNL     1     -10.405  -3.390  -1.479  1.00  0.00    -0.248 NA
ATOM     47  C   UNL     1     -11.440  -3.639  -3.559  1.00  0.00     0.031 C 
ATOM     48  C   UNL     1     -12.568  -2.901   2.353  1.00  0.00     0.029 A 
ATOM     49  C   UNL     1     -11.924  -3.075   1.139  1.00  0.00     0.049 A 
ATOM     50  H   UNL     1      -9.859  -3.236   0.734  1.00  0.00     0.167 HD
ATOM     51  C   UNL     1     -11.784  -3.336  -1.316  1.00  0.00     0.074 A 
ATOM     52  C   UNL     1     -12.372  -3.463  -2.633  1.00  0.00     0.031 C 
ATOM     53  C   UNL     1     -12.499  -3.207  -0.172  1.00  0.00     0.031 A 
BRANCH  40  54
ATOM     54  C   UNL     1      -8.988  -2.732   4.875  1.00  0.00    -0.014 A 
ATOM     55  C   UNL     1      -8.582  -1.509   5.429  1.00  0.00     0.009 A 
ATOM     56  C   UNL     1      -9.352  -3.784   5.729  1.00  0.00     0.009 A 
ATOM     57  C   UNL     1      -8.515  -1.356   6.816  1.00  0.00     0.001 A 
ATOM     58  C   UNL     1      -9.305  -3.620   7.113  1.00  0.00     0.001 A 
ATOM     59  C   UNL     1      -8.879  -2.409   7.655  1.00  0.00     0.000 A 
ENDBRANCH  40  54
BRANCH  41  60
ATOM     60  C   UNL     1      -8.915  -3.826  -4.992  1.00  0.00    -0.014 A 
ATOM     61  C   UNL     1      -9.253  -2.720  -5.787  1.00  0.00     0.009 A 
ATOM     62  C   UNL     1      -8.616  -5.046  -5.619  1.00  0.00     0.009 A 
ATOM     63  C   UNL     1      -9.305  -2.839  -7.178  1.00  0.00     0.001 A 
ATOM     64  C   UNL     1      -8.640  -5.154  -7.010  1.00  0.00     0.001 A 
ATOM     65  C   UNL     1      -8.993  -4.053  -7.788  1.00  0.00     0.000 A 
ENDBRANCH  41  60
BRANCH  53  66
ATOM     66  C   UNL     1     -13.995  -3.187  -0.295  1.00  0.00    -0.014 A 
ATOM     67  C   UNL     1     -14.714  -4.369  -0.533  1.00  0.00     0.009 A 
ATOM     68  C   UNL     1     -14.695  -1.982  -0.135  1.00  0.00     0.009 A 
ATOM     69  C   UNL     1     -16.107  -4.338  -0.634  1.00  0.00     0.001 A 
ATOM     70  C   UNL     1     -16.089  -1.958  -0.216  1.00  0.00     0.001 A 
ATOM     71  C   UNL     1     -16.793  -3.135  -0.472  1.00  0.00     0.000 A 
ENDBRANCH  53  66
ENDBRANCH  27  28
ENDBRANCH  20  22
ENDBRANCH  19  20
ENDBRANCH  18  19
ENDBRANCH   1  18
TORSDOF 14
