REMARK SMILES O=C(OCCOC(=O)[C@H]1CCCN(C(=O)C2CCN(S(=O)(=O)c3ccccc3)CC2)C1)c1ccc(-c2c3nc(c(-c4ccccc4)c4ccc([nH]4)c(-c4ccccc4)c4nc(c(-c5ccccc5)c5ccc2[nH]5)C=C4)C=C3)cc1
REMARK SMILES IDX 5 1 4 2 3 3 2 4 1 5 32 6 33 7 79 8 34 9 78 10 35 11 36 12
REMARK SMILES IDX 37 13 72 14 38 15 77 16 71 17 73 18 39 19 76 20 70 21 69 22
REMARK SMILES IDX 40 24 62 25 47 26 61 27 48 28 51 29 60 30 74 31 49 32 50 33
REMARK SMILES IDX 59 35 75 36 52 37 41 38 42 39 46 40 43 41 45 42 44 43 63 44
REMARK SMILES IDX 64 45 68 46 65 47 67 48 66 49 53 50 54 51 58 52 55 53 57 54
REMARK SMILES IDX 56 55 6 56 7 57 8 58 9 59 10 60 31 61 11 62 13 63 12 64
REMARK SMILES IDX 14 65 15 66 16 67 17 68 30 69 18 70 29 71 19 72 20 73 21 74
REMARK SMILES IDX 22 75 23 76 24 77 28 78 25 79 27 80 26 81
REMARK H PARENT 73 23 51 34
REMARK Flexibility Score: inf
ROOT
ATOM      1  C   UNL     1       3.560   3.052  -5.652  1.00  0.00     0.274 C 
ENDROOT
BRANCH   1   2
ATOM      2  C   UNL     1       4.984   3.543  -5.396  1.00  0.00     0.275 C 
BRANCH   2   3
ATOM      3  O   UNL     1       5.781   2.638  -4.603  1.00  0.00    -0.458 OA
BRANCH   3   4
ATOM      4  C   UNL     1       5.875   2.483  -3.261  1.00  0.00     0.338 C 
ATOM      5  O   UNL     1       6.617   1.602  -2.825  1.00  0.00    -0.246 OA
BRANCH   4   6
ATOM      6  C   UNL     1       5.080   3.256  -2.255  1.00  0.00     0.060 A 
ATOM      7  C   UNL     1       4.659   4.587  -2.371  1.00  0.00     0.016 A 
ATOM      8  C   UNL     1       4.785   2.583  -1.055  1.00  0.00     0.016 A 
ATOM      9  C   UNL     1       3.881   5.202  -1.368  1.00  0.00     0.010 A 
ATOM     10  C   UNL     1       4.034   3.199  -0.047  1.00  0.00     0.010 A 
ATOM     11  C   UNL     1       3.551   4.511  -0.202  1.00  0.00    -0.014 A 
BRANCH  11  12
ATOM     12  C   UNL     1       2.876   5.161   0.956  1.00  0.00     0.031 A 
ATOM     13  C   UNL     1       3.729   5.453   2.158  1.00  0.00     0.074 A 
ATOM     14  C   UNL     1       1.544   5.379   1.000  1.00  0.00     0.049 A 
ATOM     15  N   UNL     1       3.383   5.824   3.361  1.00  0.00    -0.248 NA
ATOM     16  C   UNL     1       5.182   5.290   1.969  1.00  0.00     0.031 C 
ATOM     17  C   UNL     1       0.602   5.181  -0.102  1.00  0.00     0.029 A 
ATOM     18  N   UNL     1       0.733   5.719   2.063  1.00  0.00    -0.354 N 
ATOM     19  C   UNL     1       4.572   5.946   4.066  1.00  0.00     0.074 A 
ATOM     20  C   UNL     1       5.641   5.540   3.182  1.00  0.00     0.031 C 
ATOM     21  C   UNL     1      -0.657   5.248   0.372  1.00  0.00     0.029 A 
ATOM     22  C   UNL     1      -0.609   5.514   1.806  1.00  0.00     0.049 A 
ATOM     23  H   UNL     1       1.075   6.072   2.916  1.00  0.00     0.167 HD
ATOM     24  C   UNL     1       4.765   6.373   5.335  1.00  0.00     0.031 A 
ATOM     25  C   UNL     1      -1.661   5.462   2.651  1.00  0.00     0.031 A 
ATOM     26  C   UNL     1       3.693   6.702   6.229  1.00  0.00     0.049 A 
ATOM     27  C   UNL     1      -1.421   5.728   4.118  1.00  0.00     0.074 A 
ATOM     28  C   UNL     1       3.752   7.193   7.519  1.00  0.00     0.029 A 
ATOM     29  N   UNL     1       2.352   6.519   5.924  1.00  0.00    -0.354 N 
ATOM     30  N   UNL     1      -0.300   6.019   4.736  1.00  0.00    -0.248 NA
ATOM     31  C   UNL     1      -2.596   5.686   5.002  1.00  0.00     0.031 C 
ATOM     32  C   UNL     1       2.446   7.240   8.020  1.00  0.00     0.029 A 
ATOM     33  C   UNL     1       1.575   6.822   7.025  1.00  0.00     0.049 A 
ATOM     34  H   UNL     1       2.006   6.217   5.053  1.00  0.00     0.167 HD
ATOM     35  C   UNL     1      -0.647   6.276   6.057  1.00  0.00     0.074 A 
ATOM     36  C   UNL     1      -2.077   6.069   6.161  1.00  0.00     0.031 C 
ATOM     37  C   UNL     1       0.143   6.671   7.085  1.00  0.00     0.031 A 
BRANCH  24  38
ATOM     38  C   UNL     1       6.190   6.444   5.803  1.00  0.00    -0.014 A 
ATOM     39  C   UNL     1       7.088   7.370   5.243  1.00  0.00     0.009 A 
ATOM     40  C   UNL     1       6.669   5.516   6.737  1.00  0.00     0.009 A 
ATOM     41  C   UNL     1       8.449   7.310   5.547  1.00  0.00     0.001 A 
ATOM     42  C   UNL     1       8.026   5.478   7.063  1.00  0.00     0.001 A 
ATOM     43  C   UNL     1       8.917   6.359   6.452  1.00  0.00     0.000 A 
ENDBRANCH  24  38
BRANCH  25  44
ATOM     44  C   UNL     1      -3.025   5.066   2.186  1.00  0.00    -0.014 A 
ATOM     45  C   UNL     1      -4.068   5.995   2.085  1.00  0.00     0.009 A 
ATOM     46  C   UNL     1      -3.321   3.715   1.946  1.00  0.00     0.009 A 
ATOM     47  C   UNL     1      -5.375   5.571   1.803  1.00  0.00     0.001 A 
ATOM     48  C   UNL     1      -4.622   3.289   1.667  1.00  0.00     0.001 A 
ATOM     49  C   UNL     1      -5.652   4.218   1.605  1.00  0.00     0.000 A 
ENDBRANCH  25  44
BRANCH  37  50
ATOM     50  C   UNL     1      -0.524   7.025   8.382  1.00  0.00    -0.014 A 
ATOM     51  C   UNL     1      -0.984   6.040   9.266  1.00  0.00     0.009 A 
ATOM     52  C   UNL     1      -0.601   8.376   8.761  1.00  0.00     0.009 A 
ATOM     53  C   UNL     1      -1.518   6.404  10.504  1.00  0.00     0.001 A 
ATOM     54  C   UNL     1      -1.111   8.734  10.009  1.00  0.00     0.001 A 
ATOM     55  C   UNL     1      -1.571   7.747  10.878  1.00  0.00     0.000 A 
ENDBRANCH  37  50
ENDBRANCH  11  12
ENDBRANCH   4   6
ENDBRANCH   3   4
ENDBRANCH   2   3
ENDBRANCH   1   2
BRANCH   1  56
ATOM     56  O   UNL     1       2.990   2.549  -4.441  1.00  0.00    -0.462 OA
BRANCH  56  57
ATOM     57  C   UNL     1       2.119   1.496  -4.523  1.00  0.00     0.310 C 
ATOM     58  O   UNL     1       1.742   0.977  -5.560  1.00  0.00    -0.252 OA
BRANCH  57  59
ATOM     59  C   UNL     1       1.750   1.046  -3.118  1.00  0.00     0.119 C 
ATOM     60  C   UNL     1       1.483   2.283  -2.255  1.00  0.00     0.019 C 
ATOM     61  C   UNL     1       0.527   0.106  -3.049  1.00  0.00     0.134 C 
ATOM     62  C   UNL     1       1.164   1.849  -0.844  1.00  0.00     0.022 C 
ATOM     63  N   UNL     1       0.102  -0.140  -1.637  1.00  0.00    -0.342 N 
ATOM     64  C   UNL     1      -0.125   1.069  -0.879  1.00  0.00     0.119 C 
BRANCH  63  65
ATOM     65  C   UNL     1       0.076  -1.416  -1.110  1.00  0.00     0.225 C 
ATOM     66  O   UNL     1       0.428  -2.371  -1.816  1.00  0.00    -0.275 OA
BRANCH  65  67
ATOM     67  C   UNL     1      -0.324  -1.735   0.366  1.00  0.00     0.081 C 
ATOM     68  C   UNL     1      -1.635  -1.220   0.947  1.00  0.00     0.030 C 
ATOM     69  C   UNL     1       0.810  -1.678   1.379  1.00  0.00     0.030 C 
ATOM     70  C   UNL     1      -1.588  -0.114   2.001  1.00  0.00     0.103 C 
ATOM     71  C   UNL     1       0.934  -0.365   2.123  1.00  0.00     0.103 C 
ATOM     72  N   UNL     1      -0.315   0.072   2.793  1.00  0.00    -0.198 NA
BRANCH  72  73
ATOM     73  S   UNL     1      -0.263   1.740   3.330  1.00  0.00     0.243 S 
ATOM     74  O   UNL     1       0.015   2.502   2.124  1.00  0.00    -0.207 OA
ATOM     75  O   UNL     1      -1.484   1.965   4.068  1.00  0.00    -0.207 OA
BRANCH  73  76
ATOM     76  C   UNL     1       1.103   2.010   4.424  1.00  0.00     0.082 A 
ATOM     77  C   UNL     1       0.846   2.498   5.711  1.00  0.00     0.022 A 
ATOM     78  C   UNL     1       2.412   2.013   3.929  1.00  0.00     0.022 A 
ATOM     79  C   UNL     1       1.898   2.950   6.509  1.00  0.00     0.001 A 
ATOM     80  C   UNL     1       3.464   2.437   4.742  1.00  0.00     0.001 A 
ATOM     81  C   UNL     1       3.205   2.907   6.028  1.00  0.00     0.000 A 
ENDBRANCH  73  76
ENDBRANCH  72  73
ENDBRANCH  65  67
ENDBRANCH  63  65
ENDBRANCH  57  59
ENDBRANCH  56  57
ENDBRANCH   1  56
TORSDOF 15
