REMARK SMILES O=C(OCCOC(=O)[C@@H]1[C@@H](C(=O)Nc2ccc(F)c(F)c2)[C@H]2C=C[C@@H]1O2)c1ccc(-c2c3nc(c(-c4ccccc4)c4ccc([nH]4)c(-c4ccccc4)c4nc(c(-c5ccccc5)c5ccc2[nH]5)C=C4)C=C3)cc1
REMARK SMILES IDX 4 1 3 2 2 3 1 4 27 5 28 6 74 7 29 8 73 9 30 10 31 11 32 12
REMARK SMILES IDX 67 13 33 14 72 15 66 16 68 17 34 18 71 19 65 20 64 21 35 23
REMARK SMILES IDX 57 24 42 25 56 26 43 27 46 28 55 29 69 30 44 31 45 32 54 34
REMARK SMILES IDX 70 35 47 36 36 37 37 38 41 39 38 40 40 41 39 42 58 43 59 44
REMARK SMILES IDX 63 45 60 46 62 47 61 48 48 49 49 50 53 51 50 52 52 53 51 54
REMARK SMILES IDX 5 55 6 56 7 57 8 58 9 59 10 60 25 61 22 62 24 63 26 64 23 65
REMARK SMILES IDX 11 66 12 67 13 68 14 70 15 71 21 72 16 73 19 74 17 75 20 76
REMARK SMILES IDX 18 77
REMARK H PARENT 68 22 46 33 13 69
REMARK Flexibility Score: inf
ROOT
ATOM      1  C   UNL     1       4.272  -0.207  -1.550  1.00  0.00     0.275 C 
ENDROOT
BRANCH   1   2
ATOM      2  O   UNL     1       3.224  -0.899  -0.849  1.00  0.00    -0.458 OA
BRANCH   2   3
ATOM      3  C   UNL     1       3.059  -1.127   0.473  1.00  0.00     0.338 C 
ATOM      4  O   UNL     1       2.081  -1.778   0.842  1.00  0.00    -0.246 OA
BRANCH   3   5
ATOM      5  C   UNL     1       3.924  -0.527   1.538  1.00  0.00     0.060 A 
ATOM      6  C   UNL     1       5.277  -0.186   1.416  1.00  0.00     0.016 A 
ATOM      7  C   UNL     1       3.293  -0.277   2.770  1.00  0.00     0.016 A 
ATOM      8  C   UNL     1       5.949   0.505   2.436  1.00  0.00     0.010 A 
ATOM      9  C   UNL     1       3.966   0.391   3.797  1.00  0.00     0.010 A 
ATOM     10  C   UNL     1       5.291   0.827   3.623  1.00  0.00    -0.014 A 
BRANCH  10  11
ATOM     11  C   UNL     1       5.995   1.510   4.735  1.00  0.00     0.031 A 
ATOM     12  C   UNL     1       6.353   0.677   5.924  1.00  0.00     0.074 A 
ATOM     13  C   UNL     1       6.288   2.827   4.719  1.00  0.00     0.049 A 
ATOM     14  N   UNL     1       7.036   1.013   6.983  1.00  0.00    -0.248 NA
ATOM     15  C   UNL     1       5.912  -0.728   5.901  1.00  0.00     0.031 C 
ATOM     16  C   UNL     1       6.063   3.740   3.604  1.00  0.00     0.029 A 
ATOM     17  N   UNL     1       6.815   3.643   5.692  1.00  0.00    -0.354 N 
ATOM     18  C   UNL     1       7.169  -0.158   7.710  1.00  0.00     0.074 A 
ATOM     19  C   UNL     1       6.382  -1.173   7.051  1.00  0.00     0.031 C 
ATOM     20  C   UNL     1       6.329   5.001   3.985  1.00  0.00     0.029 A 
ATOM     21  C   UNL     1       6.831   4.979   5.350  1.00  0.00     0.049 A 
ATOM     22  H   UNL     1       7.150   3.305   6.554  1.00  0.00     0.167 HD
ATOM     23  C   UNL     1       7.948  -0.388   8.788  1.00  0.00     0.031 A 
ATOM     24  C   UNL     1       7.241   6.056   6.048  1.00  0.00     0.031 A 
ATOM     25  C   UNL     1       8.678   0.639   9.468  1.00  0.00     0.049 A 
ATOM     26  C   UNL     1       7.941   5.815   7.358  1.00  0.00     0.074 A 
ATOM     27  C   UNL     1       9.503   0.533  10.569  1.00  0.00     0.029 A 
ATOM     28  N   UNL     1       8.634   1.982   9.118  1.00  0.00    -0.354 N 
ATOM     29  N   UNL     1       8.181   4.677   7.965  1.00  0.00    -0.248 NA
ATOM     30  C   UNL     1       8.499   6.992   8.037  1.00  0.00     0.031 C 
ATOM     31  C   UNL     1       9.908   1.825  10.925  1.00  0.00     0.029 A 
ATOM     32  C   UNL     1       9.385   2.726  10.008  1.00  0.00     0.049 A 
ATOM     33  H   UNL     1       8.141   2.350   8.349  1.00  0.00     0.167 HD
ATOM     34  C   UNL     1       8.991   4.988   9.047  1.00  0.00     0.074 A 
ATOM     35  C   UNL     1       9.179   6.426   9.026  1.00  0.00     0.031 C 
ATOM     36  C   UNL     1       9.557   4.156   9.956  1.00  0.00     0.031 A 
BRANCH  23  37
ATOM     37  C   UNL     1       8.007  -1.813   9.250  1.00  0.00    -0.014 A 
ATOM     38  C   UNL     1       8.628  -2.796   8.456  1.00  0.00     0.009 A 
ATOM     39  C   UNL     1       7.338  -2.201  10.416  1.00  0.00     0.009 A 
ATOM     40  C   UNL     1       8.515  -4.146   8.785  1.00  0.00     0.001 A 
ATOM     41  C   UNL     1       7.253  -3.552  10.759  1.00  0.00     0.001 A 
ATOM     42  C   UNL     1       7.824  -4.523   9.935  1.00  0.00     0.000 A 
ENDBRANCH  23  37
BRANCH  24  43
ATOM     43  C   UNL     1       7.114   7.435   5.496  1.00  0.00    -0.014 A 
ATOM     44  C   UNL     1       8.243   8.129   5.033  1.00  0.00     0.009 A 
ATOM     45  C   UNL     1       5.871   8.088   5.477  1.00  0.00     0.009 A 
ATOM     46  C   UNL     1       8.140   9.456   4.602  1.00  0.00     0.001 A 
ATOM     47  C   UNL     1       5.767   9.410   5.027  1.00  0.00     0.001 A 
ATOM     48  C   UNL     1       6.903  10.096   4.601  1.00  0.00     0.000 A 
ENDBRANCH  24  43
BRANCH  36  49
ATOM     49  C   UNL     1      10.479   4.774  10.966  1.00  0.00    -0.014 A 
ATOM     50  C   UNL     1       9.996   5.580  12.006  1.00  0.00     0.009 A 
ATOM     51  C   UNL     1      11.853   4.489  10.901  1.00  0.00     0.009 A 
ATOM     52  C   UNL     1      10.878   6.114  12.947  1.00  0.00     0.001 A 
ATOM     53  C   UNL     1      12.726   4.995  11.863  1.00  0.00     0.001 A 
ATOM     54  C   UNL     1      12.238   5.814  12.880  1.00  0.00     0.000 A 
ENDBRANCH  36  49
ENDBRANCH  10  11
ENDBRANCH   3   5
ENDBRANCH   2   3
ENDBRANCH   1   2
BRANCH   1  55
ATOM     55  C   UNL     1       4.159   1.317  -1.540  1.00  0.00     0.274 C 
BRANCH  55  56
ATOM     56  O   UNL     1       3.691   1.845  -0.288  1.00  0.00    -0.462 OA
BRANCH  56  57
ATOM     57  C   UNL     1       2.418   2.315  -0.265  1.00  0.00     0.312 C 
ATOM     58  O   UNL     1       1.657   2.283  -1.234  1.00  0.00    -0.252 OA
BRANCH  57  59
ATOM     59  C   UNL     1       1.993   2.912   1.059  1.00  0.00     0.147 C 
ATOM     60  C   UNL     1       1.645   4.401   0.857  1.00  0.00     0.129 C 
ATOM     61  C   UNL     1       3.120   3.053   2.072  1.00  0.00     0.157 C 
ATOM     62  C   UNL     1       2.485   5.112   1.927  1.00  0.00     0.155 C 
ATOM     63  C   UNL     1       2.556   3.405   3.416  1.00  0.00     0.004 C 
ATOM     64  O   UNL     1       3.693   4.345   1.715  1.00  0.00    -0.365 OA
ATOM     65  C   UNL     1       2.175   4.684   3.328  1.00  0.00     0.004 C 
BRANCH  60  66
ATOM     66  C   UNL     1       0.184   4.766   0.981  1.00  0.00     0.231 C 
ATOM     67  O   UNL     1      -0.549   4.268   1.833  1.00  0.00    -0.274 OA
ATOM     68  N   UNL     1      -0.264   5.821   0.218  1.00  0.00    -0.326 N 
ATOM     69  H   UNL     1      -1.117   6.236   0.484  1.00  0.00     0.169 HD
BRANCH  68  70
ATOM     70  C   UNL     1       0.383   6.360  -0.903  1.00  0.00     0.044 A 
ATOM     71  C   UNL     1       0.915   5.525  -1.898  1.00  0.00     0.029 A 
ATOM     72  C   UNL     1       0.575   7.735  -0.971  1.00  0.00     0.068 A 
ATOM     73  C   UNL     1       1.776   6.037  -2.865  1.00  0.00     0.044 A 
ATOM     74  C   UNL     1       1.430   8.242  -1.947  1.00  0.00     0.160 A 
ATOM     75  C   UNL     1       2.048   7.398  -2.868  1.00  0.00     0.158 A 
ATOM     76  F   UNL     1       1.696   9.554  -1.960  1.00  0.00    -0.204 F 
ATOM     77  F   UNL     1       2.921   7.888  -3.756  1.00  0.00    -0.204 F 
ENDBRANCH  68  70
ENDBRANCH  60  66
ENDBRANCH  57  59
ENDBRANCH  56  57
ENDBRANCH  55  56
ENDBRANCH   1  55
TORSDOF 13
