REMARK SMILES CCc1ccc(OCC(=O)Nc2cc(C)c(O)c(C(=O)OCCOC(=O)c3ccc(-c4c5nc(c(-c6ccccc6)c6ccc([nH]6)c(-c6ccccc6)c6nc(c(-c7ccccc7)c7ccc4[nH]7)C=C6)C=C5)cc3)c2)cc1
REMARK SMILES IDX 21 1 19 2 20 3 18 4 12 5 13 6 75 7 14 8 15 9 16 10 11 11
REMARK SMILES IDX 9 12 10 13 8 15 7 16 6 17 3 18 4 19 77 20 5 21 76 22 2 23
REMARK SMILES IDX 1 24 17 25 22 27 23 28 24 29 25 30 26 31 27 32 28 33 74 34
REMARK SMILES IDX 29 35 73 36 30 37 31 38 32 39 67 40 33 41 72 42 66 43 68 44
REMARK SMILES IDX 34 45 71 46 65 47 64 48 35 50 57 51 42 52 56 53 43 54 46 55
REMARK SMILES IDX 55 56 69 57 44 58 45 59 54 61 70 62 47 63 36 64 37 65 41 66
REMARK SMILES IDX 38 67 40 68 39 69 58 70 59 71 63 72 60 73 62 74 61 75 48 76
REMARK SMILES IDX 49 77 53 78 50 79 52 80 51 81
REMARK H PARENT 11 14 17 26 68 49 46 60
REMARK Flexibility Score: inf
ROOT
ATOM      1  O   UNL     1       4.072   4.359  -4.210  1.00  0.00    -0.458 OA
ENDROOT
BRANCH   1   2
ATOM      2  C   UNL     1       4.106   5.353  -5.133  1.00  0.00     0.342 C 
ATOM      3  O   UNL     1       5.052   5.675  -5.830  1.00  0.00    -0.246 OA
BRANCH   2   4
ATOM      4  C   UNL     1       2.760   5.958  -5.308  1.00  0.00     0.104 A 
ATOM      5  C   UNL     1       0.533   6.420  -4.464  1.00  0.00     0.042 A 
ATOM      6  C   UNL     1       0.138   6.792  -5.752  1.00  0.00     0.033 A 
ATOM      7  C   UNL     1       1.818   5.924  -4.276  1.00  0.00     0.045 A 
ATOM      8  C   UNL     1       1.064   6.836  -6.807  1.00  0.00    -0.006 A 
ATOM      9  C   UNL     1       0.600   7.249  -8.174  1.00  0.00     0.048 C 
ATOM     10  C   UNL     1       2.400   6.512  -6.543  1.00  0.00     0.133 A 
BRANCH   5  11
ATOM     11  N   UNL     1      -0.415   6.535  -3.440  1.00  0.00    -0.323 N 
ATOM     12  C   UNL     1      -0.277   6.762  -2.098  1.00  0.00     0.262 C 
ATOM     13  O   UNL     1      -1.311   6.811  -1.420  1.00  0.00    -0.271 OA
ATOM     14  H   UNL     1      -1.348   6.434  -3.739  1.00  0.00     0.170 HD
BRANCH  12  15
ATOM     15  C   UNL     1       1.086   7.111  -1.458  1.00  0.00     0.329 C 
BRANCH  15  16
ATOM     16  O   UNL     1       2.070   6.127  -1.195  1.00  0.00    -0.484 OA
BRANCH  16  17
ATOM     17  C   UNL     1       1.646   4.954  -0.641  1.00  0.00     0.120 A 
ATOM     18  C   UNL     1       0.905   2.403   0.293  1.00  0.00    -0.048 A 
ATOM     19  C   UNL     1       2.020   2.559  -0.537  1.00  0.00     0.007 A 
ATOM     20  C   UNL     1       0.201   3.554   0.685  1.00  0.00     0.007 A 
ATOM     21  C   UNL     1       2.389   3.827  -0.991  1.00  0.00     0.047 A 
ATOM     22  C   UNL     1       0.571   4.822   0.228  1.00  0.00     0.047 A 
BRANCH  18  23
ATOM     23  C   UNL     1       0.451   1.066   0.830  1.00  0.00     0.032 C 
ATOM     24  C   UNL     1       0.982  -0.170   0.115  1.00  0.00     0.009 C 
ENDBRANCH  18  23
ENDBRANCH  16  17
ENDBRANCH  15  16
ENDBRANCH  12  15
ENDBRANCH   5  11
BRANCH  10  25
ATOM     25  O   UNL     1       3.311   6.703  -7.549  1.00  0.00    -0.507 OA
ATOM     26  H   UNL     1       3.038   7.076  -8.364  1.00  0.00     0.293 HD
ENDBRANCH  10  25
ENDBRANCH   2   4
ENDBRANCH   1   2
BRANCH   1  27
ATOM     27  C   UNL     1       5.271   3.578  -4.027  1.00  0.00     0.275 C 
BRANCH  27  28
ATOM     28  C   UNL     1       5.060   2.136  -4.499  1.00  0.00     0.275 C 
BRANCH  28  29
ATOM     29  O   UNL     1       4.993   2.091  -5.936  1.00  0.00    -0.458 OA
BRANCH  29  30
ATOM     30  C   UNL     1       3.745   2.063  -6.458  1.00  0.00     0.338 C 
ATOM     31  O   UNL     1       2.692   1.927  -5.853  1.00  0.00    -0.246 OA
BRANCH  30  32
ATOM     32  C   UNL     1       3.822   2.475  -7.869  1.00  0.00     0.060 A 
ATOM     33  C   UNL     1       3.051   3.577  -8.237  1.00  0.00     0.016 A 
ATOM     34  C   UNL     1       4.635   1.839  -8.809  1.00  0.00     0.016 A 
ATOM     35  C   UNL     1       3.137   4.100  -9.521  1.00  0.00     0.010 A 
ATOM     36  C   UNL     1       4.684   2.336 -10.118  1.00  0.00     0.010 A 
ATOM     37  C   UNL     1       3.946   3.478 -10.475  1.00  0.00    -0.014 A 
BRANCH  37  38
ATOM     38  C   UNL     1       3.909   3.974 -11.868  1.00  0.00     0.031 A 
ATOM     39  C   UNL     1       2.963   3.336 -12.841  1.00  0.00     0.074 A 
ATOM     40  C   UNL     1       4.649   5.033 -12.242  1.00  0.00     0.049 A 
ATOM     41  N   UNL     1       2.789   3.584 -14.113  1.00  0.00    -0.248 NA
ATOM     42  C   UNL     1       2.085   2.285 -12.302  1.00  0.00     0.031 C 
ATOM     43  C   UNL     1       5.524   5.809 -11.364  1.00  0.00     0.029 A 
ATOM     44  N   UNL     1       4.773   5.643 -13.466  1.00  0.00    -0.354 N 
ATOM     45  C   UNL     1       1.792   2.714 -14.530  1.00  0.00     0.074 A 
ATOM     46  C   UNL     1       1.405   1.925 -13.380  1.00  0.00     0.031 C 
ATOM     47  C   UNL     1       6.103   6.788 -12.083  1.00  0.00     0.029 A 
ATOM     48  C   UNL     1       5.672   6.681 -13.475  1.00  0.00     0.049 A 
ATOM     49  H   UNL     1       4.265   5.362 -14.262  1.00  0.00     0.167 HD
ATOM     50  C   UNL     1       1.250   2.582 -15.763  1.00  0.00     0.031 A 
ATOM     51  C   UNL     1       6.118   7.436 -14.498  1.00  0.00     0.031 A 
ATOM     52  C   UNL     1       1.647   3.352 -16.910  1.00  0.00     0.049 A 
ATOM     53  C   UNL     1       5.587   7.185 -15.885  1.00  0.00     0.074 A 
ATOM     54  C   UNL     1       1.173   3.273 -18.208  1.00  0.00     0.029 A 
ATOM     55  N   UNL     1       2.621   4.338 -16.898  1.00  0.00    -0.354 N 
ATOM     56  N   UNL     1       4.661   6.344 -16.277  1.00  0.00    -0.248 NA
ATOM     57  C   UNL     1       6.169   7.986 -16.972  1.00  0.00     0.031 C 
ATOM     58  C   UNL     1       1.900   4.174 -18.993  1.00  0.00     0.029 A 
ATOM     59  C   UNL     1       2.784   4.855 -18.172  1.00  0.00     0.049 A 
ATOM     60  H   UNL     1       3.122   4.628 -16.101  1.00  0.00     0.167 HD
ATOM     61  C   UNL     1       4.533   6.531 -17.648  1.00  0.00     0.074 A 
ATOM     62  C   UNL     1       5.464   7.577 -18.017  1.00  0.00     0.031 C 
ATOM     63  C   UNL     1       3.716   5.895 -18.523  1.00  0.00     0.031 A 
BRANCH  50  64
ATOM     64  C   UNL     1       0.209   1.514 -15.941  1.00  0.00    -0.014 A 
ATOM     65  C   UNL     1      -1.088   1.662 -15.427  1.00  0.00     0.009 A 
ATOM     66  C   UNL     1       0.534   0.347 -16.649  1.00  0.00     0.009 A 
ATOM     67  C   UNL     1      -2.031   0.645 -15.592  1.00  0.00     0.001 A 
ATOM     68  C   UNL     1      -0.418  -0.656 -16.835  1.00  0.00     0.001 A 
ATOM     69  C   UNL     1      -1.696  -0.510 -16.299  1.00  0.00     0.000 A 
ENDBRANCH  50  64
BRANCH  51  70
ATOM     70  C   UNL     1       7.166   8.466 -14.268  1.00  0.00    -0.014 A 
ATOM     71  C   UNL     1       6.881   9.831 -14.420  1.00  0.00     0.009 A 
ATOM     72  C   UNL     1       8.474   8.081 -13.934  1.00  0.00     0.009 A 
ATOM     73  C   UNL     1       7.890  10.786 -14.268  1.00  0.00     0.001 A 
ATOM     74  C   UNL     1       9.474   9.038 -13.754  1.00  0.00     0.001 A 
ATOM     75  C   UNL     1       9.184  10.389 -13.931  1.00  0.00     0.000 A 
ENDBRANCH  51  70
BRANCH  63  76
ATOM     76  C   UNL     1       3.767   6.334 -19.960  1.00  0.00    -0.014 A 
ATOM     77  C   UNL     1       4.857   6.013 -20.783  1.00  0.00     0.009 A 
ATOM     78  C   UNL     1       2.685   7.041 -20.509  1.00  0.00     0.009 A 
ATOM     79  C   UNL     1       4.875   6.417 -22.120  1.00  0.00     0.001 A 
ATOM     80  C   UNL     1       2.693   7.418 -21.852  1.00  0.00     0.001 A 
ATOM     81  C   UNL     1       3.791   7.114 -22.654  1.00  0.00     0.000 A 
ENDBRANCH  63  76
ENDBRANCH  37  38
ENDBRANCH  30  32
ENDBRANCH  29  30
ENDBRANCH  28  29
ENDBRANCH  27  28
ENDBRANCH   1  27
TORSDOF 17
