REMARK SMILES Cc1ccccc1/C=C1\SC(=O)N(CC(=O)Nc2ccccc2C(=O)OCCOC(=O)c2ccc(-c3c4nc(c(-c5ccccc5)c5ccc([nH]5)c(-c5ccccc5)c5nc(c(-c6ccccc6)c6ccc3[nH]6)C=C5)C=C4)cc2)C1=O
REMARK SMILES IDX 27 1 26 2 24 3 25 4 23 5 18 6 19 7 20 8 22 9 21 10 17 11
REMARK SMILES IDX 15 12 16 13 14 15 13 16 8 17 9 18 10 19 80 20 11 21 81 22
REMARK SMILES IDX 12 23 7 24 1 25 2 26 3 27 4 28 6 29 5 30 28 31 29 32 30 33
REMARK SMILES IDX 31 34 32 35 33 36 79 37 34 38 78 39 35 40 36 41 37 42 72 43
REMARK SMILES IDX 38 44 77 45 71 46 73 47 39 48 76 49 70 50 69 51 40 53 62 54
REMARK SMILES IDX 47 55 61 56 48 57 51 58 60 59 74 60 49 61 50 62 59 64 75 65
REMARK SMILES IDX 52 66 41 67 42 68 46 69 43 70 45 71 44 72 63 73 64 74 68 75
REMARK SMILES IDX 65 76 67 77 66 78 53 79 54 80 58 81 55 82 57 83 56 84
REMARK H PARENT 17 14 73 52 51 63
REMARK Flexibility Score: inf
ROOT
ATOM      1  C   UNL     1       4.774   2.056  -0.351  1.00  0.00     0.275 C 
ENDROOT
BRANCH   1   2
ATOM      2  O   UNL     1       3.162   2.352  -1.598  1.00  0.00    -0.458 OA
BRANCH   2   3
ATOM      3  C   UNL     1       2.372   3.349  -2.551  1.00  0.00     0.340 C 
ATOM      4  O   UNL     1       1.765   3.803  -1.528  1.00  0.00    -0.246 OA
BRANCH   3   5
ATOM      5  C   UNL     1       2.181   4.025  -4.595  1.00  0.00     0.083 A 
ATOM      6  C   UNL     1       2.602   5.654  -5.064  1.00  0.00     0.055 A 
ATOM      7  C   UNL     1       2.406   6.170  -6.356  1.00  0.00     0.027 A 
ATOM      8  C   UNL     1       1.914   5.335  -7.355  1.00  0.00     0.002 A 
ATOM      9  C   UNL     1       1.693   3.383  -5.835  1.00  0.00     0.018 A 
ATOM     10  C   UNL     1       1.585   3.999  -7.108  1.00  0.00     0.001 A 
BRANCH   6  11
ATOM     11  N   UNL     1       3.333   6.822  -4.042  1.00  0.00    -0.324 N 
ATOM     12  C   UNL     1       4.058   6.817  -2.626  1.00  0.00     0.244 C 
ATOM     13  O   UNL     1       4.431   7.954  -2.280  1.00  0.00    -0.273 OA
ATOM     14  H   UNL     1       3.293   7.726  -4.430  1.00  0.00     0.170 HD
BRANCH  12  15
ATOM     15  C   UNL     1       4.773   5.344  -1.637  1.00  0.00     0.230 C 
BRANCH  15  16
ATOM     16  N   UNL     1       4.394   3.609  -1.408  1.00  0.00    -0.259 N 
ATOM     17  C   UNL     1       1.378   1.442   0.811  1.00  0.00     0.029 C 
ATOM     18  C   UNL     1       2.525   1.777   0.174  1.00  0.00     0.083 C 
ATOM     19  S   UNL     1       3.308   0.318  -1.262  1.00  0.00    -0.022 SA
ATOM     20  C   UNL     1       3.289   3.539  -0.008  1.00  0.00     0.268 C 
ATOM     21  C   UNL     1       4.699   1.890  -2.235  1.00  0.00     0.294 C 
ATOM     22  O   UNL     1       3.172   4.436   0.819  1.00  0.00    -0.268 OA
ATOM     23  O   UNL     1       5.504   1.272  -2.920  1.00  0.00    -0.261 OA
BRANCH  17  24
ATOM     24  C   UNL     1       0.595   0.178   0.644  1.00  0.00    -0.021 A 
ATOM     25  C   UNL     1       2.429  -1.400   1.464  1.00  0.00     0.045 C 
ATOM     26  C   UNL     1       1.078  -1.120   0.878  1.00  0.00    -0.044 A 
ATOM     27  C   UNL     1       0.279  -2.242   0.545  1.00  0.00     0.004 A 
ATOM     28  C   UNL     1      -1.023  -2.100   0.073  1.00  0.00     0.000 A 
ATOM     29  C   UNL     1      -0.739   0.280   0.209  1.00  0.00     0.008 A 
ATOM     30  C   UNL     1      -1.548  -0.830  -0.064  1.00  0.00     0.001 A 
ENDBRANCH  17  24
ENDBRANCH  15  16
ENDBRANCH  12  15
ENDBRANCH   6  11
ENDBRANCH   3   5
ENDBRANCH   2   3
ENDBRANCH   1   2
BRANCH   1  31
ATOM     31  C   UNL     1       6.380   2.765  -1.021  1.00  0.00     0.275 C 
BRANCH  31  32
ATOM     32  O   UNL     1       6.479   3.314  -2.646  1.00  0.00    -0.458 OA
BRANCH  32  33
ATOM     33  C   UNL     1       5.750   3.318  -3.915  1.00  0.00     0.338 C 
ATOM     34  O   UNL     1       6.325   3.680  -4.937  1.00  0.00    -0.246 OA
BRANCH  33  35
ATOM     35  C   UNL     1       4.112   3.208  -3.986  1.00  0.00     0.060 A 
ATOM     36  C   UNL     1       3.568   4.685  -3.371  1.00  0.00     0.016 A 
ATOM     37  C   UNL     1       2.876   1.958  -4.111  1.00  0.00     0.016 A 
ATOM     38  C   UNL     1       1.769   5.199  -3.005  1.00  0.00     0.010 A 
ATOM     39  C   UNL     1       1.130   2.264  -3.712  1.00  0.00     0.010 A 
ATOM     40  C   UNL     1       0.499   3.907  -3.235  1.00  0.00    -0.014 A 
BRANCH  40  41
ATOM     41  C   UNL     1      -0.757   3.830  -2.397  1.00  0.00     0.031 A 
ATOM     42  C   UNL     1      -1.832   2.912  -2.864  1.00  0.00     0.074 A 
ATOM     43  C   UNL     1      -0.802   4.237  -1.087  1.00  0.00     0.049 A 
ATOM     44  N   UNL     1      -2.908   2.675  -2.201  1.00  0.00    -0.248 NA
ATOM     45  C   UNL     1      -1.819   2.184  -4.130  1.00  0.00     0.031 C 
ATOM     46  C   UNL     1      -1.600   3.634  -0.011  1.00  0.00     0.029 A 
ATOM     47  N   UNL     1      -0.040   5.169  -0.376  1.00  0.00    -0.354 N 
ATOM     48  C   UNL     1      -3.551   1.600  -2.749  1.00  0.00     0.074 A 
ATOM     49  C   UNL     1      -2.857   1.354  -3.986  1.00  0.00     0.031 C 
ATOM     50  C   UNL     1      -1.296   4.160   1.183  1.00  0.00     0.029 A 
ATOM     51  C   UNL     1      -0.522   5.347   0.940  1.00  0.00     0.049 A 
ATOM     52  H   UNL     1       0.738   5.644  -0.748  1.00  0.00     0.167 HD
ATOM     53  C   UNL     1      -4.554   1.020  -2.035  1.00  0.00     0.031 A 
ATOM     54  C   UNL     1      -0.973   6.570   1.356  1.00  0.00     0.031 A 
ATOM     55  C   UNL     1      -4.945   1.859  -0.883  1.00  0.00     0.049 A 
ATOM     56  C   UNL     1      -2.470   6.726   1.174  1.00  0.00     0.074 A 
ATOM     57  C   UNL     1      -4.893   1.727   0.494  1.00  0.00     0.029 A 
ATOM     58  N   UNL     1      -5.230   3.210  -1.118  1.00  0.00    -0.354 N 
ATOM     59  N   UNL     1      -3.307   5.736   1.008  1.00  0.00    -0.248 NA
ATOM     60  C   UNL     1      -3.141   8.020   1.115  1.00  0.00     0.031 C 
ATOM     61  C   UNL     1      -5.026   3.033   1.067  1.00  0.00     0.029 A 
ATOM     62  C   UNL     1      -5.226   3.953   0.051  1.00  0.00     0.049 A 
ATOM     63  H   UNL     1      -5.413   3.587  -2.009  1.00  0.00     0.167 HD
ATOM     64  C   UNL     1      -4.506   6.217   0.568  1.00  0.00     0.074 A 
ATOM     65  C   UNL     1      -4.389   7.652   0.778  1.00  0.00     0.031 C 
ATOM     66  C   UNL     1      -5.452   5.408  -0.004  1.00  0.00     0.031 A 
BRANCH  53  67
ATOM     67  C   UNL     1      -5.100  -0.367  -2.312  1.00  0.00    -0.014 A 
ATOM     68  C   UNL     1      -6.107  -0.902  -1.490  1.00  0.00     0.009 A 
ATOM     69  C   UNL     1      -4.607  -1.238  -3.306  1.00  0.00     0.009 A 
ATOM     70  C   UNL     1      -6.585  -2.215  -1.651  1.00  0.00     0.001 A 
ATOM     71  C   UNL     1      -5.098  -2.539  -3.494  1.00  0.00     0.001 A 
ATOM     72  C   UNL     1      -6.085  -3.032  -2.658  1.00  0.00     0.000 A 
ENDBRANCH  53  67
BRANCH  54  73
ATOM     73  C   UNL     1       0.072   7.606   1.169  1.00  0.00    -0.014 A 
ATOM     74  C   UNL     1       1.116   7.575   2.117  1.00  0.00     0.009 A 
ATOM     75  C   UNL     1       0.327   8.092  -0.120  1.00  0.00     0.009 A 
ATOM     76  C   UNL     1       2.432   7.767   1.706  1.00  0.00     0.001 A 
ATOM     77  C   UNL     1       1.648   8.288  -0.521  1.00  0.00     0.001 A 
ATOM     78  C   UNL     1       2.696   8.071   0.376  1.00  0.00     0.000 A 
ENDBRANCH  54  73
BRANCH  66  79
ATOM     79  C   UNL     1      -6.724   5.915  -0.655  1.00  0.00    -0.014 A 
ATOM     80  C   UNL     1      -6.937   7.230  -1.091  1.00  0.00     0.009 A 
ATOM     81  C   UNL     1      -7.773   5.002  -0.898  1.00  0.00     0.009 A 
ATOM     82  C   UNL     1      -8.168   7.636  -1.625  1.00  0.00     0.001 A 
ATOM     83  C   UNL     1      -8.975   5.384  -1.497  1.00  0.00     0.001 A 
ATOM     84  C   UNL     1      -9.186   6.713  -1.828  1.00  0.00     0.000 A 
ENDBRANCH  66  79
ENDBRANCH  40  41
ENDBRANCH  33  35
ENDBRANCH  32  33
ENDBRANCH  31  32
ENDBRANCH   1  31
TORSDOF 15
