REMARK SMILES C[C@@H](Oc1ccc(-c2ccccc2)cc1)C(=O)N1CCC[C@H](C(=O)OCCOC(=O)c2ccc(-c3c4nc(c(-c5ccccc5)c5ccc([nH]5)c(-c5ccccc5)c5nc(c(-c6ccccc6)c6ccc3[nH]6)C=C5)C=C4)cc2)C1
REMARK SMILES IDX 25 1 23 2 24 3 22 4 18 5 19 6 79 7 20 8 21 9 16 10 17 11
REMARK SMILES IDX 2 12 1 13 3 14 4 15 5 16 15 17 6 18 14 19 7 20 8 21 9 22
REMARK SMILES IDX 13 23 10 24 12 25 11 26 26 27 27 28 28 29 29 30 30 31 31 32
REMARK SMILES IDX 32 33 78 34 33 35 77 36 34 37 35 38 36 39 71 40 37 41 76 42
REMARK SMILES IDX 70 43 72 44 38 45 75 46 69 47 68 48 39 50 61 51 46 52 60 53
REMARK SMILES IDX 47 54 50 55 59 56 73 57 48 58 49 59 58 61 74 62 51 63 40 64
REMARK SMILES IDX 41 65 45 66 42 67 44 68 43 69 62 70 63 71 67 72 64 73 66 74
REMARK SMILES IDX 65 75 52 76 53 77 57 78 54 79 56 80 55 81
REMARK H PARENT 72 49 50 60
REMARK Flexibility Score: inf
ROOT
ATOM      1  O   UNL     1      -3.772   0.366  -0.689  1.00  0.00    -0.462 OA
ENDROOT
BRANCH   1   2
ATOM      2  C   UNL     1      -2.728   1.226  -0.618  1.00  0.00     0.310 C 
ATOM      3  O   UNL     1      -1.953   1.460  -1.540  1.00  0.00    -0.252 OA
BRANCH   2   4
ATOM      4  C   UNL     1      -2.580   1.876   0.751  1.00  0.00     0.119 C 
ATOM      5  N   UNL     1      -1.655  -0.089   1.875  1.00  0.00    -0.339 N 
ATOM      6  C   UNL     1      -2.789  -0.228   2.784  1.00  0.00     0.119 C 
ATOM      7  C   UNL     1      -1.366   1.276   1.449  1.00  0.00     0.134 C 
ATOM      8  C   UNL     1      -4.060   0.433   2.260  1.00  0.00     0.022 C 
ATOM      9  C   UNL     1      -3.810   1.819   1.663  1.00  0.00     0.019 C 
BRANCH   5  10
ATOM     10  C   UNL     1      -0.911  -1.214   1.533  1.00  0.00     0.263 C 
ATOM     11  O   UNL     1      -1.389  -2.349   1.625  1.00  0.00    -0.271 OA
BRANCH  10  12
ATOM     12  C   UNL     1       0.556  -1.046   1.082  1.00  0.00     0.259 C 
ATOM     13  C   UNL     1       0.700  -0.659  -0.387  1.00  0.00     0.064 C 
BRANCH  12  14
ATOM     14  O   UNL     1       1.148  -0.066   1.945  1.00  0.00    -0.481 OA
BRANCH  14  15
ATOM     15  C   UNL     1       2.464  -0.296   2.207  1.00  0.00     0.120 A 
ATOM     16  C   UNL     1       2.837  -1.065   3.305  1.00  0.00     0.047 A 
ATOM     17  C   UNL     1       3.413   0.393   1.466  1.00  0.00     0.047 A 
ATOM     18  C   UNL     1       4.186  -1.139   3.668  1.00  0.00     0.012 A 
ATOM     19  C   UNL     1       4.756   0.313   1.827  1.00  0.00     0.012 A 
ATOM     20  C   UNL     1       5.165  -0.432   2.947  1.00  0.00    -0.018 A 
BRANCH  20  21
ATOM     21  C   UNL     1       6.575  -0.412   3.369  1.00  0.00    -0.018 A 
ATOM     22  C   UNL     1       7.297  -1.593   3.592  1.00  0.00     0.009 A 
ATOM     23  C   UNL     1       7.243   0.814   3.545  1.00  0.00     0.009 A 
ATOM     24  C   UNL     1       8.646  -1.549   3.959  1.00  0.00     0.001 A 
ATOM     25  C   UNL     1       8.589   0.860   3.910  1.00  0.00     0.001 A 
ATOM     26  C   UNL     1       9.291  -0.324   4.113  1.00  0.00     0.000 A 
ENDBRANCH  20  21
ENDBRANCH  14  15
ENDBRANCH  12  14
ENDBRANCH  10  12
ENDBRANCH   5  10
ENDBRANCH   2   4
ENDBRANCH   1   2
BRANCH   1  27
ATOM     27  C   UNL     1      -4.014  -0.306  -1.938  1.00  0.00     0.274 C 
BRANCH  27  28
ATOM     28  C   UNL     1      -5.242   0.285  -2.631  1.00  0.00     0.275 C 
BRANCH  28  29
ATOM     29  O   UNL     1      -4.969   1.618  -3.099  1.00  0.00    -0.458 OA
BRANCH  29  30
ATOM     30  C   UNL     1      -5.283   2.604  -2.229  1.00  0.00     0.338 C 
ATOM     31  O   UNL     1      -5.826   2.506  -1.144  1.00  0.00    -0.246 OA
BRANCH  30  32
ATOM     32  C   UNL     1      -4.756   3.873  -2.740  1.00  0.00     0.060 A 
ATOM     33  C   UNL     1      -3.650   4.442  -2.103  1.00  0.00     0.016 A 
ATOM     34  C   UNL     1      -5.408   4.537  -3.777  1.00  0.00     0.016 A 
ATOM     35  C   UNL     1      -3.197   5.699  -2.487  1.00  0.00     0.010 A 
ATOM     36  C   UNL     1      -4.947   5.793  -4.168  1.00  0.00     0.010 A 
ATOM     37  C   UNL     1      -3.853   6.386  -3.514  1.00  0.00    -0.014 A 
BRANCH  37  38
ATOM     38  C   UNL     1      -3.453   7.765  -3.864  1.00  0.00     0.031 A 
ATOM     39  C   UNL     1      -4.341   8.906  -3.467  1.00  0.00     0.074 A 
ATOM     40  C   UNL     1      -2.319   7.987  -4.550  1.00  0.00     0.049 A 
ATOM     41  N   UNL     1      -4.289  10.160  -3.832  1.00  0.00    -0.248 NA
ATOM     42  C   UNL     1      -5.439   8.589  -2.538  1.00  0.00     0.031 C 
ATOM     43  C   UNL     1      -1.341   6.965  -4.926  1.00  0.00     0.029 A 
ATOM     44  N   UNL     1      -1.810   9.149  -5.068  1.00  0.00    -0.354 N 
ATOM     45  C   UNL     1      -5.366  10.776  -3.208  1.00  0.00     0.074 A 
ATOM     46  C   UNL     1      -6.056   9.758  -2.444  1.00  0.00     0.031 C 
ATOM     47  C   UNL     1      -0.354   7.546  -5.628  1.00  0.00     0.029 A 
ATOM     48  C   UNL     1      -0.663   8.962  -5.799  1.00  0.00     0.049 A 
ATOM     49  H   UNL     1      -2.226  10.031  -4.931  1.00  0.00     0.167 HD
ATOM     50  C   UNL     1      -5.748  12.072  -3.278  1.00  0.00     0.031 A 
ATOM     51  C   UNL     1       0.033   9.829  -6.558  1.00  0.00     0.031 A 
ATOM     52  C   UNL     1      -5.056  13.075  -4.041  1.00  0.00     0.049 A 
ATOM     53  C   UNL     1      -0.455  11.245  -6.683  1.00  0.00     0.074 A 
ATOM     54  C   UNL     1      -5.363  14.416  -4.188  1.00  0.00     0.029 A 
ATOM     55  N   UNL     1      -3.910  12.841  -4.786  1.00  0.00    -0.354 N 
ATOM     56  N   UNL     1      -1.495  11.813  -6.122  1.00  0.00    -0.248 NA
ATOM     57  C   UNL     1       0.324  12.137  -7.553  1.00  0.00     0.031 C 
ATOM     58  C   UNL     1      -4.423  14.985  -5.054  1.00  0.00     0.029 A 
ATOM     59  C   UNL     1      -3.504  14.009  -5.406  1.00  0.00     0.049 A 
ATOM     60  H   UNL     1      -3.453  11.972  -4.862  1.00  0.00     0.167 HD
ATOM     61  C   UNL     1      -1.481  13.134  -6.548  1.00  0.00     0.074 A 
ATOM     62  C   UNL     1      -0.326  13.284  -7.410  1.00  0.00     0.031 C 
ATOM     63  C   UNL     1      -2.345  14.135  -6.250  1.00  0.00     0.031 A 
BRANCH  50  64
ATOM     64  C   UNL     1      -7.000  12.460  -2.546  1.00  0.00    -0.014 A 
ATOM     65  C   UNL     1      -7.029  12.564  -1.147  1.00  0.00     0.009 A 
ATOM     66  C   UNL     1      -8.168  12.741  -3.273  1.00  0.00     0.009 A 
ATOM     67  C   UNL     1      -8.212  12.908  -0.489  1.00  0.00     0.001 A 
ATOM     68  C   UNL     1      -9.342  13.109  -2.614  1.00  0.00     0.001 A 
ATOM     69  C   UNL     1      -9.366  13.183  -1.222  1.00  0.00     0.000 A 
ENDBRANCH  50  64
BRANCH  51  70
ATOM     70  C   UNL     1       1.239   9.368  -7.290  1.00  0.00    -0.014 A 
ATOM     71  C   UNL     1       2.517   9.786  -6.890  1.00  0.00     0.009 A 
ATOM     72  C   UNL     1       1.119   8.502  -8.389  1.00  0.00     0.009 A 
ATOM     73  C   UNL     1       3.650   9.358  -7.587  1.00  0.00     0.001 A 
ATOM     74  C   UNL     1       2.255   8.056  -9.067  1.00  0.00     0.001 A 
ATOM     75  C   UNL     1       3.518   8.490  -8.670  1.00  0.00     0.000 A 
ENDBRANCH  51  70
BRANCH  63  76
ATOM     76  C   UNL     1      -2.043  15.491  -6.817  1.00  0.00    -0.014 A 
ATOM     77  C   UNL     1      -2.291  15.790  -8.164  1.00  0.00     0.009 A 
ATOM     78  C   UNL     1      -1.551  16.498  -5.971  1.00  0.00     0.009 A 
ATOM     79  C   UNL     1      -2.029  17.069  -8.660  1.00  0.00     0.001 A 
ATOM     80  C   UNL     1      -1.312  17.780  -6.464  1.00  0.00     0.001 A 
ATOM     81  C   UNL     1      -1.545  18.063  -7.809  1.00  0.00     0.000 A 
ENDBRANCH  63  76
ENDBRANCH  37  38
ENDBRANCH  30  32
ENDBRANCH  29  30
ENDBRANCH  28  29
ENDBRANCH  27  28
ENDBRANCH   1  27
TORSDOF 16
