REMARK SMILES Cc1cccc(CN(C)c2ccc(C(=O)OCCOC(=O)c3ccc(-c4c5nc(c(-c6ccccc6)c6ccc([nH]6)c(-c6ccccc6)c6nc(c(-c7ccccc7)c7ccc4[nH]7)C=C6)C=C5)cc3)cc2C)n1
REMARK SMILES IDX 17 1 16 2 14 3 15 4 13 5 10 6 11 7 71 8 12 9 70 10 72 11
REMARK SMILES IDX 8 12 9 13 7 14 6 15 1 16 2 17 3 18 73 19 4 20 5 21 18 22
REMARK SMILES IDX 19 23 20 24 21 25 22 26 23 27 69 28 24 29 68 30 25 31 26 32
REMARK SMILES IDX 27 33 62 34 28 35 67 36 61 37 63 38 29 39 66 40 60 41 59 42
REMARK SMILES IDX 30 44 52 45 37 46 51 47 38 48 41 49 50 50 64 51 39 52 40 53
REMARK SMILES IDX 49 55 65 56 42 57 31 58 32 59 36 60 33 61 35 62 34 63 53 64
REMARK SMILES IDX 54 65 58 66 55 67 57 68 56 69 43 70 44 71 48 72 45 73 47 74
REMARK SMILES IDX 46 75
REMARK H PARENT 63 43 41 54
REMARK Flexibility Score: inf
ROOT
ATOM      1  C   UNL     1      -1.401  -0.725   8.866  1.00  0.00     0.275 C 
ENDROOT
BRANCH   1   2
ATOM      2  O   UNL     1      -1.729  -0.626   7.483  1.00  0.00    -0.458 OA
BRANCH   2   3
ATOM      3  C   UNL     1      -1.914   0.748   6.938  1.00  0.00     0.338 C 
ATOM      4  O   UNL     1      -2.219   1.341   8.018  1.00  0.00    -0.246 OA
BRANCH   3   5
ATOM      5  C   UNL     1      -1.651   1.421   4.920  1.00  0.00     0.060 A 
ATOM      6  C   UNL     1      -1.200   2.710   2.005  1.00  0.00     0.040 A 
ATOM      7  C   UNL     1      -0.829   1.424   2.406  1.00  0.00     0.027 A 
ATOM      8  C   UNL     1      -1.830   3.430   2.985  1.00  0.00    -0.027 A 
ATOM      9  C   UNL     1      -1.054   0.822   3.701  1.00  0.00     0.018 A 
ATOM     10  C   UNL     1      -2.022   2.817   4.273  1.00  0.00     0.021 A 
ATOM     11  C   UNL     1      -2.265   4.868   2.835  1.00  0.00     0.046 C 
BRANCH   6  12
ATOM     12  N   UNL     1      -0.940   3.195   0.738  1.00  0.00    -0.368 N 
ATOM     13  C   UNL     1      -0.101   4.371   0.554  1.00  0.00     0.144 C 
BRANCH  12  14
ATOM     14  C   UNL     1      -1.476   2.527  -0.465  1.00  0.00     0.172 C 
BRANCH  14  15
ATOM     15  C   UNL     1      -0.909   1.130  -0.659  1.00  0.00     0.060 A 
ATOM     16  C   UNL     1       2.474  -0.209  -0.237  1.00  0.00     0.067 C 
ATOM     17  C   UNL     1       0.995  -0.196  -0.475  1.00  0.00     0.038 A 
ATOM     18  C   UNL     1       0.223  -1.335  -0.275  1.00  0.00     0.023 A 
ATOM     19  N   UNL     1       0.447   1.018  -0.709  1.00  0.00    -0.256 NA
ATOM     20  C   UNL     1      -1.165  -1.226  -0.328  1.00  0.00     0.004 A 
ATOM     21  C   UNL     1      -1.745   0.023  -0.515  1.00  0.00     0.026 A 
ENDBRANCH  14  15
ENDBRANCH  12  14
ENDBRANCH   6  12
ENDBRANCH   3   5
ENDBRANCH   2   3
ENDBRANCH   1   2
BRANCH   1  22
ATOM     22  C   UNL     1       0.048  -0.278   9.096  1.00  0.00     0.275 C 
BRANCH  22  23
ATOM     23  O   UNL     1       0.522   1.086   8.782  1.00  0.00    -0.458 OA
BRANCH  23  24
ATOM     24  C   UNL     1       0.779   1.798   7.648  1.00  0.00     0.338 C 
ATOM     25  O   UNL     1       1.570   2.732   7.620  1.00  0.00    -0.246 OA
BRANCH  24  26
ATOM     26  C   UNL     1      -0.132   1.638   6.499  1.00  0.00     0.060 A 
ATOM     27  C   UNL     1      -1.569   2.743   6.595  1.00  0.00     0.016 A 
ATOM     28  C   UNL     1      -0.313  -0.035   5.873  1.00  0.00     0.016 A 
ATOM     29  C   UNL     1      -3.254   2.078   6.168  1.00  0.00     0.010 A 
ATOM     30  C   UNL     1      -1.972  -0.663   5.410  1.00  0.00     0.010 A 
ATOM     31  C   UNL     1      -3.439   0.381   5.637  1.00  0.00    -0.014 A 
BRANCH  31  32
ATOM     32  C   UNL     1      -4.637  -0.389   6.025  1.00  0.00     0.031 A 
ATOM     33  C   UNL     1      -5.054  -1.349   4.989  1.00  0.00     0.074 A 
ATOM     34  C   UNL     1      -5.196  -0.354   7.279  1.00  0.00     0.049 A 
ATOM     35  N   UNL     1      -6.167  -1.971   5.012  1.00  0.00    -0.248 NA
ATOM     36  C   UNL     1      -4.277  -1.657   3.782  1.00  0.00     0.031 C 
ATOM     37  C   UNL     1      -6.162  -1.278   7.892  1.00  0.00     0.029 A 
ATOM     38  N   UNL     1      -5.078   0.630   8.277  1.00  0.00    -0.354 N 
ATOM     39  C   UNL     1      -6.156  -2.914   4.014  1.00  0.00     0.074 A 
ATOM     40  C   UNL     1      -4.975  -2.658   3.243  1.00  0.00     0.031 C 
ATOM     41  C   UNL     1      -6.740  -0.703   8.968  1.00  0.00     0.029 A 
ATOM     42  C   UNL     1      -6.251   0.661   9.084  1.00  0.00     0.049 A 
ATOM     43  H   UNL     1      -4.295   1.214   8.400  1.00  0.00     0.167 HD
ATOM     44  C   UNL     1      -7.134  -3.852   4.047  1.00  0.00     0.031 A 
ATOM     45  C   UNL     1      -7.081   1.760   9.123  1.00  0.00     0.031 A 
ATOM     46  C   UNL     1      -8.158  -3.443   5.016  1.00  0.00     0.049 A 
ATOM     47  C   UNL     1      -8.220   1.596   8.117  1.00  0.00     0.074 A 
ATOM     48  C   UNL     1      -8.412  -3.776   6.334  1.00  0.00     0.029 A 
ATOM     49  N   UNL     1      -8.762  -2.205   4.817  1.00  0.00    -0.354 N 
ATOM     50  N   UNL     1      -8.445   0.494   7.450  1.00  0.00    -0.248 NA
ATOM     51  C   UNL     1      -9.162   2.651   7.751  1.00  0.00     0.031 C 
ATOM     52  C   UNL     1      -9.125  -2.684   6.932  1.00  0.00     0.029 A 
ATOM     53  C   UNL     1      -9.350  -1.713   5.970  1.00  0.00     0.049 A 
ATOM     54  H   UNL     1      -8.770  -1.732   3.954  1.00  0.00     0.167 HD
ATOM     55  C   UNL     1      -9.524   0.633   6.630  1.00  0.00     0.074 A 
ATOM     56  C   UNL     1      -9.896   2.034   6.806  1.00  0.00     0.031 C 
ATOM     57  C   UNL     1     -10.031  -0.415   5.904  1.00  0.00     0.031 A 
BRANCH  44  58
ATOM     58  C   UNL     1      -7.066  -5.190   3.364  1.00  0.00    -0.014 A 
ATOM     59  C   UNL     1      -8.016  -6.162   3.720  1.00  0.00     0.009 A 
ATOM     60  C   UNL     1      -6.065  -5.610   2.465  1.00  0.00     0.009 A 
ATOM     61  C   UNL     1      -7.956  -7.475   3.238  1.00  0.00     0.001 A 
ATOM     62  C   UNL     1      -6.003  -6.922   1.971  1.00  0.00     0.001 A 
ATOM     63  C   UNL     1      -6.946  -7.858   2.365  1.00  0.00     0.000 A 
ENDBRANCH  44  58
BRANCH  45  64
ATOM     64  C   UNL     1      -6.391   3.072   9.457  1.00  0.00    -0.014 A 
ATOM     65  C   UNL     1      -5.952   3.261  10.795  1.00  0.00     0.009 A 
ATOM     66  C   UNL     1      -5.538   3.500   8.461  1.00  0.00     0.009 A 
ATOM     67  C   UNL     1      -4.583   3.337  11.098  1.00  0.00     0.001 A 
ATOM     68  C   UNL     1      -4.182   3.456   8.785  1.00  0.00     0.001 A 
ATOM     69  C   UNL     1      -3.688   3.267  10.063  1.00  0.00     0.000 A 
ENDBRANCH  45  64
BRANCH  57  70
ATOM     70  C   UNL     1     -11.255  -0.321   5.020  1.00  0.00    -0.014 A 
ATOM     71  C   UNL     1     -12.264   0.629   5.193  1.00  0.00     0.009 A 
ATOM     72  C   UNL     1     -11.477  -1.276   4.002  1.00  0.00     0.009 A 
ATOM     73  C   UNL     1     -13.332   0.728   4.295  1.00  0.00     0.001 A 
ATOM     74  C   UNL     1     -12.550  -1.203   3.118  1.00  0.00     0.001 A 
ATOM     75  C   UNL     1     -13.462  -0.173   3.244  1.00  0.00     0.000 A 
ENDBRANCH  57  70
ENDBRANCH  31  32
ENDBRANCH  24  26
ENDBRANCH  23  24
ENDBRANCH  22  23
ENDBRANCH   1  22
TORSDOF 14
