REMARK SMILES COc1cc2c(cc1OC)[C@H](C(=O)OCCOC(=O)c1ccc(-c3c4nc(c(-c5ccccc5)c5ccc([nH]5)c(-c5ccccc5)c5nc(c(-c6ccccc6)c6ccc3[nH]6)C=C5)C=C4)cc1)[C@@H](c1ccc(SC)cc1)N(C)C2=O
REMARK SMILES IDX 15 1 14 2 12 3 13 4 11 5 3 6 4 7 8 8 5 9 7 10 6 11 79 12
REMARK SMILES IDX 77 13 80 14 68 15 78 16 2 17 1 18 9 19 10 20 69 21 70 22
REMARK SMILES IDX 76 23 71 24 75 25 72 26 73 27 74 28 16 29 17 30 18 31 19 32
REMARK SMILES IDX 20 33 21 34 67 35 22 36 66 37 23 38 24 39 25 40 60 41 26 42
REMARK SMILES IDX 65 43 59 44 61 45 27 46 64 47 58 48 57 49 28 51 50 52 35 53
REMARK SMILES IDX 49 54 36 55 39 56 48 57 62 58 37 59 38 60 47 62 63 63 40 64
REMARK SMILES IDX 29 65 30 66 34 67 31 68 33 69 32 70 51 71 52 72 56 73 53 74
REMARK SMILES IDX 55 75 54 76 41 77 42 78 46 79 43 80 45 81 44 82
REMARK H PARENT 61 50 39 61
REMARK Flexibility Score: inf
ROOT
ATOM      1  C   UNL     1      -0.520   6.148  -6.215  1.00  0.00     0.274 C 
ENDROOT
BRANCH   1   2
ATOM      2  O   UNL     1       0.455   6.231  -5.152  1.00  0.00    -0.462 OA
BRANCH   2   3
ATOM      3  C   UNL     1       1.092   5.059  -4.878  1.00  0.00     0.316 C 
ATOM      4  O   UNL     1       0.963   4.032  -5.536  1.00  0.00    -0.251 OA
BRANCH   3   5
ATOM      5  C   UNL     1       1.880   5.117  -3.572  1.00  0.00     0.157 C 
ATOM      6  C   UNL     1       0.819   1.469  -1.442  1.00  0.00     0.161 A 
ATOM      7  C   UNL     1       2.124   1.979  -1.387  1.00  0.00     0.064 A 
ATOM      8  C   UNL     1      -0.173   2.200  -2.106  1.00  0.00     0.161 A 
ATOM      9  C   UNL     1       2.455   3.192  -2.010  1.00  0.00     0.048 A 
ATOM     10  C   UNL     1       0.169   3.420  -2.707  1.00  0.00     0.056 A 
ATOM     11  C   UNL     1       1.492   3.900  -2.727  1.00  0.00    -0.015 A 
ATOM     12  C   UNL     1       3.833   3.720  -1.858  1.00  0.00     0.254 C 
ATOM     13  N   UNL     1       4.192   4.800  -2.663  1.00  0.00    -0.333 N 
ATOM     14  O   UNL     1       4.577   3.216  -1.022  1.00  0.00    -0.269 OA
ATOM     15  C   UNL     1       3.405   5.090  -3.894  1.00  0.00     0.134 C 
ATOM     16  C   UNL     1       5.525   5.355  -2.454  1.00  0.00     0.147 C 
BRANCH   6  17
ATOM     17  O   UNL     1       0.523   0.238  -0.922  1.00  0.00    -0.493 OA
ATOM     18  C   UNL     1       1.067  -0.010   0.370  1.00  0.00     0.278 C 
ENDBRANCH   6  17
BRANCH   8  19
ATOM     19  O   UNL     1      -1.497   1.897  -2.277  1.00  0.00    -0.493 OA
ATOM     20  C   UNL     1      -1.973   0.635  -1.835  1.00  0.00     0.278 C 
ENDBRANCH   8  19
BRANCH  15  21
ATOM     21  C   UNL     1       3.962   6.272  -4.697  1.00  0.00    -0.024 A 
ATOM     22  C   UNL     1       3.409   7.556  -4.687  1.00  0.00     0.007 A 
ATOM     23  C   UNL     1       5.136   6.083  -5.453  1.00  0.00     0.007 A 
ATOM     24  C   UNL     1       3.999   8.597  -5.425  1.00  0.00     0.015 A 
ATOM     25  C   UNL     1       5.734   7.127  -6.167  1.00  0.00     0.015 A 
ATOM     26  C   UNL     1       5.173   8.400  -6.164  1.00  0.00     0.007 A 
BRANCH  26  27
ATOM     27  S   UNL     1       5.844   9.803  -7.046  1.00  0.00    -0.130 SA
ATOM     28  C   UNL     1       7.502   9.246  -7.537  1.00  0.00     0.091 C 
ENDBRANCH  26  27
ENDBRANCH  15  21
ENDBRANCH   3   5
ENDBRANCH   2   3
ENDBRANCH   1   2
BRANCH   1  29
ATOM     29  C   UNL     1       0.087   6.471  -7.580  1.00  0.00     0.275 C 
BRANCH  29  30
ATOM     30  O   UNL     1       1.175   5.575  -7.852  1.00  0.00    -0.458 OA
BRANCH  30  31
ATOM     31  C   UNL     1       2.238   6.111  -8.493  1.00  0.00     0.338 C 
ATOM     32  O   UNL     1       2.312   7.237  -8.955  1.00  0.00    -0.246 OA
BRANCH  31  33
ATOM     33  C   UNL     1       3.345   5.125  -8.570  1.00  0.00     0.060 A 
ATOM     34  C   UNL     1       3.506   4.119  -7.616  1.00  0.00     0.016 A 
ATOM     35  C   UNL     1       4.295   5.258  -9.582  1.00  0.00     0.016 A 
ATOM     36  C   UNL     1       4.646   3.315  -7.611  1.00  0.00     0.010 A 
ATOM     37  C   UNL     1       5.389   4.387  -9.636  1.00  0.00     0.010 A 
ATOM     38  C   UNL     1       5.596   3.427  -8.631  1.00  0.00    -0.014 A 
BRANCH  38  39
ATOM     39  C   UNL     1       6.811   2.566  -8.645  1.00  0.00     0.031 A 
ATOM     40  C   UNL     1       8.182   3.188  -8.666  1.00  0.00     0.074 A 
ATOM     41  C   UNL     1       6.698   1.222  -8.646  1.00  0.00     0.049 A 
ATOM     42  N   UNL     1       9.345   2.630  -8.891  1.00  0.00    -0.248 NA
ATOM     43  C   UNL     1       8.256   4.635  -8.406  1.00  0.00     0.031 C 
ATOM     44  C   UNL     1       5.445   0.469  -8.563  1.00  0.00     0.029 A 
ATOM     45  N   UNL     1       7.663   0.249  -8.727  1.00  0.00    -0.354 N 
ATOM     46  C   UNL     1      10.276   3.662  -8.851  1.00  0.00     0.074 A 
ATOM     47  C   UNL     1       9.547   4.880  -8.571  1.00  0.00     0.031 C 
ATOM     48  C   UNL     1       5.718  -0.844  -8.567  1.00  0.00     0.029 A 
ATOM     49  C   UNL     1       7.152  -1.026  -8.754  1.00  0.00     0.049 A 
ATOM     50  H   UNL     1       8.627   0.445  -8.762  1.00  0.00     0.167 HD
ATOM     51  C   UNL     1      11.614   3.602  -9.047  1.00  0.00     0.031 A 
ATOM     52  C   UNL     1       7.754  -2.211  -8.966  1.00  0.00     0.031 A 
ATOM     53  C   UNL     1      12.342   2.391  -9.312  1.00  0.00     0.049 A 
ATOM     54  C   UNL     1       9.225  -2.246  -9.256  1.00  0.00     0.074 A 
ATOM     55  C   UNL     1      13.699   2.230  -9.535  1.00  0.00     0.029 A 
ATOM     56  N   UNL     1      11.772   1.131  -9.381  1.00  0.00    -0.354 N 
ATOM     57  N   UNL     1      10.082  -1.256  -9.290  1.00  0.00    -0.248 NA
ATOM     58  C   UNL     1       9.804  -3.561  -9.566  1.00  0.00     0.031 C 
ATOM     59  C   UNL     1      13.944   0.873  -9.777  1.00  0.00     0.029 A 
ATOM     60  C   UNL     1      12.745   0.188  -9.662  1.00  0.00     0.049 A 
ATOM     61  H   UNL     1      10.816   0.935  -9.249  1.00  0.00     0.167 HD
ATOM     62  C   UNL     1      11.303  -1.826  -9.622  1.00  0.00     0.074 A 
ATOM     63  C   UNL     1      11.079  -3.251  -9.758  1.00  0.00     0.031 C 
ATOM     64  C   UNL     1      12.501  -1.222  -9.805  1.00  0.00     0.031 A 
BRANCH  51  65
ATOM     65  C   UNL     1      12.372   4.898  -9.037  1.00  0.00    -0.014 A 
ATOM     66  C   UNL     1      12.675   5.562  -7.839  1.00  0.00     0.009 A 
ATOM     67  C   UNL     1      12.821   5.444 -10.251  1.00  0.00     0.009 A 
ATOM     68  C   UNL     1      13.392   6.761  -7.860  1.00  0.00     0.001 A 
ATOM     69  C   UNL     1      13.555   6.630 -10.267  1.00  0.00     0.001 A 
ATOM     70  C   UNL     1      13.834   7.292  -9.073  1.00  0.00     0.000 A 
ENDBRANCH  51  65
BRANCH  52  71
ATOM     71  C   UNL     1       6.941  -3.453  -8.990  1.00  0.00    -0.014 A 
ATOM     72  C   UNL     1       7.036  -4.389  -7.950  1.00  0.00     0.009 A 
ATOM     73  C   UNL     1       6.046  -3.696 -10.046  1.00  0.00     0.009 A 
ATOM     74  C   UNL     1       6.255  -5.546  -7.971  1.00  0.00     0.001 A 
ATOM     75  C   UNL     1       5.247  -4.840 -10.049  1.00  0.00     0.001 A 
ATOM     76  C   UNL     1       5.356  -5.766  -9.014  1.00  0.00     0.000 A 
ENDBRANCH  52  71
BRANCH  64  77
ATOM     77  C   UNL     1      13.659  -2.107 -10.155  1.00  0.00    -0.014 A 
ATOM     78  C   UNL     1      13.810  -2.619 -11.453  1.00  0.00     0.009 A 
ATOM     79  C   UNL     1      14.622  -2.413  -9.182  1.00  0.00     0.009 A 
ATOM     80  C   UNL     1      14.891  -3.446 -11.761  1.00  0.00     0.001 A 
ATOM     81  C   UNL     1      15.713  -3.223  -9.499  1.00  0.00     0.001 A 
ATOM     82  C   UNL     1      15.842  -3.745 -10.786  1.00  0.00     0.000 A 
ENDBRANCH  64  77
ENDBRANCH  38  39
ENDBRANCH  31  33
ENDBRANCH  30  31
ENDBRANCH  29  30
ENDBRANCH   1  29
TORSDOF 15
