REMARK SMILES CCCCCCNC(=O)Oc1cccc(-c2ccc([C@@H](C)C(=O)OCCOC(=O)c3ccc(-c4c5nc(c(-c6ccccc6)c6ccc([nH]6)c(-c6ccccc6)c6nc(c(-c7ccccc7)c7ccc4[nH]7)C=C6)C=C5)cc3)cc2C(F)(F)F)c1
REMARK SMILES IDX 20 1 21 2 19 3 16 4 17 5 79 6 18 7 78 8 15 9 11 10 12 11
REMARK SMILES IDX 84 12 13 13 14 14 10 15 8 16 7 17 9 19 6 20 5 21 4 22 3 23
REMARK SMILES IDX 2 24 1 25 80 26 81 27 82 28 83 29 22 30 23 31 24 32 25 33
REMARK SMILES IDX 26 34 27 35 28 36 29 37 30 38 31 39 77 40 32 41 76 42 33 43
REMARK SMILES IDX 34 44 35 45 70 46 36 47 75 48 69 49 71 50 37 51 74 52 68 53
REMARK SMILES IDX 67 54 38 56 60 57 45 58 59 59 46 60 49 61 58 62 72 63 47 64
REMARK SMILES IDX 48 65 57 67 73 68 50 69 39 70 40 71 44 72 41 73 43 74 42 75
REMARK SMILES IDX 61 76 62 77 66 78 63 79 65 80 64 81 51 82 52 83 56 84 53 85
REMARK SMILES IDX 55 86 54 87
REMARK H PARENT 7 18 71 55 49 66
REMARK Flexibility Score: inf
ROOT
ATOM      1  C   UNL     1      -5.402 -13.692   1.682  1.00  0.00     0.126 C 
ATOM      2  C   UNL     1      -6.736 -14.400   1.454  1.00  0.00     0.025 C 
ENDROOT
BRANCH   1   3
ATOM      3  C   UNL     1      -5.271 -12.420   0.857  1.00  0.00    -0.033 A 
ATOM      4  C   UNL     1      -5.104  -9.981  -0.619  1.00  0.00    -0.006 A 
ATOM      5  C   UNL     1      -5.266 -11.229  -1.256  1.00  0.00     0.009 A 
ATOM      6  C   UNL     1      -5.006  -9.964   0.788  1.00  0.00     0.064 A 
ATOM      7  C   UNL     1      -5.358 -12.423  -0.535  1.00  0.00     0.005 A 
ATOM      8  C   UNL     1      -5.083 -11.185   1.498  1.00  0.00     0.018 A 
BRANCH   4   9
ATOM      9  C   UNL     1      -5.125  -8.764  -1.452  1.00  0.00    -0.014 A 
ATOM     10  C   UNL     1      -4.175  -6.672  -2.220  1.00  0.00     0.133 A 
ATOM     11  C   UNL     1      -5.311  -6.400  -2.981  1.00  0.00     0.047 A 
ATOM     12  C   UNL     1      -4.065  -7.844  -1.468  1.00  0.00     0.056 A 
ATOM     13  C   UNL     1      -6.353  -7.319  -3.001  1.00  0.00     0.004 A 
ATOM     14  C   UNL     1      -6.263  -8.483  -2.237  1.00  0.00     0.009 A 
BRANCH  10  15
ATOM     15  O   UNL     1      -3.236  -5.629  -2.123  1.00  0.00    -0.410 OA
BRANCH  15  16
ATOM     16  C   UNL     1      -1.883  -5.895  -2.256  1.00  0.00     0.412 C 
ATOM     17  N   UNL     1      -1.102  -4.793  -2.028  1.00  0.00    -0.321 N 
ATOM     18  H   UNL     1      -0.130  -4.915  -2.120  1.00  0.00     0.167 HD
ATOM     19  O   UNL     1      -1.386  -6.972  -2.560  1.00  0.00    -0.224 OA
BRANCH  17  20
ATOM     20  C   UNL     1      -1.559  -3.466  -1.664  1.00  0.00     0.119 C 
BRANCH  20  21
ATOM     21  C   UNL     1      -0.980  -3.003  -0.326  1.00  0.00     0.021 C 
BRANCH  21  22
ATOM     22  C   UNL     1       0.546  -2.860  -0.297  1.00  0.00     0.002 C 
BRANCH  22  23
ATOM     23  C   UNL     1       1.140  -1.891  -1.326  1.00  0.00    -0.000 C 
BRANCH  23  24
ATOM     24  C   UNL     1       0.650  -0.445  -1.227  1.00  0.00    -0.003 C 
ATOM     25  C   UNL     1       1.022   0.228   0.085  1.00  0.00     0.004 C 
ENDBRANCH  23  24
ENDBRANCH  22  23
ENDBRANCH  21  22
ENDBRANCH  20  21
ENDBRANCH  17  20
ENDBRANCH  15  16
ENDBRANCH  10  15
ENDBRANCH   4   9
BRANCH   6  26
ATOM     26  C   UNL     1      -4.807  -8.700   1.598  1.00  0.00     0.417 C 
ATOM     27  F   UNL     1      -5.317  -8.809   2.863  1.00  0.00    -0.166 F 
ATOM     28  F   UNL     1      -3.490  -8.393   1.771  1.00  0.00    -0.166 F 
ATOM     29  F   UNL     1      -5.394  -7.584   1.087  1.00  0.00    -0.166 F 
ENDBRANCH   6  26
ENDBRANCH   1   3
BRANCH   1  30
ATOM     30  C   UNL     1      -4.254 -14.688   1.573  1.00  0.00     0.313 C 
ATOM     31  O   UNL     1      -3.930 -15.408   2.512  1.00  0.00    -0.252 OA
BRANCH  30  32
ATOM     32  O   UNL     1      -3.673 -14.723   0.346  1.00  0.00    -0.462 OA
BRANCH  32  33
ATOM     33  C   UNL     1      -2.549 -15.611   0.185  1.00  0.00     0.274 C 
BRANCH  33  34
ATOM     34  C   UNL     1      -1.220 -14.856   0.278  1.00  0.00     0.275 C 
BRANCH  34  35
ATOM     35  O   UNL     1      -0.973 -14.388   1.617  1.00  0.00    -0.458 OA
BRANCH  35  36
ATOM     36  C   UNL     1      -1.343 -13.108   1.848  1.00  0.00     0.338 C 
ATOM     37  O   UNL     1      -1.808 -12.314   1.049  1.00  0.00    -0.246 OA
BRANCH  36  38
ATOM     38  C   UNL     1      -1.237 -12.804   3.282  1.00  0.00     0.060 A 
ATOM     39  C   UNL     1      -2.419 -12.536   3.974  1.00  0.00     0.016 A 
ATOM     40  C   UNL     1      -0.000 -12.665   3.912  1.00  0.00     0.016 A 
ATOM     41  C   UNL     1      -2.377 -12.091   5.289  1.00  0.00     0.010 A 
ATOM     42  C   UNL     1       0.043 -12.231   5.242  1.00  0.00     0.010 A 
ATOM     43  C   UNL     1      -1.144 -11.917   5.929  1.00  0.00    -0.014 A 
BRANCH  43  44
ATOM     44  C   UNL     1      -1.118 -11.339   7.294  1.00  0.00     0.031 A 
ATOM     45  C   UNL     1      -0.676  -9.917   7.497  1.00  0.00     0.074 A 
ATOM     46  C   UNL     1      -1.542 -12.071   8.341  1.00  0.00     0.049 A 
ATOM     47  N   UNL     1      -0.576  -9.236   8.611  1.00  0.00    -0.248 NA
ATOM     48  C   UNL     1      -0.293  -9.164   6.293  1.00  0.00     0.031 C 
ATOM     49  C   UNL     1      -2.030 -13.449   8.268  1.00  0.00     0.029 A 
ATOM     50  N   UNL     1      -1.636 -11.752   9.672  1.00  0.00    -0.354 N 
ATOM     51  C   UNL     1      -0.094  -7.985   8.245  1.00  0.00     0.074 A 
ATOM     52  C   UNL     1       0.090  -8.004   6.810  1.00  0.00     0.031 C 
ATOM     53  C   UNL     1      -2.381 -13.853   9.501  1.00  0.00     0.029 A 
ATOM     54  C   UNL     1      -2.107 -12.779  10.451  1.00  0.00     0.049 A 
ATOM     55  H   UNL     1      -1.389 -10.870  10.034  1.00  0.00     0.167 HD
ATOM     56  C   UNL     1       0.170  -6.917   9.034  1.00  0.00     0.031 A 
ATOM     57  C   UNL     1      -2.281 -12.854  11.784  1.00  0.00     0.031 A 
ATOM     58  C   UNL     1      -0.034  -6.887  10.458  1.00  0.00     0.049 A 
ATOM     59  C   UNL     1      -1.952 -11.662  12.638  1.00  0.00     0.074 A 
ATOM     60  C   UNL     1       0.169  -5.835  11.335  1.00  0.00     0.029 A 
ATOM     61  N   UNL     1      -0.489  -7.956  11.212  1.00  0.00    -0.354 N 
ATOM     62  N   UNL     1      -1.520 -10.479  12.275  1.00  0.00    -0.248 NA
ATOM     63  C   UNL     1      -2.138 -11.816  14.088  1.00  0.00     0.031 C 
ATOM     64  C   UNL     1      -0.119  -6.284  12.629  1.00  0.00     0.029 A 
ATOM     65  C   UNL     1      -0.546  -7.599  12.549  1.00  0.00     0.049 A 
ATOM     66  H   UNL     1      -0.735  -8.838  10.851  1.00  0.00     0.167 HD
ATOM     67  C   UNL     1      -1.398  -9.744  13.447  1.00  0.00     0.074 A 
ATOM     68  C   UNL     1      -1.823 -10.607  14.530  1.00  0.00     0.031 C 
ATOM     69  C   UNL     1      -0.968  -8.470  13.613  1.00  0.00     0.031 A 
BRANCH  56  70
ATOM     70  C   UNL     1       0.748  -5.696   8.378  1.00  0.00    -0.014 A 
ATOM     71  C   UNL     1      -0.044  -4.839   7.599  1.00  0.00     0.009 A 
ATOM     72  C   UNL     1       2.098  -5.375   8.586  1.00  0.00     0.009 A 
ATOM     73  C   UNL     1       0.514  -3.697   7.019  1.00  0.00     0.001 A 
ATOM     74  C   UNL     1       2.648  -4.221   8.025  1.00  0.00     0.001 A 
ATOM     75  C   UNL     1       1.857  -3.387   7.237  1.00  0.00     0.000 A 
ENDBRANCH  56  70
BRANCH  57  76
ATOM     76  C   UNL     1      -2.760 -14.117  12.403  1.00  0.00    -0.014 A 
ATOM     77  C   UNL     1      -4.038 -14.198  12.975  1.00  0.00     0.009 A 
ATOM     78  C   UNL     1      -1.924 -15.244  12.444  1.00  0.00     0.009 A 
ATOM     79  C   UNL     1      -4.458 -15.375  13.600  1.00  0.00     0.001 A 
ATOM     80  C   UNL     1      -2.357 -16.427  13.044  1.00  0.00     0.001 A 
ATOM     81  C   UNL     1      -3.620 -16.488  13.630  1.00  0.00     0.000 A 
ENDBRANCH  57  76
BRANCH  69  82
ATOM     82  C   UNL     1      -0.956  -7.931  15.014  1.00  0.00    -0.014 A 
ATOM     83  C   UNL     1       0.016  -8.341  15.940  1.00  0.00     0.009 A 
ATOM     84  C   UNL     1      -1.911  -6.979  15.403  1.00  0.00     0.009 A 
ATOM     85  C   UNL     1       0.010  -7.831  17.240  1.00  0.00     0.001 A 
ATOM     86  C   UNL     1      -1.899  -6.453  16.695  1.00  0.00     0.001 A 
ATOM     87  C   UNL     1      -0.944  -6.886  17.615  1.00  0.00     0.000 A 
ENDBRANCH  69  82
ENDBRANCH  43  44
ENDBRANCH  36  38
ENDBRANCH  35  36
ENDBRANCH  34  35
ENDBRANCH  33  34
ENDBRANCH  32  33
ENDBRANCH  30  32
ENDBRANCH   1  30
TORSDOF 21
