REMARK SMILES O=C(OCCOC(=O)c1c[nH]c(=O)c(-c2cccc([N+](=O)[O-])c2)c1)c1ccc(-c2c3nc(c(-c4ccccc4)c4ccc([nH]4)c(-c4ccccc4)c4nc(c(-c5ccccc5)c5ccc2[nH]5)C=C4)C=C3)cc1
REMARK SMILES IDX 4 1 3 2 2 3 1 4 25 5 26 6 72 7 27 8 71 9 28 10 29 11 30 12
REMARK SMILES IDX 65 13 31 14 70 15 64 16 66 17 32 18 69 19 63 20 62 21 33 23
REMARK SMILES IDX 55 24 40 25 54 26 41 27 44 28 53 29 67 30 42 31 43 32 52 34
REMARK SMILES IDX 68 35 45 36 34 37 35 38 39 39 36 40 38 41 37 42 56 43 57 44
REMARK SMILES IDX 61 45 58 46 60 47 59 48 46 49 47 50 51 51 48 52 50 53 49 54
REMARK SMILES IDX 5 55 6 56 7 57 8 58 9 59 10 60 24 61 11 62 14 63 12 64 13 66
REMARK SMILES IDX 15 67 16 68 23 69 17 70 19 71 18 72 20 73 21 74 22 75
REMARK H PARENT 66 22 44 33 11 65
REMARK Flexibility Score: inf
ROOT
ATOM      1  C   UNL     1       4.116   1.073  -1.288  1.00  0.00     0.275 C 
ENDROOT
BRANCH   1   2
ATOM      2  O   UNL     1       3.065   0.094  -1.178  1.00  0.00    -0.458 OA
BRANCH   2   3
ATOM      3  C   UNL     1       2.952  -0.982  -0.364  1.00  0.00     0.338 C 
ATOM      4  O   UNL     1       2.061  -1.801  -0.584  1.00  0.00    -0.246 OA
BRANCH   3   5
ATOM      5  C   UNL     1       3.750  -1.157   0.889  1.00  0.00     0.060 A 
ATOM      6  C   UNL     1       5.079  -0.770   1.069  1.00  0.00     0.016 A 
ATOM      7  C   UNL     1       3.101  -1.804   1.959  1.00  0.00     0.016 A 
ATOM      8  C   UNL     1       5.724  -0.969   2.293  1.00  0.00     0.010 A 
ATOM      9  C   UNL     1       3.737  -2.000   3.188  1.00  0.00     0.010 A 
ATOM     10  C   UNL     1       5.064  -1.593   3.355  1.00  0.00    -0.014 A 
BRANCH  10  11
ATOM     11  C   UNL     1       5.840  -1.987   4.552  1.00  0.00     0.031 A 
ATOM     12  C   UNL     1       6.304  -3.414   4.655  1.00  0.00     0.074 A 
ATOM     13  C   UNL     1       6.211  -1.073   5.468  1.00  0.00     0.049 A 
ATOM     14  N   UNL     1       7.070  -3.970   5.557  1.00  0.00    -0.248 NA
ATOM     15  C   UNL     1       5.889  -4.326   3.574  1.00  0.00     0.031 C 
ATOM     16  C   UNL     1       5.898   0.357   5.424  1.00  0.00     0.029 A 
ATOM     17  N   UNL     1       6.929  -1.215   6.628  1.00  0.00    -0.354 N 
ATOM     18  C   UNL     1       7.278  -5.271   5.118  1.00  0.00     0.074 A 
ATOM     19  C   UNL     1       6.496  -5.451   3.917  1.00  0.00     0.031 C 
ATOM     20  C   UNL     1       6.374   0.948   6.535  1.00  0.00     0.029 A 
ATOM     21  C   UNL     1       7.030  -0.057   7.362  1.00  0.00     0.049 A 
ATOM     22  H   UNL     1       7.334  -2.067   6.908  1.00  0.00     0.167 HD
ATOM     23  C   UNL     1       8.088  -6.219   5.644  1.00  0.00     0.031 A 
ATOM     24  C   UNL     1       7.570   0.145   8.578  1.00  0.00     0.031 A 
ATOM     25  C   UNL     1       8.810  -6.056   6.874  1.00  0.00     0.049 A 
ATOM     26  C   UNL     1       8.268  -0.998   9.256  1.00  0.00     0.074 A 
ATOM     27  C   UNL     1       9.657  -6.946   7.509  1.00  0.00     0.029 A 
ATOM     28  N   UNL     1       8.742  -4.924   7.672  1.00  0.00    -0.354 N 
ATOM     29  N   UNL     1       8.431  -2.230   8.842  1.00  0.00    -0.248 NA
ATOM     30  C   UNL     1       8.894  -0.701  10.552  1.00  0.00     0.031 C 
ATOM     31  C   UNL     1      10.069  -6.366   8.714  1.00  0.00     0.029 A 
ATOM     32  C   UNL     1       9.521  -5.096   8.801  1.00  0.00     0.049 A 
ATOM     33  H   UNL     1       8.217  -4.117   7.465  1.00  0.00     0.167 HD
ATOM     34  C   UNL     1       9.200  -2.852   9.814  1.00  0.00     0.074 A 
ATOM     35  C   UNL     1       9.452  -1.866  10.847  1.00  0.00     0.031 C 
ATOM     36  C   UNL     1       9.696  -4.113   9.835  1.00  0.00     0.031 A 
BRANCH  23  37
ATOM     37  C   UNL     1       8.233  -7.498   4.871  1.00  0.00    -0.014 A 
ATOM     38  C   UNL     1       8.949  -7.523   3.661  1.00  0.00     0.009 A 
ATOM     39  C   UNL     1       7.664  -8.687   5.348  1.00  0.00     0.009 A 
ATOM     40  C   UNL     1       9.065  -8.706   2.929  1.00  0.00     0.001 A 
ATOM     41  C   UNL     1       7.800  -9.874   4.624  1.00  0.00     0.001 A 
ATOM     42  C   UNL     1       8.492  -9.881   3.413  1.00  0.00     0.000 A 
ENDBRANCH  23  37
BRANCH  24  43
ATOM     43  C   UNL     1       7.460   1.454   9.272  1.00  0.00    -0.014 A 
ATOM     44  C   UNL     1       8.303   2.527   8.961  1.00  0.00     0.009 A 
ATOM     45  C   UNL     1       6.543   1.598  10.325  1.00  0.00     0.009 A 
ATOM     46  C   UNL     1       8.218   3.722   9.684  1.00  0.00     0.001 A 
ATOM     47  C   UNL     1       6.451   2.794  11.038  1.00  0.00     0.001 A 
ATOM     48  C   UNL     1       7.290   3.857  10.717  1.00  0.00     0.000 A 
ENDBRANCH  24  43
BRANCH  36  49
ATOM     49  C   UNL     1      10.578  -4.457  10.996  1.00  0.00    -0.014 A 
ATOM     50  C   UNL     1      10.045  -4.710  12.268  1.00  0.00     0.009 A 
ATOM     51  C   UNL     1      11.968  -4.505  10.808  1.00  0.00     0.009 A 
ATOM     52  C   UNL     1      10.896  -4.968  13.343  1.00  0.00     0.001 A 
ATOM     53  C   UNL     1      12.813  -4.789  11.879  1.00  0.00     0.001 A 
ATOM     54  C   UNL     1      12.277  -5.008  13.147  1.00  0.00     0.000 A 
ENDBRANCH  36  49
ENDBRANCH  10  11
ENDBRANCH   3   5
ENDBRANCH   2   3
ENDBRANCH   1   2
BRANCH   1  55
ATOM     55  C   UNL     1       3.987   2.270  -0.341  1.00  0.00     0.275 C 
BRANCH  55  56
ATOM     56  O   UNL     1       3.482   1.911   0.951  1.00  0.00    -0.458 OA
BRANCH  56  57
ATOM     57  C   UNL     1       2.132   2.018   1.078  1.00  0.00     0.339 C 
ATOM     58  O   UNL     1       1.365   2.487   0.251  1.00  0.00    -0.246 OA
BRANCH  57  59
ATOM     59  C   UNL     1       1.693   1.349   2.324  1.00  0.00     0.077 A 
ATOM     60  C   UNL     1       0.647   0.516   2.216  1.00  0.00     0.101 A 
ATOM     61  C   UNL     1       2.344   1.527   3.608  1.00  0.00     0.031 A 
ATOM     62  N   UNL     1       0.219  -0.196   3.306  1.00  0.00    -0.328 N 
ATOM     63  C   UNL     1       1.921   0.873   4.712  1.00  0.00     0.048 A 
ATOM     64  C   UNL     1       0.780  -0.107   4.557  1.00  0.00     0.255 A 
ATOM     65  H   UNL     1      -0.541  -0.810   3.184  1.00  0.00     0.169 HD
ATOM     66  O   UNL     1       0.362  -0.795   5.483  1.00  0.00    -0.269 OA
BRANCH  63  67
ATOM     67  C   UNL     1       2.522   1.124   6.040  1.00  0.00    -0.006 A 
ATOM     68  C   UNL     1       2.740   2.440   6.488  1.00  0.00     0.009 A 
ATOM     69  C   UNL     1       2.822   0.060   6.905  1.00  0.00     0.094 A 
ATOM     70  C   UNL     1       3.216   2.694   7.776  1.00  0.00     0.008 A 
ATOM     71  C   UNL     1       3.295   0.320   8.198  1.00  0.00     0.270 A 
ATOM     72  C   UNL     1       3.473   1.635   8.642  1.00  0.00     0.085 A 
BRANCH  71  73
ATOM     73  N   UNL     1       3.601  -0.797   9.095  1.00  0.00     0.062 N 
ATOM     74  O   UNL     1       3.707  -0.545  10.306  1.00  0.00    -0.258 OA
ATOM     75  O   UNL     1       3.735  -1.923   8.597  1.00  0.00    -0.258 OA
ENDBRANCH  71  73
ENDBRANCH  63  67
ENDBRANCH  57  59
ENDBRANCH  56  57
ENDBRANCH  55  56
ENDBRANCH   1  55
TORSDOF 13
