REMARK SMILES Cc1ccc(-c2c(C)sc(NC(=O)[C@H]3CC=CC[C@H]3C(=O)OCCOC(=O)c3ccc(-c4c5nc(c(-c6ccccc6)c6ccc([nH]6)c(-c6ccccc6)c6nc(c(-c7ccccc7)c7ccc4[nH]7)C=C6)C=C5)cc3)c2C(N)=O)cc1
REMARK SMILES IDX 23 1 22 2 20 3 21 4 19 5 14 6 15 7 16 8 18 9 17 10 12 11
REMARK SMILES IDX 11 12 13 14 10 15 6 16 7 17 76 18 8 19 9 20 5 21 1 22 2 23
REMARK SMILES IDX 3 24 81 25 4 26 80 27 77 28 78 29 79 30 24 33 25 34 26 35
REMARK SMILES IDX 27 36 28 37 29 38 75 39 30 40 74 41 31 42 32 43 33 44 68 45
REMARK SMILES IDX 34 46 73 47 67 48 69 49 35 50 72 51 66 52 65 53 36 55 58 56
REMARK SMILES IDX 43 57 57 58 44 59 47 60 56 61 70 62 45 63 46 64 55 66 71 67
REMARK SMILES IDX 48 68 37 69 38 70 42 71 39 72 41 73 40 74 59 75 60 76 64 77
REMARK SMILES IDX 61 78 63 79 62 80 49 81 50 82 54 83 51 84 53 85 52 86
REMARK H PARENT 11 13 78 31 78 32 69 54 47 65
REMARK Flexibility Score: inf
ROOT
ATOM      1  C   UNL     1     -10.777  -3.498   1.645  1.00  0.00     0.274 C 
ENDROOT
BRANCH   1   2
ATOM      2  O   UNL     1      -9.550  -2.808   1.552  1.00  0.00    -0.462 OA
BRANCH   2   3
ATOM      3  C   UNL     1      -8.795  -3.245   0.501  1.00  0.00     0.310 C 
ATOM      4  O   UNL     1      -8.413  -4.400   0.423  1.00  0.00    -0.252 OA
BRANCH   3   5
ATOM      5  C   UNL     1      -8.895  -2.026  -0.592  1.00  0.00     0.116 C 
ATOM      6  C   UNL     1      -8.168  -0.486   0.425  1.00  0.00     0.097 C 
ATOM      7  C   UNL     1      -7.634   0.967  -0.525  1.00  0.00     0.041 C 
ATOM      8  C   UNL     1      -7.188   0.887  -2.234  1.00  0.00    -0.030 C 
ATOM      9  C   UNL     1      -8.599  -1.724  -2.782  1.00  0.00     0.043 C 
ATOM     10  C   UNL     1      -7.573  -0.112  -3.193  1.00  0.00    -0.030 C 
BRANCH   6  11
ATOM     11  C   UNL     1      -7.450  -0.700   1.774  1.00  0.00     0.229 C 
ATOM     12  N   UNL     1      -6.123  -0.702   2.060  1.00  0.00    -0.317 N 
ATOM     13  H   UNL     1      -5.934  -1.016   2.974  1.00  0.00     0.170 HD
ATOM     14  O   UNL     1      -8.152  -0.929   2.774  1.00  0.00    -0.274 OA
BRANCH  12  15
ATOM     15  C   UNL     1      -4.981  -0.367   1.371  1.00  0.00     0.109 A 
ATOM     16  C   UNL     1      -2.856  -0.117   0.454  1.00  0.00     0.010 A 
ATOM     17  C   UNL     1      -3.632   0.715  -0.338  1.00  0.00     0.012 A 
ATOM     18  C   UNL     1      -3.649  -0.756   1.522  1.00  0.00     0.082 A 
ATOM     19  C   UNL     1      -3.402   1.404  -1.641  1.00  0.00     0.057 C 
ATOM     20  S   UNL     1      -4.918   1.170   0.652  1.00  0.00    -0.122 S 
BRANCH  16  21
ATOM     21  C   UNL     1      -1.421  -0.130   0.243  1.00  0.00    -0.016 A 
ATOM     22  C   UNL     1       2.850  -0.050  -0.091  1.00  0.00     0.044 C 
ATOM     23  C   UNL     1       1.355  -0.063  -0.034  1.00  0.00    -0.051 A 
ATOM     24  C   UNL     1       0.659  -1.279  -0.113  1.00  0.00     0.004 A 
ATOM     25  C   UNL     1       0.650   1.127   0.152  1.00  0.00     0.004 A 
ATOM     26  C   UNL     1      -0.729  -1.312   0.009  1.00  0.00     0.009 A 
ATOM     27  C   UNL     1      -0.729   1.090   0.306  1.00  0.00     0.009 A 
ENDBRANCH  16  21
BRANCH  18  28
ATOM     28  C   UNL     1      -3.103  -1.632   2.561  1.00  0.00     0.252 C 
ATOM     29  N   UNL     1      -3.965  -2.258   3.417  1.00  0.00    -0.365 N 
ATOM     30  O   UNL     1      -1.903  -1.839   2.720  1.00  0.00    -0.269 OA
ATOM     31  H   UNL     1      -4.936  -2.120   3.325  1.00  0.00     0.159 HD
ATOM     32  H   UNL     1      -3.616  -2.847   4.124  1.00  0.00     0.159 HD
ENDBRANCH  18  28
ENDBRANCH  12  15
ENDBRANCH   6  11
ENDBRANCH   3   5
ENDBRANCH   2   3
ENDBRANCH   1   2
BRANCH   1  33
ATOM     33  C   UNL     1     -11.976  -2.943   0.801  1.00  0.00     0.275 C 
BRANCH  33  34
ATOM     34  O   UNL     1     -12.068  -1.600   0.119  1.00  0.00    -0.458 OA
BRANCH  34  35
ATOM     35  C   UNL     1     -11.813  -0.960  -1.074  1.00  0.00     0.338 C 
ATOM     36  O   UNL     1     -12.463  -0.002  -1.467  1.00  0.00    -0.246 OA
BRANCH  35  37
ATOM     37  C   UNL     1     -10.605  -1.325  -1.850  1.00  0.00     0.060 A 
ATOM     38  C   UNL     1      -9.094  -0.453  -1.553  1.00  0.00     0.016 A 
ATOM     39  C   UNL     1     -10.564  -2.887  -2.086  1.00  0.00     0.016 A 
ATOM     40  C   UNL     1      -7.377  -1.438  -1.425  1.00  0.00     0.010 A 
ATOM     41  C   UNL     1      -9.216  -3.729  -1.972  1.00  0.00     0.010 A 
ATOM     42  C   UNL     1      -7.565  -3.196  -1.734  1.00  0.00    -0.014 A 
BRANCH  42  43
ATOM     43  C   UNL     1      -6.715  -4.377  -2.023  1.00  0.00     0.031 A 
ATOM     44  C   UNL     1      -5.351  -4.472  -1.499  1.00  0.00     0.074 A 
ATOM     45  C   UNL     1      -7.245  -5.404  -2.780  1.00  0.00     0.049 A 
ATOM     46  N   UNL     1      -4.359  -4.941  -2.180  1.00  0.00    -0.248 NA
ATOM     47  C   UNL     1      -4.955  -3.953  -0.190  1.00  0.00     0.031 C 
ATOM     48  C   UNL     1      -6.900  -6.827  -2.820  1.00  0.00     0.029 A 
ATOM     49  N   UNL     1      -8.344  -5.413  -3.643  1.00  0.00    -0.354 N 
ATOM     50  C   UNL     1      -3.373  -5.187  -1.251  1.00  0.00     0.074 A 
ATOM     51  C   UNL     1      -3.666  -4.315  -0.140  1.00  0.00     0.031 C 
ATOM     52  C   UNL     1      -7.585  -7.449  -3.813  1.00  0.00     0.029 A 
ATOM     53  C   UNL     1      -8.375  -6.461  -4.522  1.00  0.00     0.049 A 
ATOM     54  H   UNL     1      -9.043  -4.720  -3.621  1.00  0.00     0.167 HD
ATOM     55  C   UNL     1      -2.657  -6.346  -1.321  1.00  0.00     0.031 A 
ATOM     56  C   UNL     1      -8.543  -6.211  -5.852  1.00  0.00     0.031 A 
ATOM     57  C   UNL     1      -3.175  -7.213  -2.385  1.00  0.00     0.049 A 
ATOM     58  C   UNL     1      -7.225  -6.532  -6.484  1.00  0.00     0.074 A 
ATOM     59  C   UNL     1      -3.948  -8.363  -2.337  1.00  0.00     0.029 A 
ATOM     60  N   UNL     1      -3.222  -6.770  -3.701  1.00  0.00    -0.354 N 
ATOM     61  N   UNL     1      -6.113  -6.510  -5.803  1.00  0.00    -0.248 NA
ATOM     62  C   UNL     1      -7.051  -7.005  -7.848  1.00  0.00     0.031 C 
ATOM     63  C   UNL     1      -4.413  -8.638  -3.650  1.00  0.00     0.029 A 
ATOM     64  C   UNL     1      -3.940  -7.645  -4.493  1.00  0.00     0.049 A 
ATOM     65  H   UNL     1      -2.800  -5.942  -4.027  1.00  0.00     0.167 HD
ATOM     66  C   UNL     1      -5.148  -7.148  -6.516  1.00  0.00     0.074 A 
ATOM     67  C   UNL     1      -5.757  -7.374  -7.819  1.00  0.00     0.031 C 
ATOM     68  C   UNL     1      -3.960  -7.489  -5.945  1.00  0.00     0.031 A 
BRANCH  55  69
ATOM     69  C   UNL     1      -1.762  -6.875  -0.216  1.00  0.00    -0.014 A 
ATOM     70  C   UNL     1      -1.470  -8.254  -0.161  1.00  0.00     0.009 A 
ATOM     71  C   UNL     1      -1.155  -6.085   0.776  1.00  0.00     0.009 A 
ATOM     72  C   UNL     1      -0.686  -8.819   0.852  1.00  0.00     0.001 A 
ATOM     73  C   UNL     1      -0.387  -6.647   1.810  1.00  0.00     0.001 A 
ATOM     74  C   UNL     1      -0.155  -8.016   1.849  1.00  0.00     0.000 A 
ENDBRANCH  55  69
BRANCH  56  75
ATOM     75  C   UNL     1      -9.415  -5.018  -6.150  1.00  0.00    -0.014 A 
ATOM     76  C   UNL     1     -10.804  -5.151  -5.918  1.00  0.00     0.009 A 
ATOM     77  C   UNL     1      -8.895  -3.715  -6.228  1.00  0.00     0.009 A 
ATOM     78  C   UNL     1     -11.615  -4.037  -5.650  1.00  0.00     0.001 A 
ATOM     79  C   UNL     1      -9.717  -2.599  -5.984  1.00  0.00     0.001 A 
ATOM     80  C   UNL     1     -11.064  -2.761  -5.656  1.00  0.00     0.000 A 
ENDBRANCH  56  75
BRANCH  68  81
ATOM     81  C   UNL     1      -2.696  -7.796  -6.691  1.00  0.00    -0.014 A 
ATOM     82  C   UNL     1      -2.551  -7.679  -8.074  1.00  0.00     0.009 A 
ATOM     83  C   UNL     1      -1.524  -8.078  -5.952  1.00  0.00     0.009 A 
ATOM     84  C   UNL     1      -1.314  -7.870  -8.691  1.00  0.00     0.001 A 
ATOM     85  C   UNL     1      -0.277  -8.200  -6.553  1.00  0.00     0.001 A 
ATOM     86  C   UNL     1      -0.176  -8.112  -7.931  1.00  0.00     0.000 A 
ENDBRANCH  68  81
ENDBRANCH  42  43
ENDBRANCH  35  37
ENDBRANCH  34  35
ENDBRANCH  33  34
ENDBRANCH   1  33
TORSDOF 15
