REMARK SMILES CC[C@H](C(=O)OCCOC(=O)c1ccc(-c2c3nc(c(-c4ccccc4)c4ccc([nH]4)c(-c4ccccc4)c4nc(c(-c5ccccc5)c5ccc2[nH]5)C=C4)C=C3)cc1)N1C(=O)/C(=C/c2ccc(-c3ccc(C)cc3Br)o2)SC1=S
REMARK SMILES IDX 7 1 6 2 4 3 5 4 3 5 2 6 1 7 60 8 61 9 79 10 62 11 63 12
REMARK SMILES IDX 78 13 80 14 64 15 65 16 66 17 77 18 67 19 68 20 69 21 70 22
REMARK SMILES IDX 75 23 71 24 74 25 76 26 72 27 73 28 8 29 9 30 10 31 11 32
REMARK SMILES IDX 12 33 13 34 59 35 14 36 58 37 15 38 16 39 17 40 52 41 18 42
REMARK SMILES IDX 57 43 51 44 53 45 19 46 56 47 50 48 49 49 20 51 42 52 27 53
REMARK SMILES IDX 41 54 28 55 31 56 40 57 54 58 29 59 30 60 39 62 55 63 32 64
REMARK SMILES IDX 21 65 22 66 26 67 23 68 25 69 24 70 43 71 44 72 48 73 45 74
REMARK SMILES IDX 47 75 46 76 33 77 34 78 38 79 35 80 37 81 36 82
REMARK H PARENT 53 50 31 61
REMARK Flexibility Score: inf
ROOT
ATOM      1  C   UNL     1      -1.111  -0.280   1.108  1.00  0.00     0.274 C 
ENDROOT
BRANCH   1   2
ATOM      2  O   UNL     1      -0.665   0.697   0.149  1.00  0.00    -0.461 OA
BRANCH   2   3
ATOM      3  C   UNL     1       0.155   1.671   0.621  1.00  0.00     0.329 C 
ATOM      4  O   UNL     1       0.577   1.732   1.773  1.00  0.00    -0.250 OA
BRANCH   3   5
ATOM      5  C   UNL     1       0.525   2.716  -0.443  1.00  0.00     0.201 C 
BRANCH   5   6
ATOM      6  C   UNL     1      -0.121   2.583  -1.829  1.00  0.00     0.034 C 
ATOM      7  C   UNL     1       0.547   1.498  -2.671  1.00  0.00     0.007 C 
ENDBRANCH   5   6
BRANCH   5   8
ATOM      8  N   UNL     1       0.334   4.063   0.137  1.00  0.00    -0.278 N 
ATOM      9  C   UNL     1      -0.848   4.351   0.799  1.00  0.00     0.267 C 
ATOM     10  C   UNL     1       1.207   5.118  -0.033  1.00  0.00     0.149 C 
ATOM     11  O   UNL     1      -1.819   3.614   0.890  1.00  0.00    -0.268 OA
ATOM     12  C   UNL     1      -0.810   5.727   1.352  1.00  0.00     0.084 C 
ATOM     13  S   UNL     1       0.551   6.565   0.723  1.00  0.00    -0.054 SA
ATOM     14  S   UNL     1       2.665   5.133  -0.845  1.00  0.00    -0.052 S 
ATOM     15  C   UNL     1      -1.733   6.156   2.222  1.00  0.00     0.068 C 
BRANCH  15  16
ATOM     16  C   UNL     1      -1.831   7.510   2.638  1.00  0.00     0.128 A 
ATOM     17  C   UNL     1      -2.120   8.620   1.852  1.00  0.00     0.051 A 
ATOM     18  O   UNL     1      -1.714   7.938   3.945  1.00  0.00    -0.457 OA
ATOM     19  C   UNL     1      -2.164   9.747   2.693  1.00  0.00     0.051 A 
ATOM     20  C   UNL     1      -1.886   9.291   3.961  1.00  0.00     0.135 A 
BRANCH  20  21
ATOM     21  C   UNL     1      -1.797   9.979   5.240  1.00  0.00     0.031 A 
ATOM     22  C   UNL     1      -2.924  10.698   5.673  1.00  0.00     0.013 A 
ATOM     23  C   UNL     1      -0.618  10.071   5.994  1.00  0.00     0.029 A 
ATOM     24  C   UNL     1      -2.870  11.513   6.806  1.00  0.00     0.004 A 
ATOM     25  C   UNL     1      -0.565  10.893   7.131  1.00  0.00     0.019 A 
ATOM     26  Br  UNL     1       0.988   9.180   5.495  1.00  0.00    -0.050 Br
ATOM     27  C   UNL     1      -1.684  11.632   7.534  1.00  0.00    -0.050 A 
ATOM     28  C   UNL     1      -1.618  12.569   8.704  1.00  0.00     0.044 C 
ENDBRANCH  20  21
ENDBRANCH  15  16
ENDBRANCH   5   8
ENDBRANCH   3   5
ENDBRANCH   2   3
ENDBRANCH   1   2
BRANCH   1  29
ATOM     29  C   UNL     1      -0.256  -1.551   1.073  1.00  0.00     0.275 C 
BRANCH  29  30
ATOM     30  O   UNL     1       1.068  -1.330   1.596  1.00  0.00    -0.458 OA
BRANCH  30  31
ATOM     31  C   UNL     1       1.978  -0.910   0.685  1.00  0.00     0.338 C 
ATOM     32  O   UNL     1       1.802  -0.758  -0.512  1.00  0.00    -0.246 OA
BRANCH  31  33
ATOM     33  C   UNL     1       3.215  -0.477   1.356  1.00  0.00     0.060 A 
ATOM     34  C   UNL     1       3.729   0.775   1.002  1.00  0.00     0.016 A 
ATOM     35  C   UNL     1       3.897  -1.292   2.261  1.00  0.00     0.016 A 
ATOM     36  C   UNL     1       4.924   1.222   1.549  1.00  0.00     0.010 A 
ATOM     37  C   UNL     1       5.108  -0.847   2.804  1.00  0.00     0.010 A 
ATOM     38  C   UNL     1       5.630   0.407   2.441  1.00  0.00    -0.014 A 
BRANCH  38  39
ATOM     39  C   UNL     1       6.939   0.876   2.942  1.00  0.00     0.031 A 
ATOM     40  C   UNL     1       8.206   0.355   2.331  1.00  0.00     0.074 A 
ATOM     41  C   UNL     1       6.982   1.823   3.897  1.00  0.00     0.049 A 
ATOM     42  N   UNL     1       9.445   0.679   2.598  1.00  0.00    -0.248 NA
ATOM     43  C   UNL     1       8.059  -0.662   1.279  1.00  0.00     0.031 C 
ATOM     44  C   UNL     1       5.814   2.433   4.533  1.00  0.00     0.029 A 
ATOM     45  N   UNL     1       8.052   2.446   4.484  1.00  0.00    -0.354 N 
ATOM     46  C   UNL     1      10.227  -0.100   1.755  1.00  0.00     0.074 A 
ATOM     47  C   UNL     1       9.324  -0.927   0.984  1.00  0.00     0.031 C 
ATOM     48  C   UNL     1       6.232   3.355   5.415  1.00  0.00     0.029 A 
ATOM     49  C   UNL     1       7.692   3.378   5.425  1.00  0.00     0.049 A 
ATOM     50  H   UNL     1       8.987   2.246   4.252  1.00  0.00     0.167 HD
ATOM     51  C   UNL     1      11.576  -0.121   1.636  1.00  0.00     0.031 A 
ATOM     52  C   UNL     1       8.455   4.156   6.213  1.00  0.00     0.031 A 
ATOM     53  C   UNL     1      12.472   0.696   2.411  1.00  0.00     0.049 A 
ATOM     54  C   UNL     1       9.950   4.084   6.089  1.00  0.00     0.074 A 
ATOM     55  C   UNL     1      13.854   0.752   2.358  1.00  0.00     0.029 A 
ATOM     56  N   UNL     1      12.072   1.599   3.384  1.00  0.00    -0.354 N 
ATOM     57  N   UNL     1      10.678   3.352   5.280  1.00  0.00    -0.248 NA
ATOM     58  C   UNL     1      10.728   4.954   6.981  1.00  0.00     0.031 C 
ATOM     59  C   UNL     1      14.293   1.656   3.333  1.00  0.00     0.029 A 
ATOM     60  C   UNL     1      13.181   2.201   3.956  1.00  0.00     0.049 A 
ATOM     61  H   UNL     1      11.138   1.785   3.633  1.00  0.00     0.167 HD
ATOM     62  C   UNL     1      11.998   3.686   5.552  1.00  0.00     0.074 A 
ATOM     63  C   UNL     1      11.968   4.700   6.586  1.00  0.00     0.031 C 
ATOM     64  C   UNL     1      13.133   3.197   4.995  1.00  0.00     0.031 A 
BRANCH  51  65
ATOM     65  C   UNL     1      12.162  -1.096   0.655  1.00  0.00    -0.014 A 
ATOM     66  C   UNL     1      12.072  -0.884  -0.730  1.00  0.00     0.009 A 
ATOM     67  C   UNL     1      12.832  -2.236   1.126  1.00  0.00     0.009 A 
ATOM     68  C   UNL     1      12.613  -1.813  -1.623  1.00  0.00     0.001 A 
ATOM     69  C   UNL     1      13.392  -3.149   0.232  1.00  0.00     0.001 A 
ATOM     70  C   UNL     1      13.274  -2.942  -1.141  1.00  0.00     0.000 A 
ENDBRANCH  51  65
BRANCH  52  71
ATOM     71  C   UNL     1       7.813   5.066   7.195  1.00  0.00    -0.014 A 
ATOM     72  C   UNL     1       7.825   6.455   7.002  1.00  0.00     0.009 A 
ATOM     73  C   UNL     1       7.175   4.542   8.331  1.00  0.00     0.009 A 
ATOM     74  C   UNL     1       7.226   7.302   7.937  1.00  0.00     0.001 A 
ATOM     75  C   UNL     1       6.555   5.389   9.250  1.00  0.00     0.001 A 
ATOM     76  C   UNL     1       6.587   6.769   9.056  1.00  0.00     0.000 A 
ENDBRANCH  52  71
BRANCH  64  77
ATOM     77  C   UNL     1      14.431   3.773   5.485  1.00  0.00    -0.014 A 
ATOM     78  C   UNL     1      14.934   3.455   6.756  1.00  0.00     0.009 A 
ATOM     79  C   UNL     1      15.165   4.637   4.658  1.00  0.00     0.009 A 
ATOM     80  C   UNL     1      16.127   4.024   7.205  1.00  0.00     0.001 A 
ATOM     81  C   UNL     1      16.371   5.183   5.099  1.00  0.00     0.001 A 
ATOM     82  C   UNL     1      16.845   4.885   6.375  1.00  0.00     0.000 A 
ENDBRANCH  64  77
ENDBRANCH  38  39
ENDBRANCH  31  33
ENDBRANCH  30  31
ENDBRANCH  29  30
ENDBRANCH   1  29
TORSDOF 15
