REMARK SMILES CCOc1ccc(-c2cnc(N)cc2C(=O)OCCOC(=O)c2ccc(-c3c4nc(c(-c5ccccc5)c5ccc([nH]5)c(-c5ccccc5)c5nc(c(-c6ccccc6)c6ccc3[nH]6)C=C5)C=C4)cc2)c(Cl)c1
REMARK SMILES IDX 18 1 17 2 15 3 16 4 14 5 8 6 9 7 10 8 13 9 11 10 7 11 4 12
REMARK SMILES IDX 5 13 73 14 6 15 71 16 72 17 3 18 2 19 1 20 12 21 19 24 20 25
REMARK SMILES IDX 21 26 22 27 23 28 24 29 70 30 25 31 69 32 26 33 27 34 28 35
REMARK SMILES IDX 63 36 29 37 68 38 62 39 64 40 30 41 67 42 61 43 60 44 31 46
REMARK SMILES IDX 53 47 38 48 52 49 39 50 42 51 51 52 65 53 40 54 41 55 50 57
REMARK SMILES IDX 66 58 43 59 32 60 33 61 37 62 34 63 36 64 35 65 54 66 55 67
REMARK SMILES IDX 59 68 56 69 58 70 57 71 44 72 45 73 49 74 46 75 48 76 47 77
REMARK H PARENT 12 22 12 23 64 45 42 56
REMARK Flexibility Score: inf
ROOT
ATOM      1  C   UNL     1       7.444   5.142  -3.103  1.00  0.00     0.275 C 
ENDROOT
BRANCH   1   2
ATOM      2  O   UNL     1       7.736   3.826  -3.622  1.00  0.00    -0.458 OA
BRANCH   2   3
ATOM      3  C   UNL     1       7.558   2.804  -2.751  1.00  0.00     0.339 C 
ATOM      4  O   UNL     1       7.224   2.888  -1.581  1.00  0.00    -0.246 OA
BRANCH   3   5
ATOM      5  C   UNL     1       7.926   1.526  -3.387  1.00  0.00     0.073 A 
ATOM      6  C   UNL     1       7.009   0.476  -3.582  1.00  0.00     0.016 A 
ATOM      7  C   UNL     1       7.568  -0.721  -4.000  1.00  0.00     0.123 A 
ATOM      8  N   UNL     1       8.901  -0.930  -4.183  1.00  0.00    -0.239 NA
ATOM      9  C   UNL     1       9.295   1.344  -3.594  1.00  0.00     0.062 A 
ATOM     10  C   UNL     1       9.741   0.097  -3.972  1.00  0.00     0.124 A 
BRANCH   6  11
ATOM     11  C   UNL     1       5.593   0.575  -3.197  1.00  0.00     0.003 A 
ATOM     12  C   UNL     1       2.350   1.632  -1.707  1.00  0.00     0.120 A 
ATOM     13  C   UNL     1       3.730   1.187  -0.753  1.00  0.00     0.047 A 
ATOM     14  C   UNL     1       2.487   1.583  -3.488  1.00  0.00     0.067 A 
ATOM     15  C   UNL     1       5.280   0.686  -1.451  1.00  0.00     0.014 A 
ATOM     16  C   UNL     1       4.222   0.963  -4.340  1.00  0.00     0.052 A 
ATOM     17  Cl  UNL     1       4.861   0.639  -6.017  1.00  0.00    -0.084 Cl
BRANCH  12  18
ATOM     18  O   UNL     1       1.063   1.753  -1.276  1.00  0.00    -0.494 OA
BRANCH  18  19
ATOM     19  C   UNL     1       0.838   2.185   0.055  1.00  0.00     0.226 C 
ATOM     20  C   UNL     1       0.702   1.037   1.039  1.00  0.00     0.049 C 
ENDBRANCH  18  19
ENDBRANCH  12  18
ENDBRANCH   6  11
BRANCH  10  21
ATOM     21  N   UNL     1      11.093  -0.171  -4.018  1.00  0.00    -0.384 N 
ATOM     22  H   UNL     1      11.409  -1.063  -4.288  1.00  0.00     0.158 HD
ATOM     23  H   UNL     1      11.742   0.530  -3.780  1.00  0.00     0.158 HD
ENDBRANCH  10  21
ENDBRANCH   3   5
ENDBRANCH   2   3
ENDBRANCH   1   2
BRANCH   1  24
ATOM     24  C   UNL     1       6.228   5.728  -3.813  1.00  0.00     0.275 C 
BRANCH  24  25
ATOM     25  O   UNL     1       5.098   4.871  -3.565  1.00  0.00    -0.458 OA
BRANCH  25  26
ATOM     26  C   UNL     1       4.655   4.204  -4.649  1.00  0.00     0.338 C 
ATOM     27  O   UNL     1       4.983   4.374  -5.811  1.00  0.00    -0.246 OA
BRANCH  26  28
ATOM     28  C   UNL     1       3.782   3.093  -4.255  1.00  0.00     0.060 A 
ATOM     29  C   UNL     1       4.165   2.098  -2.813  1.00  0.00     0.016 A 
ATOM     30  C   UNL     1       2.796   2.373  -5.517  1.00  0.00     0.016 A 
ATOM     31  C   UNL     1       3.519   0.178  -2.776  1.00  0.00     0.010 A 
ATOM     32  C   UNL     1       2.161   0.704  -5.441  1.00  0.00     0.010 A 
ATOM     33  C   UNL     1       2.476  -0.439  -4.110  1.00  0.00    -0.014 A 
BRANCH  33  34
ATOM     34  C   UNL     1       1.548  -1.648  -3.915  1.00  0.00     0.031 A 
ATOM     35  C   UNL     1       0.851  -2.277  -5.116  1.00  0.00     0.074 A 
ATOM     36  C   UNL     1       1.136  -2.090  -2.694  1.00  0.00     0.049 A 
ATOM     37  N   UNL     1      -0.233  -3.020  -5.164  1.00  0.00    -0.248 NA
ATOM     38  C   UNL     1       1.444  -2.029  -6.438  1.00  0.00     0.031 C 
ATOM     39  C   UNL     1       1.682  -1.760  -1.383  1.00  0.00     0.029 A 
ATOM     40  N   UNL     1       0.061  -2.904  -2.352  1.00  0.00    -0.354 N 
ATOM     41  C   UNL     1      -0.464  -3.280  -6.512  1.00  0.00     0.074 A 
ATOM     42  C   UNL     1       0.518  -2.517  -7.251  1.00  0.00     0.031 C 
ATOM     43  C   UNL     1       0.914  -2.239  -0.404  1.00  0.00     0.029 A 
ATOM     44  C   UNL     1      -0.203  -2.926  -0.995  1.00  0.00     0.049 A 
ATOM     45  H   UNL     1      -0.461  -3.414  -3.012  1.00  0.00     0.167 HD
ATOM     46  C   UNL     1      -1.347  -4.133  -7.094  1.00  0.00     0.031 A 
ATOM     47  C   UNL     1      -1.205  -3.418  -0.244  1.00  0.00     0.031 A 
ATOM     48  C   UNL     1      -2.258  -4.988  -6.376  1.00  0.00     0.049 A 
ATOM     49  C   UNL     1      -2.233  -4.272  -0.887  1.00  0.00     0.074 A 
ATOM     50  C   UNL     1      -3.081  -5.985  -6.875  1.00  0.00     0.029 A 
ATOM     51  N   UNL     1      -2.454  -4.963  -5.005  1.00  0.00    -0.354 N 
ATOM     52  N   UNL     1      -2.390  -4.537  -2.157  1.00  0.00    -0.248 NA
ATOM     53  C   UNL     1      -3.159  -4.972   0.011  1.00  0.00     0.031 C 
ATOM     54  C   UNL     1      -3.805  -6.535  -5.811  1.00  0.00     0.029 A 
ATOM     55  C   UNL     1      -3.400  -5.912  -4.644  1.00  0.00     0.049 A 
ATOM     56  H   UNL     1      -1.990  -4.361  -4.378  1.00  0.00     0.167 HD
ATOM     57  C   UNL     1      -3.375  -5.506  -2.208  1.00  0.00     0.074 A 
ATOM     58  C   UNL     1      -3.800  -5.754  -0.845  1.00  0.00     0.031 C 
ATOM     59  C   UNL     1      -3.841  -6.159  -3.297  1.00  0.00     0.031 A 
BRANCH  46  60
ATOM     60  C   UNL     1      -1.324  -4.232  -8.601  1.00  0.00    -0.014 A 
ATOM     61  C   UNL     1      -0.213  -4.764  -9.279  1.00  0.00     0.009 A 
ATOM     62  C   UNL     1      -2.432  -3.814  -9.355  1.00  0.00     0.009 A 
ATOM     63  C   UNL     1      -0.182  -4.809 -10.675  1.00  0.00     0.001 A 
ATOM     64  C   UNL     1      -2.414  -3.895 -10.750  1.00  0.00     0.001 A 
ATOM     65  C   UNL     1      -1.283  -4.375 -11.409  1.00  0.00     0.000 A 
ENDBRANCH  46  60
BRANCH  47  66
ATOM     66  C   UNL     1      -1.222  -3.175   1.226  1.00  0.00    -0.014 A 
ATOM     67  C   UNL     1      -0.748  -4.148   2.119  1.00  0.00     0.009 A 
ATOM     68  C   UNL     1      -1.673  -1.947   1.737  1.00  0.00     0.009 A 
ATOM     69  C   UNL     1      -0.744  -3.903   3.495  1.00  0.00     0.001 A 
ATOM     70  C   UNL     1      -1.647  -1.698   3.112  1.00  0.00     0.001 A 
ATOM     71  C   UNL     1      -1.189  -2.678   3.990  1.00  0.00     0.000 A 
ENDBRANCH  47  66
BRANCH  59  72
ATOM     72  C   UNL     1      -4.827  -7.258  -3.044  1.00  0.00    -0.014 A 
ATOM     73  C   UNL     1      -6.138  -6.984  -2.629  1.00  0.00     0.009 A 
ATOM     74  C   UNL     1      -4.424  -8.592  -3.207  1.00  0.00     0.009 A 
ATOM     75  C   UNL     1      -7.017  -8.030  -2.345  1.00  0.00     0.001 A 
ATOM     76  C   UNL     1      -5.314  -9.634  -2.954  1.00  0.00     0.001 A 
ATOM     77  C   UNL     1      -6.606  -9.352  -2.513  1.00  0.00     0.000 A 
ENDBRANCH  59  72
ENDBRANCH  33  34
ENDBRANCH  26  28
ENDBRANCH  25  26
ENDBRANCH  24  25
ENDBRANCH   1  24
TORSDOF 15
