REMARK SMILES CC(C)(C)OC(=O)N1CCC[C@H]1C(=O)N1CCC[C@H]1C(=O)N1CCC[C@@H]1C(=O)OCCOC(=O)c1ccc(-c2c3nc(c(-c4ccccc4)c4ccc([nH]4)c(-c4ccccc4)c4nc(c(-c5ccccc5)c5ccc2[nH]5)C=C4)C=C3)cc1
REMARK SMILES IDX 27 1 28 2 26 3 22 4 23 5 24 6 25 7 20 8 21 9 19 10 15 11
REMARK SMILES IDX 16 12 17 13 18 14 13 15 14 16 12 17 8 18 9 19 10 20 11 21
REMARK SMILES IDX 6 22 7 23 5 24 2 25 1 26 3 27 4 28 29 29 30 30 31 31 32 32
REMARK SMILES IDX 33 33 34 34 35 35 36 36 82 37 37 38 81 39 38 40 39 41 40 42
REMARK SMILES IDX 75 43 41 44 80 45 74 46 76 47 42 48 79 49 73 50 72 51 43 53
REMARK SMILES IDX 65 54 50 55 64 56 51 57 54 58 63 59 77 60 52 61 53 62 62 64
REMARK SMILES IDX 78 65 55 66 44 67 45 68 49 69 46 70 48 71 47 72 66 73 67 74
REMARK SMILES IDX 71 75 68 76 70 77 69 78 56 79 57 80 61 81 58 82 60 83 59 84
REMARK H PARENT 76 52 54 63
REMARK Flexibility Score: inf
ROOT
ATOM      1  C   UNL     1      -0.310   0.634  -7.887  1.00  0.00     0.328 C 
ATOM      2  O   UNL     1       0.801   1.011  -8.245  1.00  0.00    -0.250 OA
ENDROOT
BRANCH   1   3
ATOM      3  C   UNL     1      -1.557   0.797  -8.762  1.00  0.00     0.195 C 
ATOM      4  N   UNL     1      -2.310   1.958  -8.334  1.00  0.00    -0.327 N 
ATOM      5  C   UNL     1      -3.729   1.694  -8.371  1.00  0.00     0.120 C 
ATOM      6  C   UNL     1      -3.819   0.212  -8.067  1.00  0.00     0.024 C 
ATOM      7  C   UNL     1      -2.552  -0.371  -8.701  1.00  0.00     0.039 C 
BRANCH   4   8
ATOM      8  C   UNL     1      -1.732   3.211  -8.332  1.00  0.00     0.246 C 
ATOM      9  O   UNL     1      -0.896   3.564  -9.161  1.00  0.00    -0.272 OA
BRANCH   8  10
ATOM     10  C   UNL     1      -2.170   4.082  -7.144  1.00  0.00     0.174 C 
ATOM     11  N   UNL     1      -1.069   4.717  -6.411  1.00  0.00    -0.329 N 
ATOM     12  C   UNL     1      -1.020   6.132  -6.677  1.00  0.00     0.120 C 
ATOM     13  C   UNL     1      -2.468   6.482  -6.956  1.00  0.00     0.024 C 
ATOM     14  C   UNL     1      -3.025   5.245  -7.656  1.00  0.00     0.037 C 
BRANCH  11  15
ATOM     15  C   UNL     1      -0.152   3.974  -5.703  1.00  0.00     0.246 C 
ATOM     16  O   UNL     1       0.285   2.923  -6.163  1.00  0.00    -0.272 OA
BRANCH  15  17
ATOM     17  C   UNL     1       0.236   4.444  -4.282  1.00  0.00     0.178 C 
ATOM     18  N   UNL     1       0.874   3.363  -3.504  1.00  0.00    -0.296 N 
ATOM     19  C   UNL     1       2.272   3.642  -3.265  1.00  0.00     0.124 C 
ATOM     20  C   UNL     1       2.305   5.157  -3.231  1.00  0.00     0.024 C 
ATOM     21  C   UNL     1       1.284   5.563  -4.293  1.00  0.00     0.037 C 
BRANCH  18  22
ATOM     22  C   UNL     1       0.172   2.290  -3.003  1.00  0.00     0.410 C 
ATOM     23  O   UNL     1      -1.022   2.122  -3.226  1.00  0.00    -0.224 OA
BRANCH  22  24
ATOM     24  O   UNL     1       0.943   1.486  -2.223  1.00  0.00    -0.444 OA
BRANCH  24  25
ATOM     25  C   UNL     1       0.482   0.306  -1.491  1.00  0.00     0.106 C 
ATOM     26  C   UNL     1       1.142   0.392  -0.105  1.00  0.00     0.056 C 
ATOM     27  C   UNL     1       1.027  -0.945  -2.190  1.00  0.00     0.056 C 
ATOM     28  C   UNL     1      -1.033   0.179  -1.301  1.00  0.00     0.056 C 
ENDBRANCH  24  25
ENDBRANCH  22  24
ENDBRANCH  18  22
ENDBRANCH  15  17
ENDBRANCH  11  15
ENDBRANCH   8  10
ENDBRANCH   4   8
ENDBRANCH   1   3
BRANCH   1  29
ATOM     29  O   UNL     1      -0.587   0.056  -6.687  1.00  0.00    -0.461 OA
BRANCH  29  30
ATOM     30  C   UNL     1       0.522  -0.006  -5.778  1.00  0.00     0.274 C 
BRANCH  30  31
ATOM     31  C   UNL     1       1.306  -1.316  -5.873  1.00  0.00     0.275 C 
BRANCH  31  32
ATOM     32  O   UNL     1       2.005  -1.446  -7.123  1.00  0.00    -0.458 OA
BRANCH  32  33
ATOM     33  C   UNL     1       1.273  -1.978  -8.128  1.00  0.00     0.338 C 
ATOM     34  O   UNL     1       0.153  -2.458  -8.058  1.00  0.00    -0.246 OA
BRANCH  33  35
ATOM     35  C   UNL     1       1.951  -1.754  -9.412  1.00  0.00     0.060 A 
ATOM     36  C   UNL     1       1.263  -1.040 -10.399  1.00  0.00     0.016 A 
ATOM     37  C   UNL     1       3.206  -2.297  -9.675  1.00  0.00     0.016 A 
ATOM     38  C   UNL     1       1.820  -0.850 -11.651  1.00  0.00     0.010 A 
ATOM     39  C   UNL     1       3.759  -2.131 -10.945  1.00  0.00     0.010 A 
ATOM     40  C   UNL     1       3.060  -1.419 -11.938  1.00  0.00    -0.014 A 
BRANCH  40  41
ATOM     41  C   UNL     1       3.560  -1.363 -13.323  1.00  0.00     0.031 A 
ATOM     42  C   UNL     1       3.478  -2.595 -14.171  1.00  0.00     0.074 A 
ATOM     43  C   UNL     1       4.026  -0.204 -13.820  1.00  0.00     0.049 A 
ATOM     44  N   UNL     1       3.932  -2.800 -15.379  1.00  0.00    -0.248 NA
ATOM     45  C   UNL     1       2.793  -3.756 -13.576  1.00  0.00     0.031 C 
ATOM     46  C   UNL     1       4.062   1.071 -13.102  1.00  0.00     0.029 A 
ATOM     47  N   UNL     1       4.557   0.084 -15.049  1.00  0.00    -0.354 N 
ATOM     48  C   UNL     1       3.617  -4.119 -15.676  1.00  0.00     0.074 A 
ATOM     49  C   UNL     1       2.949  -4.673 -14.520  1.00  0.00     0.031 C 
ATOM     50  C   UNL     1       4.592   2.007 -13.906  1.00  0.00     0.029 A 
ATOM     51  C   UNL     1       4.982   1.383 -15.166  1.00  0.00     0.049 A 
ATOM     52  H   UNL     1       4.626  -0.576 -15.776  1.00  0.00     0.167 HD
ATOM     53  C   UNL     1       3.870  -4.803 -16.816  1.00  0.00     0.031 A 
ATOM     54  C   UNL     1       5.647   1.986 -16.168  1.00  0.00     0.031 A 
ATOM     55  C   UNL     1       4.540  -4.232 -17.954  1.00  0.00     0.049 A 
ATOM     56  C   UNL     1       5.997   1.178 -17.387  1.00  0.00     0.074 A 
ATOM     57  C   UNL     1       4.851  -4.829 -19.162  1.00  0.00     0.029 A 
ATOM     58  N   UNL     1       5.005  -2.926 -18.019  1.00  0.00    -0.354 N 
ATOM     59  N   UNL     1       5.711  -0.073 -17.660  1.00  0.00    -0.248 NA
ATOM     60  C   UNL     1       6.762   1.864 -18.435  1.00  0.00     0.031 C 
ATOM     61  C   UNL     1       5.560  -3.903 -19.933  1.00  0.00     0.029 A 
ATOM     62  C   UNL     1       5.629  -2.707 -19.234  1.00  0.00     0.049 A 
ATOM     63  H   UNL     1       4.906  -2.255 -17.305  1.00  0.00     0.167 HD
ATOM     64  C   UNL     1       6.239  -0.317 -18.921  1.00  0.00     0.074 A 
ATOM     65  C   UNL     1       6.844   0.923 -19.365  1.00  0.00     0.031 C 
ATOM     66  C   UNL     1       6.226  -1.462 -19.648  1.00  0.00     0.031 A 
BRANCH  53  67
ATOM     67  C   UNL     1       3.472  -6.252 -16.858  1.00  0.00    -0.014 A 
ATOM     68  C   UNL     1       2.125  -6.646 -16.901  1.00  0.00     0.009 A 
ATOM     69  C   UNL     1       4.468  -7.241 -16.867  1.00  0.00     0.009 A 
ATOM     70  C   UNL     1       1.786  -8.002 -16.916  1.00  0.00     0.001 A 
ATOM     71  C   UNL     1       4.127  -8.593 -16.913  1.00  0.00     0.001 A 
ATOM     72  C   UNL     1       2.786  -8.973 -16.927  1.00  0.00     0.000 A 
ENDBRANCH  53  67
BRANCH  54  73
ATOM     73  C   UNL     1       6.060   3.408 -16.042  1.00  0.00    -0.014 A 
ATOM     74  C   UNL     1       5.500   4.395 -16.867  1.00  0.00     0.009 A 
ATOM     75  C   UNL     1       7.025   3.787 -15.094  1.00  0.00     0.009 A 
ATOM     76  C   UNL     1       5.916   5.724 -16.763  1.00  0.00     0.001 A 
ATOM     77  C   UNL     1       7.415   5.122 -14.970  1.00  0.00     0.001 A 
ATOM     78  C   UNL     1       6.868   6.088 -15.812  1.00  0.00     0.000 A 
ENDBRANCH  54  73
BRANCH  66  79
ATOM     79  C   UNL     1       6.854  -1.409 -21.012  1.00  0.00    -0.014 A 
ATOM     80  C   UNL     1       8.245  -1.317 -21.174  1.00  0.00     0.009 A 
ATOM     81  C   UNL     1       6.039  -1.494 -22.152  1.00  0.00     0.009 A 
ATOM     82  C   UNL     1       8.803  -1.273 -22.452  1.00  0.00     0.001 A 
ATOM     83  C   UNL     1       6.602  -1.484 -23.427  1.00  0.00     0.001 A 
ATOM     84  C   UNL     1       7.983  -1.363 -23.576  1.00  0.00     0.000 A 
ENDBRANCH  66  79
ENDBRANCH  40  41
ENDBRANCH  33  35
ENDBRANCH  32  33
ENDBRANCH  31  32
ENDBRANCH  30  31
ENDBRANCH  29  30
ENDBRANCH   1  29
TORSDOF 18
