REMARK SMILES O=C(OCCOC(=O)c1ccccc1-c1ccc(/C=C2/SC(=S)N(Cc3ccccc3)C2=O)o1)c1ccc(-c2c3nc(c(-c4ccccc4)c4ccc([nH]4)c(-c4ccccc4)c4nc(c(-c5ccccc5)c5ccc2[nH]5)C=C4)C=C3)cc1
REMARK SMILES IDX 5 1 4 2 3 3 2 4 1 5 35 6 36 7 82 8 37 9 81 10 38 11 39 12
REMARK SMILES IDX 40 13 75 14 41 15 80 16 74 17 76 18 42 19 79 20 73 21 72 22
REMARK SMILES IDX 43 24 65 25 50 26 64 27 51 28 54 29 63 30 77 31 52 32 53 33
REMARK SMILES IDX 62 35 78 36 55 37 44 38 45 39 49 40 46 41 48 42 47 43 66 44
REMARK SMILES IDX 67 45 71 46 68 47 70 48 69 49 56 50 57 51 61 52 58 53 60 54
REMARK SMILES IDX 59 55 6 56 7 57 8 58 9 59 10 60 14 61 11 62 13 63 12 64
REMARK SMILES IDX 15 65 16 66 34 67 17 68 18 69 19 70 20 71 21 72 32 73 22 74
REMARK SMILES IDX 24 75 33 76 23 77 25 78 26 79 27 80 31 81 28 82 30 83 29 84
REMARK H PARENT 76 23 54 34
REMARK Flexibility Score: inf
ROOT
ATOM      1  C   UNL     1       4.124  -1.337  -1.544  1.00  0.00     0.275 C 
ENDROOT
BRANCH   1   2
ATOM      2  C   UNL     1       4.303  -1.558  -0.044  1.00  0.00     0.275 C 
BRANCH   2   3
ATOM      3  O   UNL     1       3.177  -1.119   0.739  1.00  0.00    -0.458 OA
BRANCH   3   4
ATOM      4  C   UNL     1       2.845   0.097   1.230  1.00  0.00     0.338 C 
ATOM      5  O   UNL     1       1.838   0.170   1.936  1.00  0.00    -0.246 OA
BRANCH   4   6
ATOM      6  C   UNL     1       3.565   1.387   0.943  1.00  0.00     0.060 A 
ATOM      7  C   UNL     1       4.830   1.530   0.370  1.00  0.00     0.016 A 
ATOM      8  C   UNL     1       2.876   2.572   1.281  1.00  0.00     0.016 A 
ATOM      9  C   UNL     1       5.379   2.792   0.120  1.00  0.00     0.010 A 
ATOM     10  C   UNL     1       3.415   3.841   1.031  1.00  0.00     0.010 A 
ATOM     11  C   UNL     1       4.682   3.954   0.457  1.00  0.00    -0.014 A 
BRANCH  11  12
ATOM     12  C   UNL     1       5.356   5.264   0.307  1.00  0.00     0.031 A 
ATOM     13  C   UNL     1       6.029   5.855   1.494  1.00  0.00     0.074 A 
ATOM     14  C   UNL     1       5.457   5.859  -0.895  1.00  0.00     0.049 A 
ATOM     15  N   UNL     1       6.767   6.929   1.561  1.00  0.00    -0.248 NA
ATOM     16  C   UNL     1       5.866   5.138   2.768  1.00  0.00     0.031 C 
ATOM     17  C   UNL     1       4.879   5.307  -2.101  1.00  0.00     0.029 A 
ATOM     18  N   UNL     1       6.080   6.997  -1.329  1.00  0.00    -0.354 N 
ATOM     19  C   UNL     1       7.164   7.015   2.884  1.00  0.00     0.074 A 
ATOM     20  C   UNL     1       6.561   5.906   3.591  1.00  0.00     0.031 C 
ATOM     21  C   UNL     1       5.195   6.064  -3.160  1.00  0.00     0.029 A 
ATOM     22  C   UNL     1       5.965   7.202  -2.688  1.00  0.00     0.049 A 
ATOM     23  H   UNL     1       6.564   7.611  -0.730  1.00  0.00     0.167 HD
ATOM     24  C   UNL     1       7.965   7.945   3.449  1.00  0.00     0.031 A 
ATOM     25  C   UNL     1       6.425   8.202  -3.463  1.00  0.00     0.031 A 
ATOM     26  C   UNL     1       8.500   9.070   2.733  1.00  0.00     0.049 A 
ATOM     27  C   UNL     1       7.221   9.277  -2.786  1.00  0.00     0.074 A 
ATOM     28  C   UNL     1       9.273  10.110   3.211  1.00  0.00     0.029 A 
ATOM     29  N   UNL     1       8.294   9.309   1.378  1.00  0.00    -0.354 N 
ATOM     30  N   UNL     1       7.595   9.349  -1.530  1.00  0.00    -0.248 NA
ATOM     31  C   UNL     1       7.661  10.404  -3.616  1.00  0.00     0.031 C 
ATOM     32  C   UNL     1       9.489  11.007   2.159  1.00  0.00     0.029 A 
ATOM     33  C   UNL     1       8.905  10.495   1.008  1.00  0.00     0.049 A 
ATOM     34  H   UNL     1       7.789   8.721   0.771  1.00  0.00     0.167 HD
ATOM     35  C   UNL     1       8.327  10.518  -1.419  1.00  0.00     0.074 A 
ATOM     36  C   UNL     1       8.367  11.110  -2.744  1.00  0.00     0.031 C 
ATOM     37  C   UNL     1       8.912  11.057  -0.321  1.00  0.00     0.031 A 
BRANCH  24  38
ATOM     38  C   UNL     1       8.216   7.793   4.919  1.00  0.00    -0.014 A 
ATOM     39  C   UNL     1       9.011   6.748   5.419  1.00  0.00     0.009 A 
ATOM     40  C   UNL     1       7.580   8.658   5.821  1.00  0.00     0.009 A 
ATOM     41  C   UNL     1       9.123   6.544   6.796  1.00  0.00     0.001 A 
ATOM     42  C   UNL     1       7.717   8.469   7.196  1.00  0.00     0.001 A 
ATOM     43  C   UNL     1       8.475   7.404   7.682  1.00  0.00     0.000 A 
ENDBRANCH  24  38
BRANCH  25  44
ATOM     44  C   UNL     1       6.125   8.245  -4.923  1.00  0.00    -0.014 A 
ATOM     45  C   UNL     1       7.148   8.143  -5.879  1.00  0.00     0.009 A 
ATOM     46  C   UNL     1       4.803   8.404  -5.372  1.00  0.00     0.009 A 
ATOM     47  C   UNL     1       6.856   8.227  -7.246  1.00  0.00     0.001 A 
ATOM     48  C   UNL     1       4.510   8.456  -6.738  1.00  0.00     0.001 A 
ATOM     49  C   UNL     1       5.538   8.378  -7.674  1.00  0.00     0.000 A 
ENDBRANCH  25  44
BRANCH  37  50
ATOM     50  C   UNL     1       9.662  12.339  -0.527  1.00  0.00    -0.014 A 
ATOM     51  C   UNL     1       8.988  13.548  -0.758  1.00  0.00     0.009 A 
ATOM     52  C   UNL     1      11.063  12.336  -0.456  1.00  0.00     0.009 A 
ATOM     53  C   UNL     1       9.709  14.727  -0.947  1.00  0.00     0.001 A 
ATOM     54  C   UNL     1      11.778  13.522  -0.612  1.00  0.00     0.001 A 
ATOM     55  C   UNL     1      11.102  14.714  -0.867  1.00  0.00     0.000 A 
ENDBRANCH  37  50
ENDBRANCH  11  12
ENDBRANCH   4   6
ENDBRANCH   3   4
ENDBRANCH   2   3
ENDBRANCH   1   2
BRANCH   1  56
ATOM     56  O   UNL     1       3.655  -0.016  -1.832  1.00  0.00    -0.458 OA
BRANCH  56  57
ATOM     57  C   UNL     1       2.340   0.098  -2.133  1.00  0.00     0.338 C 
ATOM     58  O   UNL     1       1.522  -0.805  -2.193  1.00  0.00    -0.246 OA
BRANCH  57  59
ATOM     59  C   UNL     1       1.979   1.521  -2.286  1.00  0.00     0.071 A 
ATOM     60  C   UNL     1       0.907   1.988  -1.507  1.00  0.00     0.016 A 
ATOM     61  C   UNL     1       2.666   2.388  -3.149  1.00  0.00     0.032 A 
ATOM     62  C   UNL     1       0.527   3.328  -1.564  1.00  0.00     0.001 A 
ATOM     63  C   UNL     1       2.202   3.710  -3.263  1.00  0.00     0.013 A 
ATOM     64  C   UNL     1       1.166   4.187  -2.453  1.00  0.00     0.001 A 
BRANCH  61  65
ATOM     65  C   UNL     1       3.882   1.991  -3.845  1.00  0.00     0.135 A 
ATOM     66  C   UNL     1       4.226   0.994  -4.726  1.00  0.00     0.051 A 
ATOM     67  O   UNL     1       5.000   2.683  -3.485  1.00  0.00    -0.457 OA
ATOM     68  C   UNL     1       5.629   1.092  -4.899  1.00  0.00     0.051 A 
ATOM     69  C   UNL     1       6.080   2.171  -4.148  1.00  0.00     0.128 A 
BRANCH  69  70
ATOM     70  C   UNL     1       7.396   2.704  -4.060  1.00  0.00     0.068 C 
ATOM     71  C   UNL     1       7.912   3.390  -5.088  1.00  0.00     0.084 C 
ATOM     72  S   UNL     1       9.591   3.633  -5.371  1.00  0.00    -0.054 SA
ATOM     73  C   UNL     1       7.162   3.814  -6.292  1.00  0.00     0.266 C 
ATOM     74  C   UNL     1       9.335   3.672  -7.127  1.00  0.00     0.148 C 
ATOM     75  N   UNL     1       7.985   3.726  -7.396  1.00  0.00    -0.288 N 
ATOM     76  O   UNL     1       6.008   4.214  -6.278  1.00  0.00    -0.268 OA
ATOM     77  S   UNL     1      10.604   3.640  -8.207  1.00  0.00    -0.052 S 
BRANCH  75  78
ATOM     78  C   UNL     1       7.363   3.760  -8.719  1.00  0.00     0.163 C 
BRANCH  78  79
ATOM     79  C   UNL     1       6.753   2.422  -9.110  1.00  0.00    -0.028 A 
ATOM     80  C   UNL     1       7.263   1.686 -10.188  1.00  0.00     0.005 A 
ATOM     81  C   UNL     1       5.636   1.906  -8.428  1.00  0.00     0.005 A 
ATOM     82  C   UNL     1       6.676   0.472 -10.563  1.00  0.00     0.000 A 
ATOM     83  C   UNL     1       5.069   0.682  -8.785  1.00  0.00     0.000 A 
ATOM     84  C   UNL     1       5.586  -0.034  -9.857  1.00  0.00     0.000 A 
ENDBRANCH  78  79
ENDBRANCH  75  78
ENDBRANCH  69  70
ENDBRANCH  61  65
ENDBRANCH  57  59
ENDBRANCH  56  57
ENDBRANCH   1  56
TORSDOF 15
