REMARK SMILES NS(=O)(=O)c1ccc(-c2coc(=O)n2-c2ccc(C(=O)OCCOC(=O)c3ccc(-c4c5nc(c(-c6ccccc6)c6ccc([nH]6)c(-c6ccccc6)c6nc(c(-c7ccccc7)c7ccc4[nH]7)C=C6)C=C5)cc3)cc2)cc1
REMARK SMILES IDX 22 1 21 2 19 3 20 4 18 5 15 6 16 7 76 8 17 9 75 10 14 11
REMARK SMILES IDX 9 12 10 13 11 14 12 15 13 16 8 17 5 18 6 19 78 20 7 21 77 22
REMARK SMILES IDX 2 23 3 24 4 25 1 26 23 29 24 30 25 31 26 32 27 33 28 34
REMARK SMILES IDX 74 35 29 36 73 37 30 38 31 39 32 40 67 41 33 42 72 43 66 44
REMARK SMILES IDX 68 45 34 46 71 47 65 48 64 49 35 51 57 52 42 53 56 54 43 55
REMARK SMILES IDX 46 56 55 57 69 58 44 59 45 60 54 62 70 63 47 64 36 65 37 66
REMARK SMILES IDX 41 67 38 68 40 69 39 70 58 71 59 72 63 73 60 74 62 75 61 76
REMARK SMILES IDX 48 77 49 78 53 79 50 80 52 81 51 82
REMARK H PARENT 1 27 1 28 68 50 46 61
REMARK Flexibility Score: inf
ROOT
ATOM      1  C   UNL     1      -3.914  -4.084  -8.126  1.00  0.00     0.275 C 
ENDROOT
BRANCH   1   2
ATOM      2  O   UNL     1      -2.975  -3.035  -7.845  1.00  0.00    -0.458 OA
BRANCH   2   3
ATOM      3  C   UNL     1      -1.702  -3.258  -8.262  1.00  0.00     0.338 C 
ATOM      4  O   UNL     1      -1.256  -4.303  -8.710  1.00  0.00    -0.246 OA
BRANCH   3   5
ATOM      5  C   UNL     1      -0.916  -2.004  -8.198  1.00  0.00     0.060 A 
ATOM      6  C   UNL     1       0.741   0.245  -7.991  1.00  0.00     0.053 A 
ATOM      7  C   UNL     1       1.002  -0.723  -8.964  1.00  0.00     0.028 A 
ATOM      8  C   UNL     1      -0.413   0.128  -7.200  1.00  0.00     0.028 A 
ATOM      9  C   UNL     1       0.190  -1.858  -9.049  1.00  0.00     0.018 A 
ATOM     10  C   UNL     1      -1.246  -0.983  -7.307  1.00  0.00     0.018 A 
BRANCH   6  11
ATOM     11  N   UNL     1       1.682   1.264  -7.719  1.00  0.00    -0.242 N 
ATOM     12  C   UNL     1       2.123   1.683  -6.492  1.00  0.00     0.095 A 
ATOM     13  C   UNL     1       2.999   2.653  -6.724  1.00  0.00     0.228 A 
ATOM     14  O   UNL     1       3.198   2.932  -8.074  1.00  0.00    -0.415 OA
ATOM     15  C   UNL     1       2.359   2.000  -8.689  1.00  0.00     0.424 A 
ATOM     16  O   UNL     1       2.261   1.914  -9.906  1.00  0.00    -0.223 OA
BRANCH  12  17
ATOM     17  C   UNL     1       1.814   1.041  -5.217  1.00  0.00     0.002 A 
ATOM     18  C   UNL     1       1.043  -0.285  -2.880  1.00  0.00     0.082 A 
ATOM     19  C   UNL     1       1.744  -0.983  -3.863  1.00  0.00     0.022 A 
ATOM     20  C   UNL     1       0.743   1.072  -3.041  1.00  0.00     0.022 A 
ATOM     21  C   UNL     1       2.131  -0.316  -5.026  1.00  0.00     0.012 A 
ATOM     22  C   UNL     1       1.137   1.735  -4.207  1.00  0.00     0.012 A 
BRANCH  18  23
ATOM     23  S   UNL     1       0.525  -1.130  -1.417  1.00  0.00     0.238 S 
ATOM     24  O   UNL     1       1.191  -2.404  -1.335  1.00  0.00    -0.207 OA
ATOM     25  O   UNL     1      -0.909  -0.985  -1.288  1.00  0.00    -0.207 OA
BRANCH  23  26
ATOM     26  N   UNL     1       1.206  -0.193  -0.200  1.00  0.00    -0.225 NA
ATOM     27  H   UNL     1       0.970  -0.592   0.709  1.00  0.00     0.137 HD
ATOM     28  H   UNL     1       0.842   0.758  -0.259  1.00  0.00     0.137 HD
ENDBRANCH  23  26
ENDBRANCH  18  23
ENDBRANCH  12  17
ENDBRANCH   6  11
ENDBRANCH   3   5
ENDBRANCH   2   3
ENDBRANCH   1   2
BRANCH   1  29
ATOM     29  C   UNL     1      -4.529  -3.910  -9.506  1.00  0.00     0.275 C 
BRANCH  29  30
ATOM     30  O   UNL     1      -3.577  -4.163 -10.538  1.00  0.00    -0.458 OA
BRANCH  30  31
ATOM     31  C   UNL     1      -2.969  -3.066 -11.043  1.00  0.00     0.338 C 
ATOM     32  O   UNL     1      -2.898  -1.956 -10.542  1.00  0.00    -0.246 OA
BRANCH  31  33
ATOM     33  C   UNL     1      -2.625  -3.326 -12.444  1.00  0.00     0.060 A 
ATOM     34  C   UNL     1      -1.892  -2.352 -13.126  1.00  0.00     0.016 A 
ATOM     35  C   UNL     1      -3.299  -4.354 -13.119  1.00  0.00     0.016 A 
ATOM     36  C   UNL     1      -1.989  -2.306 -14.502  1.00  0.00     0.010 A 
ATOM     37  C   UNL     1      -3.407  -4.298 -14.486  1.00  0.00     0.010 A 
ATOM     38  C   UNL     1      -2.819  -3.230 -15.153  1.00  0.00    -0.014 A 
BRANCH  38  39
ATOM     39  C   UNL     1      -2.943  -3.164 -16.593  1.00  0.00     0.031 A 
ATOM     40  C   UNL     1      -1.682  -3.532 -17.275  1.00  0.00     0.074 A 
ATOM     41  C   UNL     1      -4.109  -2.922 -17.224  1.00  0.00     0.049 A 
ATOM     42  N   UNL     1      -0.927  -2.752 -17.970  1.00  0.00    -0.248 NA
ATOM     43  C   UNL     1      -1.093  -4.855 -17.001  1.00  0.00     0.031 C 
ATOM     44  C   UNL     1      -5.453  -2.796 -16.654  1.00  0.00     0.029 A 
ATOM     45  N   UNL     1      -4.346  -2.838 -18.559  1.00  0.00    -0.354 N 
ATOM     46  C   UNL     1       0.143  -3.532 -18.384  1.00  0.00     0.074 A 
ATOM     47  C   UNL     1       0.081  -4.754 -17.625  1.00  0.00     0.031 C 
ATOM     48  C   UNL     1      -6.372  -2.907 -17.645  1.00  0.00     0.029 A 
ATOM     49  C   UNL     1      -5.681  -2.972 -18.922  1.00  0.00     0.049 A 
ATOM     50  H   UNL     1      -3.628  -2.694 -19.218  1.00  0.00     0.167 HD
ATOM     51  C   UNL     1       0.846  -3.211 -19.502  1.00  0.00     0.031 A 
ATOM     52  C   UNL     1      -6.160  -3.176 -20.178  1.00  0.00     0.031 A 
ATOM     53  C   UNL     1       0.587  -1.858 -19.919  1.00  0.00     0.049 A 
ATOM     54  C   UNL     1      -5.098  -2.762 -21.127  1.00  0.00     0.074 A 
ATOM     55  C   UNL     1       0.790  -0.616 -19.353  1.00  0.00     0.029 A 
ATOM     56  N   UNL     1      -0.361  -1.685 -20.900  1.00  0.00    -0.354 N 
ATOM     57  N   UNL     1      -4.725  -1.524 -21.274  1.00  0.00    -0.248 NA
ATOM     58  C   UNL     1      -4.123  -3.763 -21.536  1.00  0.00     0.031 C 
ATOM     59  C   UNL     1      -0.371   0.137 -19.694  1.00  0.00     0.029 A 
ATOM     60  C   UNL     1      -1.176  -0.650 -20.520  1.00  0.00     0.049 A 
ATOM     61  H   UNL     1      -0.440  -2.211 -21.728  1.00  0.00     0.167 HD
ATOM     62  C   UNL     1      -3.340  -1.584 -21.335  1.00  0.00     0.074 A 
ATOM     63  C   UNL     1      -3.030  -2.993 -21.585  1.00  0.00     0.031 C 
ATOM     64  C   UNL     1      -2.573  -0.550 -20.880  1.00  0.00     0.031 A 
BRANCH  51  65
ATOM     65  C   UNL     1       1.397  -4.243 -20.445  1.00  0.00    -0.014 A 
ATOM     66  C   UNL     1       2.157  -3.810 -21.544  1.00  0.00     0.009 A 
ATOM     67  C   UNL     1       0.953  -5.580 -20.463  1.00  0.00     0.009 A 
ATOM     68  C   UNL     1       2.394  -4.651 -22.637  1.00  0.00     0.001 A 
ATOM     69  C   UNL     1       1.220  -6.433 -21.535  1.00  0.00     0.001 A 
ATOM     70  C   UNL     1       1.917  -5.958 -22.635  1.00  0.00     0.000 A 
ENDBRANCH  51  65
BRANCH  52  71
ATOM     71  C   UNL     1      -7.324  -3.979 -20.622  1.00  0.00    -0.014 A 
ATOM     72  C   UNL     1      -7.832  -3.859 -21.928  1.00  0.00     0.009 A 
ATOM     73  C   UNL     1      -7.752  -5.080 -19.859  1.00  0.00     0.009 A 
ATOM     74  C   UNL     1      -8.699  -4.826 -22.460  1.00  0.00     0.001 A 
ATOM     75  C   UNL     1      -8.617  -6.045 -20.390  1.00  0.00     0.001 A 
ATOM     76  C   UNL     1      -9.079  -5.927 -21.696  1.00  0.00     0.000 A 
ENDBRANCH  52  71
BRANCH  64  77
ATOM     77  C   UNL     1      -3.272   0.735 -20.505  1.00  0.00    -0.014 A 
ATOM     78  C   UNL     1      -4.226   0.831 -19.474  1.00  0.00     0.009 A 
ATOM     79  C   UNL     1      -2.834   1.919 -21.116  1.00  0.00     0.009 A 
ATOM     80  C   UNL     1      -4.743   2.075 -19.091  1.00  0.00     0.001 A 
ATOM     81  C   UNL     1      -3.333   3.160 -20.719  1.00  0.00     0.001 A 
ATOM     82  C   UNL     1      -4.292   3.238 -19.711  1.00  0.00     0.000 A 
ENDBRANCH  64  77
ENDBRANCH  38  39
ENDBRANCH  31  33
ENDBRANCH  30  31
ENDBRANCH  29  30
ENDBRANCH   1  29
TORSDOF 15
