REMARK SMILES CC1=C(C(=O)OCCOC(=O)c2ccc(-c3c4nc(c(-c5ccccc5)c5ccc([nH]5)c(-c5ccccc5)c5nc(c(-c6ccccc6)c6ccc3[nH]6)C=C5)C=C4)cc2)[C@H](c2ccc(Cl)cc2)n2ncnc2N1
REMARK SMILES IDX 8 1 7 2 6 3 4 4 5 5 3 6 1 7 2 8 73 9 60 10 72 11 68 13 71 14
REMARK SMILES IDX 69 15 70 16 61 17 62 18 67 19 63 20 66 21 64 22 65 23 9 24
REMARK SMILES IDX 10 25 11 26 12 27 13 28 59 29 14 30 58 31 15 32 16 33 17 34
REMARK SMILES IDX 52 35 18 36 57 37 51 38 53 39 19 40 56 41 50 42 49 43 20 45
REMARK SMILES IDX 42 46 27 47 41 48 28 49 31 50 40 51 54 52 29 53 30 54 39 56
REMARK SMILES IDX 55 57 32 58 21 59 22 60 26 61 23 62 25 63 24 64 43 65 44 66
REMARK SMILES IDX 48 67 45 68 47 69 46 70 33 71 34 72 38 73 35 74 37 75 36 76
REMARK H PARENT 73 12 53 44 31 55
REMARK Flexibility Score: inf
ROOT
ATOM      1  C   UNL     1       3.100   3.403   1.353  1.00  0.00     0.275 C 
ENDROOT
BRANCH   1   2
ATOM      2  C   UNL     1       1.772   2.796   1.780  1.00  0.00     0.275 C 
BRANCH   2   3
ATOM      3  O   UNL     1       1.273   1.899   0.774  1.00  0.00    -0.459 OA
BRANCH   3   4
ATOM      4  C   UNL     1       0.429   2.441  -0.138  1.00  0.00     0.338 C 
ATOM      5  O   UNL     1       0.021   3.593  -0.069  1.00  0.00    -0.246 OA
BRANCH   4   6
ATOM      6  C   UNL     1       0.182   1.547  -1.305  1.00  0.00     0.085 C 
ATOM      7  C   UNL     1       0.696  -0.608  -0.044  1.00  0.00     0.065 C 
ATOM      8  C   UNL     1       0.360   0.198  -1.276  1.00  0.00     0.028 C 
ATOM      9  N   UNL     1       0.285  -0.542  -2.451  1.00  0.00    -0.328 N 
ATOM     10  C   UNL     1      -0.112   2.277  -2.635  1.00  0.00     0.181 C 
ATOM     11  C   UNL     1       0.224   0.016  -3.671  1.00  0.00     0.226 A 
ATOM     12  H   UNL     1       0.276  -1.524  -2.385  1.00  0.00     0.169 HD
ATOM     13  N   UNL     1       0.119   1.376  -3.780  1.00  0.00    -0.219 N 
ATOM     14  N   UNL     1       0.254  -0.522  -4.862  1.00  0.00    -0.200 NA
ATOM     15  N   UNL     1       0.143   1.761  -5.077  1.00  0.00    -0.157 NA
ATOM     16  C   UNL     1       0.206   0.571  -5.687  1.00  0.00     0.248 A 
BRANCH  10  17
ATOM     17  C   UNL     1      -1.518   2.909  -2.721  1.00  0.00    -0.018 A 
ATOM     18  C   UNL     1      -2.612   2.263  -3.327  1.00  0.00     0.008 A 
ATOM     19  C   UNL     1      -1.745   4.187  -2.176  1.00  0.00     0.008 A 
ATOM     20  C   UNL     1      -3.880   2.858  -3.351  1.00  0.00     0.021 A 
ATOM     21  C   UNL     1      -3.022   4.754  -2.143  1.00  0.00     0.021 A 
ATOM     22  C   UNL     1      -4.086   4.086  -2.732  1.00  0.00     0.041 A 
ATOM     23  Cl  UNL     1      -5.658   4.781  -2.696  1.00  0.00    -0.084 Cl
ENDBRANCH  10  17
ENDBRANCH   4   6
ENDBRANCH   3   4
ENDBRANCH   2   3
ENDBRANCH   1   2
BRANCH   1  24
ATOM     24  O   UNL     1       2.957   4.344   0.286  1.00  0.00    -0.458 OA
BRANCH  24  25
ATOM     25  C   UNL     1       3.139   3.840  -0.955  1.00  0.00     0.338 C 
ATOM     26  O   UNL     1       3.005   2.683  -1.315  1.00  0.00    -0.246 OA
BRANCH  25  27
ATOM     27  C   UNL     1       3.736   4.870  -1.812  1.00  0.00     0.060 A 
ATOM     28  C   UNL     1       3.829   4.612  -3.184  1.00  0.00     0.016 A 
ATOM     29  C   UNL     1       4.389   5.963  -1.226  1.00  0.00     0.016 A 
ATOM     30  C   UNL     1       4.665   5.399  -3.954  1.00  0.00     0.010 A 
ATOM     31  C   UNL     1       5.229   6.739  -1.992  1.00  0.00     0.010 A 
ATOM     32  C   UNL     1       5.398   6.421  -3.338  1.00  0.00    -0.014 A 
BRANCH  32  33
ATOM     33  C   UNL     1       6.249   7.261  -4.162  1.00  0.00     0.031 A 
ATOM     34  C   UNL     1       5.497   8.130  -5.096  1.00  0.00     0.074 A 
ATOM     35  C   UNL     1       7.580   7.362  -3.981  1.00  0.00     0.049 A 
ATOM     36  N   UNL     1       5.558   8.139  -6.384  1.00  0.00    -0.248 NA
ATOM     37  C   UNL     1       4.462   9.013  -4.532  1.00  0.00     0.031 C 
ATOM     38  C   UNL     1       8.377   6.762  -2.906  1.00  0.00     0.029 A 
ATOM     39  N   UNL     1       8.489   8.123  -4.656  1.00  0.00    -0.354 N 
ATOM     40  C   UNL     1       4.707   9.161  -6.792  1.00  0.00     0.074 A 
ATOM     41  C   UNL     1       3.947   9.555  -5.635  1.00  0.00     0.031 C 
ATOM     42  C   UNL     1       9.592   7.353  -2.869  1.00  0.00     0.029 A 
ATOM     43  C   UNL     1       9.705   8.259  -4.000  1.00  0.00     0.049 A 
ATOM     44  H   UNL     1       8.300   8.538  -5.529  1.00  0.00     0.167 HD
ATOM     45  C   UNL     1       4.897   9.795  -7.979  1.00  0.00     0.031 A 
ATOM     46  C   UNL     1      10.729   9.075  -4.339  1.00  0.00     0.031 A 
ATOM     47  C   UNL     1       5.768   9.050  -8.848  1.00  0.00     0.049 A 
ATOM     48  C   UNL     1      10.584   9.429  -5.764  1.00  0.00     0.074 A 
ATOM     49  C   UNL     1       5.679   7.912  -9.616  1.00  0.00     0.029 A 
ATOM     50  N   UNL     1       7.099   9.332  -8.683  1.00  0.00    -0.354 N 
ATOM     51  N   UNL     1      10.742   8.569  -6.727  1.00  0.00    -0.248 NA
ATOM     52  C   UNL     1       9.947  10.683  -6.148  1.00  0.00     0.031 C 
ATOM     53  C   UNL     1       7.006   7.395  -9.707  1.00  0.00     0.029 A 
ATOM     54  C   UNL     1       7.866   8.247  -9.015  1.00  0.00     0.049 A 
ATOM     55  H   UNL     1       7.455  10.195  -8.370  1.00  0.00     0.167 HD
ATOM     56  C   UNL     1       9.843   8.971  -7.693  1.00  0.00     0.074 A 
ATOM     57  C   UNL     1       9.541  10.361  -7.380  1.00  0.00     0.031 C 
ATOM     58  C   UNL     1       9.185   8.052  -8.455  1.00  0.00     0.031 A 
BRANCH  45  59
ATOM     59  C   UNL     1       4.729  11.288  -8.143  1.00  0.00    -0.014 A 
ATOM     60  C   UNL     1       4.938  11.852  -9.414  1.00  0.00     0.009 A 
ATOM     61  C   UNL     1       4.684  12.182  -7.054  1.00  0.00     0.009 A 
ATOM     62  C   UNL     1       5.152  13.227  -9.575  1.00  0.00     0.001 A 
ATOM     63  C   UNL     1       4.861  13.559  -7.216  1.00  0.00     0.001 A 
ATOM     64  C   UNL     1       5.120  14.078  -8.475  1.00  0.00     0.000 A 
ENDBRANCH  45  59
BRANCH  46  65
ATOM     65  C   UNL     1      11.769   9.687  -3.492  1.00  0.00    -0.014 A 
ATOM     66  C   UNL     1      12.999  10.088  -4.035  1.00  0.00     0.009 A 
ATOM     67  C   UNL     1      11.444  10.124  -2.196  1.00  0.00     0.009 A 
ATOM     68  C   UNL     1      13.855  10.936  -3.323  1.00  0.00     0.001 A 
ATOM     69  C   UNL     1      12.300  10.972  -1.484  1.00  0.00     0.001 A 
ATOM     70  C   UNL     1      13.498  11.391  -2.055  1.00  0.00     0.000 A 
ENDBRANCH  46  65
BRANCH  58  71
ATOM     71  C   UNL     1       9.781   6.673  -8.523  1.00  0.00    -0.014 A 
ATOM     72  C   UNL     1       9.871   5.818  -7.411  1.00  0.00     0.009 A 
ATOM     73  C   UNL     1      10.208   6.197  -9.770  1.00  0.00     0.009 A 
ATOM     74  C   UNL     1      10.410   4.534  -7.540  1.00  0.00     0.001 A 
ATOM     75  C   UNL     1      10.724   4.907  -9.903  1.00  0.00     0.001 A 
ATOM     76  C   UNL     1      10.833   4.080  -8.788  1.00  0.00     0.000 A 
ENDBRANCH  58  71
ENDBRANCH  32  33
ENDBRANCH  25  27
ENDBRANCH  24  25
ENDBRANCH   1  24
TORSDOF 12
