REMARK SMILES COc1ccccc1[C@@H]1C[N@@H+](Cc2cn3cc(C)ccc3n2)C[C@H]1C(=O)OCCOC(=O)c1ccc(-c2c3nc(c(-c4ccccc4)c4ccc([nH]4)c(-c4ccccc4)c4nc(c(-c5ccccc5)c5ccc2[nH]5)C=C4)C=C3)cc1
REMARK SMILES IDX 28 1 27 2 25 3 26 4 24 5 9 6 10 7 11 8 23 9 8 11 3 12 4 13
REMARK SMILES IDX 5 14 7 15 6 16 2 17 1 18 12 19 13 20 14 21 22 22 15 23 21 24
REMARK SMILES IDX 16 25 20 26 17 27 19 28 18 29 29 30 30 31 31 32 32 33 33 34
REMARK SMILES IDX 34 35 80 36 35 37 79 38 36 39 37 40 38 41 73 42 39 43 78 44
REMARK SMILES IDX 72 45 74 46 40 47 77 48 71 49 70 50 41 52 63 53 48 54 62 55
REMARK SMILES IDX 49 56 52 57 61 58 75 59 50 60 51 61 60 63 76 64 53 65 42 66
REMARK SMILES IDX 43 67 47 68 44 69 46 70 45 71 64 72 65 73 69 74 66 75 68 76
REMARK SMILES IDX 67 77 54 78 55 79 59 80 56 81 58 82 57 83
REMARK H PARENT 11 10 74 51 52 62
REMARK Flexibility Score: inf
ROOT
ATOM      1  C   UNL     1       4.039  -2.836   3.853  1.00  0.00     0.274 C 
ENDROOT
BRANCH   1   2
ATOM      2  O   UNL     1       3.963  -1.819   2.836  1.00  0.00    -0.462 OA
BRANCH   2   3
ATOM      3  C   UNL     1       2.754  -1.579   2.266  1.00  0.00     0.315 C 
ATOM      4  O   UNL     1       1.699  -2.073   2.650  1.00  0.00    -0.252 OA
BRANCH   3   5
ATOM      5  C   UNL     1       2.840  -0.705   1.031  1.00  0.00     0.167 C 
ATOM      6  C   UNL     1       3.220   0.766   1.208  1.00  0.00     0.098 C 
ATOM      7  C   UNL     1       3.830   1.093  -0.165  1.00  0.00     0.272 C 
ATOM      8  N   UNL     1       4.557  -0.109  -0.587  1.00  0.00    -0.329 N 
ATOM      9  C   UNL     1       3.901  -1.254   0.065  1.00  0.00     0.278 C 
ATOM     10  H   UNL     1       4.502  -0.204  -1.601  1.00  0.00     0.348 HD
BRANCH   6  11
ATOM     11  C   UNL     1       2.193   1.807   1.625  1.00  0.00     0.004 A 
ATOM     12  C   UNL     1       1.015   2.112   0.925  1.00  0.00     0.122 A 
ATOM     13  C   UNL     1       0.157   3.133   1.362  1.00  0.00     0.047 A 
ATOM     14  C   UNL     1       0.469   3.882   2.497  1.00  0.00     0.004 A 
ATOM     15  C   UNL     1       2.499   2.605   2.749  1.00  0.00     0.008 A 
ATOM     16  C   UNL     1       1.651   3.629   3.182  1.00  0.00     0.001 A 
BRANCH  12  17
ATOM     17  O   UNL     1       0.783   1.574  -0.312  1.00  0.00    -0.496 OA
ATOM     18  C   UNL     1      -0.152   0.501  -0.293  1.00  0.00     0.278 C 
ENDBRANCH  12  17
ENDBRANCH   6  11
BRANCH   8  19
ATOM     19  C   UNL     1       6.016  -0.049  -0.376  1.00  0.00     0.321 C 
BRANCH  19  20
ATOM     20  C   UNL     1       6.435   0.367   1.003  1.00  0.00     0.114 A 
ATOM     21  C   UNL     1       6.684   1.646   1.470  1.00  0.00     0.122 A 
ATOM     22  N   UNL     1       6.579  -0.549   2.026  1.00  0.00    -0.228 NA
ATOM     23  N   UNL     1       6.861   1.523   2.822  1.00  0.00    -0.306 N 
ATOM     24  C   UNL     1       6.812   0.166   3.108  1.00  0.00     0.137 A 
ATOM     25  C   UNL     1       7.033   2.514   3.784  1.00  0.00     0.096 A 
ATOM     26  C   UNL     1       6.978  -0.208   4.470  1.00  0.00     0.048 A 
ATOM     27  C   UNL     1       7.171   2.165   5.079  1.00  0.00    -0.034 A 
ATOM     28  C   UNL     1       7.137   0.741   5.414  1.00  0.00     0.009 A 
ATOM     29  C   UNL     1       7.342   3.153   6.189  1.00  0.00     0.046 C 
ENDBRANCH  19  20
ENDBRANCH   8  19
ENDBRANCH   3   5
ENDBRANCH   2   3
ENDBRANCH   1   2
BRANCH   1  30
ATOM     30  C   UNL     1       3.934  -2.282   5.270  1.00  0.00     0.275 C 
BRANCH  30  31
ATOM     31  O   UNL     1       2.622  -1.804   5.565  1.00  0.00    -0.458 OA
BRANCH  31  32
ATOM     32  C   UNL     1       2.429  -0.524   5.187  1.00  0.00     0.338 C 
ATOM     33  O   UNL     1       3.208   0.205   4.589  1.00  0.00    -0.246 OA
BRANCH  32  34
ATOM     34  C   UNL     1       1.172  -0.027   5.727  1.00  0.00     0.060 A 
ATOM     35  C   UNL     1       0.420   0.857   4.953  1.00  0.00     0.016 A 
ATOM     36  C   UNL     1       0.910  -0.226   7.083  1.00  0.00     0.016 A 
ATOM     37  C   UNL     1      -0.507   1.672   5.574  1.00  0.00     0.010 A 
ATOM     38  C   UNL     1      -0.033   0.570   7.698  1.00  0.00     0.010 A 
ATOM     39  C   UNL     1      -0.678   1.567   6.955  1.00  0.00    -0.014 A 
BRANCH  39  40
ATOM     40  C   UNL     1      -1.588   2.497   7.612  1.00  0.00     0.031 A 
ATOM     41  C   UNL     1      -3.033   2.289   7.345  1.00  0.00     0.074 A 
ATOM     42  C   UNL     1      -1.161   3.347   8.568  1.00  0.00     0.049 A 
ATOM     43  N   UNL     1      -3.934   3.168   7.045  1.00  0.00    -0.248 NA
ATOM     44  C   UNL     1      -3.529   0.902   7.393  1.00  0.00     0.031 C 
ATOM     45  C   UNL     1       0.187   3.404   9.144  1.00  0.00     0.029 A 
ATOM     46  N   UNL     1      -1.875   4.218   9.342  1.00  0.00    -0.354 N 
ATOM     47  C   UNL     1      -5.139   2.472   7.022  1.00  0.00     0.074 A 
ATOM     48  C   UNL     1      -4.823   1.072   7.137  1.00  0.00     0.031 C 
ATOM     49  C   UNL     1       0.132   4.058  10.322  1.00  0.00     0.029 A 
ATOM     50  C   UNL     1      -1.217   4.568  10.511  1.00  0.00     0.049 A 
ATOM     51  H   UNL     1      -2.764   4.561   9.095  1.00  0.00     0.167 HD
ATOM     52  C   UNL     1      -6.340   3.092   7.145  1.00  0.00     0.031 A 
ATOM     53  C   UNL     1      -1.743   5.164  11.604  1.00  0.00     0.031 A 
ATOM     54  C   UNL     1      -6.279   4.499   6.878  1.00  0.00     0.049 A 
ATOM     55  C   UNL     1      -3.026   5.800  11.241  1.00  0.00     0.074 A 
ATOM     56  C   UNL     1      -6.094   5.294   5.770  1.00  0.00     0.029 A 
ATOM     57  N   UNL     1      -6.159   5.305   7.978  1.00  0.00    -0.354 N 
ATOM     58  N   UNL     1      -3.130   6.835  10.459  1.00  0.00    -0.248 NA
ATOM     59  C   UNL     1      -4.281   5.126  11.552  1.00  0.00     0.031 C 
ATOM     60  C   UNL     1      -5.578   6.529   6.258  1.00  0.00     0.029 A 
ATOM     61  C   UNL     1      -5.452   6.429   7.644  1.00  0.00     0.049 A 
ATOM     62  H   UNL     1      -6.525   5.107   8.871  1.00  0.00     0.167 HD
ATOM     63  C   UNL     1      -4.369   6.696   9.861  1.00  0.00     0.074 A 
ATOM     64  C   UNL     1      -5.094   5.756  10.701  1.00  0.00     0.031 C 
ATOM     65  C   UNL     1      -4.574   7.106   8.577  1.00  0.00     0.031 A 
BRANCH  52  66
ATOM     66  C   UNL     1      -7.486   2.491   7.919  1.00  0.00    -0.014 A 
ATOM     67  C   UNL     1      -8.745   3.112   7.867  1.00  0.00     0.009 A 
ATOM     68  C   UNL     1      -7.295   1.518   8.921  1.00  0.00     0.009 A 
ATOM     69  C   UNL     1      -9.748   2.797   8.793  1.00  0.00     0.001 A 
ATOM     70  C   UNL     1      -8.307   1.172   9.819  1.00  0.00     0.001 A 
ATOM     71  C   UNL     1      -9.528   1.828   9.768  1.00  0.00     0.000 A 
ENDBRANCH  52  66
BRANCH  53  72
ATOM     72  C   UNL     1      -1.285   5.057  13.003  1.00  0.00    -0.014 A 
ATOM     73  C   UNL     1      -1.608   6.046  13.943  1.00  0.00     0.009 A 
ATOM     74  C   UNL     1      -0.703   3.865  13.475  1.00  0.00     0.009 A 
ATOM     75  C   UNL     1      -1.373   5.840  15.308  1.00  0.00     0.001 A 
ATOM     76  C   UNL     1      -0.459   3.664  14.835  1.00  0.00     0.001 A 
ATOM     77  C   UNL     1      -0.805   4.648  15.754  1.00  0.00     0.000 A 
ENDBRANCH  53  72
BRANCH  65  78
ATOM     78  C   UNL     1      -3.619   8.120   8.012  1.00  0.00    -0.014 A 
ATOM     79  C   UNL     1      -2.254   7.855   7.821  1.00  0.00     0.009 A 
ATOM     80  C   UNL     1      -4.134   9.347   7.565  1.00  0.00     0.009 A 
ATOM     81  C   UNL     1      -1.419   8.808   7.232  1.00  0.00     0.001 A 
ATOM     82  C   UNL     1      -3.304  10.289   6.956  1.00  0.00     0.001 A 
ATOM     83  C   UNL     1      -1.945  10.023   6.797  1.00  0.00     0.000 A 
ENDBRANCH  65  78
ENDBRANCH  39  40
ENDBRANCH  32  34
ENDBRANCH  31  32
ENDBRANCH  30  31
ENDBRANCH   1  30
TORSDOF 15
