REMARK SMILES O=C(CCCc1nc(-c2ccc(Cl)c(Cl)c2)c(-c2ccccc2)o1)OCCOC(=O)c1ccc(-c2c3nc(c(-c4ccccc4)c4ccc([nH]4)c(-c4ccccc4)c4nc(c(-c5ccccc5)c5ccc2[nH]5)C=C4)C=C3)cc1
REMARK SMILES IDX 26 1 25 2 2 3 1 4 3 5 4 6 5 7 6 8 7 9 24 10 8 11 17 12 9 13
REMARK SMILES IDX 10 14 16 15 11 16 14 17 12 18 15 19 13 20 18 21 19 22 23 23
REMARK SMILES IDX 20 24 22 25 21 26 27 27 28 28 29 29 30 30 31 31 32 32 78 33
REMARK SMILES IDX 33 34 77 35 34 36 35 37 36 38 71 39 37 40 76 41 70 42 72 43
REMARK SMILES IDX 38 44 75 45 69 46 68 47 39 49 61 50 46 51 60 52 47 53 50 54
REMARK SMILES IDX 59 55 73 56 48 57 49 58 58 60 74 61 51 62 40 63 41 64 45 65
REMARK SMILES IDX 42 66 44 67 43 68 62 69 63 70 67 71 64 72 66 73 65 74 52 75
REMARK SMILES IDX 53 76 57 77 54 78 56 79 55 80
REMARK H PARENT 72 48 50 59
REMARK Flexibility Score: inf
ROOT
ATOM      1  C   UNL     1       3.419   1.170  -1.290  1.00  0.00     0.274 C 
ENDROOT
BRANCH   1   2
ATOM      2  O   UNL     1       2.353   0.203  -1.281  1.00  0.00    -0.462 OA
BRANCH   2   3
ATOM      3  C   UNL     1       2.314  -0.943  -0.569  1.00  0.00     0.305 C 
ATOM      4  O   UNL     1       1.369  -1.716  -0.727  1.00  0.00    -0.252 OA
BRANCH   3   5
ATOM      5  C   UNL     1       3.383  -1.263   0.456  1.00  0.00     0.123 C 
BRANCH   5   6
ATOM      6  C   UNL     1       4.512  -2.184   0.015  1.00  0.00     0.021 C 
BRANCH   6   7
ATOM      7  C   UNL     1       5.788  -1.493  -0.480  1.00  0.00     0.098 C 
BRANCH   7   8
ATOM      8  C   UNL     1       6.400  -0.512   0.474  1.00  0.00     0.195 A 
ATOM      9  N   UNL     1       7.325  -0.715   1.392  1.00  0.00    -0.213 NA
ATOM     10  O   UNL     1       6.052   0.810   0.316  1.00  0.00    -0.440 OA
ATOM     11  C   UNL     1       7.601   0.548   1.863  1.00  0.00     0.117 A 
ATOM     12  C   UNL     1       6.830   1.487   1.214  1.00  0.00     0.162 A 
BRANCH  11  13
ATOM     13  C   UNL     1       8.661   0.877   2.783  1.00  0.00     0.006 A 
ATOM     14  C   UNL     1       9.978   0.560   2.440  1.00  0.00     0.012 A 
ATOM     15  C   UNL     1       8.399   1.614   3.944  1.00  0.00     0.032 A 
ATOM     16  C   UNL     1      11.033   1.010   3.234  1.00  0.00     0.023 A 
ATOM     17  C   UNL     1       9.455   2.058   4.744  1.00  0.00     0.060 A 
ATOM     18  C   UNL     1      10.775   1.765   4.382  1.00  0.00     0.059 A 
ATOM     19  Cl  UNL     1       9.060   2.989   6.145  1.00  0.00    -0.083 Cl
ATOM     20  Cl  UNL     1      12.130   2.321   5.297  1.00  0.00    -0.083 Cl
ENDBRANCH  11  13
BRANCH  12  21
ATOM     21  C   UNL     1       6.776   2.939   1.201  1.00  0.00     0.020 A 
ATOM     22  C   UNL     1       5.720   3.630   1.808  1.00  0.00     0.012 A 
ATOM     23  C   UNL     1       7.827   3.677   0.642  1.00  0.00     0.012 A 
ATOM     24  C   UNL     1       5.691   5.027   1.817  1.00  0.00     0.001 A 
ATOM     25  C   UNL     1       7.809   5.075   0.669  1.00  0.00     0.001 A 
ATOM     26  C   UNL     1       6.737   5.749   1.248  1.00  0.00     0.000 A 
ENDBRANCH  12  21
ENDBRANCH   7   8
ENDBRANCH   6   7
ENDBRANCH   5   6
ENDBRANCH   3   5
ENDBRANCH   2   3
ENDBRANCH   1   2
BRANCH   1  27
ATOM     27  C   UNL     1       3.227   2.268  -0.246  1.00  0.00     0.275 C 
BRANCH  27  28
ATOM     28  O   UNL     1       3.188   1.703   1.080  1.00  0.00    -0.458 OA
BRANCH  28  29
ATOM     29  C   UNL     1       2.011   1.821   1.734  1.00  0.00     0.338 C 
ATOM     30  O   UNL     1       1.078   2.534   1.418  1.00  0.00    -0.246 OA
BRANCH  29  31
ATOM     31  C   UNL     1       1.912   0.824   2.828  1.00  0.00     0.060 A 
ATOM     32  C   UNL     1       0.729   0.082   2.878  1.00  0.00     0.016 A 
ATOM     33  C   UNL     1       2.881   0.657   3.825  1.00  0.00     0.016 A 
ATOM     34  C   UNL     1       0.456  -0.735   3.974  1.00  0.00     0.010 A 
ATOM     35  C   UNL     1       2.607  -0.177   4.926  1.00  0.00     0.010 A 
ATOM     36  C   UNL     1       1.362  -0.826   5.039  1.00  0.00    -0.014 A 
BRANCH  36  37
ATOM     37  C   UNL     1       0.885  -1.442   6.312  1.00  0.00     0.031 A 
ATOM     38  C   UNL     1       0.461  -0.545   7.451  1.00  0.00     0.074 A 
ATOM     39  C   UNL     1       0.686  -2.770   6.422  1.00  0.00     0.049 A 
ATOM     40  N   UNL     1      -0.162  -0.850   8.564  1.00  0.00    -0.248 NA
ATOM     41  C   UNL     1       0.770   0.887   7.313  1.00  0.00     0.031 C 
ATOM     42  C   UNL     1       1.001  -3.762   5.396  1.00  0.00     0.029 A 
ATOM     43  N   UNL     1       0.133  -3.508   7.444  1.00  0.00    -0.354 N 
ATOM     44  C   UNL     1      -0.324   0.348   9.250  1.00  0.00     0.074 A 
ATOM     45  C   UNL     1       0.307   1.377   8.453  1.00  0.00     0.031 C 
ATOM     46  C   UNL     1       0.609  -4.974   5.826  1.00  0.00     0.029 A 
ATOM     47  C   UNL     1       0.033  -4.850   7.165  1.00  0.00     0.049 A 
ATOM     48  H   UNL     1      -0.163  -3.111   8.295  1.00  0.00     0.167 HD
ATOM     49  C   UNL     1      -0.954   0.585  10.427  1.00  0.00     0.031 A 
ATOM     50  C   UNL     1      -0.474  -5.864   7.895  1.00  0.00     0.031 A 
ATOM     51  C   UNL     1      -1.574  -0.426  11.243  1.00  0.00     0.049 A 
ATOM     52  C   UNL     1      -1.094  -5.587   9.242  1.00  0.00     0.074 A 
ATOM     53  C   UNL     1      -2.256  -0.269  12.438  1.00  0.00     0.029 A 
ATOM     54  N   UNL     1      -1.574  -1.782  10.960  1.00  0.00    -0.354 N 
ATOM     55  N   UNL     1      -1.294  -4.441   9.845  1.00  0.00    -0.248 NA
ATOM     56  C   UNL     1      -1.577  -6.753   9.999  1.00  0.00     0.031 C 
ATOM     57  C   UNL     1      -2.604  -1.537  12.915  1.00  0.00     0.029 A 
ATOM     58  C   UNL     1      -2.208  -2.477  11.977  1.00  0.00     0.049 A 
ATOM     59  H   UNL     1      -1.182  -2.191  10.155  1.00  0.00     0.167 HD
ATOM     60  C   UNL     1      -1.961  -4.745  11.028  1.00  0.00     0.074 A 
ATOM     61  C   UNL     1      -2.143  -6.180  11.051  1.00  0.00     0.031 C 
ATOM     62  C   UNL     1      -2.390  -3.905  12.003  1.00  0.00     0.031 A 
BRANCH  49  63
ATOM     63  C   UNL     1      -0.966   2.005  10.929  1.00  0.00    -0.014 A 
ATOM     64  C   UNL     1      -1.723   3.002  10.294  1.00  0.00     0.009 A 
ATOM     65  C   UNL     1      -0.228   2.340  12.075  1.00  0.00     0.009 A 
ATOM     66  C   UNL     1      -1.706   4.315  10.772  1.00  0.00     0.001 A 
ATOM     67  C   UNL     1      -0.239   3.645  12.570  1.00  0.00     0.001 A 
ATOM     68  C   UNL     1      -0.967   4.634  11.911  1.00  0.00     0.000 A 
ENDBRANCH  49  63
BRANCH  50  69
ATOM     69  C   UNL     1      -0.430  -7.259   7.375  1.00  0.00    -0.014 A 
ATOM     70  C   UNL     1      -1.611  -7.943   7.047  1.00  0.00     0.009 A 
ATOM     71  C   UNL     1       0.796  -7.932   7.253  1.00  0.00     0.009 A 
ATOM     72  C   UNL     1      -1.568  -9.280   6.642  1.00  0.00     0.001 A 
ATOM     73  C   UNL     1       0.839  -9.258   6.817  1.00  0.00     0.001 A 
ATOM     74  C   UNL     1      -0.343  -9.934   6.524  1.00  0.00     0.000 A 
ENDBRANCH  50  69
BRANCH  62  75
ATOM     75  C   UNL     1      -3.146  -4.506  13.160  1.00  0.00    -0.014 A 
ATOM     76  C   UNL     1      -2.519  -5.335  14.103  1.00  0.00     0.009 A 
ATOM     77  C   UNL     1      -4.510  -4.210  13.324  1.00  0.00     0.009 A 
ATOM     78  C   UNL     1      -3.250  -5.890  15.157  1.00  0.00     0.001 A 
ATOM     79  C   UNL     1      -5.230  -4.737  14.398  1.00  0.00     0.001 A 
ATOM     80  C   UNL     1      -4.603  -5.587  15.306  1.00  0.00     0.000 A 
ENDBRANCH  62  75
ENDBRANCH  36  37
ENDBRANCH  29  31
ENDBRANCH  28  29
ENDBRANCH  27  28
ENDBRANCH   1  27
TORSDOF 16
