REMARK SMILES CC[C@@H](NC(=O)N[C@@](C)(CC)C(=O)OCCOC(=O)c1ccc(-c2c3nc(c(-c4ccccc4)c4ccc([nH]4)c(-c4ccccc4)c4nc(c(-c5ccccc5)c5ccc2[nH]5)C=C4)C=C3)cc1)c1cccs1
REMARK SMILES IDX 15 1 14 2 12 3 13 4 8 5 9 6 7 7 4 8 5 9 6 11 3 13 2 14 1 15
REMARK SMILES IDX 68 16 69 17 72 18 70 19 71 20 10 21 11 22 16 23 17 24 18 25
REMARK SMILES IDX 19 26 20 27 21 28 67 29 22 30 66 31 23 32 24 33 25 34 60 35
REMARK SMILES IDX 26 36 65 37 59 38 61 39 27 40 64 41 58 42 57 43 28 45 50 46
REMARK SMILES IDX 35 47 49 48 36 49 39 50 48 51 62 52 37 53 38 54 47 56 63 57
REMARK SMILES IDX 40 58 29 59 30 60 34 61 31 62 33 63 32 64 51 65 52 66 56 67
REMARK SMILES IDX 53 68 55 69 54 70 41 71 42 72 46 73 43 74 45 75 44 76
REMARK H PARENT 4 10 7 12 61 44 39 55
REMARK Flexibility Score: inf
ROOT
ATOM      1  C   UNL     1       0.895   1.409   2.750  1.00  0.00     0.274 C 
ENDROOT
BRANCH   1   2
ATOM      2  O   UNL     1       0.129   2.925   2.976  1.00  0.00    -0.460 OA
BRANCH   2   3
ATOM      3  C   UNL     1      -0.543   4.161   2.846  1.00  0.00     0.331 C 
ATOM      4  O   UNL     1      -0.690   4.797   3.902  1.00  0.00    -0.249 OA
BRANCH   3   5
ATOM      5  C   UNL     1      -1.273   4.906   1.405  1.00  0.00     0.136 C 
ATOM      6  C   UNL     1      -0.858   6.405   1.385  1.00  0.00     0.047 C 
BRANCH   5   7
ATOM      7  N   UNL     1      -1.296   4.630  -0.095  1.00  0.00    -0.322 N 
ATOM      8  N   UNL     1       0.846   4.029  -0.610  1.00  0.00    -0.331 N 
ATOM      9  C   UNL     1      -0.286   4.612  -0.991  1.00  0.00     0.316 C 
ATOM     10  H   UNL     1       1.643   4.168  -1.171  1.00  0.00     0.166 HD
ATOM     11  O   UNL     1      -0.418   5.040  -2.127  1.00  0.00    -0.249 OA
ATOM     12  H   UNL     1      -2.186   4.435  -0.468  1.00  0.00     0.166 HD
BRANCH   8  13
ATOM     13  C   UNL     1       0.990   3.207   0.567  1.00  0.00     0.124 C 
BRANCH  13  14
ATOM     14  C   UNL     1      -0.608   2.284   0.830  1.00  0.00     0.027 C 
ATOM     15  C   UNL     1      -1.018   0.750   0.990  1.00  0.00     0.006 C 
ENDBRANCH  13  14
BRANCH  13  16
ATOM     16  C   UNL     1       1.900   4.196   1.536  1.00  0.00     0.027 A 
ATOM     17  C   UNL     1       2.365   4.210   2.862  1.00  0.00     0.017 A 
ATOM     18  S   UNL     1       2.822   5.513   0.760  1.00  0.00    -0.147 S 
ATOM     19  C   UNL     1       2.819   5.499   3.296  1.00  0.00     0.012 A 
ATOM     20  C   UNL     1       3.073   6.325   2.236  1.00  0.00     0.065 A 
ENDBRANCH  13  16
ENDBRANCH   8  13
ENDBRANCH   5   7
BRANCH   5  21
ATOM     21  C   UNL     1      -2.821   4.893   1.740  1.00  0.00     0.037 C 
ATOM     22  C   UNL     1      -3.549   3.558   1.545  1.00  0.00     0.007 C 
ENDBRANCH   5  21
ENDBRANCH   3   5
ENDBRANCH   2   3
ENDBRANCH   1   2
BRANCH   1  23
ATOM     23  C   UNL     1       1.940   0.720   1.508  1.00  0.00     0.275 C 
BRANCH  23  24
ATOM     24  O   UNL     1       1.718   0.030   0.054  1.00  0.00    -0.458 OA
BRANCH  24  25
ATOM     25  C   UNL     1       1.062   0.500  -1.037  1.00  0.00     0.338 C 
ATOM     26  O   UNL     1       0.369   1.513  -0.917  1.00  0.00    -0.246 OA
BRANCH  25  27
ATOM     27  C   UNL     1       0.829   0.248  -2.490  1.00  0.00     0.060 A 
ATOM     28  C   UNL     1       0.875   1.501  -3.164  1.00  0.00     0.016 A 
ATOM     29  C   UNL     1      -0.247  -0.577  -2.880  1.00  0.00     0.016 A 
ATOM     30  C   UNL     1      -0.271   2.003  -3.811  1.00  0.00     0.010 A 
ATOM     31  C   UNL     1      -1.203  -0.161  -3.874  1.00  0.00     0.010 A 
ATOM     32  C   UNL     1      -1.224   1.154  -4.369  1.00  0.00    -0.014 A 
BRANCH  32  33
ATOM     33  C   UNL     1      -1.998   1.645  -5.578  1.00  0.00     0.031 A 
ATOM     34  C   UNL     1      -3.485   1.439  -5.810  1.00  0.00     0.074 A 
ATOM     35  C   UNL     1      -1.293   2.279  -6.554  1.00  0.00     0.049 A 
ATOM     36  N   UNL     1      -4.161   1.509  -6.937  1.00  0.00    -0.248 NA
ATOM     37  C   UNL     1      -4.330   1.143  -4.643  1.00  0.00     0.031 C 
ATOM     38  C   UNL     1       0.122   2.670  -6.476  1.00  0.00     0.029 A 
ATOM     39  N   UNL     1      -1.647   2.698  -7.820  1.00  0.00    -0.354 N 
ATOM     40  C   UNL     1      -5.490   1.212  -6.632  1.00  0.00     0.074 A 
ATOM     41  C   UNL     1      -5.532   0.991  -5.198  1.00  0.00     0.031 C 
ATOM     42  C   UNL     1       0.500   3.291  -7.589  1.00  0.00     0.029 A 
ATOM     43  C   UNL     1      -0.572   3.167  -8.544  1.00  0.00     0.049 A 
ATOM     44  H   UNL     1      -2.567   2.666  -8.168  1.00  0.00     0.167 HD
ATOM     45  C   UNL     1      -6.554   1.109  -7.476  1.00  0.00     0.031 A 
ATOM     46  C   UNL     1      -0.371   3.366  -9.857  1.00  0.00     0.031 A 
ATOM     47  C   UNL     1      -6.483   1.348  -8.904  1.00  0.00     0.049 A 
ATOM     48  C   UNL     1      -1.498   3.102 -10.783  1.00  0.00     0.074 A 
ATOM     49  C   UNL     1      -7.485   1.241  -9.858  1.00  0.00     0.029 A 
ATOM     50  N   UNL     1      -5.340   1.750  -9.584  1.00  0.00    -0.354 N 
ATOM     51  N   UNL     1      -2.709   2.700 -10.496  1.00  0.00    -0.248 NA
ATOM     52  C   UNL     1      -1.235   3.314 -12.207  1.00  0.00     0.031 C 
ATOM     53  C   UNL     1      -6.933   1.514 -11.116  1.00  0.00     0.029 A 
ATOM     54  C   UNL     1      -5.604   1.861 -10.943  1.00  0.00     0.049 A 
ATOM     55  H   UNL     1      -4.469   1.930  -9.163  1.00  0.00     0.167 HD
ATOM     56  C   UNL     1      -3.371   2.633 -11.706  1.00  0.00     0.074 A 
ATOM     57  C   UNL     1      -2.426   3.053 -12.725  1.00  0.00     0.031 C 
ATOM     58  C   UNL     1      -4.650   2.262 -11.946  1.00  0.00     0.031 A 
BRANCH  45  59
ATOM     59  C   UNL     1      -7.880   0.633  -6.916  1.00  0.00    -0.014 A 
ATOM     60  C   UNL     1      -8.688   1.438  -6.098  1.00  0.00     0.009 A 
ATOM     61  C   UNL     1      -8.364  -0.638  -7.280  1.00  0.00     0.009 A 
ATOM     62  C   UNL     1      -9.920   0.965  -5.623  1.00  0.00     0.001 A 
ATOM     63  C   UNL     1      -9.605  -1.099  -6.827  1.00  0.00     0.001 A 
ATOM     64  C   UNL     1     -10.377  -0.302  -5.986  1.00  0.00     0.000 A 
ENDBRANCH  45  59
BRANCH  46  65
ATOM     65  C   UNL     1       0.992   3.732 -10.336  1.00  0.00    -0.014 A 
ATOM     66  C   UNL     1       1.255   5.019 -10.819  1.00  0.00     0.009 A 
ATOM     67  C   UNL     1       2.060   2.823 -10.209  1.00  0.00     0.009 A 
ATOM     68  C   UNL     1       2.557   5.388 -11.168  1.00  0.00     0.001 A 
ATOM     69  C   UNL     1       3.366   3.207 -10.518  1.00  0.00     0.001 A 
ATOM     70  C   UNL     1       3.611   4.488 -11.005  1.00  0.00     0.000 A 
ENDBRANCH  46  65
BRANCH  58  71
ATOM     71  C   UNL     1      -5.094   2.343 -13.375  1.00  0.00    -0.014 A 
ATOM     72  C   UNL     1      -4.630   1.431 -14.335  1.00  0.00     0.009 A 
ATOM     73  C   UNL     1      -5.963   3.372 -13.769  1.00  0.00     0.009 A 
ATOM     74  C   UNL     1      -4.996   1.573 -15.673  1.00  0.00     0.001 A 
ATOM     75  C   UNL     1      -6.353   3.491 -15.102  1.00  0.00     0.001 A 
ATOM     76  C   UNL     1      -5.860   2.600 -16.054  1.00  0.00     0.000 A 
ENDBRANCH  58  71
ENDBRANCH  32  33
ENDBRANCH  25  27
ENDBRANCH  24  25
ENDBRANCH  23  24
ENDBRANCH   1  23
TORSDOF 16
