REMARK SMILES COc1ccc2c(CC(=O)OCCOC(=O)c3ccc(-c4c5nc(c(-c6ccccc6)c6ccc([nH]6)c(-c6ccccc6)c6nc(c(-c7ccccc7)c7ccc4[nH]7)C=C6)C=C5)cc3)c(C(=O)c3cc(C)ccn3)[nH]c2c1
REMARK SMILES IDX 12 1 11 2 9 3 10 4 8 5 7 6 3 7 4 8 77 9 5 10 76 11 6 12
REMARK SMILES IDX 75 13 65 14 2 16 1 17 66 18 67 19 68 20 69 21 74 22 70 23
REMARK SMILES IDX 73 24 71 25 72 26 13 27 14 28 15 29 16 30 17 31 18 32 64 33
REMARK SMILES IDX 19 34 63 35 20 36 21 37 22 38 57 39 23 40 62 41 56 42 58 43
REMARK SMILES IDX 24 44 61 45 55 46 54 47 25 49 47 50 32 51 46 52 33 53 36 54
REMARK SMILES IDX 45 55 59 56 34 57 35 58 44 60 60 61 37 62 26 63 27 64 31 65
REMARK SMILES IDX 28 66 30 67 29 68 48 69 49 70 53 71 50 72 52 73 51 74 38 75
REMARK SMILES IDX 39 76 43 77 40 78 42 79 41 80
REMARK H PARENT 75 15 58 48 36 59
REMARK Flexibility Score: inf
ROOT
ATOM      1  C   UNL     1       3.700   2.584  -8.640  1.00  0.00     0.274 C 
ENDROOT
BRANCH   1   2
ATOM      2  O   UNL     1       3.039   2.793  -7.375  1.00  0.00    -0.462 OA
BRANCH   2   3
ATOM      3  C   UNL     1       3.650   3.672  -6.537  1.00  0.00     0.310 C 
ATOM      4  O   UNL     1       4.722   4.224  -6.779  1.00  0.00    -0.252 OA
BRANCH   3   5
ATOM      5  C   UNL     1       2.895   3.972  -5.262  1.00  0.00     0.161 C 
BRANCH   5   6
ATOM      6  C   UNL     1       1.670   3.153  -4.979  1.00  0.00     0.000 A 
ATOM      7  C   UNL     1       0.902   0.038  -2.295  1.00  0.00     0.120 A 
ATOM      8  C   UNL     1       2.249   0.346  -2.465  1.00  0.00     0.047 A 
ATOM      9  C   UNL     1      -0.083   0.600  -3.112  1.00  0.00     0.073 A 
ATOM     10  C   UNL     1       2.638   1.317  -3.392  1.00  0.00     0.014 A 
ATOM     11  C   UNL     1       0.324   1.598  -4.004  1.00  0.00     0.050 A 
ATOM     12  C   UNL     1       1.650   1.998  -4.133  1.00  0.00     0.004 A 
ATOM     13  N   UNL     1      -0.412   2.381  -4.862  1.00  0.00    -0.351 N 
ATOM     14  C   UNL     1       0.341   3.459  -5.279  1.00  0.00     0.093 A 
ATOM     15  H   UNL     1      -1.339   2.198  -5.137  1.00  0.00     0.167 HD
BRANCH   7  16
ATOM     16  O   UNL     1       0.478  -0.839  -1.329  1.00  0.00    -0.497 OA
ATOM     17  C   UNL     1       0.878  -0.406  -0.026  1.00  0.00     0.278 C 
ENDBRANCH   7  16
BRANCH  14  18
ATOM     18  C   UNL     1      -0.221   4.691  -5.810  1.00  0.00     0.227 C 
ATOM     19  O   UNL     1       0.344   5.779  -5.719  1.00  0.00    -0.285 OA
BRANCH  18  20
ATOM     20  C   UNL     1      -1.598   4.686  -6.358  1.00  0.00     0.113 A 
ATOM     21  C   UNL     1      -2.643   5.177  -5.581  1.00  0.00     0.036 A 
ATOM     22  N   UNL     1      -1.741   4.231  -7.623  1.00  0.00    -0.253 NA
ATOM     23  C   UNL     1      -3.922   5.210  -6.141  1.00  0.00    -0.047 A 
ATOM     24  C   UNL     1      -2.972   4.337  -8.163  1.00  0.00     0.112 A 
ATOM     25  C   UNL     1      -5.104   5.690  -5.355  1.00  0.00     0.044 C 
ATOM     26  C   UNL     1      -4.078   4.808  -7.471  1.00  0.00     0.023 A 
ENDBRANCH  18  20
ENDBRANCH  14  18
ENDBRANCH   5   6
ENDBRANCH   3   5
ENDBRANCH   2   3
ENDBRANCH   1   2
BRANCH   1  27
ATOM     27  C   UNL     1       3.025   3.393  -9.744  1.00  0.00     0.275 C 
BRANCH  27  28
ATOM     28  O   UNL     1       2.894   4.763  -9.328  1.00  0.00    -0.458 OA
BRANCH  28  29
ATOM     29  C   UNL     1       1.637   5.260  -9.361  1.00  0.00     0.338 C 
ATOM     30  O   UNL     1       0.644   4.710  -9.819  1.00  0.00    -0.246 OA
BRANCH  29  31
ATOM     31  C   UNL     1       1.612   6.631  -8.817  1.00  0.00     0.060 A 
ATOM     32  C   UNL     1       2.305   6.970  -7.655  1.00  0.00     0.016 A 
ATOM     33  C   UNL     1       0.802   7.579  -9.444  1.00  0.00     0.016 A 
ATOM     34  C   UNL     1       2.119   8.224  -7.073  1.00  0.00     0.010 A 
ATOM     35  C   UNL     1       0.697   8.867  -8.915  1.00  0.00     0.010 A 
ATOM     36  C   UNL     1       1.331   9.197  -7.707  1.00  0.00    -0.014 A 
BRANCH  36  37
ATOM     37  C   UNL     1       1.184  10.557  -7.123  1.00  0.00     0.031 A 
ATOM     38  C   UNL     1      -0.171  11.097  -6.747  1.00  0.00     0.074 A 
ATOM     39  C   UNL     1       2.275  11.329  -6.947  1.00  0.00     0.049 A 
ATOM     40  N   UNL     1      -0.501  12.310  -6.375  1.00  0.00    -0.248 NA
ATOM     41  C   UNL     1      -1.304  10.160  -6.811  1.00  0.00     0.031 C 
ATOM     42  C   UNL     1       3.653  10.932  -7.245  1.00  0.00     0.029 A 
ATOM     43  N   UNL     1       2.396  12.610  -6.469  1.00  0.00    -0.354 N 
ATOM     44  C   UNL     1      -1.880  12.295  -6.209  1.00  0.00     0.074 A 
ATOM     45  C   UNL     1      -2.328  10.954  -6.522  1.00  0.00     0.031 C 
ATOM     46  C   UNL     1       4.482  11.928  -6.902  1.00  0.00     0.029 A 
ATOM     47  C   UNL     1       3.692  13.061  -6.435  1.00  0.00     0.049 A 
ATOM     48  H   UNL     1       1.627  13.152  -6.178  1.00  0.00     0.167 HD
ATOM     49  C   UNL     1      -2.699  13.308  -5.834  1.00  0.00     0.031 A 
ATOM     50  C   UNL     1       4.197  14.261  -6.096  1.00  0.00     0.031 A 
ATOM     51  C   UNL     1      -2.257  14.632  -5.482  1.00  0.00     0.049 A 
ATOM     52  C   UNL     1       3.269  15.367  -5.693  1.00  0.00     0.074 A 
ATOM     53  C   UNL     1      -3.017  15.716  -5.074  1.00  0.00     0.029 A 
ATOM     54  N   UNL     1      -0.935  15.049  -5.479  1.00  0.00    -0.354 N 
ATOM     55  N   UNL     1       1.963  15.348  -5.586  1.00  0.00    -0.248 NA
ATOM     56  C   UNL     1       3.885  16.662  -5.376  1.00  0.00     0.031 C 
ATOM     57  C   UNL     1      -2.157  16.798  -4.851  1.00  0.00     0.029 A 
ATOM     58  C   UNL     1      -0.860  16.375  -5.085  1.00  0.00     0.049 A 
ATOM     59  H   UNL     1      -0.165  14.487  -5.722  1.00  0.00     0.167 HD
ATOM     60  C   UNL     1       1.601  16.626  -5.186  1.00  0.00     0.074 A 
ATOM     61  C   UNL     1       2.826  17.388  -5.047  1.00  0.00     0.031 C 
ATOM     62  C   UNL     1       0.362  17.124  -4.959  1.00  0.00     0.031 A 
BRANCH  49  63
ATOM     63  C   UNL     1      -4.176  13.034  -5.810  1.00  0.00    -0.014 A 
ATOM     64  C   UNL     1      -4.767  12.298  -4.773  1.00  0.00     0.009 A 
ATOM     65  C   UNL     1      -4.995  13.574  -6.815  1.00  0.00     0.009 A 
ATOM     66  C   UNL     1      -6.149  12.090  -4.754  1.00  0.00     0.001 A 
ATOM     67  C   UNL     1      -6.377  13.382  -6.783  1.00  0.00     0.001 A 
ATOM     68  C   UNL     1      -6.952  12.636  -5.756  1.00  0.00     0.000 A 
ENDBRANCH  49  63
BRANCH  50  69
ATOM     69  C   UNL     1       5.662  14.483  -6.158  1.00  0.00    -0.014 A 
ATOM     70  C   UNL     1       6.417  14.570  -4.979  1.00  0.00     0.009 A 
ATOM     71  C   UNL     1       6.315  14.582  -7.397  1.00  0.00     0.009 A 
ATOM     72  C   UNL     1       7.798  14.761  -5.041  1.00  0.00     0.001 A 
ATOM     73  C   UNL     1       7.699  14.748  -7.454  1.00  0.00     0.001 A 
ATOM     74  C   UNL     1       8.439  14.843  -6.277  1.00  0.00     0.000 A 
ENDBRANCH  50  69
BRANCH  62  75
ATOM     75  C   UNL     1       0.280  18.555  -4.517  1.00  0.00    -0.014 A 
ATOM     76  C   UNL     1       0.453  19.604  -5.433  1.00  0.00     0.009 A 
ATOM     77  C   UNL     1       0.018  18.855  -3.172  1.00  0.00     0.009 A 
ATOM     78  C   UNL     1       0.397  20.930  -5.001  1.00  0.00     0.001 A 
ATOM     79  C   UNL     1      -0.056  20.183  -2.748  1.00  0.00     0.001 A 
ATOM     80  C   UNL     1       0.142  21.218  -3.660  1.00  0.00     0.000 A 
ENDBRANCH  62  75
ENDBRANCH  36  37
ENDBRANCH  29  31
ENDBRANCH  28  29
ENDBRANCH  27  28
ENDBRANCH   1  27
TORSDOF 15
