REMARK SMILES COCc1cccc(C(=O)N2C[C@@H](O)C[C@@H]2C(=O)OCCOC(=O)c2ccc(-c3c4nc(c(-c5ccccc5)c5ccc([nH]5)c(-c5ccccc5)c5nc(c(-c6ccccc6)c6ccc3[nH]6)C=C5)C=C4)cc2)c1
REMARK SMILES IDX 20 1 19 2 17 3 18 4 16 5 11 6 12 7 13 8 15 9 9 10 10 11 8 12
REMARK SMILES IDX 4 13 5 14 73 15 6 16 7 17 3 18 2 19 1 20 14 21 21 23 22 24
REMARK SMILES IDX 23 25 24 26 25 27 26 28 72 29 27 30 71 31 28 32 29 33 30 34
REMARK SMILES IDX 65 35 31 36 70 37 64 38 66 39 32 40 69 41 63 42 62 43 33 45
REMARK SMILES IDX 55 46 40 47 54 48 41 49 44 50 53 51 67 52 42 53 43 54 52 56
REMARK SMILES IDX 68 57 45 58 34 59 35 60 39 61 36 62 38 63 37 64 56 65 57 66
REMARK SMILES IDX 61 67 58 68 60 69 59 70 46 71 47 72 51 73 48 74 50 75 49 76
REMARK H PARENT 14 22 66 44 44 55
REMARK Flexibility Score: inf
ROOT
ATOM      1  C   UNL     1       2.475  -5.518  -5.370  1.00  0.00     0.274 C 
ENDROOT
BRANCH   1   2
ATOM      2  O   UNL     1       1.094  -5.651  -4.982  1.00  0.00    -0.461 OA
BRANCH   2   3
ATOM      3  C   UNL     1       0.222  -4.845  -5.645  1.00  0.00     0.329 C 
ATOM      4  O   UNL     1       0.567  -3.978  -6.443  1.00  0.00    -0.250 OA
BRANCH   3   5
ATOM      5  C   UNL     1      -1.242  -5.061  -5.239  1.00  0.00     0.198 C 
ATOM      6  N   UNL     1      -1.655  -4.000  -4.332  1.00  0.00    -0.322 N 
ATOM      7  C   UNL     1      -2.501  -4.532  -3.288  1.00  0.00     0.152 C 
ATOM      8  C   UNL     1      -1.951  -5.941  -3.099  1.00  0.00     0.136 C 
ATOM      9  C   UNL     1      -1.599  -6.369  -4.527  1.00  0.00     0.071 C 
BRANCH   6  10
ATOM     10  C   UNL     1      -1.758  -2.700  -4.777  1.00  0.00     0.254 C 
ATOM     11  O   UNL     1      -2.380  -2.390  -5.786  1.00  0.00    -0.269 OA
BRANCH  10  12
ATOM     12  C   UNL     1      -0.876  -1.729  -4.057  1.00  0.00     0.040 A 
ATOM     13  C   UNL     1       0.753  -1.236  -2.304  1.00  0.00    -0.022 A 
ATOM     14  C   UNL     1       0.964   0.023  -2.879  1.00  0.00     0.006 A 
ATOM     15  C   UNL     1      -0.174  -2.099  -2.899  1.00  0.00     0.020 A 
ATOM     16  C   UNL     1       0.261   0.407  -4.024  1.00  0.00     0.001 A 
ATOM     17  C   UNL     1      -0.656  -0.466  -4.614  1.00  0.00     0.014 A 
BRANCH  13  18
ATOM     18  C   UNL     1       1.499  -1.678  -1.071  1.00  0.00     0.195 C 
BRANCH  18  19
ATOM     19  O   UNL     1       0.775  -1.383   0.120  1.00  0.00    -0.380 OA
ATOM     20  C   UNL     1       0.948  -0.042   0.556  1.00  0.00     0.195 C 
ENDBRANCH  18  19
ENDBRANCH  13  18
ENDBRANCH  10  12
ENDBRANCH   6  10
BRANCH   8  21
ATOM     21  O   UNL     1      -2.876  -6.824  -2.494  1.00  0.00    -0.391 OA
ATOM     22  H   UNL     1      -3.679  -6.872  -3.035  1.00  0.00     0.211 HD
ENDBRANCH   8  21
ENDBRANCH   3   5
ENDBRANCH   2   3
ENDBRANCH   1   2
BRANCH   1  23
ATOM     23  C   UNL     1       2.886  -6.588  -6.389  1.00  0.00     0.275 C 
BRANCH  23  24
ATOM     24  O   UNL     1       2.230  -6.427  -7.662  1.00  0.00    -0.458 OA
BRANCH  24  25
ATOM     25  C   UNL     1       1.030  -7.045  -7.767  1.00  0.00     0.338 C 
ATOM     26  O   UNL     1       0.463  -7.708  -6.914  1.00  0.00    -0.246 OA
BRANCH  25  27
ATOM     27  C   UNL     1       0.381  -6.701  -9.040  1.00  0.00     0.060 A 
ATOM     28  C   UNL     1      -0.838  -6.022  -8.982  1.00  0.00     0.016 A 
ATOM     29  C   UNL     1       0.885  -7.148 -10.261  1.00  0.00     0.016 A 
ATOM     30  C   UNL     1      -1.579  -5.809 -10.136  1.00  0.00     0.010 A 
ATOM     31  C   UNL     1       0.144  -6.922 -11.427  1.00  0.00     0.010 A 
ATOM     32  C   UNL     1      -1.100  -6.268 -11.367  1.00  0.00    -0.014 A 
BRANCH  32  33
ATOM     33  C   UNL     1      -1.940  -6.102 -12.575  1.00  0.00     0.031 A 
ATOM     34  C   UNL     1      -2.631  -7.291 -13.178  1.00  0.00     0.074 A 
ATOM     35  C   UNL     1      -2.123  -4.876 -13.098  1.00  0.00     0.049 A 
ATOM     36  N   UNL     1      -3.350  -7.363 -14.268  1.00  0.00    -0.248 NA
ATOM     37  C   UNL     1      -2.495  -8.568 -12.458  1.00  0.00     0.031 C 
ATOM     38  C   UNL     1      -1.563  -3.635 -12.561  1.00  0.00     0.029 A 
ATOM     39  N   UNL     1      -2.841  -4.474 -14.195  1.00  0.00    -0.354 N 
ATOM     40  C   UNL     1      -3.732  -8.694 -14.381  1.00  0.00     0.074 A 
ATOM     41  C   UNL     1      -3.157  -9.397 -13.254  1.00  0.00     0.031 C 
ATOM     42  C   UNL     1      -1.968  -2.608 -13.324  1.00  0.00     0.029 A 
ATOM     43  C   UNL     1      -2.770  -3.124 -14.429  1.00  0.00     0.049 A 
ATOM     44  H   UNL     1      -3.358  -5.094 -14.759  1.00  0.00     0.167 HD
ATOM     45  C   UNL     1      -4.491  -9.276 -15.339  1.00  0.00     0.031 A 
ATOM     46  C   UNL     1      -3.270  -2.388 -15.439  1.00  0.00     0.031 A 
ATOM     47  C   UNL     1      -5.069  -8.574 -16.454  1.00  0.00     0.049 A 
ATOM     48  C   UNL     1      -4.053  -3.069 -16.525  1.00  0.00     0.074 A 
ATOM     49  C   UNL     1      -5.849  -9.076 -17.480  1.00  0.00     0.029 A 
ATOM     50  N   UNL     1      -4.931  -7.214 -16.684  1.00  0.00    -0.354 N 
ATOM     51  N   UNL     1      -4.379  -4.333 -16.638  1.00  0.00    -0.248 NA
ATOM     52  C   UNL     1      -4.529  -2.220 -17.626  1.00  0.00     0.031 C 
ATOM     53  C   UNL     1      -6.151  -8.025 -18.354  1.00  0.00     0.029 A 
ATOM     54  C   UNL     1      -5.596  -6.862 -17.846  1.00  0.00     0.049 A 
ATOM     55  H   UNL     1      -4.434  -6.590 -16.107  1.00  0.00     0.167 HD
ATOM     56  C   UNL     1      -5.110  -4.431 -17.814  1.00  0.00     0.074 A 
ATOM     57  C   UNL     1      -5.194  -3.095 -18.368  1.00  0.00     0.031 C 
ATOM     58  C   UNL     1      -5.662  -5.529 -18.384  1.00  0.00     0.031 A 
BRANCH  45  59
ATOM     59  C   UNL     1      -4.701 -10.759 -15.243  1.00  0.00    -0.014 A 
ATOM     60  C   UNL     1      -5.578 -11.314 -14.299  1.00  0.00     0.009 A 
ATOM     61  C   UNL     1      -4.028 -11.613 -16.132  1.00  0.00     0.009 A 
ATOM     62  C   UNL     1      -5.754 -12.698 -14.227  1.00  0.00     0.001 A 
ATOM     63  C   UNL     1      -4.223 -12.993 -16.073  1.00  0.00     0.001 A 
ATOM     64  C   UNL     1      -5.079 -13.536 -15.116  1.00  0.00     0.000 A 
ENDBRANCH  45  59
BRANCH  46  65
ATOM     65  C   UNL     1      -3.009  -0.927 -15.488  1.00  0.00    -0.014 A 
ATOM     66  C   UNL     1      -4.039  -0.007 -15.249  1.00  0.00     0.009 A 
ATOM     67  C   UNL     1      -1.720  -0.448 -15.772  1.00  0.00     0.009 A 
ATOM     68  C   UNL     1      -3.787   1.365 -15.309  1.00  0.00     0.001 A 
ATOM     69  C   UNL     1      -1.465   0.924 -15.805  1.00  0.00     0.001 A 
ATOM     70  C   UNL     1      -2.500   1.829 -15.581  1.00  0.00     0.000 A 
ENDBRANCH  46  65
BRANCH  58  71
ATOM     71  C   UNL     1      -6.422  -5.322 -19.661  1.00  0.00    -0.014 A 
ATOM     72  C   UNL     1      -5.753  -5.105 -20.875  1.00  0.00     0.009 A 
ATOM     73  C   UNL     1      -7.824  -5.377 -19.653  1.00  0.00     0.009 A 
ATOM     74  C   UNL     1      -6.476  -4.917 -22.054  1.00  0.00     0.001 A 
ATOM     75  C   UNL     1      -8.544  -5.210 -20.837  1.00  0.00     0.001 A 
ATOM     76  C   UNL     1      -7.870  -4.973 -22.034  1.00  0.00     0.000 A 
ENDBRANCH  58  71
ENDBRANCH  32  33
ENDBRANCH  25  27
ENDBRANCH  24  25
ENDBRANCH  23  24
ENDBRANCH   1  23
TORSDOF 16
