REMARK SMILES C[C@@H]1[C@@H](C(=O)OCCOC(=O)c2ccc(-c3c4nc(c(-c5ccccc5)c5ccc([nH]5)c(-c5ccccc5)c5nc(c(-c6ccccc6)c6ccc3[nH]6)C=C5)C=C4)cc2)CCN1C(=O)[C@@H](C)OCc1ccccc1
REMARK SMILES IDX 6 1 4 2 5 3 3 4 1 5 2 6 62 7 60 8 61 9 63 10 64 11 65 12
REMARK SMILES IDX 66 13 67 14 68 15 69 16 70 17 74 18 71 19 73 20 72 21 7 22
REMARK SMILES IDX 8 23 9 24 10 25 11 26 12 27 13 28 59 29 14 30 58 31 15 32
REMARK SMILES IDX 16 33 17 34 52 35 18 36 57 37 51 38 53 39 19 40 56 41 50 42
REMARK SMILES IDX 49 43 20 45 42 46 27 47 41 48 28 49 31 50 40 51 54 52 29 53
REMARK SMILES IDX 30 54 39 56 55 57 32 58 21 59 22 60 26 61 23 62 25 63 24 64
REMARK SMILES IDX 43 65 44 66 48 67 45 68 47 69 46 70 33 71 34 72 38 73 35 74
REMARK SMILES IDX 37 75 36 76
REMARK H PARENT 53 44 31 55
REMARK Flexibility Score: inf
ROOT
ATOM      1  O   UNL     1      -2.136   2.045  -1.951  1.00  0.00    -0.462 OA
ENDROOT
BRANCH   1   2
ATOM      2  C   UNL     1      -1.380   0.964  -1.607  1.00  0.00     0.311 C 
ATOM      3  O   UNL     1      -1.117   0.036  -2.357  1.00  0.00    -0.252 OA
BRANCH   2   4
ATOM      4  C   UNL     1      -0.942   1.077  -0.155  1.00  0.00     0.123 C 
ATOM      5  C   UNL     1       0.827   0.440   1.527  1.00  0.00     0.032 C 
ATOM      6  C   UNL     1       0.067  -0.001   0.261  1.00  0.00     0.096 C 
ATOM      7  N   UNL     1      -0.744  -1.183   0.511  1.00  0.00    -0.337 N 
ATOM      8  C   UNL     1      -2.119   0.745   0.757  1.00  0.00     0.039 C 
ATOM      9  C   UNL     1      -2.119  -0.782   0.769  1.00  0.00     0.121 C 
BRANCH   7  10
ATOM     10  C   UNL     1      -0.491  -2.524   0.327  1.00  0.00     0.251 C 
ATOM     11  O   UNL     1      -1.376  -3.336   0.652  1.00  0.00    -0.272 OA
BRANCH  10  12
ATOM     12  C   UNL     1       0.748  -3.111  -0.448  1.00  0.00     0.204 C 
ATOM     13  C   UNL     1       0.260  -3.318  -1.906  1.00  0.00     0.049 C 
BRANCH  12  14
ATOM     14  O   UNL     1       2.153  -2.974  -0.346  1.00  0.00    -0.364 OA
BRANCH  14  15
ATOM     15  C   UNL     1       2.811  -1.739  -0.100  1.00  0.00     0.196 C 
BRANCH  15  16
ATOM     16  C   UNL     1       2.827  -0.844  -1.316  1.00  0.00    -0.022 A 
ATOM     17  C   UNL     1       2.379  -1.662  -2.835  1.00  0.00     0.006 A 
ATOM     18  C   UNL     1       3.444   0.820  -1.280  1.00  0.00     0.006 A 
ATOM     19  C   UNL     1       2.391  -0.936  -4.411  1.00  0.00     0.000 A 
ATOM     20  C   UNL     1       3.620   1.684  -2.863  1.00  0.00     0.000 A 
ATOM     21  C   UNL     1       3.031   0.715  -4.540  1.00  0.00     0.000 A 
ENDBRANCH  15  16
ENDBRANCH  14  15
ENDBRANCH  12  14
ENDBRANCH  10  12
ENDBRANCH   7  10
ENDBRANCH   2   4
ENDBRANCH   1   2
BRANCH   1  22
ATOM     22  C   UNL     1      -2.601   2.095  -3.313  1.00  0.00     0.274 C 
BRANCH  22  23
ATOM     23  C   UNL     1      -1.761   3.060  -4.152  1.00  0.00     0.275 C 
BRANCH  23  24
ATOM     24  O   UNL     1      -0.439   2.540  -4.386  1.00  0.00    -0.458 OA
BRANCH  24  25
ATOM     25  C   UNL     1       0.473   2.861  -3.444  1.00  0.00     0.338 C 
ATOM     26  O   UNL     1       0.325   3.560  -2.456  1.00  0.00    -0.246 OA
BRANCH  25  27
ATOM     27  C   UNL     1       1.721   2.170  -3.724  1.00  0.00     0.060 A 
ATOM     28  C   UNL     1       2.067   0.602  -2.916  1.00  0.00     0.016 A 
ATOM     29  C   UNL     1       3.026   2.937  -4.641  1.00  0.00     0.016 A 
ATOM     30  C   UNL     1       3.925  -0.157  -3.111  1.00  0.00     0.010 A 
ATOM     31  C   UNL     1       4.658   2.210  -4.818  1.00  0.00     0.010 A 
ATOM     32  C   UNL     1       5.129   0.670  -4.098  1.00  0.00    -0.014 A 
BRANCH  32  33
ATOM     33  C   UNL     1       6.415  -0.065  -4.094  1.00  0.00     0.031 A 
ATOM     34  C   UNL     1       7.601   0.644  -3.580  1.00  0.00     0.074 A 
ATOM     35  C   UNL     1       6.443  -1.417  -4.242  1.00  0.00     0.049 A 
ATOM     36  N   UNL     1       8.826   0.214  -3.531  1.00  0.00    -0.248 NA
ATOM     37  C   UNL     1       7.404   2.013  -3.084  1.00  0.00     0.031 C 
ATOM     38  C   UNL     1       5.296  -2.242  -4.614  1.00  0.00     0.029 A 
ATOM     39  N   UNL     1       7.405  -2.371  -4.008  1.00  0.00    -0.354 N 
ATOM     40  C   UNL     1       9.564   1.292  -3.089  1.00  0.00     0.074 A 
ATOM     41  C   UNL     1       8.653   2.393  -2.874  1.00  0.00     0.031 C 
ATOM     42  C   UNL     1       5.524  -3.533  -4.357  1.00  0.00     0.029 A 
ATOM     43  C   UNL     1       6.942  -3.672  -4.128  1.00  0.00     0.049 A 
ATOM     44  H   UNL     1       8.336  -2.151  -3.777  1.00  0.00     0.167 HD
ATOM     45  C   UNL     1      10.900   1.335  -2.921  1.00  0.00     0.031 A 
ATOM     46  C   UNL     1       7.592  -4.850  -4.192  1.00  0.00     0.031 A 
ATOM     47  C   UNL     1      11.745   0.197  -3.157  1.00  0.00     0.049 A 
ATOM     48  C   UNL     1       9.081  -4.744  -4.170  1.00  0.00     0.074 A 
ATOM     49  C   UNL     1      13.121   0.125  -3.131  1.00  0.00     0.029 A 
ATOM     50  N   UNL     1      11.276  -1.079  -3.457  1.00  0.00    -0.354 N 
ATOM     51  N   UNL     1       9.810  -3.680  -3.932  1.00  0.00    -0.248 NA
ATOM     52  C   UNL     1       9.843  -5.956  -4.477  1.00  0.00     0.031 C 
ATOM     53  C   UNL     1      13.487  -1.177  -3.482  1.00  0.00     0.029 A 
ATOM     54  C   UNL     1      12.340  -1.944  -3.636  1.00  0.00     0.049 A 
ATOM     55  H   UNL     1      10.326  -1.330  -3.531  1.00  0.00     0.167 HD
ATOM     56  C   UNL     1      11.121  -4.091  -4.045  1.00  0.00     0.074 A 
ATOM     57  C   UNL     1      11.084  -5.514  -4.339  1.00  0.00     0.031 C 
ATOM     58  C   UNL     1      12.251  -3.356  -3.921  1.00  0.00     0.031 A 
BRANCH  45  59
ATOM     59  C   UNL     1      11.479   2.679  -2.617  1.00  0.00    -0.014 A 
ATOM     60  C   UNL     1      11.241   3.334  -1.399  1.00  0.00     0.009 A 
ATOM     61  C   UNL     1      12.193   3.346  -3.624  1.00  0.00     0.009 A 
ATOM     62  C   UNL     1      11.665   4.652  -1.216  1.00  0.00     0.001 A 
ATOM     63  C   UNL     1      12.651   4.647  -3.423  1.00  0.00     0.001 A 
ATOM     64  C   UNL     1      12.373   5.303  -2.225  1.00  0.00     0.000 A 
ENDBRANCH  45  59
BRANCH  46  65
ATOM     65  C   UNL     1       6.895  -6.146  -4.478  1.00  0.00    -0.014 A 
ATOM     66  C   UNL     1       7.033  -7.253  -3.626  1.00  0.00     0.009 A 
ATOM     67  C   UNL     1       6.116  -6.308  -5.641  1.00  0.00     0.009 A 
ATOM     68  C   UNL     1       6.433  -8.481  -3.939  1.00  0.00     0.001 A 
ATOM     69  C   UNL     1       5.478  -7.519  -5.928  1.00  0.00     0.001 A 
ATOM     70  C   UNL     1       5.649  -8.611  -5.084  1.00  0.00     0.000 A 
ENDBRANCH  46  65
BRANCH  58  71
ATOM     71  C   UNL     1      13.532  -4.118  -4.017  1.00  0.00    -0.014 A 
ATOM     72  C   UNL     1      13.980  -4.660  -5.230  1.00  0.00     0.009 A 
ATOM     73  C   UNL     1      14.307  -4.273  -2.858  1.00  0.00     0.009 A 
ATOM     74  C   UNL     1      15.170  -5.383  -5.269  1.00  0.00     0.001 A 
ATOM     75  C   UNL     1      15.518  -4.953  -2.912  1.00  0.00     0.001 A 
ATOM     76  C   UNL     1      15.941  -5.519  -4.114  1.00  0.00     0.000 A 
ENDBRANCH  58  71
ENDBRANCH  32  33
ENDBRANCH  25  27
ENDBRANCH  24  25
ENDBRANCH  23  24
ENDBRANCH  22  23
ENDBRANCH   1  22
TORSDOF 16
