REMARK SMILES CC(C)Cc1ccc([C@@H](C)C(=O)OCCOC(=O)c2ccc(-c3c4nc(c(-c5ccccc5)c5ccc([nH]5)c(-c5ccccc5)c5nc(c(-c6ccccc6)c6ccc3[nH]6)C=C5)C=C4)cc2)cc1
REMARK SMILES IDX 14 1 13 2 11 3 12 4 9 5 10 6 8 7 5 8 6 9 68 10 7 11 67 12
REMARK SMILES IDX 4 13 2 14 1 15 3 16 15 17 16 18 17 19 18 20 19 21 20 22
REMARK SMILES IDX 66 23 21 24 65 25 22 26 23 27 24 28 59 29 25 30 64 31 58 32
REMARK SMILES IDX 60 33 26 34 63 35 57 36 56 37 27 39 49 40 34 41 48 42 35 43
REMARK SMILES IDX 38 44 47 45 61 46 36 47 37 48 46 50 62 51 39 52 28 53 29 54
REMARK SMILES IDX 33 55 30 56 32 57 31 58 50 59 51 60 55 61 52 62 54 63 53 64
REMARK SMILES IDX 40 65 41 66 45 67 42 68 44 69 43 70
REMARK H PARENT 60 38 38 49
REMARK Flexibility Score: inf
ROOT
ATOM      1  C   UNL     1      -4.195   6.954   0.382  1.00  0.00     0.274 C 
ENDROOT
BRANCH   1   2
ATOM      2  O   UNL     1      -3.083   6.083   0.664  1.00  0.00    -0.462 OA
BRANCH   2   3
ATOM      3  C   UNL     1      -2.749   5.922   1.971  1.00  0.00     0.313 C 
ATOM      4  O   UNL     1      -3.294   6.511   2.901  1.00  0.00    -0.252 OA
BRANCH   3   5
ATOM      5  C   UNL     1      -1.578   4.976   2.192  1.00  0.00     0.126 C 
ATOM      6  C   UNL     1      -0.276   5.769   2.287  1.00  0.00     0.025 C 
BRANCH   5   7
ATOM      7  C   UNL     1      -1.473   3.806   1.226  1.00  0.00    -0.034 A 
ATOM      8  C   UNL     1      -1.136   1.581  -0.481  1.00  0.00    -0.048 A 
ATOM      9  C   UNL     1      -0.908   2.880  -0.951  1.00  0.00     0.004 A 
ATOM     10  C   UNL     1      -1.580   1.404   0.831  1.00  0.00     0.004 A 
ATOM     11  C   UNL     1      -1.073   3.979  -0.106  1.00  0.00     0.005 A 
ATOM     12  C   UNL     1      -1.738   2.503   1.677  1.00  0.00     0.005 A 
BRANCH   8  13
ATOM     13  C   UNL     1      -0.823   0.388  -1.351  1.00  0.00     0.038 C 
BRANCH  13  14
ATOM     14  C   UNL     1       0.696   0.148  -1.483  1.00  0.00    -0.013 C 
ATOM     15  C   UNL     1       1.345  -0.214  -0.142  1.00  0.00     0.008 C 
ATOM     16  C   UNL     1       0.968  -0.959  -2.502  1.00  0.00     0.008 C 
ENDBRANCH  13  14
ENDBRANCH   8  13
ENDBRANCH   5   7
ENDBRANCH   3   5
ENDBRANCH   2   3
ENDBRANCH   1   2
BRANCH   1  17
ATOM     17  C   UNL     1      -5.481   6.159   0.152  1.00  0.00     0.275 C 
BRANCH  17  18
ATOM     18  O   UNL     1      -5.932   5.541   1.373  1.00  0.00    -0.458 OA
BRANCH  18  19
ATOM     19  C   UNL     1      -5.644   4.225   1.486  1.00  0.00     0.338 C 
ATOM     20  O   UNL     1      -5.117   3.503   0.659  1.00  0.00    -0.246 OA
BRANCH  19  21
ATOM     21  C   UNL     1      -5.971   3.759   2.841  1.00  0.00     0.060 A 
ATOM     22  C   UNL     1      -4.913   3.400   3.679  1.00  0.00     0.016 A 
ATOM     23  C   UNL     1      -7.292   3.553   3.238  1.00  0.00     0.016 A 
ATOM     24  C   UNL     1      -5.166   2.792   4.904  1.00  0.00     0.010 A 
ATOM     25  C   UNL     1      -7.547   2.952   4.477  1.00  0.00     0.010 A 
ATOM     26  C   UNL     1      -6.485   2.540   5.302  1.00  0.00    -0.014 A 
BRANCH  26  27
ATOM     27  C   UNL     1      -6.730   1.765   6.542  1.00  0.00     0.031 A 
ATOM     28  C   UNL     1      -7.136   0.320   6.450  1.00  0.00     0.074 A 
ATOM     29  C   UNL     1      -6.537   2.336   7.745  1.00  0.00     0.049 A 
ATOM     30  N   UNL     1      -7.391  -0.528   7.414  1.00  0.00    -0.248 NA
ATOM     31  C   UNL     1      -7.274  -0.244   5.098  1.00  0.00     0.031 C 
ATOM     32  C   UNL     1      -6.111   3.718   7.969  1.00  0.00     0.029 A 
ATOM     33  N   UNL     1      -6.669   1.815   9.007  1.00  0.00    -0.354 N 
ATOM     34  C   UNL     1      -7.743  -1.717   6.787  1.00  0.00     0.074 A 
ATOM     35  C   UNL     1      -7.679  -1.479   5.361  1.00  0.00     0.031 C 
ATOM     36  C   UNL     1      -6.007   3.932   9.292  1.00  0.00     0.029 A 
ATOM     37  C   UNL     1      -6.386   2.716  10.005  1.00  0.00     0.049 A 
ATOM     38  H   UNL     1      -6.941   0.885   9.181  1.00  0.00     0.167 HD
ATOM     39  C   UNL     1      -8.088  -2.900   7.347  1.00  0.00     0.031 A 
ATOM     40  C   UNL     1      -6.438   2.577  11.343  1.00  0.00     0.031 A 
ATOM     41  C   UNL     1      -8.133  -3.151   8.762  1.00  0.00     0.049 A 
ATOM     42  C   UNL     1      -6.840   1.256  11.936  1.00  0.00     0.074 A 
ATOM     43  C   UNL     1      -8.448  -4.328   9.419  1.00  0.00     0.029 A 
ATOM     44  N   UNL     1      -7.854  -2.209   9.738  1.00  0.00    -0.354 N 
ATOM     45  N   UNL     1      -7.150   0.137  11.329  1.00  0.00    -0.248 NA
ATOM     46  C   UNL     1      -6.893   1.180  13.404  1.00  0.00     0.031 C 
ATOM     47  C   UNL     1      -8.391  -4.089  10.797  1.00  0.00     0.029 A 
ATOM     48  C   UNL     1      -8.005  -2.773  10.993  1.00  0.00     0.049 A 
ATOM     49  H   UNL     1      -7.588  -1.277   9.565  1.00  0.00     0.167 HD
ATOM     50  C   UNL     1      -7.413  -0.780  12.338  1.00  0.00     0.074 A 
ATOM     51  C   UNL     1      -7.210  -0.092  13.596  1.00  0.00     0.031 C 
ATOM     52  C   UNL     1      -7.794  -2.076  12.233  1.00  0.00     0.031 A 
BRANCH  39  53
ATOM     53  C   UNL     1      -8.475  -4.016   6.421  1.00  0.00    -0.014 A 
ATOM     54  C   UNL     1      -7.507  -4.745   5.714  1.00  0.00     0.009 A 
ATOM     55  C   UNL     1      -9.827  -4.369   6.290  1.00  0.00     0.009 A 
ATOM     56  C   UNL     1      -7.891  -5.794   4.876  1.00  0.00     0.001 A 
ATOM     57  C   UNL     1     -10.205  -5.430   5.467  1.00  0.00     0.001 A 
ATOM     58  C   UNL     1      -9.237  -6.138   4.756  1.00  0.00     0.000 A 
ENDBRANCH  39  53
BRANCH  40  59
ATOM     59  C   UNL     1      -6.117   3.727  12.225  1.00  0.00    -0.014 A 
ATOM     60  C   UNL     1      -4.939   3.739  12.986  1.00  0.00     0.009 A 
ATOM     61  C   UNL     1      -7.011   4.804  12.337  1.00  0.00     0.009 A 
ATOM     62  C   UNL     1      -4.676   4.792  13.864  1.00  0.00     0.001 A 
ATOM     63  C   UNL     1      -6.733   5.867  13.197  1.00  0.00     0.001 A 
ATOM     64  C   UNL     1      -5.572   5.856  13.967  1.00  0.00     0.000 A 
ENDBRANCH  40  59
BRANCH  52  65
ATOM     65  C   UNL     1      -7.981  -2.836  13.513  1.00  0.00    -0.014 A 
ATOM     66  C   UNL     1      -9.111  -2.629  14.320  1.00  0.00     0.009 A 
ATOM     67  C   UNL     1      -7.026  -3.786  13.905  1.00  0.00     0.009 A 
ATOM     68  C   UNL     1      -9.261  -3.335  15.515  1.00  0.00     0.001 A 
ATOM     69  C   UNL     1      -7.191  -4.506  15.089  1.00  0.00     0.001 A 
ATOM     70  C   UNL     1      -8.303  -4.274  15.897  1.00  0.00     0.000 A 
ENDBRANCH  52  65
ENDBRANCH  26  27
ENDBRANCH  19  21
ENDBRANCH  18  19
ENDBRANCH  17  18
ENDBRANCH   1  17
TORSDOF 14
