REMARK SMILES CCOC(=O)C1=NN(c2ccc([N+](=O)[O-])cc2C(F)(F)F)[C@@](C)(C(=O)OCCOC(=O)c2ccc(-c3c4nc(c(-c5ccccc5)c5ccc([nH]5)c(-c5ccccc5)c5nc(c(-c6ccccc6)c6ccc3[nH]6)C=C5)C=C4)cc2)C1
REMARK SMILES IDX 27 1 26 2 24 3 25 4 22 5 6 6 7 7 80 8 8 9 23 10 4 11 5 12
REMARK SMILES IDX 3 13 2 14 1 15 9 16 10 17 17 18 11 19 16 20 12 21 18 22
REMARK SMILES IDX 19 23 20 24 21 25 13 26 14 27 15 28 28 29 29 30 30 31 31 32
REMARK SMILES IDX 32 33 33 34 79 35 34 36 78 37 35 38 36 39 37 40 72 41 38 42
REMARK SMILES IDX 77 43 71 44 73 45 39 46 76 47 70 48 69 49 40 51 62 52 47 53
REMARK SMILES IDX 61 54 48 55 51 56 60 57 74 58 49 59 50 60 59 62 75 63 52 64
REMARK SMILES IDX 41 65 42 66 46 67 43 68 45 69 44 70 63 71 64 72 68 73 65 74
REMARK SMILES IDX 67 75 66 76 53 77 54 78 58 79 55 80 57 81 56 82
REMARK H PARENT 73 50 51 61
REMARK Flexibility Score: inf
ROOT
ATOM      1  C   UNL     1       6.518  -5.690   5.043  1.00  0.00     0.274 C 
ENDROOT
BRANCH   1   2
ATOM      2  O   UNL     1       5.295  -4.972   5.322  1.00  0.00    -0.460 OA
BRANCH   2   3
ATOM      3  C   UNL     1       5.337  -3.623   5.163  1.00  0.00     0.334 C 
ATOM      4  O   UNL     1       6.351  -3.007   4.838  1.00  0.00    -0.249 OA
BRANCH   3   5
ATOM      5  C   UNL     1       4.024  -2.894   5.500  1.00  0.00     0.163 C 
ATOM      6  C   UNL     1       2.627  -2.740   3.662  1.00  0.00     0.149 C 
ATOM      7  N   UNL     1       2.139  -3.733   4.334  1.00  0.00    -0.169 NA
ATOM      8  C   UNL     1       3.676  -1.927   4.343  1.00  0.00     0.108 C 
ATOM      9  N   UNL     1       2.816  -3.753   5.520  1.00  0.00    -0.247 N 
ATOM     10  C   UNL     1       4.290  -2.128   6.792  1.00  0.00     0.050 C 
BRANCH   6  11
ATOM     11  C   UNL     1       2.124  -2.377   2.293  1.00  0.00     0.354 C 
ATOM     12  O   UNL     1       2.595  -2.863   1.282  1.00  0.00    -0.245 OA
BRANCH  11  13
ATOM     13  O   UNL     1       1.108  -1.504   2.412  1.00  0.00    -0.461 OA
BRANCH  13  14
ATOM     14  C   UNL     1       0.429  -1.185   1.187  1.00  0.00     0.230 C 
ATOM     15  C   UNL     1       0.966   0.117   0.627  1.00  0.00     0.049 C 
ENDBRANCH  13  14
ENDBRANCH  11  13
ENDBRANCH   6  11
BRANCH   9  16
ATOM     16  C   UNL     1       2.352  -4.647   6.467  1.00  0.00     0.073 A 
ATOM     17  C   UNL     1       2.453  -6.028   6.184  1.00  0.00     0.036 A 
ATOM     18  C   UNL     1       1.610  -4.259   7.601  1.00  0.00     0.088 A 
ATOM     19  C   UNL     1       1.880  -7.004   7.002  1.00  0.00     0.088 A 
ATOM     20  C   UNL     1       1.064  -5.249   8.453  1.00  0.00     0.101 A 
ATOM     21  C   UNL     1       1.187  -6.607   8.142  1.00  0.00     0.270 A 
BRANCH  18  22
ATOM     22  C   UNL     1       1.303  -2.821   7.941  1.00  0.00     0.418 C 
ATOM     23  F   UNL     1       0.094  -2.675   8.560  1.00  0.00    -0.166 F 
ATOM     24  F   UNL     1       2.212  -2.303   8.816  1.00  0.00    -0.166 F 
ATOM     25  F   UNL     1       1.263  -1.964   6.884  1.00  0.00    -0.166 F 
ENDBRANCH  18  22
BRANCH  21  26
ATOM     26  N   UNL     1       0.537  -7.611   8.992  1.00  0.00     0.062 N 
ATOM     27  O   UNL     1       0.470  -8.772   8.566  1.00  0.00    -0.258 OA
ATOM     28  O   UNL     1       0.093  -7.234  10.086  1.00  0.00    -0.258 OA
ENDBRANCH  21  26
ENDBRANCH   9  16
ENDBRANCH   3   5
ENDBRANCH   2   3
ENDBRANCH   1   2
BRANCH   1  29
ATOM     29  C   UNL     1       6.515  -6.224   3.611  1.00  0.00     0.275 C 
BRANCH  29  30
ATOM     30  O   UNL     1       6.456  -5.109   2.711  1.00  0.00    -0.458 OA
BRANCH  30  31
ATOM     31  C   UNL     1       6.061  -5.382   1.446  1.00  0.00     0.338 C 
ATOM     32  O   UNL     1       5.862  -6.492   0.979  1.00  0.00    -0.246 OA
BRANCH  31  33
ATOM     33  C   UNL     1       5.877  -4.109   0.700  1.00  0.00     0.060 A 
ATOM     34  C   UNL     1       5.830  -2.879   1.363  1.00  0.00     0.016 A 
ATOM     35  C   UNL     1       5.700  -4.139  -0.685  1.00  0.00     0.016 A 
ATOM     36  C   UNL     1       5.535  -1.705   0.671  1.00  0.00     0.010 A 
ATOM     37  C   UNL     1       5.490  -2.948  -1.393  1.00  0.00     0.010 A 
ATOM     38  C   UNL     1       5.383  -1.718  -0.721  1.00  0.00    -0.014 A 
BRANCH  38  39
ATOM     39  C   UNL     1       5.105  -0.459  -1.467  1.00  0.00     0.031 A 
ATOM     40  C   UNL     1       3.883  -0.344  -2.339  1.00  0.00     0.074 A 
ATOM     41  C   UNL     1       5.940   0.596  -1.372  1.00  0.00     0.049 A 
ATOM     42  N   UNL     1       3.590   0.571  -3.229  1.00  0.00    -0.248 NA
ATOM     43  C   UNL     1       2.861  -1.393  -2.196  1.00  0.00     0.031 C 
ATOM     44  C   UNL     1       7.133   0.670  -0.524  1.00  0.00     0.029 A 
ATOM     45  N   UNL     1       5.907   1.819  -1.998  1.00  0.00    -0.354 N 
ATOM     46  C   UNL     1       2.385   0.175  -3.796  1.00  0.00     0.074 A 
ATOM     47  C   UNL     1       1.990  -1.051  -3.136  1.00  0.00     0.031 C 
ATOM     48  C   UNL     1       7.689   1.884  -0.648  1.00  0.00     0.029 A 
ATOM     49  C   UNL     1       6.957   2.639  -1.659  1.00  0.00     0.049 A 
ATOM     50  H   UNL     1       5.199   2.083  -2.629  1.00  0.00     0.167 HD
ATOM     51  C   UNL     1       1.679   0.773  -4.785  1.00  0.00     0.031 A 
ATOM     52  C   UNL     1       7.333   3.837  -2.142  1.00  0.00     0.031 A 
ATOM     53  C   UNL     1       2.043   2.011  -5.420  1.00  0.00     0.049 A 
ATOM     54  C   UNL     1       6.575   4.446  -3.283  1.00  0.00     0.074 A 
ATOM     55  C   UNL     1       1.384   2.690  -6.432  1.00  0.00     0.029 A 
ATOM     56  N   UNL     1       3.158   2.764  -5.095  1.00  0.00    -0.354 N 
ATOM     57  N   UNL     1       5.492   4.012  -3.877  1.00  0.00    -0.248 NA
ATOM     58  C   UNL     1       7.121   5.689  -3.849  1.00  0.00     0.031 C 
ATOM     59  C   UNL     1       2.117   3.843  -6.737  1.00  0.00     0.029 A 
ATOM     60  C   UNL     1       3.215   3.893  -5.894  1.00  0.00     0.049 A 
ATOM     61  H   UNL     1       3.813   2.531  -4.398  1.00  0.00     0.167 HD
ATOM     62  C   UNL     1       5.237   4.915  -4.899  1.00  0.00     0.074 A 
ATOM     63  C   UNL     1       6.259   5.939  -4.824  1.00  0.00     0.031 C 
ATOM     64  C   UNL     1       4.250   4.888  -5.826  1.00  0.00     0.031 A 
BRANCH  51  65
ATOM     65  C   UNL     1       0.451   0.066  -5.277  1.00  0.00    -0.014 A 
ATOM     66  C   UNL     1      -0.761   0.135  -4.576  1.00  0.00     0.009 A 
ATOM     67  C   UNL     1       0.504  -0.648  -6.484  1.00  0.00     0.009 A 
ATOM     68  C   UNL     1      -1.895  -0.516  -5.067  1.00  0.00     0.001 A 
ATOM     69  C   UNL     1      -0.634  -1.284  -6.980  1.00  0.00     0.001 A 
ATOM     70  C   UNL     1      -1.831  -1.222  -6.269  1.00  0.00     0.000 A 
ENDBRANCH  51  65
BRANCH  52  71
ATOM     71  C   UNL     1       8.550   4.497  -1.605  1.00  0.00    -0.014 A 
ATOM     72  C   UNL     1       8.441   5.621  -0.775  1.00  0.00     0.009 A 
ATOM     73  C   UNL     1       9.824   3.992  -1.910  1.00  0.00     0.009 A 
ATOM     74  C   UNL     1       9.589   6.228  -0.261  1.00  0.00     0.001 A 
ATOM     75  C   UNL     1      10.967   4.587  -1.376  1.00  0.00     0.001 A 
ATOM     76  C   UNL     1      10.849   5.707  -0.555  1.00  0.00     0.000 A 
ENDBRANCH  52  71
BRANCH  64  77
ATOM     77  C   UNL     1       4.243   5.994  -6.837  1.00  0.00    -0.014 A 
ATOM     78  C   UNL     1       5.109   5.954  -7.941  1.00  0.00     0.009 A 
ATOM     79  C   UNL     1       3.357   7.071  -6.697  1.00  0.00     0.009 A 
ATOM     80  C   UNL     1       5.102   6.990  -8.877  1.00  0.00     0.001 A 
ATOM     81  C   UNL     1       3.343   8.098  -7.643  1.00  0.00     0.001 A 
ATOM     82  C   UNL     1       4.219   8.059  -8.728  1.00  0.00     0.000 A 
ENDBRANCH  64  77
ENDBRANCH  38  39
ENDBRANCH  31  33
ENDBRANCH  30  31
ENDBRANCH  29  30
ENDBRANCH   1  29
TORSDOF 17
