REMARK SMILES Cc1ccccc1O[C@@H](C)C(=O)Oc1ccccc1C(=O)OCCOC(=O)c1ccc(-c2c3nc(c(-c4ccccc4)c4ccc([nH]4)c(-c4ccccc4)c4nc(c(-c5ccccc5)c5ccc2[nH]5)C=C4)C=C3)cc1
REMARK SMILES IDX 22 1 20 2 21 3 19 4 14 5 15 6 16 7 18 8 17 9 13 10 11 11
REMARK SMILES IDX 12 12 9 13 10 14 8 15 7 16 1 17 2 18 3 19 4 20 6 21 5 22
REMARK SMILES IDX 23 23 24 24 25 25 26 26 27 27 28 28 29 29 75 30 30 31 74 32
REMARK SMILES IDX 31 33 32 34 33 35 68 36 34 37 73 38 67 39 69 40 35 41 72 42
REMARK SMILES IDX 66 43 65 44 36 46 58 47 43 48 57 49 44 50 47 51 56 52 70 53
REMARK SMILES IDX 45 54 46 55 55 57 71 58 48 59 37 60 38 61 42 62 39 63 41 64
REMARK SMILES IDX 40 65 59 66 60 67 64 68 61 69 63 70 62 71 49 72 50 73 54 74
REMARK SMILES IDX 51 75 53 76 52 77
REMARK H PARENT 69 45 47 56
REMARK Flexibility Score: inf
ROOT
ATOM      1  O   UNL     1       7.614   1.713  -2.583  1.00  0.00    -0.458 OA
ENDROOT
BRANCH   1   2
ATOM      2  C   UNL     1       6.229   1.305  -2.227  1.00  0.00     0.342 C 
ATOM      3  O   UNL     1       6.081   1.965  -1.157  1.00  0.00    -0.246 OA
BRANCH   2   4
ATOM      4  C   UNL     1       4.870  -0.001  -3.294  1.00  0.00     0.102 A 
ATOM      5  C   UNL     1       3.248  -0.218  -3.084  1.00  0.00     0.145 A 
ATOM      6  C   UNL     1       2.356  -1.143  -3.701  1.00  0.00     0.048 A 
ATOM      7  C   UNL     1       2.849  -2.021  -4.643  1.00  0.00     0.004 A 
ATOM      8  C   UNL     1       5.106  -1.032  -4.382  1.00  0.00     0.019 A 
ATOM      9  C   UNL     1       4.191  -1.963  -4.980  1.00  0.00     0.001 A 
BRANCH   5  10
ATOM     10  O   UNL     1       2.387   0.441  -1.887  1.00  0.00    -0.423 OA
BRANCH  10  11
ATOM     11  C   UNL     1       1.547   1.582  -1.857  1.00  0.00     0.352 C 
ATOM     12  O   UNL     1       1.261   2.157  -2.911  1.00  0.00    -0.247 OA
BRANCH  11  13
ATOM     13  C   UNL     1       0.980   2.132  -0.467  1.00  0.00     0.280 C 
ATOM     14  C   UNL     1       1.299   2.285   1.027  1.00  0.00     0.066 C 
BRANCH  13  15
ATOM     15  O   UNL     1      -0.389   1.800  -0.448  1.00  0.00    -0.479 OA
BRANCH  15  16
ATOM     16  C   UNL     1      -0.762   0.526  -0.155  1.00  0.00     0.123 A 
ATOM     17  C   UNL     1       1.423  -0.850   0.439  1.00  0.00     0.048 C 
ATOM     18  C   UNL     1      -0.034  -0.650   0.110  1.00  0.00    -0.009 A 
ATOM     19  C   UNL     1      -0.763  -1.851   0.158  1.00  0.00     0.007 A 
ATOM     20  C   UNL     1      -2.150  -1.875   0.035  1.00  0.00     0.001 A 
ATOM     21  C   UNL     1      -2.161   0.497  -0.194  1.00  0.00     0.047 A 
ATOM     22  C   UNL     1      -2.856  -0.692  -0.098  1.00  0.00     0.004 A 
ENDBRANCH  15  16
ENDBRANCH  13  15
ENDBRANCH  11  13
ENDBRANCH  10  11
ENDBRANCH   5  10
ENDBRANCH   2   4
ENDBRANCH   1   2
BRANCH   1  23
ATOM     23  C   UNL     1       8.057   2.953  -2.001  1.00  0.00     0.275 C 
BRANCH  23  24
ATOM     24  C   UNL     1       7.431   4.134  -2.766  1.00  0.00     0.275 C 
BRANCH  24  25
ATOM     25  O   UNL     1       5.995   4.069  -2.986  1.00  0.00    -0.458 OA
BRANCH  25  26
ATOM     26  C   UNL     1       5.542   3.507  -4.143  1.00  0.00     0.338 C 
ATOM     27  O   UNL     1       5.333   4.071  -5.197  1.00  0.00    -0.246 OA
BRANCH  26  28
ATOM     28  C   UNL     1       5.242   2.085  -3.869  1.00  0.00     0.060 A 
ATOM     29  C   UNL     1       4.296   1.806  -2.357  1.00  0.00     0.016 A 
ATOM     30  C   UNL     1       6.575   0.968  -4.298  1.00  0.00     0.016 A 
ATOM     31  C   UNL     1       4.715   0.352  -1.247  1.00  0.00     0.010 A 
ATOM     32  C   UNL     1       7.061  -0.356  -3.136  1.00  0.00     0.010 A 
ATOM     33  C   UNL     1       6.139  -0.649  -1.614  1.00  0.00    -0.014 A 
BRANCH  33  34
ATOM     34  C   UNL     1       6.958  -1.185  -0.516  1.00  0.00     0.031 A 
ATOM     35  C   UNL     1       7.563  -2.487  -0.826  1.00  0.00     0.074 A 
ATOM     36  C   UNL     1       7.312  -0.483   0.607  1.00  0.00     0.049 A 
ATOM     37  N   UNL     1       8.212  -3.179   0.027  1.00  0.00    -0.248 NA
ATOM     38  C   UNL     1       7.458  -3.162  -2.121  1.00  0.00     0.031 C 
ATOM     39  C   UNL     1       8.433  -0.734   1.522  1.00  0.00     0.029 A 
ATOM     40  N   UNL     1       6.679   0.588   1.241  1.00  0.00    -0.354 N 
ATOM     41  C   UNL     1       8.861  -4.178  -0.647  1.00  0.00     0.074 A 
ATOM     42  C   UNL     1       8.329  -4.162  -1.979  1.00  0.00     0.031 C 
ATOM     43  C   UNL     1       8.269  -0.057   2.674  1.00  0.00     0.029 A 
ATOM     44  C   UNL     1       6.991   0.621   2.628  1.00  0.00     0.049 A 
ATOM     45  H   UNL     1       6.094   1.236   0.786  1.00  0.00     0.167 HD
ATOM     46  C   UNL     1       9.857  -4.809   0.021  1.00  0.00     0.031 A 
ATOM     47  C   UNL     1       6.034   0.487   3.613  1.00  0.00     0.031 A 
ATOM     48  C   UNL     1       9.754  -4.505   1.453  1.00  0.00     0.049 A 
ATOM     49  C   UNL     1       5.957  -0.952   4.115  1.00  0.00     0.074 A 
ATOM     50  C   UNL     1      10.412  -3.622   2.290  1.00  0.00     0.029 A 
ATOM     51  N   UNL     1       8.549  -4.811   2.087  1.00  0.00    -0.354 N 
ATOM     52  N   UNL     1       6.741  -1.907   3.695  1.00  0.00    -0.248 NA
ATOM     53  C   UNL     1       4.995  -1.439   5.103  1.00  0.00     0.031 C 
ATOM     54  C   UNL     1       9.541  -3.332   3.386  1.00  0.00     0.029 A 
ATOM     55  C   UNL     1       8.378  -4.073   3.245  1.00  0.00     0.049 A 
ATOM     56  H   UNL     1       7.900  -5.471   1.752  1.00  0.00     0.167 HD
ATOM     57  C   UNL     1       6.446  -3.088   4.315  1.00  0.00     0.074 A 
ATOM     58  C   UNL     1       5.345  -2.736   5.199  1.00  0.00     0.031 C 
ATOM     59  C   UNL     1       7.151  -4.232   4.042  1.00  0.00     0.031 A 
BRANCH  46  60
ATOM     60  C   UNL     1      11.014  -5.494  -0.649  1.00  0.00    -0.014 A 
ATOM     61  C   UNL     1      12.130  -5.830   0.133  1.00  0.00     0.009 A 
ATOM     62  C   UNL     1      11.137  -5.728  -2.033  1.00  0.00     0.009 A 
ATOM     63  C   UNL     1      13.303  -6.348  -0.431  1.00  0.00     0.001 A 
ATOM     64  C   UNL     1      12.303  -6.255  -2.604  1.00  0.00     0.001 A 
ATOM     65  C   UNL     1      13.391  -6.561  -1.801  1.00  0.00     0.000 A 
ENDBRANCH  46  60
BRANCH  47  66
ATOM     66  C   UNL     1       4.826   1.367   3.415  1.00  0.00    -0.014 A 
ATOM     67  C   UNL     1       4.937   2.752   3.709  1.00  0.00     0.009 A 
ATOM     68  C   UNL     1       4.127   1.016   2.283  1.00  0.00     0.009 A 
ATOM     69  C   UNL     1       4.771   3.719   2.705  1.00  0.00     0.001 A 
ATOM     70  C   UNL     1       4.151   1.971   1.271  1.00  0.00     0.001 A 
ATOM     71  C   UNL     1       4.532   3.291   1.429  1.00  0.00     0.000 A 
ENDBRANCH  47  66
BRANCH  59  72
ATOM     72  C   UNL     1       6.830  -5.622   4.562  1.00  0.00    -0.014 A 
ATOM     73  C   UNL     1       5.677  -5.976   5.267  1.00  0.00     0.009 A 
ATOM     74  C   UNL     1       7.734  -6.680   4.298  1.00  0.00     0.009 A 
ATOM     75  C   UNL     1       5.484  -7.276   5.758  1.00  0.00     0.001 A 
ATOM     76  C   UNL     1       7.508  -7.994   4.707  1.00  0.00     0.001 A 
ATOM     77  C   UNL     1       6.394  -8.286   5.470  1.00  0.00     0.000 A 
ENDBRANCH  59  72
ENDBRANCH  33  34
ENDBRANCH  26  28
ENDBRANCH  25  26
ENDBRANCH  24  25
ENDBRANCH  23  24
ENDBRANCH   1  23
TORSDOF 16
