REMARK SMILES Cc1oc2c(C)c3oc(=O)c(CCC(=O)N[C@H](Cc4ccc(Cl)cc4)C(=O)OCCOC(=O)c4ccc(-c5c6nc(c(-c7ccccc7)c7ccc([nH]7)c(-c7ccccc7)c7nc(c(-c8ccccc8)c8ccc5[nH]8)C=C7)C=C6)cc4)c(C)c3cc2c1C
REMARK SMILES IDX 29 1 28 2 26 3 27 4 17 5 16 6 14 7 15 8 13 10 12 11 11 12
REMARK SMILES IDX 1 13 2 14 3 15 87 16 4 17 86 18 88 19 5 20 85 21 6 22 7 23
REMARK SMILES IDX 84 24 8 25 82 26 9 27 83 28 10 29 18 30 19 31 20 32 25 33
REMARK SMILES IDX 21 34 24 35 22 36 23 37 30 38 31 39 32 40 33 41 34 42 35 43
REMARK SMILES IDX 81 44 36 45 80 46 37 47 38 48 39 49 74 50 40 51 79 52 73 53
REMARK SMILES IDX 75 54 41 55 78 56 72 57 71 58 42 60 64 61 49 62 63 63 50 64
REMARK SMILES IDX 53 65 62 66 76 67 51 68 52 69 61 71 77 72 54 73 43 74 44 75
REMARK SMILES IDX 48 76 45 77 47 78 46 79 65 80 66 81 70 82 67 83 69 84 68 85
REMARK SMILES IDX 55 86 56 87 60 88 57 89 59 90 58 91
REMARK H PARENT 16 9 75 59 53 70
REMARK Flexibility Score: inf
ROOT
ATOM      1  C   UNL     1       0.546   4.548   5.626  1.00  0.00     0.274 C 
ENDROOT
BRANCH   1   2
ATOM      2  O   UNL     1       0.873   5.022   4.290  1.00  0.00    -0.461 OA
BRANCH   2   3
ATOM      3  C   UNL     1       0.113   5.944   3.632  1.00  0.00     0.329 C 
ATOM      4  O   UNL     1      -0.552   6.801   4.199  1.00  0.00    -0.250 OA
BRANCH   3   5
ATOM      5  C   UNL     1       0.046   5.677   2.073  1.00  0.00     0.196 C 
BRANCH   5   6
ATOM      6  N   UNL     1       0.287   4.216   1.830  1.00  0.00    -0.342 N 
ATOM      7  C   UNL     1       1.349   3.370   1.858  1.00  0.00     0.221 C 
ATOM      8  O   UNL     1       1.288   2.501   0.974  1.00  0.00    -0.275 OA
ATOM      9  H   UNL     1      -0.543   3.747   1.585  1.00  0.00     0.164 HD
BRANCH   7  10
ATOM     10  C   UNL     1       2.401   3.191   2.977  1.00  0.00     0.105 C 
BRANCH  10  11
ATOM     11  C   UNL     1       3.692   3.988   3.325  1.00  0.00     0.053 C 
BRANCH  11  12
ATOM     12  C   UNL     1       3.680   5.477   3.625  1.00  0.00     0.042 A 
ATOM     13  C   UNL     1       1.439  13.388   2.256  1.00  0.00     0.088 C 
ATOM     14  C   UNL     1       1.647  12.032   2.814  1.00  0.00     0.105 A 
ATOM     15  O   UNL     1       2.816  11.798   3.491  1.00  0.00    -0.461 OA
ATOM     16  C   UNL     1       0.907  10.870   2.701  1.00  0.00    -0.002 A 
ATOM     17  C   UNL     1       2.922  10.443   3.666  1.00  0.00     0.141 A 
ATOM     18  C   UNL     1       1.794   9.841   3.142  1.00  0.00     0.025 A 
ATOM     19  C   UNL     1      -0.426  10.729   2.055  1.00  0.00     0.049 C 
ATOM     20  C   UNL     1       3.981   9.719   4.247  1.00  0.00     0.036 A 
ATOM     21  C   UNL     1       1.796   8.443   3.049  1.00  0.00     0.024 A 
ATOM     22  C   UNL     1       5.042  10.383   5.055  1.00  0.00     0.052 C 
ATOM     23  C   UNL     1       3.975   8.328   3.963  1.00  0.00     0.145 A 
ATOM     24  C   UNL     1       2.984   7.724   3.217  1.00  0.00     0.022 A 
ATOM     25  O   UNL     1       4.957   7.455   4.496  1.00  0.00    -0.422 OA
ATOM     26  C   UNL     1       3.219   6.355   2.727  1.00  0.00    -0.030 A 
ATOM     27  C   UNL     1       4.754   6.052   4.520  1.00  0.00     0.339 A 
ATOM     28  C   UNL     1       3.612   5.999   1.303  1.00  0.00     0.046 C 
ATOM     29  O   UNL     1       5.530   5.306   5.111  1.00  0.00    -0.246 OA
ENDBRANCH  11  12
ENDBRANCH  10  11
ENDBRANCH   7  10
ENDBRANCH   5   6
BRANCH   5  30
ATOM     30  C   UNL     1       0.462   6.448   0.692  1.00  0.00     0.072 C 
BRANCH  30  31
ATOM     31  C   UNL     1       0.687   7.864   0.079  1.00  0.00    -0.045 A 
ATOM     32  C   UNL     1      -0.190   8.363  -0.901  1.00  0.00     0.005 A 
ATOM     33  C   UNL     1       1.893   8.593   0.166  1.00  0.00     0.005 A 
ATOM     34  C   UNL     1       0.123   9.499  -1.692  1.00  0.00     0.021 A 
ATOM     35  C   UNL     1       2.207   9.745  -0.574  1.00  0.00     0.021 A 
ATOM     36  C   UNL     1       1.317  10.191  -1.519  1.00  0.00     0.041 A 
ATOM     37  Cl  UNL     1       1.706  11.563  -2.476  1.00  0.00    -0.084 Cl
ENDBRANCH  30  31
ENDBRANCH   5  30
ENDBRANCH   3   5
ENDBRANCH   2   3
ENDBRANCH   1   2
BRANCH   1  38
ATOM     38  C   UNL     1       1.582   4.934   6.678  1.00  0.00     0.275 C 
BRANCH  38  39
ATOM     39  O   UNL     1       1.277   6.274   7.063  1.00  0.00    -0.458 OA
BRANCH  39  40
ATOM     40  C   UNL     1       2.294   7.138   7.035  1.00  0.00     0.338 C 
ATOM     41  O   UNL     1       3.498   6.867   6.944  1.00  0.00    -0.246 OA
BRANCH  40  42
ATOM     42  C   UNL     1       1.781   8.501   7.121  1.00  0.00     0.060 A 
ATOM     43  C   UNL     1       0.544   8.844   6.557  1.00  0.00     0.016 A 
ATOM     44  C   UNL     1       2.577   9.461   7.740  1.00  0.00     0.016 A 
ATOM     45  C   UNL     1       0.097  10.154   6.617  1.00  0.00     0.010 A 
ATOM     46  C   UNL     1       2.121  10.766   7.819  1.00  0.00     0.010 A 
ATOM     47  C   UNL     1       0.871  11.107   7.279  1.00  0.00    -0.014 A 
BRANCH  47  48
ATOM     48  C   UNL     1       0.233  12.393   7.595  1.00  0.00     0.031 A 
ATOM     49  C   UNL     1       0.172  12.627   9.070  1.00  0.00     0.074 A 
ATOM     50  C   UNL     1       0.323  13.470   6.793  1.00  0.00     0.049 A 
ATOM     51  N   UNL     1       1.194  13.082   9.736  1.00  0.00    -0.248 NA
ATOM     52  C   UNL     1      -0.863  12.020   9.906  1.00  0.00     0.031 C 
ATOM     53  C   UNL     1       1.476  13.739   5.932  1.00  0.00     0.029 A 
ATOM     54  N   UNL     1      -0.395  14.642   6.790  1.00  0.00    -0.354 N 
ATOM     55  C   UNL     1       1.011  12.710  11.052  1.00  0.00     0.074 A 
ATOM     56  C   UNL     1      -0.301  12.103  11.122  1.00  0.00     0.031 C 
ATOM     57  C   UNL     1       1.499  15.058   5.653  1.00  0.00     0.029 A 
ATOM     58  C   UNL     1       0.287  15.683   6.169  1.00  0.00     0.049 A 
ATOM     59  H   UNL     1      -1.293  14.734   7.183  1.00  0.00     0.167 HD
ATOM     60  C   UNL     1       1.972  12.848  12.001  1.00  0.00     0.031 A 
ATOM     61  C   UNL     1       0.162  16.992   6.514  1.00  0.00     0.031 A 
ATOM     62  C   UNL     1       3.218  13.406  11.570  1.00  0.00     0.049 A 
ATOM     63  C   UNL     1       0.987  17.044   7.774  1.00  0.00     0.074 A 
ATOM     64  C   UNL     1       4.474  12.945  11.236  1.00  0.00     0.029 A 
ATOM     65  N   UNL     1       3.284  14.763  11.374  1.00  0.00    -0.354 N 
ATOM     66  N   UNL     1       2.285  17.142   7.859  1.00  0.00    -0.248 NA
ATOM     67  C   UNL     1       0.325  16.638   9.017  1.00  0.00     0.031 C 
ATOM     68  C   UNL     1       5.071  13.982  10.452  1.00  0.00     0.029 A 
ATOM     69  C   UNL     1       4.117  14.987  10.308  1.00  0.00     0.049 A 
ATOM     70  H   UNL     1       2.819  15.451  11.903  1.00  0.00     0.167 HD
ATOM     71  C   UNL     1       2.624  16.511   9.059  1.00  0.00     0.074 A 
ATOM     72  C   UNL     1       1.371  16.279   9.747  1.00  0.00     0.031 C 
ATOM     73  C   UNL     1       3.873  16.028   9.332  1.00  0.00     0.031 A 
BRANCH  60  74
ATOM     74  C   UNL     1       1.750  12.558  13.428  1.00  0.00    -0.014 A 
ATOM     75  C   UNL     1       1.475  13.643  14.273  1.00  0.00     0.009 A 
ATOM     76  C   UNL     1       1.957  11.290  13.978  1.00  0.00     0.009 A 
ATOM     77  C   UNL     1       1.440  13.475  15.653  1.00  0.00     0.001 A 
ATOM     78  C   UNL     1       1.913  11.122  15.366  1.00  0.00     0.001 A 
ATOM     79  C   UNL     1       1.666  12.214  16.200  1.00  0.00     0.000 A 
ENDBRANCH  60  74
BRANCH  61  80
ATOM     80  C   UNL     1      -1.223  17.553   6.420  1.00  0.00    -0.014 A 
ATOM     81  C   UNL     1      -1.932  17.363   5.215  1.00  0.00     0.009 A 
ATOM     82  C   UNL     1      -1.868  18.272   7.435  1.00  0.00     0.009 A 
ATOM     83  C   UNL     1      -3.256  17.787   5.067  1.00  0.00     0.001 A 
ATOM     84  C   UNL     1      -3.204  18.672   7.301  1.00  0.00     0.001 A 
ATOM     85  C   UNL     1      -3.900  18.420   6.122  1.00  0.00     0.000 A 
ENDBRANCH  61  80
BRANCH  73  86
ATOM     86  C   UNL     1       4.958  16.430   8.385  1.00  0.00    -0.014 A 
ATOM     87  C   UNL     1       5.389  17.763   8.344  1.00  0.00     0.009 A 
ATOM     88  C   UNL     1       5.595  15.487   7.563  1.00  0.00     0.009 A 
ATOM     89  C   UNL     1       6.451  18.140   7.519  1.00  0.00     0.001 A 
ATOM     90  C   UNL     1       6.670  15.861   6.753  1.00  0.00     0.001 A 
ATOM     91  C   UNL     1       7.099  17.186   6.735  1.00  0.00     0.000 A 
ENDBRANCH  73  86
ENDBRANCH  47  48
ENDBRANCH  40  42
ENDBRANCH  39  40
ENDBRANCH  38  39
ENDBRANCH   1  38
TORSDOF 17
