REMARK SMILES Cc1ccnc(C(=O)c2[nH]c3ccc(OC(F)(F)F)cc3c2CC(=O)OCCOC(=O)c2ccc(-c3c4nc(c(-c5ccccc5)c5ccc([nH]5)c(-c5ccccc5)c5nc(c(-c6ccccc6)c6ccc3[nH]6)C=C5)C=C4)cc2)c1
REMARK SMILES IDX 27 1 26 2 24 3 25 4 23 5 22 6 9 7 10 8 11 9 21 11 12 12
REMARK SMILES IDX 20 13 13 14 14 15 7 16 8 17 6 18 1 19 2 20 3 21 80 22 4 23
REMARK SMILES IDX 5 24 15 25 16 26 17 27 18 28 19 29 28 30 29 31 30 32 31 33
REMARK SMILES IDX 32 34 33 35 79 36 34 37 78 38 35 39 36 40 37 41 72 42 38 43
REMARK SMILES IDX 77 44 71 45 73 46 39 47 76 48 70 49 69 50 40 52 62 53 47 54
REMARK SMILES IDX 61 55 48 56 51 57 60 58 74 59 49 60 50 61 59 63 75 64 52 65
REMARK SMILES IDX 41 66 42 67 46 68 43 69 45 70 44 71 63 72 64 73 68 74 65 75
REMARK SMILES IDX 67 76 66 77 53 78 54 79 58 80 55 81 57 82 56 83
REMARK H PARENT 10 10 73 51 51 62
REMARK Flexibility Score: inf
ROOT
ATOM      1  C   UNL     1       5.176  -5.377   0.616  1.00  0.00     0.274 C 
ENDROOT
BRANCH   1   2
ATOM      2  O   UNL     1       3.738  -5.263   0.515  1.00  0.00    -0.462 OA
BRANCH   2   3
ATOM      3  C   UNL     1       3.077  -5.036   1.676  1.00  0.00     0.310 C 
ATOM      4  O   UNL     1       3.617  -5.035   2.782  1.00  0.00    -0.252 OA
BRANCH   3   5
ATOM      5  C   UNL     1       1.624  -4.638   1.536  1.00  0.00     0.161 C 
BRANCH   5   6
ATOM      6  C   UNL     1       0.865  -4.977   0.291  1.00  0.00     0.000 A 
ATOM      7  C   UNL     1       0.715  -4.218  -0.870  1.00  0.00     0.093 A 
ATOM      8  N   UNL     1      -0.109  -4.926  -1.712  1.00  0.00    -0.352 N 
ATOM      9  C   UNL     1      -0.651  -6.005  -1.072  1.00  0.00     0.046 A 
ATOM     10  H   UNL     1      -0.285  -4.687  -2.650  1.00  0.00     0.167 HD
ATOM     11  C   UNL     1      -0.005  -6.118   0.154  1.00  0.00     0.008 A 
ATOM     12  C   UNL     1      -1.650  -6.882  -1.495  1.00  0.00     0.030 A 
ATOM     13  C   UNL     1      -0.344  -7.213   0.980  1.00  0.00     0.057 A 
ATOM     14  C   UNL     1      -1.990  -7.938  -0.643  1.00  0.00     0.049 A 
ATOM     15  C   UNL     1      -1.336  -8.122   0.574  1.00  0.00     0.130 A 
BRANCH   7  16
ATOM     16  C   UNL     1       1.254  -2.947  -1.333  1.00  0.00     0.227 C 
ATOM     17  O   UNL     1       1.978  -2.912  -2.327  1.00  0.00    -0.285 OA
BRANCH  16  18
ATOM     18  C   UNL     1       0.681  -1.653  -0.798  1.00  0.00     0.113 A 
ATOM     19  C   UNL     1      -2.606  -0.244   0.484  1.00  0.00     0.044 C 
ATOM     20  C   UNL     1      -1.193  -0.359  -0.007  1.00  0.00    -0.047 A 
ATOM     21  C   UNL     1      -0.481   0.795  -0.333  1.00  0.00     0.023 A 
ATOM     22  C   UNL     1      -0.592  -1.607  -0.227  1.00  0.00     0.036 A 
ATOM     23  C   UNL     1       0.787   0.661  -0.868  1.00  0.00     0.112 A 
ATOM     24  N   UNL     1       1.377  -0.525  -1.110  1.00  0.00    -0.253 NA
ENDBRANCH  16  18
ENDBRANCH   7  16
BRANCH  15  25
ATOM     25  O   UNL     1      -1.568  -9.135   1.464  1.00  0.00    -0.406 OA
BRANCH  25  26
ATOM     26  C   UNL     1      -2.561 -10.090   1.127  1.00  0.00     0.573 C 
ATOM     27  F   UNL     1      -3.778  -9.511   1.031  1.00  0.00    -0.132 F 
ATOM     28  F   UNL     1      -2.269 -10.719  -0.032  1.00  0.00    -0.132 F 
ATOM     29  F   UNL     1      -2.617 -11.022   2.104  1.00  0.00    -0.132 F 
ENDBRANCH  25  26
ENDBRANCH  15  25
ENDBRANCH   5   6
ENDBRANCH   3   5
ENDBRANCH   2   3
ENDBRANCH   1   2
BRANCH   1  30
ATOM     30  C   UNL     1       5.895  -4.091   0.180  1.00  0.00     0.275 C 
BRANCH  30  31
ATOM     31  O   UNL     1       5.678  -2.985   1.086  1.00  0.00    -0.458 OA
BRANCH  31  32
ATOM     32  C   UNL     1       4.559  -2.291   0.820  1.00  0.00     0.338 C 
ATOM     33  O   UNL     1       3.731  -2.547  -0.055  1.00  0.00    -0.246 OA
BRANCH  32  34
ATOM     34  C   UNL     1       4.282  -1.220   1.769  1.00  0.00     0.060 A 
ATOM     35  C   UNL     1       3.250  -1.436   2.683  1.00  0.00     0.016 A 
ATOM     36  C   UNL     1       4.813   0.059   1.586  1.00  0.00     0.016 A 
ATOM     37  C   UNL     1       2.684  -0.365   3.354  1.00  0.00     0.010 A 
ATOM     38  C   UNL     1       4.293   1.127   2.325  1.00  0.00     0.010 A 
ATOM     39  C   UNL     1       3.204   0.927   3.191  1.00  0.00    -0.014 A 
BRANCH  39  40
ATOM     40  C   UNL     1       2.603   2.025   3.982  1.00  0.00     0.031 A 
ATOM     41  C   UNL     1       1.758   3.086   3.340  1.00  0.00     0.074 A 
ATOM     42  C   UNL     1       2.742   1.990   5.321  1.00  0.00     0.049 A 
ATOM     43  N   UNL     1       1.065   4.041   3.909  1.00  0.00    -0.248 NA
ATOM     44  C   UNL     1       1.664   3.070   1.873  1.00  0.00     0.031 C 
ATOM     45  C   UNL     1       3.504   0.982   6.062  1.00  0.00     0.029 A 
ATOM     46  N   UNL     1       2.220   2.799   6.295  1.00  0.00    -0.354 N 
ATOM     47  C   UNL     1       0.438   4.724   2.876  1.00  0.00     0.074 A 
ATOM     48  C   UNL     1       0.853   4.095   1.640  1.00  0.00     0.031 C 
ATOM     49  C   UNL     1       3.365   1.206   7.376  1.00  0.00     0.029 A 
ATOM     50  C   UNL     1       2.553   2.403   7.566  1.00  0.00     0.049 A 
ATOM     51  H   UNL     1       1.662   3.587   6.103  1.00  0.00     0.167 HD
ATOM     52  C   UNL     1      -0.410   5.778   2.951  1.00  0.00     0.031 A 
ATOM     53  C   UNL     1       2.254   2.950   8.757  1.00  0.00     0.031 A 
ATOM     54  C   UNL     1      -0.783   6.438   4.175  1.00  0.00     0.049 A 
ATOM     55  C   UNL     1       1.412   4.188   8.799  1.00  0.00     0.074 A 
ATOM     56  C   UNL     1      -1.613   7.533   4.348  1.00  0.00     0.029 A 
ATOM     57  N   UNL     1      -0.335   6.074   5.434  1.00  0.00    -0.354 N 
ATOM     58  N   UNL     1       0.820   4.816   7.812  1.00  0.00    -0.248 NA
ATOM     59  C   UNL     1       1.207   4.798  10.119  1.00  0.00     0.031 C 
ATOM     60  C   UNL     1      -1.630   7.859   5.709  1.00  0.00     0.029 A 
ATOM     61  C   UNL     1      -0.844   6.942   6.386  1.00  0.00     0.049 A 
ATOM     62  H   UNL     1       0.258   5.311   5.624  1.00  0.00     0.167 HD
ATOM     63  C   UNL     1       0.170   5.895   8.392  1.00  0.00     0.074 A 
ATOM     64  C   UNL     1       0.419   5.820   9.818  1.00  0.00     0.031 C 
ATOM     65  C   UNL     1      -0.565   6.865   7.796  1.00  0.00     0.031 A 
BRANCH  52  66
ATOM     66  C   UNL     1      -0.975   6.303   1.664  1.00  0.00    -0.014 A 
ATOM     67  C   UNL     1      -2.049   5.655   1.034  1.00  0.00     0.009 A 
ATOM     68  C   UNL     1      -0.467   7.485   1.105  1.00  0.00     0.009 A 
ATOM     69  C   UNL     1      -2.594   6.175  -0.142  1.00  0.00     0.001 A 
ATOM     70  C   UNL     1      -1.023   8.009  -0.064  1.00  0.00     0.001 A 
ATOM     71  C   UNL     1      -2.083   7.352  -0.688  1.00  0.00     0.000 A 
ENDBRANCH  52  66
BRANCH  53  72
ATOM     72  C   UNL     1       2.797   2.349   9.998  1.00  0.00    -0.014 A 
ATOM     73  C   UNL     1       1.957   1.679  10.898  1.00  0.00     0.009 A 
ATOM     74  C   UNL     1       4.171   2.432  10.278  1.00  0.00     0.009 A 
ATOM     75  C   UNL     1       2.482   1.116  12.063  1.00  0.00     0.001 A 
ATOM     76  C   UNL     1       4.696   1.847  11.430  1.00  0.00     0.001 A 
ATOM     77  C   UNL     1       3.850   1.195  12.325  1.00  0.00     0.000 A 
ENDBRANCH  53  72
BRANCH  65  78
ATOM     78  C   UNL     1      -1.142   7.914   8.698  1.00  0.00    -0.014 A 
ATOM     79  C   UNL     1      -0.330   8.925   9.235  1.00  0.00     0.009 A 
ATOM     80  C   UNL     1      -2.507   7.887   9.021  1.00  0.00     0.009 A 
ATOM     81  C   UNL     1      -0.869   9.869  10.111  1.00  0.00     0.001 A 
ATOM     82  C   UNL     1      -3.046   8.845   9.881  1.00  0.00     0.001 A 
ATOM     83  C   UNL     1      -2.225   9.828  10.432  1.00  0.00     0.000 A 
ENDBRANCH  65  78
ENDBRANCH  39  40
ENDBRANCH  32  34
ENDBRANCH  31  32
ENDBRANCH  30  31
ENDBRANCH   1  30
TORSDOF 16
