REMARK SMILES COc1ccc(N2C[C@@H](C)Cn3c2nc2c3c(=O)n(CC(=O)OCCOC(=O)c3ccc(-c4c5nc(c(-c6ccccc6)c6ccc([nH]6)c(-c6ccccc6)c6nc(c(-c7ccccc7)c7ccc4[nH]7)C=C6)C=C5)cc3)c(=O)n2C)cc1
REMARK SMILES IDX 24 1 23 2 21 3 22 4 20 5 19 6 7 7 8 8 13 9 9 10 12 11 14 12
REMARK SMILES IDX 11 13 10 14 16 15 15 16 17 17 79 18 18 19 77 20 80 21 78 22
REMARK SMILES IDX 6 23 3 24 4 25 82 26 5 27 81 28 2 29 1 30 25 31 26 32 27 33
REMARK SMILES IDX 28 34 29 35 30 36 76 37 31 38 75 39 32 40 33 41 34 42 69 43
REMARK SMILES IDX 35 44 74 45 68 46 70 47 36 48 73 49 67 50 66 51 37 53 59 54
REMARK SMILES IDX 44 55 58 56 45 57 48 58 57 59 71 60 46 61 47 62 56 64 72 65
REMARK SMILES IDX 49 66 38 67 39 68 43 69 40 70 42 71 41 72 60 73 61 74 65 75
REMARK SMILES IDX 62 76 64 77 63 78 50 79 51 80 55 81 52 82 54 83 53 84
REMARK H PARENT 70 52 48 63
REMARK Flexibility Score: inf
ROOT
ATOM      1  C   UNL     1       4.900  -5.146  12.512  1.00  0.00     0.274 C 
ENDROOT
BRANCH   1   2
ATOM      2  O   UNL     1       5.485  -4.899  11.217  1.00  0.00    -0.461 OA
BRANCH   2   3
ATOM      3  C   UNL     1       6.760  -5.356  11.069  1.00  0.00     0.326 C 
ATOM      4  O   UNL     1       7.394  -5.935  11.949  1.00  0.00    -0.250 OA
BRANCH   3   5
ATOM      5  C   UNL     1       7.369  -5.089   9.699  1.00  0.00     0.253 C 
BRANCH   5   6
ATOM      6  N   UNL     1       6.495  -4.492   8.698  1.00  0.00    -0.247 N 
ATOM      7  N   UNL     1       2.193  -4.322   4.799  1.00  0.00    -0.312 N 
ATOM      8  C   UNL     1       1.564  -5.647   4.705  1.00  0.00     0.131 C 
ATOM      9  C   UNL     1       3.283  -4.144   5.595  1.00  0.00     0.212 A 
ATOM     10  C   UNL     1       1.530  -6.306   6.089  1.00  0.00     0.026 C 
ATOM     11  N   UNL     1       3.671  -5.152   6.451  1.00  0.00    -0.304 N 
ATOM     12  N   UNL     1       4.060  -3.083   5.759  1.00  0.00    -0.194 NA
ATOM     13  C   UNL     1       2.963  -6.406   6.615  1.00  0.00     0.131 C 
ATOM     14  C   UNL     1       0.856  -7.674   6.050  1.00  0.00     0.011 C 
ATOM     15  C   UNL     1       4.762  -4.718   7.135  1.00  0.00     0.154 A 
ATOM     16  C   UNL     1       4.941  -3.433   6.735  1.00  0.00     0.170 A 
ATOM     17  C   UNL     1       5.613  -5.352   8.058  1.00  0.00     0.283 A 
ATOM     18  N   UNL     1       5.928  -2.648   7.286  1.00  0.00    -0.279 N 
ATOM     19  O   UNL     1       5.610  -6.570   8.228  1.00  0.00    -0.267 OA
ATOM     20  C   UNL     1       6.688  -3.146   8.350  1.00  0.00     0.333 A 
ATOM     21  C   UNL     1       6.167  -1.314   6.771  1.00  0.00     0.157 C 
ATOM     22  O   UNL     1       7.524  -2.454   8.938  1.00  0.00    -0.247 OA
BRANCH   7  23
ATOM     23  C   UNL     1       1.752  -3.360   3.874  1.00  0.00     0.044 A 
ATOM     24  C   UNL     1       0.850  -1.411   2.036  1.00  0.00     0.119 A 
ATOM     25  C   UNL     1      -0.037  -1.999   2.937  1.00  0.00     0.048 A 
ATOM     26  C   UNL     1       2.192  -1.783   2.063  1.00  0.00     0.048 A 
ATOM     27  C   UNL     1       0.406  -2.971   3.837  1.00  0.00     0.030 A 
ATOM     28  C   UNL     1       2.637  -2.742   2.981  1.00  0.00     0.030 A 
BRANCH  24  29
ATOM     29  O   UNL     1       0.294  -0.474   1.212  1.00  0.00    -0.497 OA
ATOM     30  C   UNL     1       1.046  -0.129   0.056  1.00  0.00     0.278 C 
ENDBRANCH  24  29
ENDBRANCH   7  23
ENDBRANCH   5   6
ENDBRANCH   3   5
ENDBRANCH   2   3
ENDBRANCH   1   2
BRANCH   1  31
ATOM     31  C   UNL     1       3.979  -6.367  12.516  1.00  0.00     0.275 C 
BRANCH  31  32
ATOM     32  O   UNL     1       4.532  -7.441  11.738  1.00  0.00    -0.458 OA
BRANCH  32  33
ATOM     33  C   UNL     1       3.874  -7.682  10.578  1.00  0.00     0.338 C 
ATOM     34  O   UNL     1       2.854  -7.127  10.195  1.00  0.00    -0.246 OA
BRANCH  33  35
ATOM     35  C   UNL     1       4.544  -8.730   9.776  1.00  0.00     0.060 A 
ATOM     36  C   UNL     1       5.933  -8.920   9.792  1.00  0.00     0.016 A 
ATOM     37  C   UNL     1       3.753  -9.419   8.851  1.00  0.00     0.016 A 
ATOM     38  C   UNL     1       6.533  -9.743   8.833  1.00  0.00     0.010 A 
ATOM     39  C   UNL     1       4.350 -10.264   7.922  1.00  0.00     0.010 A 
ATOM     40  C   UNL     1       5.746 -10.414   7.891  1.00  0.00    -0.014 A 
BRANCH  40  41
ATOM     41  C   UNL     1       6.386 -11.385   6.973  1.00  0.00     0.031 A 
ATOM     42  C   UNL     1       5.955 -12.783   7.268  1.00  0.00     0.074 A 
ATOM     43  C   UNL     1       6.575 -11.168   5.651  1.00  0.00     0.049 A 
ATOM     44  N   UNL     1       4.825 -13.230   6.807  1.00  0.00    -0.248 NA
ATOM     45  C   UNL     1       6.555 -13.625   8.296  1.00  0.00     0.031 C 
ATOM     46  C   UNL     1       5.820 -10.190   4.857  1.00  0.00     0.029 A 
ATOM     47  N   UNL     1       7.229 -11.937   4.709  1.00  0.00    -0.354 N 
ATOM     48  C   UNL     1       4.484 -14.328   7.567  1.00  0.00     0.074 A 
ATOM     49  C   UNL     1       5.613 -14.571   8.440  1.00  0.00     0.031 C 
ATOM     50  C   UNL     1       5.884 -10.552   3.559  1.00  0.00     0.029 A 
ATOM     51  C   UNL     1       6.827 -11.652   3.416  1.00  0.00     0.049 A 
ATOM     52  H   UNL     1       7.908 -12.615   4.934  1.00  0.00     0.167 HD
ATOM     53  C   UNL     1       3.271 -14.931   7.455  1.00  0.00     0.031 A 
ATOM     54  C   UNL     1       6.976 -12.432   2.317  1.00  0.00     0.031 A 
ATOM     55  C   UNL     1       2.342 -14.452   6.451  1.00  0.00     0.049 A 
ATOM     56  C   UNL     1       5.757 -13.303   2.340  1.00  0.00     0.074 A 
ATOM     57  C   UNL     1       0.973 -14.448   6.257  1.00  0.00     0.029 A 
ATOM     58  N   UNL     1       2.856 -13.847   5.336  1.00  0.00    -0.354 N 
ATOM     59  N   UNL     1       4.565 -12.975   1.917  1.00  0.00    -0.248 NA
ATOM     60  C   UNL     1       5.806 -14.552   3.121  1.00  0.00     0.031 C 
ATOM     61  C   UNL     1       0.729 -14.030   4.908  1.00  0.00     0.029 A 
ATOM     62  C   UNL     1       1.956 -13.822   4.304  1.00  0.00     0.049 A 
ATOM     63  H   UNL     1       3.766 -13.474   5.282  1.00  0.00     0.167 HD
ATOM     64  C   UNL     1       3.707 -13.793   2.637  1.00  0.00     0.074 A 
ATOM     65  C   UNL     1       4.514 -14.837   3.233  1.00  0.00     0.031 C 
ATOM     66  C   UNL     1       2.453 -13.418   3.015  1.00  0.00     0.031 A 
BRANCH  53  67
ATOM     67  C   UNL     1       2.933 -16.160   8.211  1.00  0.00    -0.014 A 
ATOM     68  C   UNL     1       2.786 -17.351   7.478  1.00  0.00     0.009 A 
ATOM     69  C   UNL     1       2.632 -16.160   9.576  1.00  0.00     0.009 A 
ATOM     70  C   UNL     1       2.335 -18.517   8.091  1.00  0.00     0.001 A 
ATOM     71  C   UNL     1       2.181 -17.335  10.191  1.00  0.00     0.001 A 
ATOM     72  C   UNL     1       2.028 -18.508   9.448  1.00  0.00     0.000 A 
ENDBRANCH  53  67
BRANCH  54  73
ATOM     73  C   UNL     1       8.349 -12.918   2.002  1.00  0.00    -0.014 A 
ATOM     74  C   UNL     1       9.360 -11.940   1.874  1.00  0.00     0.009 A 
ATOM     75  C   UNL     1       8.712 -14.248   1.756  1.00  0.00     0.009 A 
ATOM     76  C   UNL     1      10.685 -12.283   1.593  1.00  0.00     0.001 A 
ATOM     77  C   UNL     1      10.046 -14.597   1.502  1.00  0.00     0.001 A 
ATOM     78  C   UNL     1      11.032 -13.617   1.428  1.00  0.00     0.000 A 
ENDBRANCH  54  73
BRANCH  66  79
ATOM     79  C   UNL     1       1.736 -12.433   2.170  1.00  0.00    -0.014 A 
ATOM     80  C   UNL     1       1.486 -12.732   0.821  1.00  0.00     0.009 A 
ATOM     81  C   UNL     1       1.247 -11.235   2.704  1.00  0.00     0.009 A 
ATOM     82  C   UNL     1       0.763 -11.848   0.021  1.00  0.00     0.001 A 
ATOM     83  C   UNL     1       0.524 -10.350   1.901  1.00  0.00     0.001 A 
ATOM     84  C   UNL     1       0.282 -10.658   0.562  1.00  0.00     0.000 A 
ENDBRANCH  66  79
ENDBRANCH  40  41
ENDBRANCH  33  35
ENDBRANCH  32  33
ENDBRANCH  31  32
ENDBRANCH   1  31
TORSDOF 14
