REMARK SMILES Cc1nsc(N[C@@H](C)C2CCCC2)c1C(=O)OCCOC(=O)c1ccc(-c2c3nc(c(-c4ccccc4)c4ccc([nH]4)c(-c4ccccc4)c4nc(c(-c5ccccc5)c5ccc2[nH]5)C=C4)C=C3)cc1
REMARK SMILES IDX 18 1 17 2 15 3 16 4 14 5 1 6 2 7 3 8 4 9 5 10 6 11 7 13 8 14
REMARK SMILES IDX 9 15 10 16 13 17 11 18 12 19 19 20 20 21 21 22 22 23 23 24
REMARK SMILES IDX 24 25 70 26 25 27 69 28 26 29 27 30 28 31 63 32 29 33 68 34
REMARK SMILES IDX 62 35 64 36 30 37 67 38 61 39 60 40 31 42 53 43 38 44 52 45
REMARK SMILES IDX 39 46 42 47 51 48 65 49 40 50 41 51 50 53 66 54 43 55 32 56
REMARK SMILES IDX 33 57 37 58 34 59 36 60 35 61 54 62 55 63 59 64 56 65 58 66
REMARK SMILES IDX 57 67 44 68 45 69 49 70 46 71 48 72 47 73
REMARK H PARENT 6 12 64 41 42 52
REMARK Flexibility Score: inf
ROOT
ATOM      1  C   UNL     1      -0.059   3.770  -0.643  1.00  0.00     0.275 C 
ENDROOT
BRANCH   1   2
ATOM      2  O   UNL     1       0.055   2.367  -0.930  1.00  0.00    -0.458 OA
BRANCH   2   3
ATOM      3  C   UNL     1      -0.558   1.928  -2.068  1.00  0.00     0.343 C 
ATOM      4  O   UNL     1      -1.285   2.641  -2.759  1.00  0.00    -0.246 OA
BRANCH   3   5
ATOM      5  C   UNL     1      -0.223   0.551  -2.418  1.00  0.00     0.117 A 
ATOM      6  C   UNL     1       0.868  -0.310  -0.168  1.00  0.00     0.069 C 
ATOM      7  C   UNL     1       0.396  -0.454  -1.576  1.00  0.00     0.068 A 
ATOM      8  N   UNL     1       0.570  -1.653  -2.132  1.00  0.00    -0.195 NA
ATOM      9  S   UNL     1       0.057  -1.606  -3.692  1.00  0.00    -0.018 S 
ATOM     10  C   UNL     1      -0.442   0.039  -3.700  1.00  0.00     0.124 A 
BRANCH  10  11
ATOM     11  N   UNL     1      -0.935   0.722  -4.776  1.00  0.00    -0.372 N 
ATOM     12  H   UNL     1      -1.013   1.700  -4.692  1.00  0.00     0.161 HD
BRANCH  11  13
ATOM     13  C   UNL     1      -1.356   0.124  -6.039  1.00  0.00     0.080 C 
ATOM     14  C   UNL     1      -2.882   0.210  -6.103  1.00  0.00     0.031 C 
BRANCH  13  15
ATOM     15  C   UNL     1      -0.616   0.818  -7.202  1.00  0.00     0.011 C 
ATOM     16  C   UNL     1      -0.671   0.037  -8.518  1.00  0.00     0.006 C 
ATOM     17  C   UNL     1      -1.137   2.190  -7.636  1.00  0.00     0.006 C 
ATOM     18  C   UNL     1      -0.162   1.033  -9.556  1.00  0.00     0.000 C 
ATOM     19  C   UNL     1      -0.494   2.419  -9.003  1.00  0.00     0.000 C 
ENDBRANCH  13  15
ENDBRANCH  11  13
ENDBRANCH  10  11
ENDBRANCH   3   5
ENDBRANCH   2   3
ENDBRANCH   1   2
BRANCH   1  20
ATOM     20  C   UNL     1       1.090   4.553  -1.264  1.00  0.00     0.275 C 
BRANCH  20  21
ATOM     21  O   UNL     1       0.954   4.672  -2.682  1.00  0.00    -0.458 OA
BRANCH  21  22
ATOM     22  C   UNL     1       1.609   3.733  -3.404  1.00  0.00     0.338 C 
ATOM     23  O   UNL     1       2.055   2.675  -2.995  1.00  0.00    -0.246 OA
BRANCH  22  24
ATOM     24  C   UNL     1       1.883   4.259  -4.749  1.00  0.00     0.060 A 
ATOM     25  C   UNL     1       2.409   3.380  -5.699  1.00  0.00     0.016 A 
ATOM     26  C   UNL     1       1.823   5.640  -4.988  1.00  0.00     0.016 A 
ATOM     27  C   UNL     1       2.979   3.902  -6.846  1.00  0.00     0.010 A 
ATOM     28  C   UNL     1       2.400   6.161  -6.128  1.00  0.00     0.010 A 
ATOM     29  C   UNL     1       3.020   5.293  -7.022  1.00  0.00    -0.014 A 
BRANCH  29  30
ATOM     30  C   UNL     1       3.639   5.809  -8.228  1.00  0.00     0.031 A 
ATOM     31  C   UNL     1       2.887   5.517  -9.472  1.00  0.00     0.074 A 
ATOM     32  C   UNL     1       4.739   6.584  -8.236  1.00  0.00     0.049 A 
ATOM     33  N   UNL     1       3.248   4.752 -10.446  1.00  0.00    -0.248 NA
ATOM     34  C   UNL     1       1.522   6.049  -9.592  1.00  0.00     0.031 C 
ATOM     35  C   UNL     1       5.431   7.215  -7.111  1.00  0.00     0.029 A 
ATOM     36  N   UNL     1       5.415   7.056  -9.318  1.00  0.00    -0.354 N 
ATOM     37  C   UNL     1       2.223   4.814 -11.384  1.00  0.00     0.074 A 
ATOM     38  C   UNL     1       1.136   5.522 -10.754  1.00  0.00     0.031 C 
ATOM     39  C   UNL     1       6.274   8.164  -7.586  1.00  0.00     0.029 A 
ATOM     40  C   UNL     1       6.281   8.101  -9.039  1.00  0.00     0.049 A 
ATOM     41  H   UNL     1       5.299   6.686 -10.223  1.00  0.00     0.167 HD
ATOM     42  C   UNL     1       2.416   4.449 -12.681  1.00  0.00     0.031 A 
ATOM     43  C   UNL     1       6.898   8.892  -9.951  1.00  0.00     0.031 A 
ATOM     44  C   UNL     1       3.629   3.696 -12.855  1.00  0.00     0.049 A 
ATOM     45  C   UNL     1       6.895   8.175 -11.248  1.00  0.00     0.074 A 
ATOM     46  C   UNL     1       4.106   2.489 -12.384  1.00  0.00     0.029 A 
ATOM     47  N   UNL     1       4.727   4.372 -13.333  1.00  0.00    -0.354 N 
ATOM     48  N   UNL     1       7.591   7.098 -11.470  1.00  0.00    -0.248 NA
ATOM     49  C   UNL     1       5.776   8.390 -12.154  1.00  0.00     0.031 C 
ATOM     50  C   UNL     1       5.495   2.712 -12.148  1.00  0.00     0.029 A 
ATOM     51  C   UNL     1       5.789   4.019 -12.541  1.00  0.00     0.049 A 
ATOM     52  H   UNL     1       4.747   4.991 -14.098  1.00  0.00     0.167 HD
ATOM     53  C   UNL     1       6.759   6.288 -12.229  1.00  0.00     0.074 A 
ATOM     54  C   UNL     1       5.697   7.174 -12.703  1.00  0.00     0.031 C 
ATOM     55  C   UNL     1       6.850   4.926 -12.169  1.00  0.00     0.031 A 
BRANCH  42  56
ATOM     56  C   UNL     1       1.715   5.099 -13.844  1.00  0.00    -0.014 A 
ATOM     57  C   UNL     1       1.952   4.601 -15.138  1.00  0.00     0.009 A 
ATOM     58  C   UNL     1       1.070   6.346 -13.751  1.00  0.00     0.009 A 
ATOM     59  C   UNL     1       1.632   5.351 -16.276  1.00  0.00     0.001 A 
ATOM     60  C   UNL     1       0.711   7.078 -14.885  1.00  0.00     0.001 A 
ATOM     61  C   UNL     1       1.020   6.593 -16.148  1.00  0.00     0.000 A 
ENDBRANCH  42  56
BRANCH  43  62
ATOM     62  C   UNL     1       7.208  10.333  -9.851  1.00  0.00    -0.014 A 
ATOM     63  C   UNL     1       8.128  10.937 -10.722  1.00  0.00     0.009 A 
ATOM     64  C   UNL     1       6.387  11.175  -9.078  1.00  0.00     0.009 A 
ATOM     65  C   UNL     1       8.197  12.333 -10.840  1.00  0.00     0.001 A 
ATOM     66  C   UNL     1       6.457  12.567  -9.194  1.00  0.00     0.001 A 
ATOM     67  C   UNL     1       7.353  13.146 -10.087  1.00  0.00     0.000 A 
ENDBRANCH  43  62
BRANCH  55  68
ATOM     68  C   UNL     1       8.012   4.330 -11.415  1.00  0.00    -0.014 A 
ATOM     69  C   UNL     1       8.230   4.554 -10.044  1.00  0.00     0.009 A 
ATOM     70  C   UNL     1       8.823   3.393 -12.072  1.00  0.00     0.009 A 
ATOM     71  C   UNL     1       9.252   3.886  -9.361  1.00  0.00     0.001 A 
ATOM     72  C   UNL     1       9.829   2.711 -11.386  1.00  0.00     0.001 A 
ATOM     73  C   UNL     1      10.048   2.961 -10.033  1.00  0.00     0.000 A 
ENDBRANCH  55  68
ENDBRANCH  29  30
ENDBRANCH  22  24
ENDBRANCH  21  22
ENDBRANCH  20  21
ENDBRANCH   1  20
TORSDOF 14
