REMARK SMILES CCc1nc(=O)n([C@@H](CC)C(C)C)c(CC)c1CC(=O)OCCOC(=O)c1ccc(-c2c3nc(c(-c4ccccc4)c4ccc([nH]4)c(-c4ccccc4)c4nc(c(-c5ccccc5)c5ccc2[nH]5)C=C4)C=C3)cc1
REMARK SMILES IDX 22 1 21 2 19 3 20 4 18 5 17 6 3 7 4 8 5 9 14 10 6 11 7 12
REMARK SMILES IDX 2 13 1 14 15 15 16 16 8 17 9 18 10 19 11 20 12 21 13 22
REMARK SMILES IDX 23 23 24 24 25 25 26 26 27 27 28 28 74 29 29 30 73 31 30 32
REMARK SMILES IDX 31 33 32 34 67 35 33 36 72 37 66 38 68 39 34 40 71 41 65 42
REMARK SMILES IDX 64 43 35 45 57 46 42 47 56 48 43 49 46 50 55 51 69 52 44 53
REMARK SMILES IDX 45 54 54 56 70 57 47 58 36 59 37 60 41 61 38 62 40 63 39 64
REMARK SMILES IDX 58 65 59 66 63 67 60 68 62 69 61 70 48 71 49 72 53 73 50 74
REMARK SMILES IDX 52 75 51 76
REMARK H PARENT 68 44 46 55
REMARK Flexibility Score: inf
ROOT
ATOM      1  C   UNL     1       5.894  -0.247   2.771  1.00  0.00     0.274 C 
ENDROOT
BRANCH   1   2
ATOM      2  O   UNL     1       4.527   0.260   2.794  1.00  0.00    -0.462 OA
BRANCH   2   3
ATOM      3  C   UNL     1       3.575  -0.593   3.252  1.00  0.00     0.310 C 
ATOM      4  O   UNL     1       3.764  -1.797   3.421  1.00  0.00    -0.252 OA
BRANCH   3   5
ATOM      5  C   UNL     1       2.272   0.057   3.742  1.00  0.00     0.162 C 
BRANCH   5   6
ATOM      6  C   UNL     1       1.777   1.395   3.256  1.00  0.00     0.005 A 
ATOM      7  C   UNL     1       0.917   1.410   2.028  1.00  0.00     0.051 A 
ATOM      8  N   UNL     1       0.290   2.445   1.595  1.00  0.00    -0.198 NA
ATOM      9  C   UNL     1       0.367   3.638   2.254  1.00  0.00     0.348 A 
ATOM     10  C   UNL     1       1.830   2.581   3.926  1.00  0.00     0.028 A 
ATOM     11  O   UNL     1      -0.277   4.589   1.846  1.00  0.00    -0.246 OA
ATOM     12  N   UNL     1       1.175   3.716   3.402  1.00  0.00    -0.293 N 
BRANCH   7  13
ATOM     13  C   UNL     1       0.648   0.133   1.221  1.00  0.00     0.053 C 
ATOM     14  C   UNL     1       1.277   0.191  -0.159  1.00  0.00     0.011 C 
ENDBRANCH   7  13
BRANCH  10  15
ATOM     15  C   UNL     1       2.448   2.730   5.329  1.00  0.00     0.051 C 
ATOM     16  C   UNL     1       3.760   3.532   5.428  1.00  0.00     0.010 C 
ENDBRANCH  10  15
BRANCH  12  17
ATOM     17  C   UNL     1       1.337   5.060   4.027  1.00  0.00     0.094 C 
BRANCH  17  18
ATOM     18  C   UNL     1       2.348   5.936   3.243  1.00  0.00     0.022 C 
ATOM     19  C   UNL     1       1.869   6.556   1.945  1.00  0.00     0.006 C 
ENDBRANCH  17  18
BRANCH  17  20
ATOM     20  C   UNL     1       0.036   5.738   4.545  1.00  0.00     0.006 C 
ATOM     21  C   UNL     1      -0.749   4.780   5.459  1.00  0.00     0.009 C 
ATOM     22  C   UNL     1       0.371   6.998   5.361  1.00  0.00     0.009 C 
ENDBRANCH  17  20
ENDBRANCH  12  17
ENDBRANCH   5   6
ENDBRANCH   3   5
ENDBRANCH   2   3
ENDBRANCH   1   2
BRANCH   1  23
ATOM     23  C   UNL     1       6.805   0.390   3.854  1.00  0.00     0.275 C 
BRANCH  23  24
ATOM     24  O   UNL     1       6.572  -0.111   5.200  1.00  0.00    -0.458 OA
BRANCH  24  25
ATOM     25  C   UNL     1       5.455   0.421   5.723  1.00  0.00     0.338 C 
ATOM     26  O   UNL     1       4.715   1.168   5.112  1.00  0.00    -0.246 OA
BRANCH  25  27
ATOM     27  C   UNL     1       5.030   0.035   7.065  1.00  0.00     0.060 A 
ATOM     28  C   UNL     1       5.616   0.591   8.200  1.00  0.00     0.016 A 
ATOM     29  C   UNL     1       3.777  -0.583   7.151  1.00  0.00     0.016 A 
ATOM     30  C   UNL     1       4.975   0.444   9.437  1.00  0.00     0.010 A 
ATOM     31  C   UNL     1       3.090  -0.625   8.356  1.00  0.00     0.010 A 
ATOM     32  C   UNL     1       3.719  -0.187   9.525  1.00  0.00    -0.014 A 
BRANCH  32  33
ATOM     33  C   UNL     1       3.142  -0.560  10.840  1.00  0.00     0.031 A 
ATOM     34  C   UNL     1       3.105  -2.022  11.214  1.00  0.00     0.074 A 
ATOM     35  C   UNL     1       2.696   0.371  11.703  1.00  0.00     0.049 A 
ATOM     36  N   UNL     1       2.825  -2.570  12.368  1.00  0.00    -0.248 NA
ATOM     37  C   UNL     1       3.413  -3.001  10.153  1.00  0.00     0.031 C 
ATOM     38  C   UNL     1       2.618   1.808  11.439  1.00  0.00     0.029 A 
ATOM     39  N   UNL     1       2.251   0.244  12.997  1.00  0.00    -0.354 N 
ATOM     40  C   UNL     1       2.949  -3.940  12.170  1.00  0.00     0.074 A 
ATOM     41  C   UNL     1       3.232  -4.153  10.774  1.00  0.00     0.031 C 
ATOM     42  C   UNL     1       2.214   2.436  12.557  1.00  0.00     0.029 A 
ATOM     43  C   UNL     1       2.002   1.447  13.614  1.00  0.00     0.049 A 
ATOM     44  H   UNL     1       2.123  -0.626  13.440  1.00  0.00     0.167 HD
ATOM     45  C   UNL     1       2.889  -4.937  13.079  1.00  0.00     0.031 A 
ATOM     46  C   UNL     1       1.686   1.722  14.896  1.00  0.00     0.031 A 
ATOM     47  C   UNL     1       2.615  -4.730  14.470  1.00  0.00     0.049 A 
ATOM     48  C   UNL     1       1.608   0.593  15.893  1.00  0.00     0.074 A 
ATOM     49  C   UNL     1       2.567  -5.670  15.482  1.00  0.00     0.029 A 
ATOM     50  N   UNL     1       2.346  -3.498  15.040  1.00  0.00    -0.354 N 
ATOM     51  N   UNL     1       1.830  -0.687  15.713  1.00  0.00    -0.248 NA
ATOM     52  C   UNL     1       1.268   0.952  17.279  1.00  0.00     0.031 C 
ATOM     53  C   UNL     1       2.213  -5.011  16.661  1.00  0.00     0.029 A 
ATOM     54  C   UNL     1       2.112  -3.655  16.392  1.00  0.00     0.049 A 
ATOM     55  H   UNL     1       2.326  -2.641  14.556  1.00  0.00     0.167 HD
ATOM     56  C   UNL     1       1.694  -1.278  16.964  1.00  0.00     0.074 A 
ATOM     57  C   UNL     1       1.382  -0.217  17.897  1.00  0.00     0.031 C 
ATOM     58  C   UNL     1       1.820  -2.583  17.308  1.00  0.00     0.031 A 
BRANCH  45  59
ATOM     59  C   UNL     1       3.161  -6.335  12.604  1.00  0.00    -0.014 A 
ATOM     60  C   UNL     1       2.136  -7.292  12.604  1.00  0.00     0.009 A 
ATOM     61  C   UNL     1       4.457  -6.724  12.225  1.00  0.00     0.009 A 
ATOM     62  C   UNL     1       2.406  -8.615  12.251  1.00  0.00     0.001 A 
ATOM     63  C   UNL     1       4.717  -8.040  11.843  1.00  0.00     0.001 A 
ATOM     64  C   UNL     1       3.694  -8.987  11.867  1.00  0.00     0.000 A 
ENDBRANCH  45  59
BRANCH  46  65
ATOM     65  C   UNL     1       1.519   3.135  15.333  1.00  0.00    -0.014 A 
ATOM     66  C   UNL     1       0.418   3.896  14.911  1.00  0.00     0.009 A 
ATOM     67  C   UNL     1       2.476   3.737  16.166  1.00  0.00     0.009 A 
ATOM     68  C   UNL     1       0.285   5.232  15.303  1.00  0.00     0.001 A 
ATOM     69  C   UNL     1       2.326   5.064  16.579  1.00  0.00     0.001 A 
ATOM     70  C   UNL     1       1.236   5.812  16.141  1.00  0.00     0.000 A 
ENDBRANCH  46  65
BRANCH  58  71
ATOM     71  C   UNL     1       1.655  -2.959  18.754  1.00  0.00    -0.014 A 
ATOM     72  C   UNL     1       2.760  -3.450  19.470  1.00  0.00     0.009 A 
ATOM     73  C   UNL     1       0.394  -2.958  19.365  1.00  0.00     0.009 A 
ATOM     74  C   UNL     1       2.601  -3.952  20.762  1.00  0.00     0.001 A 
ATOM     75  C   UNL     1       0.244  -3.431  20.670  1.00  0.00     0.001 A 
ATOM     76  C   UNL     1       1.344  -3.938  21.362  1.00  0.00     0.000 A 
ENDBRANCH  58  71
ENDBRANCH  32  33
ENDBRANCH  25  27
ENDBRANCH  24  25
ENDBRANCH  23  24
ENDBRANCH   1  23
TORSDOF 17
