REMARK SMILES [NH3+][C@H](CO)c1ccc(Cl)c(C(=O)OCCOC(=O)c2ccc(-c3c4nc(c(-c5ccccc5)c5ccc([nH]5)c(-c5ccccc5)c5nc(c(-c6ccccc6)c6ccc3[nH]6)C=C5)C=C4)cc2)c1
REMARK SMILES IDX 14 1 13 2 11 3 12 4 10 5 5 6 6 7 67 8 7 9 8 10 9 11 2 12
REMARK SMILES IDX 1 13 3 17 4 18 15 20 16 21 17 22 18 23 19 24 20 25 66 26
REMARK SMILES IDX 21 27 65 28 22 29 23 30 24 31 59 32 25 33 64 34 58 35 60 36
REMARK SMILES IDX 26 37 63 38 57 39 56 40 27 42 49 43 34 44 48 45 35 46 38 47
REMARK SMILES IDX 47 48 61 49 36 50 37 51 46 53 62 54 39 55 28 56 29 57 33 58
REMARK SMILES IDX 30 59 32 60 31 61 50 62 51 63 55 64 52 65 54 66 53 67 40 68
REMARK SMILES IDX 41 69 45 70 42 71 44 72 43 73
REMARK H PARENT 1 14 1 15 1 16 4 19 60 41 38 52
REMARK Flexibility Score: inf
ROOT
ATOM      1  C   UNL     1      -5.730  -3.329  -1.400  1.00  0.00     0.275 C 
ENDROOT
BRANCH   1   2
ATOM      2  O   UNL     1      -5.041  -2.076  -1.579  1.00  0.00    -0.458 OA
BRANCH   2   3
ATOM      3  C   UNL     1      -4.031  -1.816  -0.719  1.00  0.00     0.339 C 
ATOM      4  O   UNL     1      -3.604  -2.556   0.156  1.00  0.00    -0.246 OA
BRANCH   3   5
ATOM      5  C   UNL     1      -3.372  -0.535  -1.044  1.00  0.00     0.079 A 
ATOM      6  C   UNL     1      -1.220   0.612  -1.345  1.00  0.00     0.012 A 
ATOM      7  C   UNL     1      -1.921   1.801  -1.575  1.00  0.00     0.011 A 
ATOM      8  C   UNL     1      -1.966  -0.544  -1.071  1.00  0.00     0.027 A 
ATOM      9  C   UNL     1      -3.321   1.827  -1.523  1.00  0.00     0.022 A 
ATOM     10  C   UNL     1      -4.051   0.664  -1.255  1.00  0.00     0.055 A 
ATOM     11  Cl  UNL     1      -5.766   0.814  -1.123  1.00  0.00    -0.083 Cl
BRANCH   6  12
ATOM     12  C   UNL     1       0.302   0.583  -1.397  1.00  0.00     0.237 C 
BRANCH  12  13
ATOM     13  N   UNL     1       0.768  -0.418  -2.369  1.00  0.00    -0.349 N 
ATOM     14  H   UNL     1       0.338  -0.238  -3.276  1.00  0.00     0.345 HD
ATOM     15  H   UNL     1       0.508  -1.351  -2.049  1.00  0.00     0.345 HD
ATOM     16  H   UNL     1       1.783  -0.360  -2.457  1.00  0.00     0.345 HD
ENDBRANCH  12  13
BRANCH  12  17
ATOM     17  C   UNL     1       0.938   0.339  -0.004  1.00  0.00     0.226 C 
BRANCH  17  18
ATOM     18  O   UNL     1       0.748  -1.007   0.443  1.00  0.00    -0.390 OA
ATOM     19  H   UNL     1      -0.202  -1.190   0.524  1.00  0.00     0.210 HD
ENDBRANCH  17  18
ENDBRANCH  12  17
ENDBRANCH   6  12
ENDBRANCH   3   5
ENDBRANCH   2   3
ENDBRANCH   1   2
BRANCH   1  20
ATOM     20  C   UNL     1      -5.411  -4.276  -2.552  1.00  0.00     0.275 C 
BRANCH  20  21
ATOM     21  O   UNL     1      -4.017  -4.625  -2.501  1.00  0.00    -0.458 OA
BRANCH  21  22
ATOM     22  C   UNL     1      -3.287  -4.300  -3.591  1.00  0.00     0.338 C 
ATOM     23  O   UNL     1      -3.683  -3.821  -4.640  1.00  0.00    -0.246 OA
BRANCH  22  24
ATOM     24  C   UNL     1      -1.871  -4.616  -3.340  1.00  0.00     0.060 A 
ATOM     25  C   UNL     1      -1.213  -4.034  -2.260  1.00  0.00     0.016 A 
ATOM     26  C   UNL     1      -1.165  -5.397  -4.252  1.00  0.00     0.016 A 
ATOM     27  C   UNL     1       0.174  -4.137  -2.153  1.00  0.00     0.010 A 
ATOM     28  C   UNL     1       0.211  -5.586  -4.079  1.00  0.00     0.010 A 
ATOM     29  C   UNL     1       0.911  -4.916  -3.059  1.00  0.00    -0.014 A 
BRANCH  29  30
ATOM     30  C   UNL     1       2.402  -4.993  -2.979  1.00  0.00     0.031 A 
ATOM     31  C   UNL     1       3.250  -4.649  -4.183  1.00  0.00     0.074 A 
ATOM     32  C   UNL     1       3.021  -5.358  -1.837  1.00  0.00     0.049 A 
ATOM     33  N   UNL     1       4.532  -4.845  -4.377  1.00  0.00    -0.248 NA
ATOM     34  C   UNL     1       2.565  -4.021  -5.324  1.00  0.00     0.031 C 
ATOM     35  C   UNL     1       2.360  -5.676  -0.570  1.00  0.00     0.029 A 
ATOM     36  N   UNL     1       4.359  -5.506  -1.554  1.00  0.00    -0.354 N 
ATOM     37  C   UNL     1       4.785  -4.442  -5.684  1.00  0.00     0.074 A 
ATOM     38  C   UNL     1       3.529  -3.982  -6.234  1.00  0.00     0.031 C 
ATOM     39  C   UNL     1       3.291  -5.916   0.366  1.00  0.00     0.029 A 
ATOM     40  C   UNL     1       4.610  -5.872  -0.253  1.00  0.00     0.049 A 
ATOM     41  H   UNL     1       5.070  -5.364  -2.220  1.00  0.00     0.167 HD
ATOM     42  C   UNL     1       5.956  -4.459  -6.368  1.00  0.00     0.031 A 
ATOM     43  C   UNL     1       5.763  -6.180   0.372  1.00  0.00     0.031 A 
ATOM     44  C   UNL     1       7.225  -4.841  -5.806  1.00  0.00     0.049 A 
ATOM     45  C   UNL     1       7.046  -6.194  -0.406  1.00  0.00     0.074 A 
ATOM     46  C   UNL     1       8.466  -4.866  -6.420  1.00  0.00     0.029 A 
ATOM     47  N   UNL     1       7.420  -5.236  -4.494  1.00  0.00    -0.354 N 
ATOM     48  N   UNL     1       7.254  -5.887  -1.662  1.00  0.00    -0.248 NA
ATOM     49  C   UNL     1       8.252  -6.625   0.318  1.00  0.00     0.031 C 
ATOM     50  C   UNL     1       9.410  -5.306  -5.486  1.00  0.00     0.029 A 
ATOM     51  C   UNL     1       8.761  -5.514  -4.280  1.00  0.00     0.049 A 
ATOM     52  H   UNL     1       6.713  -5.309  -3.814  1.00  0.00     0.167 HD
ATOM     53  C   UNL     1       8.611  -6.085  -1.878  1.00  0.00     0.074 A 
ATOM     54  C   UNL     1       9.183  -6.511  -0.618  1.00  0.00     0.031 C 
ATOM     55  C   UNL     1       9.317  -5.938  -3.025  1.00  0.00     0.031 A 
BRANCH  42  56
ATOM     56  C   UNL     1       5.920  -4.087  -7.824  1.00  0.00    -0.014 A 
ATOM     57  C   UNL     1       5.785  -2.755  -8.244  1.00  0.00     0.009 A 
ATOM     58  C   UNL     1       6.085  -5.091  -8.792  1.00  0.00     0.009 A 
ATOM     59  C   UNL     1       5.789  -2.442  -9.605  1.00  0.00     0.001 A 
ATOM     60  C   UNL     1       6.114  -4.772 -10.151  1.00  0.00     0.001 A 
ATOM     61  C   UNL     1       5.959  -3.448 -10.556  1.00  0.00     0.000 A 
ENDBRANCH  42  56
BRANCH  43  62
ATOM     62  C   UNL     1       5.750  -6.556   1.810  1.00  0.00    -0.014 A 
ATOM     63  C   UNL     1       6.309  -5.704   2.774  1.00  0.00     0.009 A 
ATOM     64  C   UNL     1       5.179  -7.770   2.225  1.00  0.00     0.009 A 
ATOM     65  C   UNL     1       6.308  -6.066   4.123  1.00  0.00     0.001 A 
ATOM     66  C   UNL     1       5.152  -8.115   3.577  1.00  0.00     0.001 A 
ATOM     67  C   UNL     1       5.723  -7.267   4.524  1.00  0.00     0.000 A 
ENDBRANCH  43  62
BRANCH  55  68
ATOM     68  C   UNL     1      10.790  -6.216  -2.958  1.00  0.00    -0.014 A 
ATOM     69  C   UNL     1      11.276  -7.532  -2.901  1.00  0.00     0.009 A 
ATOM     70  C   UNL     1      11.703  -5.151  -2.978  1.00  0.00     0.009 A 
ATOM     71  C   UNL     1      12.649  -7.773  -2.833  1.00  0.00     0.001 A 
ATOM     72  C   UNL     1      13.076  -5.396  -2.931  1.00  0.00     0.001 A 
ATOM     73  C   UNL     1      13.547  -6.705  -2.850  1.00  0.00     0.000 A 
ENDBRANCH  55  68
ENDBRANCH  29  30
ENDBRANCH  22  24
ENDBRANCH  21  22
ENDBRANCH  20  21
ENDBRANCH   1  20
TORSDOF 15
