REMARK SMILES Cn1cc(C[C@H](C(=O)OCCOC(=O)c2ccc(-c3c4nc(c(-c5ccccc5)c5ccc([nH]5)c(-c5ccccc5)c5nc(c(-c6ccccc6)c6ccc3[nH]6)C=C5)C=C4)cc2)c2ccc(F)cc2)cn1
REMARK SMILES IDX 10 1 9 2 7 3 8 4 6 5 5 6 4 7 1 8 2 9 3 10 71 11 70 12 63 13
REMARK SMILES IDX 64 14 69 15 65 16 68 17 66 18 67 19 11 20 12 21 13 22 14 23
REMARK SMILES IDX 15 24 16 25 62 26 17 27 61 28 18 29 19 30 20 31 55 32 21 33
REMARK SMILES IDX 60 34 54 35 56 36 22 37 59 38 53 39 52 40 23 42 45 43 30 44
REMARK SMILES IDX 44 45 31 46 34 47 43 48 57 49 32 50 33 51 42 53 58 54 35 55
REMARK SMILES IDX 24 56 25 57 29 58 26 59 28 60 27 61 46 62 47 63 51 64 48 65
REMARK SMILES IDX 50 66 49 67 36 68 37 69 41 70 38 71 40 72 39 73
REMARK H PARENT 56 41 34 52
REMARK Flexibility Score: inf
ROOT
ATOM      1  C   UNL     1       2.172  -2.994   1.269  1.00  0.00     0.274 C 
ENDROOT
BRANCH   1   2
ATOM      2  O   UNL     1       3.114  -2.596   0.251  1.00  0.00    -0.462 OA
BRANCH   2   3
ATOM      3  C   UNL     1       2.604  -2.044  -0.881  1.00  0.00     0.313 C 
ATOM      4  O   UNL     1       1.411  -1.812  -1.057  1.00  0.00    -0.252 OA
BRANCH   3   5
ATOM      5  C   UNL     1       3.668  -1.672  -1.920  1.00  0.00     0.134 C 
BRANCH   5   6
ATOM      6  C   UNL     1       3.733  -0.133  -1.923  1.00  0.00     0.059 C 
BRANCH   6   7
ATOM      7  C   UNL     1       4.140   0.554  -3.185  1.00  0.00    -0.009 A 
ATOM      8  C   UNL     1       4.535   3.403  -5.362  1.00  0.00     0.173 C 
ATOM      9  N   UNL     1       4.489   2.132  -4.679  1.00  0.00    -0.276 N 
ATOM     10  C   UNL     1       4.226   1.923  -3.359  1.00  0.00     0.112 A 
ATOM     11  N   UNL     1       4.647   0.993  -5.373  1.00  0.00    -0.182 NA
ATOM     12  C   UNL     1       4.431   0.035  -4.467  1.00  0.00     0.138 A 
ENDBRANCH   6   7
ENDBRANCH   5   6
BRANCH   5  13
ATOM     13  C   UNL     1       4.985  -2.432  -1.762  1.00  0.00    -0.033 A 
ATOM     14  C   UNL     1       4.957  -3.842  -1.815  1.00  0.00     0.007 A 
ATOM     15  C   UNL     1       6.226  -1.802  -1.570  1.00  0.00     0.007 A 
ATOM     16  C   UNL     1       6.121  -4.593  -1.645  1.00  0.00     0.039 A 
ATOM     17  C   UNL     1       7.392  -2.557  -1.409  1.00  0.00     0.039 A 
ATOM     18  C   UNL     1       7.329  -3.943  -1.442  1.00  0.00     0.123 A 
ATOM     19  F   UNL     1       8.446  -4.662  -1.276  1.00  0.00    -0.207 F 
ENDBRANCH   5  13
ENDBRANCH   3   5
ENDBRANCH   2   3
ENDBRANCH   1   2
BRANCH   1  20
ATOM     20  C   UNL     1       2.482  -2.256   2.566  1.00  0.00     0.275 C 
BRANCH  20  21
ATOM     21  O   UNL     1       2.274  -0.850   2.344  1.00  0.00    -0.458 OA
BRANCH  21  22
ATOM     22  C   UNL     1       3.340  -0.052   2.575  1.00  0.00     0.338 C 
ATOM     23  O   UNL     1       4.419  -0.363   3.046  1.00  0.00    -0.246 OA
BRANCH  22  24
ATOM     24  C   UNL     1       3.024   1.319   2.136  1.00  0.00     0.060 A 
ATOM     25  C   UNL     1       2.481   1.542   0.871  1.00  0.00     0.016 A 
ATOM     26  C   UNL     1       3.383   2.398   2.942  1.00  0.00     0.016 A 
ATOM     27  C   UNL     1       2.407   2.839   0.362  1.00  0.00     0.010 A 
ATOM     28  C   UNL     1       3.195   3.702   2.474  1.00  0.00     0.010 A 
ATOM     29  C   UNL     1       2.751   3.941   1.160  1.00  0.00    -0.014 A 
BRANCH  29  30
ATOM     30  C   UNL     1       2.691   5.335   0.629  1.00  0.00     0.031 A 
ATOM     31  C   UNL     1       3.909   6.225   0.693  1.00  0.00     0.074 A 
ATOM     32  C   UNL     1       1.556   5.830   0.095  1.00  0.00     0.049 A 
ATOM     33  N   UNL     1       4.001   7.519   0.508  1.00  0.00    -0.248 NA
ATOM     34  C   UNL     1       5.188   5.578   1.028  1.00  0.00     0.031 C 
ATOM     35  C   UNL     1       0.303   5.096  -0.083  1.00  0.00     0.029 A 
ATOM     36  N   UNL     1       1.278   7.081  -0.404  1.00  0.00    -0.354 N 
ATOM     37  C   UNL     1       5.322   7.850   0.787  1.00  0.00     0.074 A 
ATOM     38  C   UNL     1       6.000   6.620   1.136  1.00  0.00     0.031 C 
ATOM     39  C   UNL     1      -0.590   5.888  -0.696  1.00  0.00     0.029 A 
ATOM     40  C   UNL     1      -0.009   7.215  -0.866  1.00  0.00     0.049 A 
ATOM     41  H   UNL     1       1.938   7.811  -0.427  1.00  0.00     0.167 HD
ATOM     42  C   UNL     1       5.915   9.068   0.766  1.00  0.00     0.031 A 
ATOM     43  C   UNL     1      -0.672   8.289  -1.333  1.00  0.00     0.031 A 
ATOM     44  C   UNL     1       5.267  10.286   0.357  1.00  0.00     0.049 A 
ATOM     45  C   UNL     1       0.004   9.628  -1.356  1.00  0.00     0.074 A 
ATOM     46  C   UNL     1       5.794  11.566   0.293  1.00  0.00     0.029 A 
ATOM     47  N   UNL     1       3.958  10.371  -0.084  1.00  0.00    -0.354 N 
ATOM     48  N   UNL     1       1.226   9.939  -1.002  1.00  0.00    -0.248 NA
ATOM     49  C   UNL     1      -0.802  10.767  -1.817  1.00  0.00     0.031 C 
ATOM     50  C   UNL     1       4.794  12.430  -0.167  1.00  0.00     0.029 A 
ATOM     51  C   UNL     1       3.658  11.680  -0.422  1.00  0.00     0.049 A 
ATOM     52  H   UNL     1       3.332   9.614  -0.148  1.00  0.00     0.167 HD
ATOM     53  C   UNL     1       1.334  11.310  -1.190  1.00  0.00     0.074 A 
ATOM     54  C   UNL     1       0.064  11.766  -1.717  1.00  0.00     0.031 C 
ATOM     55  C   UNL     1       2.389  12.121  -0.936  1.00  0.00     0.031 A 
BRANCH  42  56
ATOM     56  C   UNL     1       7.338   9.152   1.243  1.00  0.00    -0.014 A 
ATOM     57  C   UNL     1       8.408   8.710   0.452  1.00  0.00     0.009 A 
ATOM     58  C   UNL     1       7.608   9.720   2.499  1.00  0.00     0.009 A 
ATOM     59  C   UNL     1       9.719   8.806   0.923  1.00  0.00     0.001 A 
ATOM     60  C   UNL     1       8.921   9.836   2.958  1.00  0.00     0.001 A 
ATOM     61  C   UNL     1       9.975   9.372   2.173  1.00  0.00     0.000 A 
ENDBRANCH  42  56
BRANCH  43  62
ATOM     62  C   UNL     1      -2.084   8.147  -1.769  1.00  0.00    -0.014 A 
ATOM     63  C   UNL     1      -2.412   8.181  -3.132  1.00  0.00     0.009 A 
ATOM     64  C   UNL     1      -3.104   7.949  -0.826  1.00  0.00     0.009 A 
ATOM     65  C   UNL     1      -3.738   8.024  -3.541  1.00  0.00     0.001 A 
ATOM     66  C   UNL     1      -4.425   7.767  -1.240  1.00  0.00     0.001 A 
ATOM     67  C   UNL     1      -4.741   7.809  -2.596  1.00  0.00     0.000 A 
ENDBRANCH  43  62
BRANCH  55  68
ATOM     68  C   UNL     1       2.214  13.579  -1.238  1.00  0.00    -0.014 A 
ATOM     69  C   UNL     1       1.487  14.412  -0.374  1.00  0.00     0.009 A 
ATOM     70  C   UNL     1       2.801  14.131  -2.387  1.00  0.00     0.009 A 
ATOM     71  C   UNL     1       1.328  15.767  -0.670  1.00  0.00     0.001 A 
ATOM     72  C   UNL     1       2.655  15.489  -2.671  1.00  0.00     0.001 A 
ATOM     73  C   UNL     1       1.913  16.304  -1.817  1.00  0.00     0.000 A 
ENDBRANCH  55  68
ENDBRANCH  29  30
ENDBRANCH  22  24
ENDBRANCH  21  22
ENDBRANCH  20  21
ENDBRANCH   1  20
TORSDOF 14
