REMARK SMILES NS(=O)(=O)c1ccc(-n2nc(C(=O)OCCOC(=O)c3ccc(-c4c5nc(c(-c6ccccc6)c6ccc([nH]6)c(-c6ccccc6)c6nc(c(-c7ccccc7)c7ccc4[nH]7)C=C6)C=C5)cc3)cc2-c2cc3ccccc3s2)cc1
REMARK SMILES IDX 15 1 14 2 12 3 13 4 11 5 9 6 10 7 69 8 68 9 8 10 5 11 6 12
REMARK SMILES IDX 80 13 7 14 79 15 2 16 3 17 4 18 1 19 70 22 71 23 78 24 72 25
REMARK SMILES IDX 77 26 73 27 76 28 74 29 75 30 16 31 17 32 18 33 19 34 20 35
REMARK SMILES IDX 21 36 67 37 22 38 66 39 23 40 24 41 25 42 60 43 26 44 65 45
REMARK SMILES IDX 59 46 61 47 27 48 64 49 58 50 57 51 28 53 50 54 35 55 49 56
REMARK SMILES IDX 36 57 39 58 48 59 62 60 37 61 38 62 47 64 63 65 40 66 29 67
REMARK SMILES IDX 30 68 34 69 31 70 33 71 32 72 51 73 52 74 56 75 53 76 55 77
REMARK SMILES IDX 54 78 41 79 42 80 46 81 43 82 45 83 44 84
REMARK H PARENT 1 20 1 21 61 52 39 63
REMARK Flexibility Score: inf
ROOT
ATOM      1  C   UNL     1       4.303   6.012  -9.941  1.00  0.00     0.275 C 
ENDROOT
BRANCH   1   2
ATOM      2  O   UNL     1       3.646   4.858  -9.393  1.00  0.00    -0.457 OA
BRANCH   2   3
ATOM      3  C   UNL     1       4.032   4.458  -8.134  1.00  0.00     0.358 C 
ATOM      4  O   UNL     1       5.062   4.830  -7.584  1.00  0.00    -0.244 OA
BRANCH   3   5
ATOM      5  C   UNL     1       3.032   3.564  -7.529  1.00  0.00     0.171 A 
ATOM      6  N   UNL     1       2.217   1.983  -6.361  1.00  0.00    -0.231 N 
ATOM      7  N   UNL     1       3.121   3.000  -6.308  1.00  0.00    -0.160 NA
ATOM      8  C   UNL     1       1.611   1.909  -7.593  1.00  0.00     0.085 A 
ATOM      9  C   UNL     1       1.840   3.148  -8.159  1.00  0.00     0.068 A 
BRANCH   6  10
ATOM     10  C   UNL     1       1.864   1.269  -5.205  1.00  0.00     0.065 A 
ATOM     11  C   UNL     1       1.058  -0.120  -2.954  1.00  0.00     0.082 A 
ATOM     12  C   UNL     1       1.722  -0.796  -3.986  1.00  0.00     0.024 A 
ATOM     13  C   UNL     1       0.798   1.252  -3.039  1.00  0.00     0.024 A 
ATOM     14  C   UNL     1       2.110  -0.102  -5.131  1.00  0.00     0.030 A 
ATOM     15  C   UNL     1       1.226   1.958  -4.163  1.00  0.00     0.030 A 
BRANCH  11  16
ATOM     16  S   UNL     1       0.541  -1.014  -1.519  1.00  0.00     0.238 S 
ATOM     17  O   UNL     1       1.209  -2.301  -1.496  1.00  0.00    -0.207 OA
ATOM     18  O   UNL     1      -0.883  -0.875  -1.376  1.00  0.00    -0.207 OA
BRANCH  16  19
ATOM     19  N   UNL     1       1.239  -0.140  -0.266  1.00  0.00    -0.225 NA
ATOM     20  H   UNL     1       1.002  -0.575   0.625  1.00  0.00     0.137 HD
ATOM     21  H   UNL     1       0.887   0.817  -0.282  1.00  0.00     0.137 HD
ENDBRANCH  16  19
ENDBRANCH  11  16
ENDBRANCH   6  10
BRANCH   8  22
ATOM     22  C   UNL     1       1.149   0.755  -8.329  1.00  0.00     0.054 A 
ATOM     23  C   UNL     1      -0.009   0.683  -9.104  1.00  0.00     0.031 A 
ATOM     24  S   UNL     1       2.365   0.049  -9.398  1.00  0.00    -0.134 S 
ATOM     25  C   UNL     1       0.352   1.241 -10.405  1.00  0.00    -0.007 A 
ATOM     26  C   UNL     1       1.735   1.125 -10.619  1.00  0.00     0.035 A 
ATOM     27  C   UNL     1      -0.403   2.000 -11.325  1.00  0.00     0.009 A 
ATOM     28  C   UNL     1       2.408   1.846 -11.617  1.00  0.00     0.019 A 
ATOM     29  C   UNL     1       0.264   2.760 -12.293  1.00  0.00     0.001 A 
ATOM     30  C   UNL     1       1.652   2.713 -12.409  1.00  0.00     0.001 A 
ENDBRANCH   8  22
ENDBRANCH   3   5
ENDBRANCH   2   3
ENDBRANCH   1   2
BRANCH   1  31
ATOM     31  C   UNL     1       3.619   7.289  -9.473  1.00  0.00     0.275 C 
BRANCH  31  32
ATOM     32  O   UNL     1       3.742   7.420  -8.061  1.00  0.00    -0.458 OA
BRANCH  32  33
ATOM     33  C   UNL     1       2.708   6.922  -7.346  1.00  0.00     0.338 C 
ATOM     34  O   UNL     1       1.771   6.261  -7.761  1.00  0.00    -0.246 OA
BRANCH  33  35
ATOM     35  C   UNL     1       2.764   7.469  -5.994  1.00  0.00     0.060 A 
ATOM     36  C   UNL     1       1.857   6.963  -5.058  1.00  0.00     0.016 A 
ATOM     37  C   UNL     1       3.396   8.708  -5.843  1.00  0.00     0.016 A 
ATOM     38  C   UNL     1       1.395   7.820  -4.086  1.00  0.00     0.010 A 
ATOM     39  C   UNL     1       2.905   9.569  -4.907  1.00  0.00     0.010 A 
ATOM     40  C   UNL     1       1.851   9.141  -4.104  1.00  0.00    -0.014 A 
BRANCH  40  41
ATOM     41  C   UNL     1       1.328  10.088  -3.150  1.00  0.00     0.031 A 
ATOM     42  C   UNL     1       1.899   9.861  -1.804  1.00  0.00     0.074 A 
ATOM     43  C   UNL     1       0.573  11.134  -3.540  1.00  0.00     0.049 A 
ATOM     44  N   UNL     1       1.273   9.453  -0.754  1.00  0.00    -0.248 NA
ATOM     45  C   UNL     1       3.370   9.865  -1.662  1.00  0.00     0.031 C 
ATOM     46  C   UNL     1       0.203  11.537  -4.902  1.00  0.00     0.029 A 
ATOM     47  N   UNL     1       0.073  12.148  -2.791  1.00  0.00    -0.354 N 
ATOM     48  C   UNL     1       2.238   9.382   0.243  1.00  0.00     0.074 A 
ATOM     49  C   UNL     1       3.511   9.399  -0.422  1.00  0.00     0.031 C 
ATOM     50  C   UNL     1      -0.226  12.822  -4.888  1.00  0.00     0.029 A 
ATOM     51  C   UNL     1      -0.273  13.286  -3.511  1.00  0.00     0.049 A 
ATOM     52  H   UNL     1      -0.037  12.083  -1.814  1.00  0.00     0.167 HD
ATOM     53  C   UNL     1       1.914   9.669   1.533  1.00  0.00     0.031 A 
ATOM     54  C   UNL     1      -0.507  14.525  -3.002  1.00  0.00     0.031 A 
ATOM     55  C   UNL     1       0.486   9.613   1.731  1.00  0.00     0.049 A 
ATOM     56  C   UNL     1      -0.747  14.363  -1.546  1.00  0.00     0.074 A 
ATOM     57  C   UNL     1      -0.476   8.636   1.571  1.00  0.00     0.029 A 
ATOM     58  N   UNL     1      -0.184  10.815   1.734  1.00  0.00    -0.354 N 
ATOM     59  N   UNL     1      -1.803  13.770  -1.067  1.00  0.00    -0.248 NA
ATOM     60  C   UNL     1       0.409  14.392  -0.660  1.00  0.00     0.031 C 
ATOM     61  C   UNL     1      -1.603   9.316   1.023  1.00  0.00     0.029 A 
ATOM     62  C   UNL     1      -1.310  10.680   0.968  1.00  0.00     0.049 A 
ATOM     63  H   UNL     1       0.099  11.632   2.206  1.00  0.00     0.167 HD
ATOM     64  C   UNL     1      -1.315  12.957  -0.054  1.00  0.00     0.074 A 
ATOM     65  C   UNL     1       0.037  13.451   0.215  1.00  0.00     0.031 C 
ATOM     66  C   UNL     1      -1.924  11.771   0.245  1.00  0.00     0.031 A 
BRANCH  53  67
ATOM     67  C   UNL     1       2.813  10.492   2.430  1.00  0.00    -0.014 A 
ATOM     68  C   UNL     1       2.332  10.830   3.706  1.00  0.00     0.009 A 
ATOM     69  C   UNL     1       3.946  11.197   1.979  1.00  0.00     0.009 A 
ATOM     70  C   UNL     1       2.875  11.897   4.429  1.00  0.00     0.001 A 
ATOM     71  C   UNL     1       4.516  12.237   2.715  1.00  0.00     0.001 A 
ATOM     72  C   UNL     1       3.956  12.611   3.925  1.00  0.00     0.000 A 
ENDBRANCH  53  67
BRANCH  54  73
ATOM     73  C   UNL     1      -0.252  15.856  -3.605  1.00  0.00    -0.014 A 
ATOM     74  C   UNL     1      -0.815  17.022  -3.056  1.00  0.00     0.009 A 
ATOM     75  C   UNL     1       0.769  16.019  -4.559  1.00  0.00     0.009 A 
ATOM     76  C   UNL     1      -0.347  18.295  -3.420  1.00  0.00     0.001 A 
ATOM     77  C   UNL     1       1.235  17.288  -4.924  1.00  0.00     0.001 A 
ATOM     78  C   UNL     1       0.687  18.427  -4.343  1.00  0.00     0.000 A 
ENDBRANCH  54  73
BRANCH  66  79
ATOM     79  C   UNL     1      -3.249  11.472  -0.414  1.00  0.00    -0.014 A 
ATOM     80  C   UNL     1      -3.411  11.331  -1.805  1.00  0.00     0.009 A 
ATOM     81  C   UNL     1      -4.335  11.159   0.415  1.00  0.00     0.009 A 
ATOM     82  C   UNL     1      -4.634  10.917  -2.346  1.00  0.00     0.001 A 
ATOM     83  C   UNL     1      -5.547  10.725  -0.123  1.00  0.00     0.001 A 
ATOM     84  C   UNL     1      -5.699  10.610  -1.502  1.00  0.00     0.000 A 
ENDBRANCH  66  79
ENDBRANCH  40  41
ENDBRANCH  33  35
ENDBRANCH  32  33
ENDBRANCH  31  32
ENDBRANCH   1  31
TORSDOF 15
