REMARK SMILES COc1cc2c(CC(=O)OCCOC(=O)c3ccc(-c4c5nc(c(-c6ccccc6)c6ccc([nH]6)c(-c6ccccc6)c6nc(c(-c7ccccc7)c7ccc4[nH]7)C=C6)C=C5)cc3)c(C)n(C(=O)c3ccc(Cl)cc3)c2cc1Cl
REMARK SMILES IDX 11 1 10 2 8 3 9 4 7 5 6 6 3 7 4 8 78 9 5 10 77 11 79 12
REMARK SMILES IDX 76 13 64 14 66 15 65 16 2 17 1 18 67 19 68 20 69 21 70 22
REMARK SMILES IDX 75 23 71 24 74 25 72 26 73 27 12 28 13 29 14 30 15 31 16 32
REMARK SMILES IDX 17 33 63 34 18 35 62 36 19 37 20 38 21 39 56 40 22 41 61 42
REMARK SMILES IDX 55 43 57 44 23 45 60 46 54 47 53 48 24 50 46 51 31 52 45 53
REMARK SMILES IDX 32 54 35 55 44 56 58 57 33 58 34 59 43 61 59 62 36 63 25 64
REMARK SMILES IDX 26 65 30 66 27 67 29 68 28 69 47 70 48 71 52 72 49 73 51 74
REMARK SMILES IDX 50 75 37 76 38 77 42 78 39 79 41 80 40 81
REMARK H PARENT 57 49 35 60
REMARK Flexibility Score: inf
ROOT
ATOM      1  C   UNL     1      -1.287   3.944  -6.062  1.00  0.00     0.274 C 
ENDROOT
BRANCH   1   2
ATOM      2  O   UNL     1      -0.730   4.491  -4.843  1.00  0.00    -0.462 OA
BRANCH   2   3
ATOM      3  C   UNL     1      -1.636   5.123  -4.065  1.00  0.00     0.310 C 
ATOM      4  O   UNL     1      -2.828   5.188  -4.353  1.00  0.00    -0.252 OA
BRANCH   3   5
ATOM      5  C   UNL     1      -1.094   5.867  -2.879  1.00  0.00     0.160 C 
BRANCH   5   6
ATOM      6  C   UNL     1       0.304   5.644  -2.368  1.00  0.00    -0.008 A 
ATOM      7  C   UNL     1       1.458   2.164  -1.056  1.00  0.00     0.138 A 
ATOM      8  C   UNL     1       0.635   3.093  -1.724  1.00  0.00     0.058 A 
ATOM      9  C   UNL     1       2.682   2.592  -0.579  1.00  0.00     0.085 A 
ATOM     10  C   UNL     1       0.955   4.470  -1.853  1.00  0.00     0.008 A 
ATOM     11  C   UNL     1       3.035   3.943  -0.685  1.00  0.00     0.051 A 
ATOM     12  Cl  UNL     1       3.909   1.526   0.009  1.00  0.00    -0.080 Cl
ATOM     13  C   UNL     1       2.200   4.871  -1.356  1.00  0.00     0.058 A 
ATOM     14  C   UNL     1       1.167   6.713  -2.137  1.00  0.00     0.028 A 
ATOM     15  N   UNL     1       2.398   6.214  -1.723  1.00  0.00    -0.280 N 
ATOM     16  C   UNL     1       0.862   8.167  -2.350  1.00  0.00     0.065 C 
BRANCH   7  17
ATOM     17  O   UNL     1       0.994   0.874  -1.047  1.00  0.00    -0.495 OA
ATOM     18  C   UNL     1       1.040   0.196   0.210  1.00  0.00     0.278 C 
ENDBRANCH   7  17
BRANCH  15  19
ATOM     19  C   UNL     1       3.631   6.920  -1.703  1.00  0.00     0.262 C 
ATOM     20  O   UNL     1       3.658   8.115  -1.988  1.00  0.00    -0.268 OA
BRANCH  19  21
ATOM     21  C   UNL     1       4.919   6.298  -1.380  1.00  0.00     0.040 A 
ATOM     22  C   UNL     1       5.460   5.334  -2.239  1.00  0.00     0.015 A 
ATOM     23  C   UNL     1       5.497   6.583  -0.141  1.00  0.00     0.015 A 
ATOM     24  C   UNL     1       6.555   4.587  -1.809  1.00  0.00     0.021 A 
ATOM     25  C   UNL     1       6.596   5.835   0.278  1.00  0.00     0.021 A 
ATOM     26  C   UNL     1       7.107   4.830  -0.548  1.00  0.00     0.041 A 
ATOM     27  Cl  UNL     1       8.403   3.850   0.014  1.00  0.00    -0.084 Cl
ENDBRANCH  19  21
ENDBRANCH  15  19
ENDBRANCH   5   6
ENDBRANCH   3   5
ENDBRANCH   2   3
ENDBRANCH   1   2
BRANCH   1  28
ATOM     28  C   UNL     1      -1.618   2.455  -5.911  1.00  0.00     0.275 C 
BRANCH  28  29
ATOM     29  O   UNL     1      -2.791   2.294  -5.092  1.00  0.00    -0.458 OA
BRANCH  29  30
ATOM     30  C   UNL     1      -2.617   1.723  -3.874  1.00  0.00     0.338 C 
ATOM     31  O   UNL     1      -1.662   1.060  -3.500  1.00  0.00    -0.246 OA
BRANCH  30  32
ATOM     32  C   UNL     1      -3.569   2.391  -2.966  1.00  0.00     0.060 A 
ATOM     33  C   UNL     1      -4.906   2.602  -3.306  1.00  0.00     0.016 A 
ATOM     34  C   UNL     1      -2.998   3.083  -1.901  1.00  0.00     0.016 A 
ATOM     35  C   UNL     1      -5.589   3.662  -2.713  1.00  0.00     0.010 A 
ATOM     36  C   UNL     1      -3.648   4.167  -1.361  1.00  0.00     0.010 A 
ATOM     37  C   UNL     1      -4.906   4.509  -1.833  1.00  0.00    -0.014 A 
BRANCH  37  38
ATOM     38  C   UNL     1      -5.504   5.711  -1.285  1.00  0.00     0.031 A 
ATOM     39  C   UNL     1      -6.120   5.519   0.042  1.00  0.00     0.074 A 
ATOM     40  C   UNL     1      -5.353   6.965  -1.754  1.00  0.00     0.049 A 
ATOM     41  N   UNL     1      -7.377   5.368   0.275  1.00  0.00    -0.248 NA
ATOM     42  C   UNL     1      -5.256   5.335   1.217  1.00  0.00     0.031 C 
ATOM     43  C   UNL     1      -4.499   7.473  -2.822  1.00  0.00     0.029 A 
ATOM     44  N   UNL     1      -5.932   8.097  -1.269  1.00  0.00    -0.354 N 
ATOM     45  C   UNL     1      -7.493   5.229   1.648  1.00  0.00     0.074 A 
ATOM     46  C   UNL     1      -6.158   5.017   2.146  1.00  0.00     0.031 C 
ATOM     47  C   UNL     1      -4.461   8.826  -2.778  1.00  0.00     0.029 A 
ATOM     48  C   UNL     1      -5.435   9.274  -1.801  1.00  0.00     0.049 A 
ATOM     49  H   UNL     1      -6.648   8.080  -0.594  1.00  0.00     0.167 HD
ATOM     50  C   UNL     1      -8.657   5.518   2.288  1.00  0.00     0.031 A 
ATOM     51  C   UNL     1      -5.815  10.529  -1.464  1.00  0.00     0.031 A 
ATOM     52  C   UNL     1      -9.733   5.737   1.351  1.00  0.00     0.049 A 
ATOM     53  C   UNL     1      -7.168  10.433  -0.869  1.00  0.00     0.074 A 
ATOM     54  C   UNL     1     -10.349   4.965   0.385  1.00  0.00     0.029 A 
ATOM     55  N   UNL     1     -10.034   7.044   1.041  1.00  0.00    -0.354 N 
ATOM     56  N   UNL     1      -8.224  10.074  -1.543  1.00  0.00    -0.248 NA
ATOM     57  C   UNL     1      -7.285  10.320   0.575  1.00  0.00     0.031 C 
ATOM     58  C   UNL     1     -10.593   5.857  -0.701  1.00  0.00     0.029 A 
ATOM     59  C   UNL     1     -10.163   7.132  -0.323  1.00  0.00     0.049 A 
ATOM     60  H   UNL     1     -10.138   7.783   1.682  1.00  0.00     0.167 HD
ATOM     61  C   UNL     1      -8.959   9.292  -0.664  1.00  0.00     0.074 A 
ATOM     62  C   UNL     1      -8.396   9.581   0.653  1.00  0.00     0.031 C 
ATOM     63  C   UNL     1      -9.762   8.281  -1.114  1.00  0.00     0.031 A 
BRANCH  50  64
ATOM     64  C   UNL     1      -8.748   5.949   3.726  1.00  0.00    -0.014 A 
ATOM     65  C   UNL     1      -7.649   6.382   4.491  1.00  0.00     0.009 A 
ATOM     66  C   UNL     1     -10.022   6.147   4.284  1.00  0.00     0.009 A 
ATOM     67  C   UNL     1      -7.807   6.982   5.743  1.00  0.00     0.001 A 
ATOM     68  C   UNL     1     -10.188   6.790   5.515  1.00  0.00     0.001 A 
ATOM     69  C   UNL     1      -9.079   7.209   6.243  1.00  0.00     0.000 A 
ENDBRANCH  50  64
BRANCH  51  70
ATOM     70  C   UNL     1      -4.969  11.732  -1.339  1.00  0.00    -0.014 A 
ATOM     71  C   UNL     1      -3.626  11.599  -0.939  1.00  0.00     0.009 A 
ATOM     72  C   UNL     1      -5.537  13.014  -1.321  1.00  0.00     0.009 A 
ATOM     73  C   UNL     1      -2.892  12.700  -0.486  1.00  0.00     0.001 A 
ATOM     74  C   UNL     1      -4.801  14.117  -0.869  1.00  0.00     0.001 A 
ATOM     75  C   UNL     1      -3.486  13.956  -0.435  1.00  0.00     0.000 A 
ENDBRANCH  51  70
BRANCH  63  76
ATOM     76  C   UNL     1     -10.031   8.188  -2.602  1.00  0.00    -0.014 A 
ATOM     77  C   UNL     1     -11.363   8.092  -3.036  1.00  0.00     0.009 A 
ATOM     78  C   UNL     1      -9.012   8.010  -3.555  1.00  0.00     0.009 A 
ATOM     79  C   UNL     1     -11.668   7.813  -4.371  1.00  0.00     0.001 A 
ATOM     80  C   UNL     1      -9.317   7.755  -4.898  1.00  0.00     0.001 A 
ATOM     81  C   UNL     1     -10.646   7.646  -5.302  1.00  0.00     0.000 A 
ENDBRANCH  63  76
ENDBRANCH  37  38
ENDBRANCH  30  32
ENDBRANCH  29  30
ENDBRANCH  28  29
ENDBRANCH   1  28
TORSDOF 15
