REMARK SMILES Cc1nsc(N[C@H](C)c2cccc(Br)c2)c1C(=O)OCCOC(=O)c1ccc(-c2c3nc(c(-c4ccccc4)c4ccc([nH]4)c(-c4ccccc4)c4nc(c(-c5ccccc5)c5ccc2[nH]5)C=C4)C=C3)cc1
REMARK SMILES IDX 20 1 19 2 17 3 18 4 16 5 1 6 2 7 3 8 4 9 5 10 6 11 7 13 8 14
REMARK SMILES IDX 9 15 10 16 15 17 11 18 13 19 12 20 14 21 21 22 22 23 23 24
REMARK SMILES IDX 24 25 25 26 26 27 72 28 27 29 71 30 28 31 29 32 30 33 65 34
REMARK SMILES IDX 31 35 70 36 64 37 66 38 32 39 69 40 63 41 62 42 33 44 55 45
REMARK SMILES IDX 40 46 54 47 41 48 44 49 53 50 67 51 42 52 43 53 52 55 68 56
REMARK SMILES IDX 45 57 34 58 35 59 39 60 36 61 38 62 37 63 56 64 57 65 61 66
REMARK SMILES IDX 58 67 60 68 59 69 46 70 47 71 51 72 48 73 50 74 49 75
REMARK H PARENT 6 12 66 43 44 54
REMARK Flexibility Score: inf
ROOT
ATOM      1  C   UNL     1       1.950   3.882  10.883  1.00  0.00     0.275 C 
ENDROOT
BRANCH   1   2
ATOM      2  O   UNL     1       1.916   2.487  10.513  1.00  0.00    -0.458 OA
BRANCH   2   3
ATOM      3  C   UNL     1       0.944   2.071   9.645  1.00  0.00     0.343 C 
ATOM      4  O   UNL     1       0.025   2.797   9.264  1.00  0.00    -0.246 OA
BRANCH   3   5
ATOM      5  C   UNL     1       1.144   0.704   9.156  1.00  0.00     0.117 A 
ATOM      6  C   UNL     1       3.084  -0.061  10.760  1.00  0.00     0.069 C 
ATOM      7  C   UNL     1       2.101  -0.263   9.656  1.00  0.00     0.068 A 
ATOM      8  N   UNL     1       2.092  -1.459   9.070  1.00  0.00    -0.195 NA
ATOM      9  S   UNL     1       0.989  -1.455   7.854  1.00  0.00    -0.018 S 
ATOM     10  C   UNL     1       0.437   0.159   8.078  1.00  0.00     0.124 A 
BRANCH  10  11
ATOM     11  N   UNL     1      -0.511   0.778   7.314  1.00  0.00    -0.368 N 
ATOM     12  H   UNL     1      -0.639   1.744   7.449  1.00  0.00     0.162 HD
BRANCH  11  13
ATOM     13  C   UNL     1      -1.352   0.125   6.314  1.00  0.00     0.107 C 
ATOM     14  C   UNL     1      -0.745   0.226   4.914  1.00  0.00     0.036 C 
BRANCH  13  15
ATOM     15  C   UNL     1      -2.746   0.738   6.347  1.00  0.00    -0.025 A 
ATOM     16  C   UNL     1      -3.862  -0.103   6.495  1.00  0.00     0.006 A 
ATOM     17  C   UNL     1      -2.958   2.123   6.238  1.00  0.00     0.021 A 
ATOM     18  C   UNL     1      -5.152   0.424   6.566  1.00  0.00     0.002 A 
ATOM     19  C   UNL     1      -4.249   2.644   6.327  1.00  0.00     0.018 A 
ATOM     20  C   UNL     1      -5.346   1.802   6.494  1.00  0.00     0.016 A 
ATOM     21  Br  UNL     1      -4.511   4.515   6.238  1.00  0.00    -0.051 Br
ENDBRANCH  13  15
ENDBRANCH  11  13
ENDBRANCH  10  11
ENDBRANCH   3   5
ENDBRANCH   2   3
ENDBRANCH   1   2
BRANCH   1  22
ATOM     22  C   UNL     1       2.840   4.706   9.952  1.00  0.00     0.275 C 
BRANCH  22  23
ATOM     23  O   UNL     1       2.180   4.958   8.710  1.00  0.00    -0.458 OA
BRANCH  23  24
ATOM     24  C   UNL     1       2.374   3.985   7.798  1.00  0.00     0.338 C 
ATOM     25  O   UNL     1       2.986   2.940   7.954  1.00  0.00    -0.246 OA
BRANCH  24  26
ATOM     26  C   UNL     1       1.844   4.382   6.497  1.00  0.00     0.060 A 
ATOM     27  C   UNL     1       1.618   3.347   5.586  1.00  0.00     0.016 A 
ATOM     28  C   UNL     1       1.942   5.721   6.105  1.00  0.00     0.016 A 
ATOM     29  C   UNL     1       1.726   3.621   4.244  1.00  0.00     0.010 A 
ATOM     30  C   UNL     1       2.039   5.995   4.760  1.00  0.00     0.010 A 
ATOM     31  C   UNL     1       2.049   4.923   3.861  1.00  0.00    -0.014 A 
BRANCH  31  32
ATOM     32  C   UNL     1       2.489   5.123   2.492  1.00  0.00     0.031 A 
ATOM     33  C   UNL     1       1.432   5.002   1.456  1.00  0.00     0.074 A 
ATOM     34  C   UNL     1       3.759   5.512   2.257  1.00  0.00     0.049 A 
ATOM     35  N   UNL     1       1.479   4.391   0.317  1.00  0.00    -0.248 NA
ATOM     36  C   UNL     1       0.114   5.580   1.777  1.00  0.00     0.031 C 
ATOM     37  C   UNL     1       4.776   5.888   3.250  1.00  0.00     0.029 A 
ATOM     38  N   UNL     1       4.349   5.839   1.077  1.00  0.00    -0.354 N 
ATOM     39  C   UNL     1       0.245   4.622  -0.288  1.00  0.00     0.074 A 
ATOM     40  C   UNL     1      -0.590   5.259   0.695  1.00  0.00     0.031 C 
ATOM     41  C   UNL     1       5.702   6.665   2.651  1.00  0.00     0.029 A 
ATOM     42  C   UNL     1       5.399   6.735   1.232  1.00  0.00     0.049 A 
ATOM     43  H   UNL     1       4.063   5.480   0.206  1.00  0.00     0.167 HD
ATOM     44  C   UNL     1       0.037   4.450  -1.621  1.00  0.00     0.031 A 
ATOM     45  C   UNL     1       5.879   7.585   0.293  1.00  0.00     0.031 A 
ATOM     46  C   UNL     1       1.011   3.585  -2.220  1.00  0.00     0.049 A 
ATOM     47  C   UNL     1       5.397   7.117  -1.029  1.00  0.00     0.074 A 
ATOM     48  C   UNL     1       1.350   2.257  -2.061  1.00  0.00     0.029 A 
ATOM     49  N   UNL     1       2.045   4.162  -2.916  1.00  0.00    -0.354 N 
ATOM     50  N   UNL     1       5.785   6.007  -1.590  1.00  0.00    -0.248 NA
ATOM     51  C   UNL     1       4.140   7.660  -1.528  1.00  0.00     0.031 C 
ATOM     52  C   UNL     1       2.760   2.214  -2.244  1.00  0.00     0.029 A 
ATOM     53  C   UNL     1       3.188   3.510  -2.537  1.00  0.00     0.049 A 
ATOM     54  H   UNL     1       1.977   4.901  -3.563  1.00  0.00     0.167 HD
ATOM     55  C   UNL     1       4.646   5.497  -2.199  1.00  0.00     0.074 A 
ATOM     56  C   UNL     1       3.693   6.604  -2.214  1.00  0.00     0.031 C 
ATOM     57  C   UNL     1       4.473   4.153  -2.373  1.00  0.00     0.031 A 
BRANCH  44  58
ATOM     58  C   UNL     1      -0.848   5.357  -2.433  1.00  0.00    -0.014 A 
ATOM     59  C   UNL     1      -1.042   5.077  -3.797  1.00  0.00     0.009 A 
ATOM     60  C   UNL     1      -1.262   6.626  -1.981  1.00  0.00     0.009 A 
ATOM     61  C   UNL     1      -1.552   6.043  -4.671  1.00  0.00     0.001 A 
ATOM     62  C   UNL     1      -1.811   7.577  -2.842  1.00  0.00     0.001 A 
ATOM     63  C   UNL     1      -1.928   7.295  -4.195  1.00  0.00     0.000 A 
ENDBRANCH  44  58
BRANCH  45  64
ATOM     64  C   UNL     1       6.409   8.947   0.533  1.00  0.00    -0.014 A 
ATOM     65  C   UNL     1       7.193   9.601  -0.426  1.00  0.00     0.009 A 
ATOM     66  C   UNL     1       5.970   9.703   1.639  1.00  0.00     0.009 A 
ATOM     67  C   UNL     1       7.520  10.958  -0.283  1.00  0.00     0.001 A 
ATOM     68  C   UNL     1       6.304  11.052   1.790  1.00  0.00     0.001 A 
ATOM     69  C   UNL     1       7.073  11.682   0.821  1.00  0.00     0.000 A 
ENDBRANCH  45  64
BRANCH  57  70
ATOM     70  C   UNL     1       5.626   3.235  -2.057  1.00  0.00    -0.014 A 
ATOM     71  C   UNL     1       6.149   3.112  -0.757  1.00  0.00     0.009 A 
ATOM     72  C   UNL     1       6.041   2.316  -3.032  1.00  0.00     0.009 A 
ATOM     73  C   UNL     1       7.072   2.108  -0.448  1.00  0.00     0.001 A 
ATOM     74  C   UNL     1       6.948   1.302  -2.717  1.00  0.00     0.001 A 
ATOM     75  C   UNL     1       7.463   1.198  -1.427  1.00  0.00     0.000 A 
ENDBRANCH  57  70
ENDBRANCH  31  32
ENDBRANCH  24  26
ENDBRANCH  23  24
ENDBRANCH  22  23
ENDBRANCH   1  22
TORSDOF 14
