REMARK SMILES CCSc1nc(CC(=O)N[C@@H](C(=O)OCCOC(=O)c2ccc(-c3c4nc(c(-c5ccccc5)c5ccc([nH]5)c(-c5ccccc5)c5nc(c(-c6ccccc6)c6ccc3[nH]6)C=C5)C=C4)cc2)C2=C(C)N=N[C@@H]2C)cs1
REMARK SMILES IDX 14 1 12 2 13 3 11 4 10 5 8 6 9 7 7 9 6 10 4 11 5 12 76 13
REMARK SMILES IDX 75 14 3 15 2 16 1 17 68 18 69 19 73 20 70 21 71 22 72 23
REMARK SMILES IDX 74 24 15 25 16 26 17 27 18 28 19 29 20 30 21 31 67 32 22 33
REMARK SMILES IDX 66 34 23 35 24 36 25 37 60 38 26 39 65 40 59 41 61 42 27 43
REMARK SMILES IDX 64 44 58 45 57 46 28 48 50 49 35 50 49 51 36 52 39 53 48 54
REMARK SMILES IDX 62 55 37 56 38 57 47 59 63 60 40 61 29 62 30 63 34 64 31 65
REMARK SMILES IDX 33 66 32 67 51 68 52 69 56 70 53 71 55 72 54 73 41 74 42 75
REMARK SMILES IDX 46 76 43 77 45 78 44 79
REMARK H PARENT 10 8 61 47 39 58
REMARK Flexibility Score: inf
ROOT
ATOM      1  O   UNL     1       4.554   2.638  -3.101  1.00  0.00    -0.460 OA
ENDROOT
BRANCH   1   2
ATOM      2  C   UNL     1       4.050   1.374  -2.978  1.00  0.00     0.333 C 
ATOM      3  O   UNL     1       2.916   1.042  -3.304  1.00  0.00    -0.249 OA
BRANCH   2   4
ATOM      4  C   UNL     1       5.067   0.406  -2.306  1.00  0.00     0.223 C 
BRANCH   4   5
ATOM      5  N   UNL     1       6.401   0.960  -2.103  1.00  0.00    -0.339 N 
ATOM      6  C   UNL     1       6.900   1.545  -0.976  1.00  0.00     0.226 C 
ATOM      7  O   UNL     1       7.996   2.105  -1.038  1.00  0.00    -0.275 OA
ATOM      8  H   UNL     1       7.015   0.904  -2.870  1.00  0.00     0.164 HD
BRANCH   6   9
ATOM      9  C   UNL     1       6.122   1.484   0.326  1.00  0.00     0.157 C 
BRANCH   9  10
ATOM     10  C   UNL     1       5.022   2.491   0.343  1.00  0.00     0.062 A 
ATOM     11  C   UNL     1       2.889   3.081   0.209  1.00  0.00     0.150 A 
ATOM     12  N   UNL     1       3.709   2.054   0.205  1.00  0.00    -0.234 NA
ATOM     13  S   UNL     1       3.626   4.617   0.402  1.00  0.00    -0.116 S 
ATOM     14  C   UNL     1       5.161   3.861   0.466  1.00  0.00     0.092 A 
BRANCH  11  15
ATOM     15  S   UNL     1       1.168   2.907  -0.040  1.00  0.00    -0.096 SA
BRANCH  15  16
ATOM     16  C   UNL     1       0.834   1.312   0.757  1.00  0.00     0.074 C 
ATOM     17  C   UNL     1       1.081   0.135  -0.171  1.00  0.00     0.016 C 
ENDBRANCH  15  16
ENDBRANCH  11  15
ENDBRANCH   9  10
ENDBRANCH   6   9
ENDBRANCH   4   5
BRANCH   4  18
ATOM     18  C   UNL     1       5.213  -0.901  -3.008  1.00  0.00     0.012 C 
ATOM     19  C   UNL     1       5.205  -2.144  -2.511  1.00  0.00     0.064 C 
ATOM     20  C   UNL     1       5.253  -1.085  -4.484  1.00  0.00     0.156 C 
ATOM     21  C   UNL     1       5.125  -2.587  -1.093  1.00  0.00     0.069 C 
ATOM     22  N   UNL     1       5.269  -3.103  -3.491  1.00  0.00    -0.160 NA
ATOM     23  N   UNL     1       5.299  -2.563  -4.630  1.00  0.00    -0.181 NA
ATOM     24  C   UNL     1       6.443  -0.485  -5.210  1.00  0.00     0.040 C 
ENDBRANCH   4  18
ENDBRANCH   2   4
ENDBRANCH   1   2
BRANCH   1  25
ATOM     25  C   UNL     1       3.626   3.680  -3.474  1.00  0.00     0.274 C 
BRANCH  25  26
ATOM     26  C   UNL     1       3.835   4.115  -4.921  1.00  0.00     0.275 C 
BRANCH  26  27
ATOM     27  O   UNL     1       3.410   3.051  -5.786  1.00  0.00    -0.458 OA
BRANCH  27  28
ATOM     28  C   UNL     1       4.297   2.647  -6.722  1.00  0.00     0.338 C 
ATOM     29  O   UNL     1       5.380   3.146  -6.973  1.00  0.00    -0.246 OA
BRANCH  28  30
ATOM     30  C   UNL     1       3.795   1.427  -7.391  1.00  0.00     0.060 A 
ATOM     31  C   UNL     1       3.017   0.500  -6.696  1.00  0.00     0.016 A 
ATOM     32  C   UNL     1       4.227   1.133  -8.684  1.00  0.00     0.016 A 
ATOM     33  C   UNL     1       2.792  -0.766  -7.236  1.00  0.00     0.010 A 
ATOM     34  C   UNL     1       3.892  -0.093  -9.268  1.00  0.00     0.010 A 
ATOM     35  C   UNL     1       3.208  -1.081  -8.536  1.00  0.00    -0.014 A 
BRANCH  35  36
ATOM     36  C   UNL     1       2.979  -2.429  -9.132  1.00  0.00     0.031 A 
ATOM     37  C   UNL     1       4.127  -3.179  -9.760  1.00  0.00     0.074 A 
ATOM     38  C   UNL     1       1.757  -2.999  -9.145  1.00  0.00     0.049 A 
ATOM     39  N   UNL     1       4.100  -4.146 -10.641  1.00  0.00    -0.248 NA
ATOM     40  C   UNL     1       5.483  -2.769  -9.360  1.00  0.00     0.031 C 
ATOM     41  C   UNL     1       0.552  -2.469  -8.506  1.00  0.00     0.029 A 
ATOM     42  N   UNL     1       1.330  -4.166  -9.734  1.00  0.00    -0.354 N 
ATOM     43  C   UNL     1       5.428  -4.398 -10.966  1.00  0.00     0.074 A 
ATOM     44  C   UNL     1       6.237  -3.501 -10.169  1.00  0.00     0.031 C 
ATOM     45  C   UNL     1      -0.463  -3.323  -8.700  1.00  0.00     0.029 A 
ATOM     46  C   UNL     1      -0.016  -4.391  -9.585  1.00  0.00     0.049 A 
ATOM     47  H   UNL     1       1.931  -4.780 -10.216  1.00  0.00     0.167 HD
ATOM     48  C   UNL     1       5.921  -5.283 -11.865  1.00  0.00     0.031 A 
ATOM     49  C   UNL     1      -0.831  -5.299 -10.154  1.00  0.00     0.031 A 
ATOM     50  C   UNL     1       5.117  -6.224 -12.600  1.00  0.00     0.049 A 
ATOM     51  C   UNL     1      -0.281  -6.244 -11.179  1.00  0.00     0.074 A 
ATOM     52  C   UNL     1       5.520  -7.153 -13.545  1.00  0.00     0.029 A 
ATOM     53  N   UNL     1       3.750  -6.381 -12.441  1.00  0.00    -0.354 N 
ATOM     54  N   UNL     1       0.951  -6.366 -11.608  1.00  0.00    -0.248 NA
ATOM     55  C   UNL     1      -1.242  -7.144 -11.830  1.00  0.00     0.031 C 
ATOM     56  C   UNL     1       4.390  -7.859 -13.973  1.00  0.00     0.029 A 
ATOM     57  C   UNL     1       3.293  -7.392 -13.268  1.00  0.00     0.049 A 
ATOM     58  H   UNL     1       3.188  -5.852 -11.831  1.00  0.00     0.167 HD
ATOM     59  C   UNL     1       0.914  -7.354 -12.582  1.00  0.00     0.074 A 
ATOM     60  C   UNL     1      -0.458  -7.811 -12.667  1.00  0.00     0.031 C 
ATOM     61  C   UNL     1       1.926  -7.831 -13.344  1.00  0.00     0.031 A 
BRANCH  48  62
ATOM     62  C   UNL     1       7.394  -5.246 -12.149  1.00  0.00    -0.014 A 
ATOM     63  C   UNL     1       8.331  -5.804 -11.270  1.00  0.00     0.009 A 
ATOM     64  C   UNL     1       7.842  -4.691 -13.360  1.00  0.00     0.009 A 
ATOM     65  C   UNL     1       9.692  -5.791 -11.589  1.00  0.00     0.001 A 
ATOM     66  C   UNL     1       9.199  -4.698 -13.686  1.00  0.00     0.001 A 
ATOM     67  C   UNL     1      10.123  -5.244 -12.798  1.00  0.00     0.000 A 
ENDBRANCH  48  62
BRANCH  49  68
ATOM     68  C   UNL     1      -2.280  -5.277  -9.834  1.00  0.00    -0.014 A 
ATOM     69  C   UNL     1      -2.847  -6.271  -9.025  1.00  0.00     0.009 A 
ATOM     70  C   UNL     1      -3.092  -4.228 -10.297  1.00  0.00     0.009 A 
ATOM     71  C   UNL     1      -4.200  -6.212  -8.683  1.00  0.00     0.001 A 
ATOM     72  C   UNL     1      -4.436  -4.157  -9.930  1.00  0.00     0.001 A 
ATOM     73  C   UNL     1      -4.990  -5.151  -9.126  1.00  0.00     0.000 A 
ENDBRANCH  49  68
BRANCH  61  74
ATOM     74  C   UNL     1       1.590  -8.921 -14.315  1.00  0.00    -0.014 A 
ATOM     75  C   UNL     1       0.987  -8.627 -15.546  1.00  0.00     0.009 A 
ATOM     76  C   UNL     1       1.912 -10.252 -14.007  1.00  0.00     0.009 A 
ATOM     77  C   UNL     1       0.690  -9.653 -16.445  1.00  0.00     0.001 A 
ATOM     78  C   UNL     1       1.629 -11.272 -14.914  1.00  0.00     0.001 A 
ATOM     79  C   UNL     1       1.013 -10.973 -16.129  1.00  0.00     0.000 A 
ENDBRANCH  61  74
ENDBRANCH  35  36
ENDBRANCH  28  30
ENDBRANCH  27  28
ENDBRANCH  26  27
ENDBRANCH  25  26
ENDBRANCH   1  25
TORSDOF 17
