REMARK SMILES N#C[C@H]1CN(c2cc(C(=O)OCCOC(=O)c3ccc(-c4c5nc(c(-c6ccccc6)c6ccc([nH]6)c(-c6ccccc6)c6nc(c(-c7ccccc7)c7ccc4[nH]7)C=C6)C=C5)cc3)c(N)cc2F)CCO1
REMARK SMILES IDX 12 1 11 2 9 3 10 4 8 5 6 6 7 7 68 8 67 9 69 10 65 11 5 12
REMARK SMILES IDX 3 13 4 14 72 15 71 16 70 17 2 18 1 19 66 20 13 23 14 24
REMARK SMILES IDX 15 25 16 26 17 27 18 28 64 29 19 30 63 31 20 32 21 33 22 34
REMARK SMILES IDX 57 35 23 36 62 37 56 38 58 39 24 40 61 41 55 42 54 43 25 45
REMARK SMILES IDX 47 46 32 47 46 48 33 49 36 50 45 51 59 52 34 53 35 54 44 56
REMARK SMILES IDX 60 57 37 58 26 59 27 60 31 61 28 62 30 63 29 64 48 65 49 66
REMARK SMILES IDX 53 67 50 68 52 69 51 70 38 71 39 72 43 73 40 74 42 75 41 76
REMARK H PARENT 66 21 66 22 58 44 36 55
REMARK Flexibility Score: inf
ROOT
ATOM      1  C   UNL     1       3.355   6.574  -6.260  1.00  0.00     0.275 C 
ENDROOT
BRANCH   1   2
ATOM      2  O   UNL     1       2.703   5.375  -5.782  1.00  0.00    -0.458 OA
BRANCH   2   3
ATOM      3  C   UNL     1       3.477   4.263  -5.682  1.00  0.00     0.340 C 
ATOM      4  O   UNL     1       4.666   4.189  -5.953  1.00  0.00    -0.246 OA
BRANCH   3   5
ATOM      5  C   UNL     1       2.722   3.126  -5.089  1.00  0.00     0.085 A 
ATOM      6  C   UNL     1       2.825   1.191  -3.573  1.00  0.00     0.074 A 
ATOM      7  C   UNL     1       3.408   2.314  -4.157  1.00  0.00     0.047 A 
ATOM      8  C   UNL     1       1.548   0.847  -4.024  1.00  0.00     0.148 A 
ATOM      9  C   UNL     1       0.858   1.623  -4.960  1.00  0.00     0.067 A 
ATOM     10  F   UNL     1       0.957  -0.264  -3.555  1.00  0.00    -0.205 F 
ATOM     11  C   UNL     1       1.411   2.804  -5.471  1.00  0.00     0.049 A 
BRANCH   6  12
ATOM     12  N   UNL     1       3.507   0.441  -2.644  1.00  0.00    -0.363 N 
ATOM     13  C   UNL     1       3.499  -0.121  -0.246  1.00  0.00     0.240 C 
ATOM     14  C   UNL     1       3.873   0.941  -1.309  1.00  0.00     0.164 C 
ATOM     15  O   UNL     1       4.108  -1.396  -0.569  1.00  0.00    -0.360 OA
ATOM     16  C   UNL     1       3.643  -1.869  -1.846  1.00  0.00     0.183 C 
ATOM     17  C   UNL     1       3.999  -0.896  -2.980  1.00  0.00     0.145 C 
BRANCH  13  18
ATOM     18  C   UNL     1       3.913   0.325   1.096  1.00  0.00     0.096 C 
ATOM     19  N   UNL     1       4.186   0.701   2.159  1.00  0.00    -0.195 NA
ENDBRANCH  13  18
ENDBRANCH   6  12
BRANCH  11  20
ATOM     20  N   UNL     1       0.721   3.492  -6.469  1.00  0.00    -0.398 N 
ATOM     21  H   UNL     1       1.094   4.323  -6.841  1.00  0.00     0.156 HD
ATOM     22  H   UNL     1      -0.139   3.146  -6.801  1.00  0.00     0.156 HD
ENDBRANCH  11  20
ENDBRANCH   3   5
ENDBRANCH   2   3
ENDBRANCH   1   2
BRANCH   1  23
ATOM     23  C   UNL     1       3.536   7.597  -5.137  1.00  0.00     0.275 C 
BRANCH  23  24
ATOM     24  O   UNL     1       4.518   7.139  -4.189  1.00  0.00    -0.458 OA
BRANCH  24  25
ATOM     25  C   UNL     1       4.010   6.624  -3.049  1.00  0.00     0.338 C 
ATOM     26  O   UNL     1       2.838   6.558  -2.717  1.00  0.00    -0.246 OA
BRANCH  25  27
ATOM     27  C   UNL     1       5.071   5.978  -2.265  1.00  0.00     0.060 A 
ATOM     28  C   UNL     1       5.468   4.718  -2.677  1.00  0.00     0.016 A 
ATOM     29  C   UNL     1       5.486   6.464  -1.031  1.00  0.00     0.016 A 
ATOM     30  C   UNL     1       6.111   3.865  -1.792  1.00  0.00     0.010 A 
ATOM     31  C   UNL     1       6.288   5.655  -0.207  1.00  0.00     0.010 A 
ATOM     32  C   UNL     1       6.556   4.314  -0.542  1.00  0.00    -0.014 A 
BRANCH  32  33
ATOM     33  C   UNL     1       7.254   3.365   0.388  1.00  0.00     0.031 A 
ATOM     34  C   UNL     1       6.829   3.228   1.836  1.00  0.00     0.074 A 
ATOM     35  C   UNL     1       8.246   2.565  -0.065  1.00  0.00     0.049 A 
ATOM     36  N   UNL     1       7.407   2.565   2.809  1.00  0.00    -0.248 NA
ATOM     37  C   UNL     1       5.616   3.950   2.248  1.00  0.00     0.031 C 
ATOM     38  C   UNL     1       8.764   2.537  -1.436  1.00  0.00     0.029 A 
ATOM     39  N   UNL     1       8.984   1.596   0.575  1.00  0.00    -0.354 N 
ATOM     40  C   UNL     1       6.651   2.823   3.950  1.00  0.00     0.074 A 
ATOM     41  C   UNL     1       5.606   3.743   3.557  1.00  0.00     0.031 C 
ATOM     42  C   UNL     1       9.656   1.546  -1.556  1.00  0.00     0.029 A 
ATOM     43  C   UNL     1       9.889   0.962  -0.243  1.00  0.00     0.049 A 
ATOM     44  H   UNL     1       8.874   1.378   1.529  1.00  0.00     0.167 HD
ATOM     45  C   UNL     1       6.801   2.338   5.209  1.00  0.00     0.031 A 
ATOM     46  C   UNL     1      10.846   0.053   0.021  1.00  0.00     0.031 A 
ATOM     47  C   UNL     1       7.809   1.386   5.602  1.00  0.00     0.049 A 
ATOM     48  C   UNL     1      11.052  -0.402   1.434  1.00  0.00     0.074 A 
ATOM     49  C   UNL     1       8.039   0.836   6.853  1.00  0.00     0.029 A 
ATOM     50  N   UNL     1       8.744   0.825   4.745  1.00  0.00    -0.354 N 
ATOM     51  N   UNL     1      10.373  -0.090   2.510  1.00  0.00    -0.248 NA
ATOM     52  C   UNL     1      12.169  -1.325   1.668  1.00  0.00     0.031 C 
ATOM     53  C   UNL     1       9.160   0.002   6.768  1.00  0.00     0.029 A 
ATOM     54  C   UNL     1       9.578  -0.032   5.448  1.00  0.00     0.049 A 
ATOM     55  H   UNL     1       8.806   1.008   3.780  1.00  0.00     0.167 HD
ATOM     56  C   UNL     1      10.968  -0.794   3.547  1.00  0.00     0.074 A 
ATOM     57  C   UNL     1      12.041  -1.573   2.962  1.00  0.00     0.031 C 
ATOM     58  C   UNL     1      10.655  -0.791   4.866  1.00  0.00     0.031 A 
BRANCH  45  59
ATOM     59  C   UNL     1       5.878   2.876   6.276  1.00  0.00    -0.014 A 
ATOM     60  C   UNL     1       4.505   2.587   6.291  1.00  0.00     0.009 A 
ATOM     61  C   UNL     1       6.408   3.676   7.303  1.00  0.00     0.009 A 
ATOM     62  C   UNL     1       3.676   3.130   7.278  1.00  0.00     0.001 A 
ATOM     63  C   UNL     1       5.586   4.185   8.310  1.00  0.00     0.001 A 
ATOM     64  C   UNL     1       4.218   3.925   8.289  1.00  0.00     0.000 A 
ENDBRANCH  45  59
BRANCH  46  65
ATOM     65  C   UNL     1      11.729  -0.437  -1.074  1.00  0.00    -0.014 A 
ATOM     66  C   UNL     1      11.690  -1.779  -1.480  1.00  0.00     0.009 A 
ATOM     67  C   UNL     1      12.615   0.440  -1.722  1.00  0.00     0.009 A 
ATOM     68  C   UNL     1      12.529  -2.234  -2.500  1.00  0.00     0.001 A 
ATOM     69  C   UNL     1      13.421  -0.007  -2.770  1.00  0.00     0.001 A 
ATOM     70  C   UNL     1      13.385  -1.346  -3.151  1.00  0.00     0.000 A 
ENDBRANCH  46  65
BRANCH  58  71
ATOM     71  C   UNL     1      11.468  -1.693   5.756  1.00  0.00    -0.014 A 
ATOM     72  C   UNL     1      12.829  -1.448   6.005  1.00  0.00     0.009 A 
ATOM     73  C   UNL     1      10.865  -2.818   6.340  1.00  0.00     0.009 A 
ATOM     74  C   UNL     1      13.581  -2.345   6.767  1.00  0.00     0.001 A 
ATOM     75  C   UNL     1      11.610  -3.690   7.135  1.00  0.00     0.001 A 
ATOM     76  C   UNL     1      12.970  -3.463   7.332  1.00  0.00     0.000 A 
ENDBRANCH  58  71
ENDBRANCH  32  33
ENDBRANCH  25  27
ENDBRANCH  24  25
ENDBRANCH  23  24
ENDBRANCH   1  23
TORSDOF 14
