REMARK SMILES CN(CCO)C(=O)N[C@H]1C=C[C@@H](C(=O)OCCOC(=O)c2ccc(-c3c4nc(c(-c5ccccc5)c5ccc([nH]5)c(-c5ccccc5)c5nc(c(-c6ccccc6)c6ccc3[nH]6)C=C5)C=C4)cc2)C1
REMARK SMILES IDX 15 1 13 2 14 3 12 4 9 5 10 6 69 7 11 8 8 9 6 10 7 11 2 13
REMARK SMILES IDX 1 14 3 15 4 16 5 17 16 19 17 20 18 21 19 22 20 23 21 24
REMARK SMILES IDX 22 25 68 26 23 27 67 28 24 29 25 30 26 31 61 32 27 33 66 34
REMARK SMILES IDX 60 35 62 36 28 37 65 38 59 39 58 40 29 42 51 43 36 44 50 45
REMARK SMILES IDX 37 46 40 47 49 48 63 49 38 50 39 51 48 53 64 54 41 55 30 56
REMARK SMILES IDX 31 57 35 58 32 59 34 60 33 61 52 62 53 63 57 64 54 65 56 66
REMARK SMILES IDX 55 67 42 68 43 69 47 70 44 71 46 72 45 73
REMARK H PARENT 8 12 5 18 62 41 40 52
REMARK Flexibility Score: inf
ROOT
ATOM      1  O   UNL     1       2.411  -5.879   1.020  1.00  0.00    -0.462 OA
ENDROOT
BRANCH   1   2
ATOM      2  C   UNL     1       1.332  -6.704   1.014  1.00  0.00     0.312 C 
ATOM      3  O   UNL     1       1.260  -7.765   1.625  1.00  0.00    -0.252 OA
BRANCH   2   4
ATOM      4  C   UNL     1       0.181  -6.169   0.171  1.00  0.00     0.124 C 
ATOM      5  C   UNL     1      -0.276  -4.217  -1.281  1.00  0.00     0.107 C 
ATOM      6  C   UNL     1      -0.050  -5.486  -2.054  1.00  0.00    -0.006 C 
ATOM      7  C   UNL     1       0.057  -4.644   0.146  1.00  0.00     0.048 C 
ATOM      8  C   UNL     1       0.235  -6.535  -1.274  1.00  0.00    -0.014 C 
BRANCH   5   9
ATOM      9  N   UNL     1       0.622  -3.218  -1.817  1.00  0.00    -0.332 N 
ATOM     10  C   UNL     1       0.918  -1.929  -1.609  1.00  0.00     0.317 C 
ATOM     11  O   UNL     1       1.757  -1.473  -2.395  1.00  0.00    -0.249 OA
ATOM     12  H   UNL     1       1.173  -3.593  -2.541  1.00  0.00     0.165 HD
BRANCH  10  13
ATOM     13  N   UNL     1       0.355  -1.144  -0.641  1.00  0.00    -0.326 N 
ATOM     14  C   UNL     1       0.917   0.197  -0.488  1.00  0.00     0.148 C 
BRANCH  13  15
ATOM     15  C   UNL     1      -0.694  -1.466   0.329  1.00  0.00     0.149 C 
BRANCH  15  16
ATOM     16  C   UNL     1      -2.125  -1.562  -0.218  1.00  0.00     0.177 C 
BRANCH  16  17
ATOM     17  O   UNL     1      -2.211  -1.471  -1.632  1.00  0.00    -0.395 OA
ATOM     18  H   UNL     1      -1.884  -0.605  -1.920  1.00  0.00     0.210 HD
ENDBRANCH  16  17
ENDBRANCH  15  16
ENDBRANCH  13  15
ENDBRANCH  10  13
ENDBRANCH   5   9
ENDBRANCH   2   4
ENDBRANCH   1   2
BRANCH   1  19
ATOM     19  C   UNL     1       3.462  -6.187   1.954  1.00  0.00     0.274 C 
BRANCH  19  20
ATOM     20  C   UNL     1       3.440  -5.196   3.120  1.00  0.00     0.275 C 
BRANCH  20  21
ATOM     21  O   UNL     1       2.256  -5.368   3.927  1.00  0.00    -0.458 OA
BRANCH  21  22
ATOM     22  C   UNL     1       1.263  -4.479   3.705  1.00  0.00     0.338 C 
ATOM     23  O   UNL     1       1.259  -3.536   2.928  1.00  0.00    -0.246 OA
BRANCH  22  24
ATOM     24  C   UNL     1       0.071  -4.852   4.479  1.00  0.00     0.060 A 
ATOM     25  C   UNL     1      -1.092  -5.183   3.781  1.00  0.00     0.016 A 
ATOM     26  C   UNL     1       0.063  -4.770   5.872  1.00  0.00     0.016 A 
ATOM     27  C   UNL     1      -2.280  -5.411   4.467  1.00  0.00     0.010 A 
ATOM     28  C   UNL     1      -1.129  -5.015   6.563  1.00  0.00     0.010 A 
ATOM     29  C   UNL     1      -2.309  -5.320   5.863  1.00  0.00    -0.014 A 
BRANCH  29  30
ATOM     30  C   UNL     1      -3.590  -5.519   6.580  1.00  0.00     0.031 A 
ATOM     31  C   UNL     1      -4.328  -4.342   7.148  1.00  0.00     0.074 A 
ATOM     32  C   UNL     1      -4.102  -6.758   6.691  1.00  0.00     0.049 A 
ATOM     33  N   UNL     1      -5.442  -4.321   7.835  1.00  0.00    -0.248 NA
ATOM     34  C   UNL     1      -3.738  -3.015   6.911  1.00  0.00     0.031 C 
ATOM     35  C   UNL     1      -3.503  -7.974   6.140  1.00  0.00     0.029 A 
ATOM     36  N   UNL     1      -5.248  -7.195   7.305  1.00  0.00    -0.354 N 
ATOM     37  C   UNL     1      -5.679  -2.985   8.127  1.00  0.00     0.074 A 
ATOM     38  C   UNL     1      -4.586  -2.226   7.556  1.00  0.00     0.031 C 
ATOM     39  C   UNL     1      -4.293  -9.021   6.434  1.00  0.00     0.029 A 
ATOM     40  C   UNL     1      -5.425  -8.554   7.229  1.00  0.00     0.049 A 
ATOM     41  H   UNL     1      -5.882  -6.592   7.756  1.00  0.00     0.167 HD
ATOM     42  C   UNL     1      -6.713  -2.439   8.810  1.00  0.00     0.031 A 
ATOM     43  C   UNL     1      -6.381  -9.338   7.759  1.00  0.00     0.031 A 
ATOM     44  C   UNL     1      -7.798  -3.192   9.382  1.00  0.00     0.049 A 
ATOM     45  C   UNL     1      -7.479  -8.715   8.572  1.00  0.00     0.074 A 
ATOM     46  C   UNL     1      -8.898  -2.726  10.081  1.00  0.00     0.029 A 
ATOM     47  N   UNL     1      -7.916  -4.572   9.325  1.00  0.00    -0.354 N 
ATOM     48  N   UNL     1      -7.694  -7.449   8.836  1.00  0.00    -0.248 NA
ATOM     49  C   UNL     1      -8.465  -9.631   9.163  1.00  0.00     0.031 C 
ATOM     50  C   UNL     1      -9.659  -3.828  10.485  1.00  0.00     0.029 A 
ATOM     51  C   UNL     1      -9.056  -4.977   9.997  1.00  0.00     0.049 A 
ATOM     52  H   UNL     1      -7.282  -5.175   8.873  1.00  0.00     0.167 HD
ATOM     53  C   UNL     1      -8.849  -7.415   9.606  1.00  0.00     0.074 A 
ATOM     54  C   UNL     1      -9.296  -8.785   9.755  1.00  0.00     0.031 C 
ATOM     55  C   UNL     1      -9.484  -6.343  10.140  1.00  0.00     0.031 A 
BRANCH  42  56
ATOM     56  C   UNL     1      -6.699  -0.951   9.009  1.00  0.00    -0.014 A 
ATOM     57  C   UNL     1      -7.003  -0.072   7.958  1.00  0.00     0.009 A 
ATOM     58  C   UNL     1      -6.406  -0.423  10.276  1.00  0.00     0.009 A 
ATOM     59  C   UNL     1      -6.985   1.309   8.166  1.00  0.00     0.001 A 
ATOM     60  C   UNL     1      -6.411   0.956  10.487  1.00  0.00     0.001 A 
ATOM     61  C   UNL     1      -6.692   1.821   9.430  1.00  0.00     0.000 A 
ENDBRANCH  42  56
BRANCH  43  62
ATOM     62  C   UNL     1      -6.329 -10.808   7.557  1.00  0.00    -0.014 A 
ATOM     63  C   UNL     1      -7.256 -11.446   6.719  1.00  0.00     0.009 A 
ATOM     64  C   UNL     1      -5.353 -11.580   8.206  1.00  0.00     0.009 A 
ATOM     65  C   UNL     1      -7.217 -12.832   6.550  1.00  0.00     0.001 A 
ATOM     66  C   UNL     1      -5.302 -12.962   8.016  1.00  0.00     0.001 A 
ATOM     67  C   UNL     1      -6.238 -13.587   7.195  1.00  0.00     0.000 A 
ENDBRANCH  43  62
BRANCH  55  68
ATOM     68  C   UNL     1     -10.743  -6.612  10.912  1.00  0.00    -0.014 A 
ATOM     69  C   UNL     1     -10.701  -7.160  12.203  1.00  0.00     0.009 A 
ATOM     70  C   UNL     1     -11.987  -6.282  10.350  1.00  0.00     0.009 A 
ATOM     71  C   UNL     1     -11.884  -7.401  12.905  1.00  0.00     0.001 A 
ATOM     72  C   UNL     1     -13.165  -6.502  11.064  1.00  0.00     0.001 A 
ATOM     73  C   UNL     1     -13.113  -7.068  12.337  1.00  0.00     0.000 A 
ENDBRANCH  55  68
ENDBRANCH  29  30
ENDBRANCH  22  24
ENDBRANCH  21  22
ENDBRANCH  20  21
ENDBRANCH  19  20
ENDBRANCH   1  19
TORSDOF 16
