REMARK SMILES Cc1cccc(Cl)c1Nc1ccccc1CC(=O)OCCOC(=O)c1ccc(-c2c3nc(c(-c4ccccc4)c4ccc([nH]4)c(-c4ccccc4)c4nc(c(-c5ccccc5)c5ccc2[nH]5)C=C4)C=C3)cc1
REMARK SMILES IDX 20 1 19 2 17 3 18 4 16 5 15 6 10 7 11 8 12 9 14 10 13 11
REMARK SMILES IDX 9 12 8 14 1 15 2 16 3 17 4 18 6 19 5 20 7 21 21 22 22 23
REMARK SMILES IDX 23 24 24 25 25 26 26 27 72 28 27 29 71 30 28 31 29 32 30 33
REMARK SMILES IDX 65 34 31 35 70 36 64 37 66 38 32 39 69 40 63 41 62 42 33 44
REMARK SMILES IDX 55 45 40 46 54 47 41 48 44 49 53 50 67 51 42 52 43 53 52 55
REMARK SMILES IDX 68 56 45 57 34 58 35 59 39 60 36 61 38 62 37 63 56 64 57 65
REMARK SMILES IDX 61 66 58 67 60 68 59 69 46 70 47 71 51 72 48 73 50 74 49 75
REMARK H PARENT 9 13 66 43 44 54
REMARK Flexibility Score: inf
ROOT
ATOM      1  C   UNL     1       1.181   3.891  -4.783  1.00  0.00     0.274 C 
ENDROOT
BRANCH   1   2
ATOM      2  O   UNL     1       1.179   3.410  -3.426  1.00  0.00    -0.462 OA
BRANCH   2   3
ATOM      3  C   UNL     1       1.123   2.060  -3.287  1.00  0.00     0.310 C 
ATOM      4  O   UNL     1       1.031   1.267  -4.220  1.00  0.00    -0.252 OA
BRANCH   3   5
ATOM      5  C   UNL     1       1.087   1.598  -1.854  1.00  0.00     0.160 C 
BRANCH   5   6
ATOM      6  C   UNL     1       1.749   2.454  -0.794  1.00  0.00    -0.013 A 
ATOM      7  C   UNL     1       1.119   2.711   0.445  1.00  0.00     0.042 A 
ATOM      8  C   UNL     1       1.757   3.552   1.374  1.00  0.00     0.026 A 
ATOM      9  C   UNL     1       3.021   4.083   1.121  1.00  0.00     0.002 A 
ATOM     10  C   UNL     1       3.041   2.969  -1.014  1.00  0.00     0.006 A 
ATOM     11  C   UNL     1       3.671   3.775  -0.067  1.00  0.00     0.000 A 
BRANCH   7  12
ATOM     12  N   UNL     1      -0.073   2.077   0.857  1.00  0.00    -0.354 N 
ATOM     13  H   UNL     1      -0.718   2.664   1.313  1.00  0.00     0.167 HD
BRANCH  12  14
ATOM     14  C   UNL     1      -0.489   0.731   0.717  1.00  0.00     0.060 A 
ATOM     15  C   UNL     1      -2.810   1.599   0.112  1.00  0.00     0.046 C 
ATOM     16  C   UNL     1      -1.828   0.477   0.329  1.00  0.00    -0.026 A 
ATOM     17  C   UNL     1      -2.241  -0.839   0.051  1.00  0.00     0.005 A 
ATOM     18  C   UNL     1      -1.355  -1.906   0.169  1.00  0.00     0.002 A 
ATOM     19  C   UNL     1       0.385  -0.373   0.858  1.00  0.00     0.064 A 
ATOM     20  C   UNL     1      -0.048  -1.675   0.581  1.00  0.00     0.023 A 
ATOM     21  Cl  UNL     1       2.010  -0.219   1.440  1.00  0.00    -0.082 Cl
ENDBRANCH  12  14
ENDBRANCH   7  12
ENDBRANCH   5   6
ENDBRANCH   3   5
ENDBRANCH   2   3
ENDBRANCH   1   2
BRANCH   1  22
ATOM     22  C   UNL     1       2.608   4.060  -5.301  1.00  0.00     0.275 C 
BRANCH  22  23
ATOM     23  O   UNL     1       3.296   2.796  -5.271  1.00  0.00    -0.458 OA
BRANCH  23  24
ATOM     24  C   UNL     1       4.497   2.793  -4.655  1.00  0.00     0.338 C 
ATOM     25  O   UNL     1       5.098   3.742  -4.183  1.00  0.00    -0.246 OA
BRANCH  24  26
ATOM     26  C   UNL     1       5.033   1.423  -4.629  1.00  0.00     0.060 A 
ATOM     27  C   UNL     1       4.419   0.432  -3.858  1.00  0.00     0.016 A 
ATOM     28  C   UNL     1       6.228   1.161  -5.297  1.00  0.00     0.016 A 
ATOM     29  C   UNL     1       5.019  -0.821  -3.728  1.00  0.00     0.010 A 
ATOM     30  C   UNL     1       6.802  -0.107  -5.205  1.00  0.00     0.010 A 
ATOM     31  C   UNL     1       6.215  -1.101  -4.402  1.00  0.00    -0.014 A 
BRANCH  31  32
ATOM     32  C   UNL     1       6.890  -2.413  -4.253  1.00  0.00     0.031 A 
ATOM     33  C   UNL     1       8.219  -2.495  -3.555  1.00  0.00     0.074 A 
ATOM     34  C   UNL     1       6.341  -3.521  -4.782  1.00  0.00     0.049 A 
ATOM     35  N   UNL     1       9.056  -3.498  -3.486  1.00  0.00    -0.248 NA
ATOM     36  C   UNL     1       8.668  -1.282  -2.853  1.00  0.00     0.031 C 
ATOM     37  C   UNL     1       5.042  -3.588  -5.453  1.00  0.00     0.029 A 
ATOM     38  N   UNL     1       6.824  -4.804  -4.855  1.00  0.00    -0.354 N 
ATOM     39  C   UNL     1      10.150  -3.027  -2.772  1.00  0.00     0.074 A 
ATOM     40  C   UNL     1       9.871  -1.647  -2.431  1.00  0.00     0.031 C 
ATOM     41  C   UNL     1       4.833  -4.846  -5.872  1.00  0.00     0.029 A 
ATOM     42  C   UNL     1       6.004  -5.657  -5.551  1.00  0.00     0.049 A 
ATOM     43  H   UNL     1       7.675  -5.085  -4.447  1.00  0.00     0.167 HD
ATOM     44  C   UNL     1      11.286  -3.682  -2.435  1.00  0.00     0.031 A 
ATOM     45  C   UNL     1       6.190  -6.936  -5.926  1.00  0.00     0.031 A 
ATOM     46  C   UNL     1      11.556  -5.058  -2.755  1.00  0.00     0.049 A 
ATOM     47  C   UNL     1       7.474  -7.631  -5.576  1.00  0.00     0.074 A 
ATOM     48  C   UNL     1      12.669  -5.817  -2.433  1.00  0.00     0.029 A 
ATOM     49  N   UNL     1      10.701  -5.883  -3.468  1.00  0.00    -0.354 N 
ATOM     50  N   UNL     1       8.508  -7.170  -4.915  1.00  0.00    -0.248 NA
ATOM     51  C   UNL     1       7.619  -9.020  -6.033  1.00  0.00     0.031 C 
ATOM     52  C   UNL     1      12.502  -7.093  -2.985  1.00  0.00     0.029 A 
ATOM     53  C   UNL     1      11.268  -7.138  -3.613  1.00  0.00     0.049 A 
ATOM     54  H   UNL     1       9.821  -5.617  -3.819  1.00  0.00     0.167 HD
ATOM     55  C   UNL     1       9.420  -8.215  -4.864  1.00  0.00     0.074 A 
ATOM     56  C   UNL     1       8.812  -9.338  -5.548  1.00  0.00     0.031 C 
ATOM     57  C   UNL     1      10.652  -8.242  -4.301  1.00  0.00     0.031 A 
BRANCH  44  58
ATOM     58  C   UNL     1      12.345  -2.899  -1.714  1.00  0.00    -0.014 A 
ATOM     59  C   UNL     1      12.209  -2.560  -0.359  1.00  0.00     0.009 A 
ATOM     60  C   UNL     1      13.509  -2.517  -2.398  1.00  0.00     0.009 A 
ATOM     61  C   UNL     1      13.207  -1.826   0.287  1.00  0.00     0.001 A 
ATOM     62  C   UNL     1      14.514  -1.803  -1.744  1.00  0.00     0.001 A 
ATOM     63  C   UNL     1      14.359  -1.451  -0.405  1.00  0.00     0.000 A 
ENDBRANCH  44  58
BRANCH  45  64
ATOM     64  C   UNL     1       5.142  -7.630  -6.715  1.00  0.00    -0.014 A 
ATOM     65  C   UNL     1       4.343  -8.618  -6.122  1.00  0.00     0.009 A 
ATOM     66  C   UNL     1       4.928  -7.297  -8.061  1.00  0.00     0.009 A 
ATOM     67  C   UNL     1       3.357  -9.268  -6.867  1.00  0.00     0.001 A 
ATOM     68  C   UNL     1       3.926  -7.932  -8.797  1.00  0.00     0.001 A 
ATOM     69  C   UNL     1       3.146  -8.921  -8.201  1.00  0.00     0.000 A 
ENDBRANCH  45  64
BRANCH  57  70
ATOM     70  C   UNL     1      11.411  -9.534  -4.379  1.00  0.00    -0.014 A 
ATOM     71  C   UNL     1      12.033  -9.937  -5.570  1.00  0.00     0.009 A 
ATOM     72  C   UNL     1      11.531 -10.341  -3.237  1.00  0.00     0.009 A 
ATOM     73  C   UNL     1      12.740 -11.140  -5.623  1.00  0.00     0.001 A 
ATOM     74  C   UNL     1      12.257 -11.532  -3.287  1.00  0.00     0.001 A 
ATOM     75  C   UNL     1      12.854 -11.934  -4.481  1.00  0.00     0.000 A 
ENDBRANCH  57  70
ENDBRANCH  31  32
ENDBRANCH  24  26
ENDBRANCH  23  24
ENDBRANCH  22  23
ENDBRANCH   1  22
TORSDOF 14
