REMARK SMILES CCOc1ccccc1Nc1ccc(C(=O)OCCOC(=O)c2ccc(-c3c4nc(c(-c5ccccc5)c5ccc([nH]5)c(-c5ccccc5)c5nc(c(-c6ccccc6)c6ccc3[nH]6)C=C5)C=C4)cc2)cc1N
REMARK SMILES IDX 18 1 17 2 15 3 16 4 14 5 11 6 12 7 72 8 13 9 71 10 10 11
REMARK SMILES IDX 9 13 4 14 5 15 6 16 8 17 7 18 3 19 2 20 1 21 73 22 19 25
REMARK SMILES IDX 20 26 21 27 22 28 23 29 24 30 70 31 25 32 69 33 26 34 27 35
REMARK SMILES IDX 28 36 63 37 29 38 68 39 62 40 64 41 30 42 67 43 61 44 60 45
REMARK SMILES IDX 31 47 53 48 38 49 52 50 39 51 42 52 51 53 65 54 40 55 41 56
REMARK SMILES IDX 50 58 66 59 43 60 32 61 33 62 37 63 34 64 36 65 35 66 54 67
REMARK SMILES IDX 55 68 59 69 56 70 58 71 57 72 44 73 45 74 49 75 46 76 48 77
REMARK SMILES IDX 47 78
REMARK H PARENT 10 12 73 23 73 24 64 46 42 57
REMARK Flexibility Score: inf
ROOT
ATOM      1  C   UNL     1       7.799   3.920   4.312  1.00  0.00     0.275 C 
ENDROOT
BRANCH   1   2
ATOM      2  O   UNL     1       6.975   3.205   3.369  1.00  0.00    -0.458 OA
BRANCH   2   3
ATOM      3  C   UNL     1       6.490   2.023   3.820  1.00  0.00     0.338 C 
ATOM      4  O   UNL     1       6.691   1.525   4.919  1.00  0.00    -0.246 OA
BRANCH   3   5
ATOM      5  C   UNL     1       5.587   1.401   2.831  1.00  0.00     0.062 A 
ATOM      6  C   UNL     1       3.932  -0.010   1.057  1.00  0.00     0.062 A 
ATOM      7  C   UNL     1       3.676  -0.021   2.434  1.00  0.00     0.029 A 
ATOM      8  C   UNL     1       5.001   0.775   0.559  1.00  0.00     0.056 A 
ATOM      9  C   UNL     1       4.507   0.658   3.314  1.00  0.00     0.018 A 
ATOM     10  C   UNL     1       5.827   1.468   1.457  1.00  0.00     0.043 A 
BRANCH   6  11
ATOM     11  N   UNL     1       3.126  -0.848   0.268  1.00  0.00    -0.351 N 
ATOM     12  H   UNL     1       2.163  -0.751   0.451  1.00  0.00     0.167 HD
BRANCH  11  13
ATOM     13  C   UNL     1       3.412  -1.795  -0.730  1.00  0.00     0.081 A 
ATOM     14  C   UNL     1       2.351  -2.285  -1.514  1.00  0.00     0.142 A 
ATOM     15  C   UNL     1       2.563  -3.222  -2.523  1.00  0.00     0.048 A 
ATOM     16  C   UNL     1       3.859  -3.665  -2.784  1.00  0.00     0.004 A 
ATOM     17  C   UNL     1       4.703  -2.252  -1.008  1.00  0.00     0.030 A 
ATOM     18  C   UNL     1       4.927  -3.182  -2.026  1.00  0.00     0.002 A 
BRANCH  14  19
ATOM     19  O   UNL     1       1.062  -1.920  -1.206  1.00  0.00    -0.492 OA
BRANCH  19  20
ATOM     20  C   UNL     1       0.663  -0.728  -1.896  1.00  0.00     0.226 C 
ATOM     21  C   UNL     1       0.251   0.328  -0.880  1.00  0.00     0.049 C 
ENDBRANCH  19  20
ENDBRANCH  14  19
ENDBRANCH  11  13
ENDBRANCH   6  11
BRANCH   8  22
ATOM     22  N   UNL     1       5.295   0.830  -0.800  1.00  0.00    -0.397 N 
ATOM     23  H   UNL     1       4.727   0.350  -1.446  1.00  0.00     0.156 HD
ATOM     24  H   UNL     1       6.070   1.348  -1.116  1.00  0.00     0.156 HD
ENDBRANCH   8  22
ENDBRANCH   3   5
ENDBRANCH   2   3
ENDBRANCH   1   2
BRANCH   1  25
ATOM     25  C   UNL     1       6.979   4.944   5.096  1.00  0.00     0.275 C 
BRANCH  25  26
ATOM     26  O   UNL     1       5.952   4.283   5.858  1.00  0.00    -0.458 OA
BRANCH  26  27
ATOM     27  C   UNL     1       4.726   4.849   5.809  1.00  0.00     0.338 C 
ATOM     28  O   UNL     1       4.416   5.887   5.239  1.00  0.00    -0.246 OA
BRANCH  27  29
ATOM     29  C   UNL     1       3.745   4.041   6.561  1.00  0.00     0.060 A 
ATOM     30  C   UNL     1       3.664   2.663   6.373  1.00  0.00     0.016 A 
ATOM     31  C   UNL     1       2.799   4.682   7.361  1.00  0.00     0.016 A 
ATOM     32  C   UNL     1       2.578   1.944   6.879  1.00  0.00     0.010 A 
ATOM     33  C   UNL     1       1.772   3.941   7.957  1.00  0.00     0.010 A 
ATOM     34  C   UNL     1       1.611   2.570   7.682  1.00  0.00    -0.014 A 
BRANCH  34  35
ATOM     35  C   UNL     1       0.402   1.835   8.172  1.00  0.00     0.031 A 
ATOM     36  C   UNL     1      -0.980   2.378   7.886  1.00  0.00     0.074 A 
ATOM     37  C   UNL     1       0.504   0.678   8.857  1.00  0.00     0.049 A 
ATOM     38  N   UNL     1      -2.132   2.039   8.413  1.00  0.00    -0.248 NA
ATOM     39  C   UNL     1      -1.078   3.457   6.888  1.00  0.00     0.031 C 
ATOM     40  C   UNL     1       1.746  -0.028   9.171  1.00  0.00     0.029 A 
ATOM     41  N   UNL     1      -0.474  -0.121   9.406  1.00  0.00    -0.354 N 
ATOM     42  C   UNL     1      -3.070   2.914   7.875  1.00  0.00     0.074 A 
ATOM     43  C   UNL     1      -2.358   3.791   6.971  1.00  0.00     0.031 C 
ATOM     44  C   UNL     1       1.454  -1.180   9.795  1.00  0.00     0.029 A 
ATOM     45  C   UNL     1       0.015  -1.249  10.020  1.00  0.00     0.049 A 
ATOM     46  H   UNL     1      -1.433   0.096   9.362  1.00  0.00     0.167 HD
ATOM     47  C   UNL     1      -4.401   2.989   8.116  1.00  0.00     0.031 A 
ATOM     48  C   UNL     1      -0.610  -2.214  10.722  1.00  0.00     0.031 A 
ATOM     49  C   UNL     1      -5.135   2.078   8.954  1.00  0.00     0.049 A 
ATOM     50  C   UNL     1      -2.085  -2.111  10.983  1.00  0.00     0.074 A 
ATOM     51  C   UNL     1      -6.484   2.088   9.269  1.00  0.00     0.029 A 
ATOM     52  N   UNL     1      -4.588   0.970   9.578  1.00  0.00    -0.354 N 
ATOM     53  N   UNL     1      -2.935  -1.204  10.570  1.00  0.00    -0.248 NA
ATOM     54  C   UNL     1      -2.679  -3.153  11.834  1.00  0.00     0.031 C 
ATOM     55  C   UNL     1      -6.750   0.992  10.098  1.00  0.00     0.029 A 
ATOM     56  C   UNL     1      -5.572   0.284  10.269  1.00  0.00     0.049 A 
ATOM     57  H   UNL     1      -3.639   0.709   9.536  1.00  0.00     0.167 HD
ATOM     58  C   UNL     1      -4.162  -1.565  11.110  1.00  0.00     0.074 A 
ATOM     59  C   UNL     1      -3.954  -2.787  11.858  1.00  0.00     0.031 C 
ATOM     60  C   UNL     1      -5.354  -0.931  11.005  1.00  0.00     0.031 A 
BRANCH  47  61
ATOM     61  C   UNL     1      -5.156   4.127   7.489  1.00  0.00    -0.014 A 
ATOM     62  C   UNL     1      -5.497   4.122   6.128  1.00  0.00     0.009 A 
ATOM     63  C   UNL     1      -5.567   5.204   8.291  1.00  0.00     0.009 A 
ATOM     64  C   UNL     1      -6.213   5.188   5.579  1.00  0.00     0.001 A 
ATOM     65  C   UNL     1      -6.303   6.256   7.744  1.00  0.00     0.001 A 
ATOM     66  C   UNL     1      -6.619   6.251   6.387  1.00  0.00     0.000 A 
ENDBRANCH  47  61
BRANCH  48  67
ATOM     67  C   UNL     1       0.171  -3.348  11.283  1.00  0.00    -0.014 A 
ATOM     68  C   UNL     1       0.033  -4.637  10.748  1.00  0.00     0.009 A 
ATOM     69  C   UNL     1       1.052  -3.147  12.357  1.00  0.00     0.009 A 
ATOM     70  C   UNL     1       0.754  -5.705  11.286  1.00  0.00     0.001 A 
ATOM     71  C   UNL     1       1.792  -4.211  12.874  1.00  0.00     0.001 A 
ATOM     72  C   UNL     1       1.637  -5.490  12.343  1.00  0.00     0.000 A 
ENDBRANCH  48  67
BRANCH  60  73
ATOM     73  C   UNL     1      -6.527  -1.566  11.692  1.00  0.00    -0.014 A 
ATOM     74  C   UNL     1      -6.696  -1.458  13.080  1.00  0.00     0.009 A 
ATOM     75  C   UNL     1      -7.482  -2.264  10.938  1.00  0.00     0.009 A 
ATOM     76  C   UNL     1      -7.788  -2.065  13.705  1.00  0.00     0.001 A 
ATOM     77  C   UNL     1      -8.581  -2.854  11.563  1.00  0.00     0.001 A 
ATOM     78  C   UNL     1      -8.729  -2.760  12.947  1.00  0.00     0.000 A 
ENDBRANCH  60  73
ENDBRANCH  34  35
ENDBRANCH  27  29
ENDBRANCH  26  27
ENDBRANCH  25  26
ENDBRANCH   1  25
TORSDOF 16
