REMARK SMILES O=C(C[C@H]1C[C@H]2CC[C@@H](C1)N2C(=O)c1c[nH]c(=O)[nH]1)OCCOC(=O)c1ccc(-c2c3nc(c(-c4ccccc4)c4ccc([nH]4)c(-c4ccccc4)c4nc(c(-c5ccccc5)c5ccc2[nH]5)C=C4)C=C3)cc1
REMARK SMILES IDX 21 1 20 2 2 3 1 4 3 5 4 6 5 7 10 8 6 9 9 10 7 11 11 12 8 13
REMARK SMILES IDX 12 14 13 15 14 16 15 17 19 18 16 19 17 20 18 23 22 24 23 25
REMARK SMILES IDX 24 26 25 27 26 28 27 29 73 30 28 31 72 32 29 33 30 34 31 35
REMARK SMILES IDX 66 36 32 37 71 38 65 39 67 40 33 41 70 42 64 43 63 44 34 46
REMARK SMILES IDX 56 47 41 48 55 49 42 50 45 51 54 52 68 53 43 54 44 55 53 57
REMARK SMILES IDX 69 58 46 59 35 60 36 61 40 62 37 63 39 64 38 65 57 66 58 67
REMARK SMILES IDX 62 68 59 69 61 70 60 71 47 72 48 73 52 74 49 75 51 76 50 77
REMARK H PARENT 19 21 16 22 67 45 45 56
REMARK Flexibility Score: inf
ROOT
ATOM      1  C   UNL     1       4.594  -1.267  -0.759  1.00  0.00     0.274 C 
ENDROOT
BRANCH   1   2
ATOM      2  O   UNL     1       3.242  -1.087  -0.286  1.00  0.00    -0.462 OA
BRANCH   2   3
ATOM      3  C   UNL     1       2.621   0.110  -0.165  1.00  0.00     0.306 C 
ATOM      4  O   UNL     1       1.394   0.167  -0.159  1.00  0.00    -0.252 OA
BRANCH   3   5
ATOM      5  C   UNL     1       3.453   1.362   0.009  1.00  0.00     0.126 C 
BRANCH   5   6
ATOM      6  C   UNL     1       3.904   1.736   1.433  1.00  0.00     0.004 C 
ATOM      7  C   UNL     1       3.004   2.787   2.153  1.00  0.00     0.029 C 
ATOM      8  C   UNL     1       4.279   0.537   2.327  1.00  0.00     0.029 C 
ATOM      9  C   UNL     1       2.158   2.231   3.317  1.00  0.00     0.086 C 
ATOM     10  C   UNL     1       3.243   0.179   3.398  1.00  0.00     0.086 C 
ATOM     11  C   UNL     1       1.128   1.226   2.795  1.00  0.00     0.027 C 
ATOM     12  N   UNL     1       3.011   1.397   4.146  1.00  0.00    -0.331 N 
ATOM     13  C   UNL     1       1.826  -0.139   2.929  1.00  0.00     0.027 C 
BRANCH  12  14
ATOM     14  C   UNL     1       3.375   1.663   5.443  1.00  0.00     0.272 C 
ATOM     15  O   UNL     1       3.024   2.652   6.074  1.00  0.00    -0.267 OA
BRANCH  14  16
ATOM     16  C   UNL     1       4.201   0.606   6.071  1.00  0.00     0.125 A 
ATOM     17  C   UNL     1       5.474   0.297   5.783  1.00  0.00     0.119 A 
ATOM     18  N   UNL     1       3.690  -0.352   6.914  1.00  0.00    -0.302 N 
ATOM     19  N   UNL     1       5.788  -0.876   6.424  1.00  0.00    -0.312 N 
ATOM     20  C   UNL     1       4.670  -1.319   7.147  1.00  0.00     0.323 A 
ATOM     21  H   UNL     1       2.780  -0.356   7.291  1.00  0.00     0.172 HD
ATOM     22  H   UNL     1       6.658  -1.334   6.383  1.00  0.00     0.171 HD
ATOM     23  O   UNL     1       4.572  -2.343   7.800  1.00  0.00    -0.248 OA
ENDBRANCH  14  16
ENDBRANCH  12  14
ENDBRANCH   5   6
ENDBRANCH   3   5
ENDBRANCH   2   3
ENDBRANCH   1   2
BRANCH   1  24
ATOM     24  C   UNL     1       4.660  -1.270  -2.287  1.00  0.00     0.275 C 
BRANCH  24  25
ATOM     25  O   UNL     1       4.194  -0.012  -2.804  1.00  0.00    -0.458 OA
BRANCH  25  26
ATOM     26  C   UNL     1       2.910   0.007  -3.251  1.00  0.00     0.338 C 
ATOM     27  O   UNL     1       2.173  -0.953  -3.399  1.00  0.00    -0.246 OA
BRANCH  26  28
ATOM     28  C   UNL     1       2.469   1.418  -3.332  1.00  0.00     0.060 A 
ATOM     29  C   UNL     1       1.203   1.756  -2.835  1.00  0.00     0.016 A 
ATOM     30  C   UNL     1       3.315   2.413  -3.830  1.00  0.00     0.016 A 
ATOM     31  C   UNL     1       0.785   3.089  -2.821  1.00  0.00     0.010 A 
ATOM     32  C   UNL     1       2.884   3.742  -3.844  1.00  0.00     0.010 A 
ATOM     33  C   UNL     1       1.614   4.085  -3.351  1.00  0.00    -0.014 A 
BRANCH  33  34
ATOM     34  C   UNL     1       1.097   5.457  -3.563  1.00  0.00     0.031 A 
ATOM     35  C   UNL     1       0.458   5.778  -4.885  1.00  0.00     0.074 A 
ATOM     36  C   UNL     1       1.213   6.409  -2.620  1.00  0.00     0.049 A 
ATOM     37  N   UNL     1       0.002   6.920  -5.329  1.00  0.00    -0.248 NA
ATOM     38  C   UNL     1       0.320   4.660  -5.833  1.00  0.00     0.031 C 
ATOM     39  C   UNL     1       1.771   6.222  -1.282  1.00  0.00     0.029 A 
ATOM     40  N   UNL     1       0.873   7.740  -2.660  1.00  0.00    -0.354 N 
ATOM     41  C   UNL     1      -0.478   6.659  -6.606  1.00  0.00     0.074 A 
ATOM     42  C   UNL     1      -0.236   5.259  -6.876  1.00  0.00     0.031 C 
ATOM     43  C   UNL     1       1.753   7.402  -0.635  1.00  0.00     0.029 A 
ATOM     44  C   UNL     1       1.213   8.431  -1.523  1.00  0.00     0.049 A 
ATOM     45  H   UNL     1       0.428   8.159  -3.432  1.00  0.00     0.167 HD
ATOM     46  C   UNL     1      -1.068   7.509  -7.478  1.00  0.00     0.031 A 
ATOM     47  C   UNL     1       1.121   9.747  -1.244  1.00  0.00     0.031 A 
ATOM     48  C   UNL     1      -1.287   8.907  -7.229  1.00  0.00     0.049 A 
ATOM     49  C   UNL     1       0.552  10.690  -2.277  1.00  0.00     0.074 A 
ATOM     50  C   UNL     1      -1.893   9.841  -8.051  1.00  0.00     0.029 A 
ATOM     51  N   UNL     1      -0.893   9.575  -6.082  1.00  0.00    -0.354 N 
ATOM     52  N   UNL     1       0.057  10.423  -3.462  1.00  0.00    -0.248 NA
ATOM     53  C   UNL     1       0.530  12.120  -1.929  1.00  0.00     0.031 C 
ATOM     54  C   UNL     1      -1.807  11.089  -7.428  1.00  0.00     0.029 A 
ATOM     55  C   UNL     1      -1.207  10.919  -6.192  1.00  0.00     0.049 A 
ATOM     56  H   UNL     1      -0.456   9.157  -5.305  1.00  0.00     0.167 HD
ATOM     57  C   UNL     1      -0.361  11.643  -3.983  1.00  0.00     0.074 A 
ATOM     58  C   UNL     1      -0.080  12.648  -2.981  1.00  0.00     0.031 C 
ATOM     59  C   UNL     1      -0.925  11.909  -5.186  1.00  0.00     0.031 A 
BRANCH  46  60
ATOM     60  C   UNL     1      -1.486   6.953  -8.808  1.00  0.00    -0.014 A 
ATOM     61  C   UNL     1      -2.601   6.109  -8.925  1.00  0.00     0.009 A 
ATOM     62  C   UNL     1      -0.786   7.325  -9.965  1.00  0.00     0.009 A 
ATOM     63  C   UNL     1      -2.993   5.630 -10.176  1.00  0.00     0.001 A 
ATOM     64  C   UNL     1      -1.196   6.866 -11.217  1.00  0.00     0.001 A 
ATOM     65  C   UNL     1      -2.295   6.015 -11.321  1.00  0.00     0.000 A 
ENDBRANCH  46  60
BRANCH  47  66
ATOM     66  C   UNL     1       1.617  10.285   0.052  1.00  0.00    -0.014 A 
ATOM     67  C   UNL     1       0.730  10.855   0.980  1.00  0.00     0.009 A 
ATOM     68  C   UNL     1       2.992  10.302   0.334  1.00  0.00     0.009 A 
ATOM     69  C   UNL     1       1.214  11.466   2.139  1.00  0.00     0.001 A 
ATOM     70  C   UNL     1       3.470  10.885   1.510  1.00  0.00     0.001 A 
ATOM     71  C   UNL     1       2.582  11.479   2.405  1.00  0.00     0.000 A 
ENDBRANCH  47  66
BRANCH  59  72
ATOM     72  C   UNL     1      -1.308  13.335  -5.478  1.00  0.00    -0.014 A 
ATOM     73  C   UNL     1      -0.336  14.317  -5.723  1.00  0.00     0.009 A 
ATOM     74  C   UNL     1      -2.665  13.687  -5.560  1.00  0.00     0.009 A 
ATOM     75  C   UNL     1      -0.715  15.629  -6.014  1.00  0.00     0.001 A 
ATOM     76  C   UNL     1      -3.041  14.992  -5.881  1.00  0.00     0.001 A 
ATOM     77  C   UNL     1      -2.066  15.964  -6.099  1.00  0.00     0.000 A 
ENDBRANCH  59  72
ENDBRANCH  33  34
ENDBRANCH  26  28
ENDBRANCH  25  26
ENDBRANCH  24  25
ENDBRANCH   1  24
TORSDOF 14
