REMARK SMILES O=C(C[C@@H]1CN(c2nc3ccccc3s2)CCO1)OCCOC(=O)c1ccc(-c2c3nc(c(-c4ccccc4)c4ccc([nH]4)c(-c4ccccc4)c4nc(c(-c5ccccc5)c5ccc2[nH]5)C=C4)C=C3)cc1
REMARK SMILES IDX 20 1 19 2 2 3 1 4 3 5 4 6 5 7 18 8 6 9 17 10 16 11 7 12 8 13
REMARK SMILES IDX 15 14 9 15 14 16 10 17 13 18 11 19 12 20 21 21 22 22 23 23
REMARK SMILES IDX 24 24 25 25 26 26 72 27 27 28 71 29 28 30 29 31 30 32 65 33
REMARK SMILES IDX 31 34 70 35 64 36 66 37 32 38 69 39 63 40 62 41 33 43 55 44
REMARK SMILES IDX 40 45 54 46 41 47 44 48 53 49 67 50 42 51 43 52 52 54 68 55
REMARK SMILES IDX 45 56 34 57 35 58 39 59 36 60 38 61 37 62 56 63 57 64 61 65
REMARK SMILES IDX 58 66 60 67 59 68 46 69 47 70 51 71 48 72 50 73 49 74
REMARK H PARENT 66 42 44 53
REMARK Flexibility Score: inf
ROOT
ATOM      1  C   UNL     1       4.402  -0.040  -1.062  1.00  0.00     0.274 C 
ENDROOT
BRANCH   1   2
ATOM      2  O   UNL     1       3.038  -0.482  -0.888  1.00  0.00    -0.462 OA
BRANCH   2   3
ATOM      3  C   UNL     1       2.289  -0.353   0.226  1.00  0.00     0.308 C 
ATOM      4  O   UNL     1       1.143  -0.797   0.253  1.00  0.00    -0.252 OA
BRANCH   3   5
ATOM      5  C   UNL     1       2.876   0.287   1.455  1.00  0.00     0.156 C 
BRANCH   5   6
ATOM      6  C   UNL     1       3.731  -0.637   2.303  1.00  0.00     0.148 C 
ATOM      7  C   UNL     1       3.227  -2.089   2.333  1.00  0.00     0.151 C 
ATOM      8  O   UNL     1       3.764  -0.090   3.647  1.00  0.00    -0.374 OA
ATOM      9  N   UNL     1       4.127  -2.838   3.195  1.00  0.00    -0.343 N 
ATOM     10  C   UNL     1       4.630  -0.862   4.506  1.00  0.00     0.182 C 
ATOM     11  C   UNL     1       4.235  -2.353   4.561  1.00  0.00     0.147 C 
BRANCH   9  12
ATOM     12  C   UNL     1       4.703  -3.985   2.782  1.00  0.00     0.186 A 
ATOM     13  N   UNL     1       4.521  -5.151   3.351  1.00  0.00    -0.220 NA
ATOM     14  S   UNL     1       5.776  -3.992   1.428  1.00  0.00    -0.097 S 
ATOM     15  C   UNL     1       5.136  -6.143   2.607  1.00  0.00     0.084 A 
ATOM     16  C   UNL     1       5.909  -5.698   1.534  1.00  0.00     0.056 A 
ATOM     17  C   UNL     1       5.039  -7.530   2.837  1.00  0.00     0.030 A 
ATOM     18  C   UNL     1       6.629  -6.580   0.713  1.00  0.00     0.021 A 
ATOM     19  C   UNL     1       5.723  -8.422   2.004  1.00  0.00     0.002 A 
ATOM     20  C   UNL     1       6.518  -7.950   0.964  1.00  0.00     0.002 A 
ENDBRANCH   9  12
ENDBRANCH   5   6
ENDBRANCH   3   5
ENDBRANCH   2   3
ENDBRANCH   1   2
BRANCH   1  21
ATOM     21  C   UNL     1       4.464   1.303  -1.788  1.00  0.00     0.275 C 
BRANCH  21  22
ATOM     22  O   UNL     1       3.969   2.338  -0.921  1.00  0.00    -0.458 OA
BRANCH  22  23
ATOM     23  C   UNL     1       2.681   2.707  -1.126  1.00  0.00     0.338 C 
ATOM     24  O   UNL     1       1.970   2.383  -2.062  1.00  0.00    -0.246 OA
BRANCH  23  25
ATOM     25  C   UNL     1       2.182   3.410   0.078  1.00  0.00     0.060 A 
ATOM     26  C   UNL     1       0.856   3.177   0.463  1.00  0.00     0.016 A 
ATOM     27  C   UNL     1       3.002   4.240   0.851  1.00  0.00     0.016 A 
ATOM     28  C   UNL     1       0.338   3.804   1.596  1.00  0.00     0.010 A 
ATOM     29  C   UNL     1       2.482   4.867   1.988  1.00  0.00     0.010 A 
ATOM     30  C   UNL     1       1.138   4.676   2.347  1.00  0.00    -0.014 A 
BRANCH  30  31
ATOM     31  C   UNL     1       0.511   5.495   3.410  1.00  0.00     0.031 A 
ATOM     32  C   UNL     1       0.047   6.885   3.073  1.00  0.00     0.074 A 
ATOM     33  C   UNL     1       0.304   5.000   4.643  1.00  0.00     0.049 A 
ATOM     34  N   UNL     1      -0.633   7.732   3.803  1.00  0.00    -0.248 NA
ATOM     35  C   UNL     1       0.394   7.385   1.732  1.00  0.00     0.031 C 
ATOM     36  C   UNL     1       0.704   3.672   5.106  1.00  0.00     0.029 A 
ATOM     37  N   UNL     1      -0.309   5.568   5.733  1.00  0.00    -0.354 N 
ATOM     38  C   UNL     1      -0.823   8.849   3.001  1.00  0.00     0.074 A 
ATOM     39  C   UNL     1      -0.138   8.598   1.752  1.00  0.00     0.031 C 
ATOM     40  C   UNL     1       0.322   3.526   6.388  1.00  0.00     0.029 A 
ATOM     41  C   UNL     1      -0.346   4.748   6.833  1.00  0.00     0.049 A 
ATOM     42  H   UNL     1      -0.686   6.477   5.726  1.00  0.00     0.167 HD
ATOM     43  C   UNL     1      -1.523   9.976   3.266  1.00  0.00     0.031 A 
ATOM     44  C   UNL     1      -0.867   4.958   8.057  1.00  0.00     0.031 A 
ATOM     45  C   UNL     1      -2.176  10.255   4.516  1.00  0.00     0.049 A 
ATOM     46  C   UNL     1      -1.588   6.248   8.350  1.00  0.00     0.074 A 
ATOM     47  C   UNL     1      -2.909  11.373   4.877  1.00  0.00     0.029 A 
ATOM     48  N   UNL     1      -2.162   9.412   5.615  1.00  0.00    -0.354 N 
ATOM     49  N   UNL     1      -1.817   7.269   7.560  1.00  0.00    -0.248 NA
ATOM     50  C   UNL     1      -2.142   6.401   9.704  1.00  0.00     0.031 C 
ATOM     51  C   UNL     1      -3.303  11.224   6.211  1.00  0.00     0.029 A 
ATOM     52  C   UNL     1      -2.855   9.993   6.663  1.00  0.00     0.049 A 
ATOM     53  H   UNL     1      -1.724   8.531   5.646  1.00  0.00     0.167 HD
ATOM     54  C   UNL     1      -2.563   8.170   8.311  1.00  0.00     0.074 A 
ATOM     55  C   UNL     1      -2.763   7.568   9.613  1.00  0.00     0.031 C 
ATOM     56  C   UNL     1      -3.041   9.387   7.955  1.00  0.00     0.031 A 
BRANCH  43  57
ATOM     57  C   UNL     1      -1.610  10.997   2.169  1.00  0.00    -0.014 A 
ATOM     58  C   UNL     1      -2.422  10.774   1.046  1.00  0.00     0.009 A 
ATOM     59  C   UNL     1      -0.892  12.197   2.265  1.00  0.00     0.009 A 
ATOM     60  C   UNL     1      -2.490  11.722   0.024  1.00  0.00     0.001 A 
ATOM     61  C   UNL     1      -0.980  13.154   1.253  1.00  0.00     0.001 A 
ATOM     62  C   UNL     1      -1.772  12.913   0.131  1.00  0.00     0.000 A 
ENDBRANCH  43  57
BRANCH  44  63
ATOM     63  C   UNL     1      -0.739   3.921   9.113  1.00  0.00    -0.014 A 
ATOM     64  C   UNL     1      -1.858   3.191   9.541  1.00  0.00     0.009 A 
ATOM     65  C   UNL     1       0.499   3.693   9.731  1.00  0.00     0.009 A 
ATOM     66  C   UNL     1      -1.745   2.276  10.591  1.00  0.00     0.001 A 
ATOM     67  C   UNL     1       0.614   2.760  10.763  1.00  0.00     0.001 A 
ATOM     68  C   UNL     1      -0.510   2.061  11.200  1.00  0.00     0.000 A 
ENDBRANCH  44  63
BRANCH  56  69
ATOM     69  C   UNL     1      -3.846  10.137   8.979  1.00  0.00    -0.014 A 
ATOM     70  C   UNL     1      -3.236  10.721  10.100  1.00  0.00     0.009 A 
ATOM     71  C   UNL     1      -5.231  10.284   8.805  1.00  0.00     0.009 A 
ATOM     72  C   UNL     1      -4.002  11.405  11.046  1.00  0.00     0.001 A 
ATOM     73  C   UNL     1      -5.991  10.991   9.739  1.00  0.00     0.001 A 
ATOM     74  C   UNL     1      -5.378  11.542  10.863  1.00  0.00     0.000 A 
ENDBRANCH  56  69
ENDBRANCH  30  31
ENDBRANCH  23  25
ENDBRANCH  22  23
ENDBRANCH  21  22
ENDBRANCH   1  21
TORSDOF 13
