REMARK SMILES CC1=C(C)C[C@H](C(=O)OCCOC(=O)c2ccc(-c3c4nc(c(-c5ccccc5)c5ccc([nH]5)c(-c5ccccc5)c5nc(c(-c6ccccc6)c6ccc3[nH]6)C=C5)C=C4)cc2)[C@@H](C(=O)N[C@@H](C)CCc2ccccc2)C1
REMARK SMILES IDX 9 1 7 2 8 3 6 4 1 5 2 6 3 7 77 8 4 9 5 10 63 11 64 12 65 13
REMARK SMILES IDX 66 14 67 16 68 17 69 18 70 19 71 20 72 21 76 22 73 23 75 24
REMARK SMILES IDX 74 25 10 26 11 27 12 28 13 29 14 30 15 31 16 32 62 33 17 34
REMARK SMILES IDX 61 35 18 36 19 37 20 38 55 39 21 40 60 41 54 42 56 43 22 44
REMARK SMILES IDX 59 45 53 46 52 47 23 49 45 50 30 51 44 52 31 53 34 54 43 55
REMARK SMILES IDX 57 56 32 57 33 58 42 60 58 61 35 62 24 63 25 64 29 65 26 66
REMARK SMILES IDX 28 67 27 68 46 69 47 70 51 71 48 72 50 73 49 74 36 75 37 76
REMARK SMILES IDX 41 77 38 78 40 79 39 80
REMARK H PARENT 66 15 56 48 34 59
REMARK Flexibility Score: inf
ROOT
ATOM      1  O   UNL     1       1.828   0.902  -4.825  1.00  0.00    -0.462 OA
ENDROOT
BRANCH   1   2
ATOM      2  C   UNL     1       0.628   1.535  -4.896  1.00  0.00     0.310 C 
ATOM      3  O   UNL     1       0.300   2.319  -5.779  1.00  0.00    -0.252 OA
BRANCH   2   4
ATOM      4  C   UNL     1      -0.277   1.219  -3.720  1.00  0.00     0.116 C 
ATOM      5  C   UNL     1       0.594  -0.314   0.395  1.00  0.00     0.039 C 
ATOM      6  C   UNL     1       0.279   0.104  -1.021  1.00  0.00    -0.074 C 
ATOM      7  C   UNL     1      -0.024  -0.748  -2.016  1.00  0.00    -0.073 C 
ATOM      8  C   UNL     1       0.354   1.591  -1.217  1.00  0.00     0.045 C 
ATOM      9  C   UNL     1      -0.073  -2.250  -1.868  1.00  0.00     0.039 C 
ATOM     10  C   UNL     1      -0.341  -0.282  -3.410  1.00  0.00     0.046 C 
ATOM     11  C   UNL     1       0.079   2.191  -2.595  1.00  0.00     0.097 C 
BRANCH  11  12
ATOM     12  C   UNL     1      -1.066   3.195  -2.499  1.00  0.00     0.224 C 
ATOM     13  O   UNL     1      -2.174   2.864  -2.070  1.00  0.00    -0.275 OA
ATOM     14  N   UNL     1      -0.919   4.471  -2.950  1.00  0.00    -0.353 N 
ATOM     15  H   UNL     1      -1.752   4.995  -2.969  1.00  0.00     0.163 HD
BRANCH  14  16
ATOM     16  C   UNL     1       0.262   5.198  -3.412  1.00  0.00     0.079 C 
ATOM     17  C   UNL     1      -0.027   5.834  -4.773  1.00  0.00     0.031 C 
BRANCH  16  18
ATOM     18  C   UNL     1       0.658   6.289  -2.398  1.00  0.00     0.029 C 
BRANCH  18  19
ATOM     19  C   UNL     1       1.000   5.781  -0.988  1.00  0.00     0.037 C 
BRANCH  19  20
ATOM     20  C   UNL     1       2.193   4.867  -0.827  1.00  0.00    -0.048 A 
ATOM     21  C   UNL     1       2.268   4.067   0.327  1.00  0.00     0.004 A 
ATOM     22  C   UNL     1       3.248   4.806  -1.745  1.00  0.00     0.004 A 
ATOM     23  C   UNL     1       3.333   3.185   0.521  1.00  0.00     0.000 A 
ATOM     24  C   UNL     1       4.311   3.918  -1.554  1.00  0.00     0.000 A 
ATOM     25  C   UNL     1       4.348   3.100  -0.427  1.00  0.00     0.000 A 
ENDBRANCH  19  20
ENDBRANCH  18  19
ENDBRANCH  16  18
ENDBRANCH  14  16
ENDBRANCH  11  12
ENDBRANCH   2   4
ENDBRANCH   1   2
BRANCH   1  26
ATOM     26  C   UNL     1       2.679   1.069  -5.975  1.00  0.00     0.274 C 
BRANCH  26  27
ATOM     27  C   UNL     1       2.501  -0.105  -6.935  1.00  0.00     0.275 C 
BRANCH  27  28
ATOM     28  O   UNL     1       1.117  -0.211  -7.314  1.00  0.00    -0.458 OA
BRANCH  28  29
ATOM     29  C   UNL     1       0.578  -1.446  -7.238  1.00  0.00     0.338 C 
ATOM     30  O   UNL     1       1.149  -2.494  -6.966  1.00  0.00    -0.246 OA
BRANCH  29  31
ATOM     31  C   UNL     1      -0.858  -1.379  -7.551  1.00  0.00     0.060 A 
ATOM     32  C   UNL     1      -1.711  -0.567  -6.800  1.00  0.00     0.016 A 
ATOM     33  C   UNL     1      -1.377  -2.212  -8.542  1.00  0.00     0.016 A 
ATOM     34  C   UNL     1      -3.088  -0.622  -6.996  1.00  0.00     0.010 A 
ATOM     35  C   UNL     1      -2.751  -2.216  -8.786  1.00  0.00     0.010 A 
ATOM     36  C   UNL     1      -3.621  -1.442  -7.997  1.00  0.00    -0.014 A 
BRANCH  36  37
ATOM     37  C   UNL     1      -5.087  -1.533  -8.204  1.00  0.00     0.031 A 
ATOM     38  C   UNL     1      -5.795  -2.833  -7.948  1.00  0.00     0.074 A 
ATOM     39  C   UNL     1      -5.780  -0.465  -8.639  1.00  0.00     0.049 A 
ATOM     40  N   UNL     1      -7.018  -3.184  -8.254  1.00  0.00    -0.248 NA
ATOM     41  C   UNL     1      -5.018  -3.883  -7.268  1.00  0.00     0.031 C 
ATOM     42  C   UNL     1      -5.229   0.870  -8.874  1.00  0.00     0.029 A 
ATOM     43  N   UNL     1      -7.106  -0.343  -8.971  1.00  0.00    -0.354 N 
ATOM     44  C   UNL     1      -7.141  -4.507  -7.852  1.00  0.00     0.074 A 
ATOM     45  C   UNL     1      -5.872  -4.897  -7.276  1.00  0.00     0.031 C 
ATOM     46  C   UNL     1      -6.209   1.679  -9.306  1.00  0.00     0.029 A 
ATOM     47  C   UNL     1      -7.438   0.903  -9.442  1.00  0.00     0.049 A 
ATOM     48  H   UNL     1      -7.756  -1.077  -8.881  1.00  0.00     0.167 HD
ATOM     49  C   UNL     1      -8.214  -5.326  -7.962  1.00  0.00     0.031 A 
ATOM     50  C   UNL     1      -8.589   1.361  -9.967  1.00  0.00     0.031 A 
ATOM     51  C   UNL     1      -9.483  -4.930  -8.508  1.00  0.00     0.049 A 
ATOM     52  C   UNL     1      -9.755   0.425 -10.113  1.00  0.00     0.074 A 
ATOM     53  C   UNL     1     -10.635  -5.684  -8.654  1.00  0.00     0.029 A 
ATOM     54  N   UNL     1      -9.771  -3.662  -8.987  1.00  0.00    -0.354 N 
ATOM     55  N   UNL     1      -9.845  -0.838  -9.774  1.00  0.00    -0.248 NA
ATOM     56  C   UNL     1     -10.970   0.975 -10.728  1.00  0.00     0.031 C 
ATOM     57  C   UNL     1     -11.611  -4.879  -9.252  1.00  0.00     0.029 A 
ATOM     58  C   UNL     1     -11.077  -3.615  -9.443  1.00  0.00     0.049 A 
ATOM     59  H   UNL     1      -9.140  -2.906  -9.000  1.00  0.00     0.167 HD
ATOM     60  C   UNL     1     -11.128  -1.232 -10.128  1.00  0.00     0.074 A 
ATOM     61  C   UNL     1     -11.786  -0.070 -10.691  1.00  0.00     0.031 C 
ATOM     62  C   UNL     1     -11.709  -2.450 -10.003  1.00  0.00     0.031 A 
BRANCH  49  63
ATOM     63  C   UNL     1      -8.037  -6.751  -7.524  1.00  0.00    -0.014 A 
ATOM     64  C   UNL     1      -8.005  -7.101  -6.166  1.00  0.00     0.009 A 
ATOM     65  C   UNL     1      -7.918  -7.760  -8.492  1.00  0.00     0.009 A 
ATOM     66  C   UNL     1      -7.825  -8.434  -5.787  1.00  0.00     0.001 A 
ATOM     67  C   UNL     1      -7.759  -9.093  -8.111  1.00  0.00     0.001 A 
ATOM     68  C   UNL     1      -7.705  -9.428  -6.759  1.00  0.00     0.000 A 
ENDBRANCH  49  63
BRANCH  50  69
ATOM     69  C   UNL     1      -8.676   2.763 -10.445  1.00  0.00    -0.014 A 
ATOM     70  C   UNL     1      -9.414   3.716  -9.729  1.00  0.00     0.009 A 
ATOM     71  C   UNL     1      -8.008   3.157 -11.615  1.00  0.00     0.009 A 
ATOM     72  C   UNL     1      -9.492   5.035 -10.184  1.00  0.00     0.001 A 
ATOM     73  C   UNL     1      -8.068   4.480 -12.054  1.00  0.00     0.001 A 
ATOM     74  C   UNL     1      -8.815   5.416 -11.341  1.00  0.00     0.000 A 
ENDBRANCH  50  69
BRANCH  62  75
ATOM     75  C   UNL     1     -13.130  -2.575 -10.466  1.00  0.00    -0.014 A 
ATOM     76  C   UNL     1     -13.438  -2.671 -11.831  1.00  0.00     0.009 A 
ATOM     77  C   UNL     1     -14.167  -2.631  -9.523  1.00  0.00     0.009 A 
ATOM     78  C   UNL     1     -14.765  -2.795 -12.245  1.00  0.00     0.001 A 
ATOM     79  C   UNL     1     -15.491  -2.774  -9.939  1.00  0.00     0.001 A 
ATOM     80  C   UNL     1     -15.789  -2.849 -11.299  1.00  0.00     0.000 A 
ENDBRANCH  62  75
ENDBRANCH  36  37
ENDBRANCH  29  31
ENDBRANCH  28  29
ENDBRANCH  27  28
ENDBRANCH  26  27
ENDBRANCH   1  26
TORSDOF 16
