REMARK SMILES C[C@@](C(=O)OCCOC(=O)c1ccc(-c2c3nc(c(-c4ccccc4)c4ccc([nH]4)c(-c4ccccc4)c4nc(c(-c5ccccc5)c5ccc2[nH]5)C=C4)C=C3)cc1)(N1C(=O)COCC1=O)C(F)(F)F
REMARK SMILES IDX 7 1 6 2 5 3 3 4 4 5 2 6 1 7 59 8 60 9 65 10 61 11 62 12
REMARK SMILES IDX 64 13 66 14 63 15 67 16 68 17 69 18 70 19 8 20 9 21 10 22
REMARK SMILES IDX 11 23 12 24 58 25 13 26 57 27 14 28 15 29 16 30 51 31 17 32
REMARK SMILES IDX 56 33 50 34 52 35 18 36 55 37 49 38 48 39 19 41 41 42 26 43
REMARK SMILES IDX 40 44 27 45 30 46 39 47 53 48 28 49 29 50 38 52 54 53 31 54
REMARK SMILES IDX 20 55 21 56 25 57 22 58 24 59 23 60 42 61 43 62 47 63 44 64
REMARK SMILES IDX 46 65 45 66 32 67 33 68 37 69 34 70 36 71 35 72
REMARK H PARENT 52 40 30 51
REMARK Flexibility Score: inf
ROOT
ATOM      1  C   UNL     1       2.194   1.177   4.297  1.00  0.00     0.275 C 
ENDROOT
BRANCH   1   2
ATOM      2  C   UNL     1       2.740  -0.143   3.758  1.00  0.00     0.274 C 
BRANCH   2   3
ATOM      3  O   UNL     1       2.373  -0.330   2.373  1.00  0.00    -0.460 OA
BRANCH   3   4
ATOM      4  C   UNL     1       1.253  -1.070   2.129  1.00  0.00     0.341 C 
ATOM      5  O   UNL     1       0.557  -1.558   3.011  1.00  0.00    -0.249 OA
BRANCH   4   6
ATOM      6  C   UNL     1       0.999  -1.278   0.639  1.00  0.00     0.240 C 
ATOM      7  C   UNL     1       1.767  -0.254  -0.245  1.00  0.00     0.058 C 
BRANCH   6   8
ATOM      8  N   UNL     1      -0.498  -1.206   0.317  1.00  0.00    -0.253 N 
ATOM      9  C   UNL     1      -1.103   0.036   0.130  1.00  0.00     0.256 C 
ATOM     10  C   UNL     1      -1.302  -2.333   0.482  1.00  0.00     0.256 C 
ATOM     11  O   UNL     1      -0.549   1.105   0.379  1.00  0.00    -0.272 OA
ATOM     12  C   UNL     1      -2.531   0.030  -0.420  1.00  0.00     0.261 C 
ATOM     13  C   UNL     1      -2.723  -2.245  -0.076  1.00  0.00     0.261 C 
ATOM     14  O   UNL     1      -0.921  -3.374   1.006  1.00  0.00    -0.272 OA
ATOM     15  O   UNL     1      -3.339  -0.992   0.123  1.00  0.00    -0.362 OA
ENDBRANCH   6   8
BRANCH   6  16
ATOM     16  C   UNL     1       1.665  -2.647   0.373  1.00  0.00     0.422 C 
ATOM     17  F   UNL     1       1.291  -3.116  -0.847  1.00  0.00    -0.168 F 
ATOM     18  F   UNL     1       3.020  -2.535   0.330  1.00  0.00    -0.168 F 
ATOM     19  F   UNL     1       1.422  -3.607   1.282  1.00  0.00    -0.168 F 
ENDBRANCH   6  16
ENDBRANCH   4   6
ENDBRANCH   3   4
ENDBRANCH   2   3
ENDBRANCH   1   2
BRANCH   1  20
ATOM     20  O   UNL     1       0.760   1.123   4.297  1.00  0.00    -0.458 OA
BRANCH  20  21
ATOM     21  C   UNL     1       0.120   2.190   3.768  1.00  0.00     0.338 C 
ATOM     22  O   UNL     1       0.620   3.228   3.372  1.00  0.00    -0.246 OA
BRANCH  21  23
ATOM     23  C   UNL     1      -1.333   1.931   3.768  1.00  0.00     0.060 A 
ATOM     24  C   UNL     1      -1.840   0.716   3.309  1.00  0.00     0.016 A 
ATOM     25  C   UNL     1      -2.208   2.943   4.159  1.00  0.00     0.016 A 
ATOM     26  C   UNL     1      -3.210   0.537   3.152  1.00  0.00     0.010 A 
ATOM     27  C   UNL     1      -3.588   2.728   4.091  1.00  0.00     0.010 A 
ATOM     28  C   UNL     1      -4.104   1.536   3.552  1.00  0.00    -0.014 A 
BRANCH  28  29
ATOM     29  C   UNL     1      -5.567   1.355   3.360  1.00  0.00     0.031 A 
ATOM     30  C   UNL     1      -6.340   2.333   2.517  1.00  0.00     0.074 A 
ATOM     31  C   UNL     1      -6.209   0.309   3.919  1.00  0.00     0.049 A 
ATOM     32  N   UNL     1      -7.636   2.472   2.390  1.00  0.00    -0.248 NA
ATOM     33  C   UNL     1      -5.553   3.292   1.724  1.00  0.00     0.031 C 
ATOM     34  C   UNL     1      -5.583  -0.757   4.704  1.00  0.00     0.029 A 
ATOM     35  N   UNL     1      -7.539  -0.032   3.901  1.00  0.00    -0.354 N 
ATOM     36  C   UNL     1      -7.818   3.571   1.561  1.00  0.00     0.074 A 
ATOM     37  C   UNL     1      -6.503   4.059   1.207  1.00  0.00     0.031 C 
ATOM     38  C   UNL     1      -6.518  -1.652   5.055  1.00  0.00     0.029 A 
ATOM     39  C   UNL     1      -7.820  -1.178   4.603  1.00  0.00     0.049 A 
ATOM     40  H   UNL     1      -8.225   0.494   3.430  1.00  0.00     0.167 HD
ATOM     41  C   UNL     1      -8.978   4.129   1.141  1.00  0.00     0.031 A 
ATOM     42  C   UNL     1      -8.997  -1.762   4.894  1.00  0.00     0.031 A 
ATOM     43  C   UNL     1     -10.285   3.616   1.455  1.00  0.00     0.049 A 
ATOM     44  C   UNL     1     -10.271  -1.112   4.442  1.00  0.00     0.074 A 
ATOM     45  C   UNL     1     -11.521   4.115   1.081  1.00  0.00     0.029 A 
ATOM     46  N   UNL     1     -10.523   2.473   2.200  1.00  0.00    -0.354 N 
ATOM     47  N   UNL     1     -10.433  -0.022   3.732  1.00  0.00    -0.248 NA
ATOM     48  C   UNL     1     -11.524  -1.760   4.851  1.00  0.00     0.031 C 
ATOM     49  C   UNL     1     -12.509   3.287   1.626  1.00  0.00     0.029 A 
ATOM     50  C   UNL     1     -11.886   2.252   2.303  1.00  0.00     0.049 A 
ATOM     51  H   UNL     1      -9.826   1.902   2.598  1.00  0.00     0.167 HD
ATOM     52  C   UNL     1     -11.805   0.148   3.611  1.00  0.00     0.074 A 
ATOM     53  C   UNL     1     -12.429  -0.966   4.296  1.00  0.00     0.031 C 
ATOM     54  C   UNL     1     -12.487   1.143   2.995  1.00  0.00     0.031 A 
BRANCH  41  55
ATOM     55  C   UNL     1      -8.885   5.391   0.332  1.00  0.00    -0.014 A 
ATOM     56  C   UNL     1      -8.489   5.376  -1.013  1.00  0.00     0.009 A 
ATOM     57  C   UNL     1      -9.233   6.615   0.926  1.00  0.00     0.009 A 
ATOM     58  C   UNL     1      -8.417   6.567  -1.740  1.00  0.00     0.001 A 
ATOM     59  C   UNL     1      -9.183   7.800   0.191  1.00  0.00     0.001 A 
ATOM     60  C   UNL     1      -8.768   7.776  -1.139  1.00  0.00     0.000 A 
ENDBRANCH  41  55
BRANCH  42  61
ATOM     61  C   UNL     1      -9.023  -3.003   5.711  1.00  0.00    -0.014 A 
ATOM     62  C   UNL     1      -9.367  -4.232   5.131  1.00  0.00     0.009 A 
ATOM     63  C   UNL     1      -8.685  -2.964   7.073  1.00  0.00     0.009 A 
ATOM     64  C   UNL     1      -9.383  -5.396   5.903  1.00  0.00     0.001 A 
ATOM     65  C   UNL     1      -8.674  -4.133   7.835  1.00  0.00     0.001 A 
ATOM     66  C   UNL     1      -9.029  -5.347   7.251  1.00  0.00     0.000 A 
ENDBRANCH  42  61
BRANCH  54  67
ATOM     67  C   UNL     1     -13.984   1.056   3.022  1.00  0.00    -0.014 A 
ATOM     68  C   UNL     1     -14.704   1.376   4.183  1.00  0.00     0.009 A 
ATOM     69  C   UNL     1     -14.681   0.674   1.866  1.00  0.00     0.009 A 
ATOM     70  C   UNL     1     -16.097   1.286   4.193  1.00  0.00     0.001 A 
ATOM     71  C   UNL     1     -16.074   0.605   1.874  1.00  0.00     0.001 A 
ATOM     72  C   UNL     1     -16.780   0.903   3.039  1.00  0.00     0.000 A 
ENDBRANCH  54  67
ENDBRANCH  28  29
ENDBRANCH  21  23
ENDBRANCH  20  21
ENDBRANCH   1  20
TORSDOF 13
