REMARK SMILES Cc1cc(OC(F)(F)F)cc2c1O[C@@H](C(F)(F)F)C(C(=O)OCCOC(=O)c1ccc(-c3c4nc(c(-c5ccccc5)c5ccc([nH]5)c(-c5ccccc5)c5nc(c(-c6ccccc6)c6ccc3[nH]6)C=C5)C=C4)cc1)=C2
REMARK SMILES IDX 23 1 22 2 20 3 21 4 19 5 1 6 2 7 3 8 12 9 4 10 11 11 13 12
REMARK SMILES IDX 10 13 76 14 14 15 5 16 6 17 7 18 8 19 9 20 15 21 16 22 17 23
REMARK SMILES IDX 18 24 24 25 25 26 26 27 27 28 28 29 29 30 75 31 30 32 74 33
REMARK SMILES IDX 31 34 32 35 33 36 68 37 34 38 73 39 67 40 69 41 35 42 72 43
REMARK SMILES IDX 66 44 65 45 36 47 58 48 43 49 57 50 44 51 47 52 56 53 70 54
REMARK SMILES IDX 45 55 46 56 55 58 71 59 48 60 37 61 38 62 42 63 39 64 41 65
REMARK SMILES IDX 40 66 59 67 60 68 64 69 61 70 63 71 62 72 49 73 50 74 54 75
REMARK SMILES IDX 51 76 53 77 52 78
REMARK H PARENT 69 46 47 57
REMARK Flexibility Score: inf
ROOT
ATOM      1  C   UNL     1       0.906  -7.873   2.854  1.00  0.00     0.275 C 
ENDROOT
BRANCH   1   2
ATOM      2  O   UNL     1       1.021  -6.524   2.356  1.00  0.00    -0.459 OA
BRANCH   2   3
ATOM      3  C   UNL     1       0.010  -5.686   2.663  1.00  0.00     0.338 C 
ATOM      4  O   UNL     1      -1.037  -5.996   3.211  1.00  0.00    -0.246 OA
BRANCH   3   5
ATOM      5  C   UNL     1       0.364  -4.295   2.322  1.00  0.00     0.087 C 
ATOM      6  C   UNL     1       1.177   0.047  -0.295  1.00  0.00     0.048 C 
ATOM      7  C   UNL     1       0.690  -0.313   1.080  1.00  0.00    -0.005 A 
ATOM      8  C   UNL     1       0.387   0.710   2.001  1.00  0.00     0.054 A 
ATOM      9  C   UNL     1       0.571  -1.651   1.477  1.00  0.00     0.131 A 
ATOM     10  C   UNL     1      -0.061   0.407   3.288  1.00  0.00     0.130 A 
ATOM     11  C   UNL     1       0.104  -1.955   2.756  1.00  0.00     0.021 A 
ATOM     12  O   UNL     1       0.852  -2.633   0.559  1.00  0.00    -0.475 OA
ATOM     13  C   UNL     1      -0.197  -0.931   3.660  1.00  0.00     0.058 A 
ATOM     14  C   UNL     1      -0.150  -3.339   3.107  1.00  0.00     0.027 C 
ATOM     15  C   UNL     1       1.154  -3.966   1.083  1.00  0.00     0.316 C 
BRANCH  10  16
ATOM     16  O   UNL     1      -0.400   1.296   4.267  1.00  0.00    -0.406 OA
BRANCH  16  17
ATOM     17  C   UNL     1      -0.525   2.661   3.909  1.00  0.00     0.573 C 
ATOM     18  F   UNL     1       0.670   3.179   3.553  1.00  0.00    -0.132 F 
ATOM     19  F   UNL     1      -1.406   2.823   2.899  1.00  0.00    -0.132 F 
ATOM     20  F   UNL     1      -0.980   3.350   4.979  1.00  0.00    -0.132 F 
ENDBRANCH  16  17
ENDBRANCH  10  16
BRANCH  15  21
ATOM     21  C   UNL     1       2.680  -4.128   1.205  1.00  0.00     0.430 C 
ATOM     22  F   UNL     1       3.291  -3.721   0.061  1.00  0.00    -0.167 F 
ATOM     23  F   UNL     1       3.200  -3.398   2.216  1.00  0.00    -0.167 F 
ATOM     24  F   UNL     1       3.055  -5.414   1.388  1.00  0.00    -0.167 F 
ENDBRANCH  15  21
ENDBRANCH   3   5
ENDBRANCH   2   3
ENDBRANCH   1   2
BRANCH   1  25
ATOM     25  C   UNL     1       1.771  -8.058   4.101  1.00  0.00     0.275 C 
BRANCH  25  26
ATOM     26  O   UNL     1       1.208  -7.331   5.210  1.00  0.00    -0.458 OA
BRANCH  26  27
ATOM     27  C   UNL     1       1.870  -6.210   5.576  1.00  0.00     0.338 C 
ATOM     28  O   UNL     1       2.891  -5.754   5.094  1.00  0.00    -0.246 OA
BRANCH  27  29
ATOM     29  C   UNL     1       1.136  -5.544   6.663  1.00  0.00     0.060 A 
ATOM     30  C   UNL     1      -0.090  -4.948   6.382  1.00  0.00     0.016 A 
ATOM     31  C   UNL     1       1.712  -5.407   7.926  1.00  0.00     0.016 A 
ATOM     32  C   UNL     1      -0.702  -4.135   7.329  1.00  0.00     0.010 A 
ATOM     33  C   UNL     1       1.041  -4.676   8.914  1.00  0.00     0.010 A 
ATOM     34  C   UNL     1      -0.157  -4.004   8.616  1.00  0.00    -0.014 A 
BRANCH  34  35
ATOM     35  C   UNL     1      -0.863  -3.172   9.629  1.00  0.00     0.031 A 
ATOM     36  C   UNL     1      -0.214  -1.945  10.211  1.00  0.00     0.074 A 
ATOM     37  C   UNL     1      -2.122  -3.494   9.989  1.00  0.00     0.049 A 
ATOM     38  N   UNL     1      -0.682  -1.120  11.114  1.00  0.00    -0.248 NA
ATOM     39  C   UNL     1       1.130  -1.595   9.722  1.00  0.00     0.031 C 
ATOM     40  C   UNL     1      -2.879  -4.640   9.479  1.00  0.00     0.029 A 
ATOM     41  N   UNL     1      -3.003  -2.869  10.838  1.00  0.00    -0.354 N 
ATOM     42  C   UNL     1       0.317  -0.178  11.324  1.00  0.00     0.074 A 
ATOM     43  C   UNL     1       1.424  -0.536  10.465  1.00  0.00     0.031 C 
ATOM     44  C   UNL     1      -4.129  -4.593   9.963  1.00  0.00     0.029 A 
ATOM     45  C   UNL     1      -4.243  -3.460  10.876  1.00  0.00     0.049 A 
ATOM     46  H   UNL     1      -2.768  -2.073  11.368  1.00  0.00     0.167 HD
ATOM     47  C   UNL     1       0.309   0.892  12.152  1.00  0.00     0.031 A 
ATOM     48  C   UNL     1      -5.351  -3.142  11.571  1.00  0.00     0.031 A 
ATOM     49  C   UNL     1      -0.802   1.274  12.981  1.00  0.00     0.049 A 
ATOM     50  C   UNL     1      -5.324  -1.971  12.507  1.00  0.00     0.074 A 
ATOM     51  C   UNL     1      -0.897   2.352  13.844  1.00  0.00     0.029 A 
ATOM     52  N   UNL     1      -2.012   0.604  13.037  1.00  0.00    -0.354 N 
ATOM     53  N   UNL     1      -4.354  -1.117  12.720  1.00  0.00    -0.248 NA
ATOM     54  C   UNL     1      -6.529  -1.730  13.313  1.00  0.00     0.031 C 
ATOM     55  C   UNL     1      -2.155   2.316  14.449  1.00  0.00     0.029 A 
ATOM     56  C   UNL     1      -2.856   1.238  13.932  1.00  0.00     0.049 A 
ATOM     57  H   UNL     1      -2.239  -0.202  12.519  1.00  0.00     0.167 HD
ATOM     58  C   UNL     1      -4.830  -0.236  13.679  1.00  0.00     0.074 A 
ATOM     59  C   UNL     1      -6.180  -0.649  14.001  1.00  0.00     0.031 C 
ATOM     60  C   UNL     1      -4.196   0.818  14.243  1.00  0.00     0.031 A 
BRANCH  47  61
ATOM     61  C   UNL     1       1.547   1.739  12.223  1.00  0.00    -0.014 A 
ATOM     62  C   UNL     1       1.842   2.674  11.221  1.00  0.00     0.009 A 
ATOM     63  C   UNL     1       2.372   1.669  13.357  1.00  0.00     0.009 A 
ATOM     64  C   UNL     1       2.948   3.517  11.349  1.00  0.00     0.001 A 
ATOM     65  C   UNL     1       3.465   2.526  13.491  1.00  0.00     0.001 A 
ATOM     66  C   UNL     1       3.754   3.447  12.486  1.00  0.00     0.000 A 
ENDBRANCH  47  61
BRANCH  48  67
ATOM     67  C   UNL     1      -6.577  -3.961  11.396  1.00  0.00    -0.014 A 
ATOM     68  C   UNL     1      -7.657  -3.468  10.648  1.00  0.00     0.009 A 
ATOM     69  C   UNL     1      -6.645  -5.265  11.911  1.00  0.00     0.009 A 
ATOM     70  C   UNL     1      -8.777  -4.269  10.414  1.00  0.00     0.001 A 
ATOM     71  C   UNL     1      -7.756  -6.070  11.657  1.00  0.00     0.001 A 
ATOM     72  C   UNL     1      -8.821  -5.572  10.909  1.00  0.00     0.000 A 
ENDBRANCH  48  67
BRANCH  60  73
ATOM     73  C   UNL     1      -4.939   1.623  15.265  1.00  0.00    -0.014 A 
ATOM     74  C   UNL     1      -5.006   1.194  16.598  1.00  0.00     0.009 A 
ATOM     75  C   UNL     1      -5.450   2.884  14.922  1.00  0.00     0.009 A 
ATOM     76  C   UNL     1      -5.569   2.020  17.573  1.00  0.00     0.001 A 
ATOM     77  C   UNL     1      -5.999   3.712  15.902  1.00  0.00     0.001 A 
ATOM     78  C   UNL     1      -6.055   3.280  17.226  1.00  0.00     0.000 A 
ENDBRANCH  60  73
ENDBRANCH  34  35
ENDBRANCH  27  29
ENDBRANCH  26  27
ENDBRANCH  25  26
ENDBRANCH   1  25
TORSDOF 14
