REMARK SMILES COc1cccc(NC(=O)NC2(C(=O)OCCOC(=O)c3ccc(-c4c5nc(c(-c6ccccc6)c6ccc([nH]6)c(-c6ccccc6)c6nc(c(-c7ccccc7)c7ccc4[nH]7)C=C6)C=C5)cc3)CCCCC2)c1
REMARK SMILES IDX 16 1 15 2 13 3 14 4 12 5 69 6 73 7 70 8 72 9 71 10 11 11
REMARK SMILES IDX 8 12 9 13 10 15 7 17 3 18 4 19 74 20 5 21 6 22 2 23 1 24
REMARK SMILES IDX 17 25 18 26 19 27 20 28 21 29 22 30 68 31 23 32 67 33 24 34
REMARK SMILES IDX 25 35 26 36 61 37 27 38 66 39 60 40 62 41 28 42 65 43 59 44
REMARK SMILES IDX 58 45 29 47 51 48 36 49 50 50 37 51 40 52 49 53 63 54 38 55
REMARK SMILES IDX 39 56 48 58 64 59 41 60 30 61 31 62 35 63 32 64 34 65 33 66
REMARK SMILES IDX 52 67 53 68 57 69 54 70 56 71 55 72 42 73 43 74 47 75 44 76
REMARK SMILES IDX 46 77 45 78
REMARK H PARENT 8 14 11 16 62 46 40 57
REMARK Flexibility Score: inf
ROOT
ATOM      1  C   UNL     1      -0.126   5.955  -5.234  1.00  0.00     0.274 C 
ENDROOT
BRANCH   1   2
ATOM      2  O   UNL     1       0.030   5.987  -3.799  1.00  0.00    -0.460 OA
BRANCH   2   3
ATOM      3  C   UNL     1       1.299   5.796  -3.352  1.00  0.00     0.332 C 
ATOM      4  O   UNL     1       2.247   5.636  -4.114  1.00  0.00    -0.249 OA
BRANCH   3   5
ATOM      5  C   UNL     1       1.443   5.900  -1.807  1.00  0.00     0.139 C 
ATOM      6  C   UNL     1       0.602   4.923  -0.973  1.00  0.00     0.040 C 
ATOM      7  C   UNL     1       1.091   7.361  -1.387  1.00  0.00     0.040 C 
ATOM      8  C   UNL     1      -0.885   5.250  -0.866  1.00  0.00     0.003 C 
ATOM      9  C   UNL     1      -0.402   7.674  -1.278  1.00  0.00     0.003 C 
ATOM     10  C   UNL     1      -1.129   6.672  -0.398  1.00  0.00     0.000 C 
BRANCH   5  11
ATOM     11  N   UNL     1       2.915   5.739  -1.533  1.00  0.00    -0.322 N 
ATOM     12  N   UNL     1       3.664   3.468  -1.514  1.00  0.00    -0.308 N 
ATOM     13  C   UNL     1       3.857   4.793  -1.468  1.00  0.00     0.320 C 
ATOM     14  H   UNL     1       4.405   2.961  -1.111  1.00  0.00     0.171 HD
ATOM     15  O   UNL     1       4.995   5.194  -1.196  1.00  0.00    -0.248 OA
ATOM     16  H   UNL     1       3.314   6.618  -1.338  1.00  0.00     0.166 HD
BRANCH  12  17
ATOM     17  C   UNL     1       2.651   2.647  -2.004  1.00  0.00     0.046 A 
ATOM     18  C   UNL     1       1.069   0.876  -1.536  1.00  0.00     0.120 A 
ATOM     19  C   UNL     1       0.485   1.086  -2.788  1.00  0.00     0.046 A 
ATOM     20  C   UNL     1       2.176   1.639  -1.160  1.00  0.00     0.072 A 
ATOM     21  C   UNL     1       1.035   2.007  -3.678  1.00  0.00     0.006 A 
ATOM     22  C   UNL     1       2.136   2.770  -3.290  1.00  0.00     0.026 A 
BRANCH  18  23
ATOM     23  O   UNL     1       0.452  -0.067  -0.762  1.00  0.00    -0.497 OA
ATOM     24  C   UNL     1       1.104  -0.415   0.454  1.00  0.00     0.278 C 
ENDBRANCH  18  23
ENDBRANCH  12  17
ENDBRANCH   5  11
ENDBRANCH   3   5
ENDBRANCH   2   3
ENDBRANCH   1   2
BRANCH   1  25
ATOM     25  C   UNL     1       0.169   7.308  -5.900  1.00  0.00     0.275 C 
BRANCH  25  26
ATOM     26  O   UNL     1       1.584   7.593  -5.941  1.00  0.00    -0.458 OA
BRANCH  26  27
ATOM     27  C   UNL     1       2.005   8.633  -5.185  1.00  0.00     0.338 C 
ATOM     28  O   UNL     1       1.316   9.394  -4.524  1.00  0.00    -0.246 OA
BRANCH  27  29
ATOM     29  C   UNL     1       3.478   8.686  -5.162  1.00  0.00     0.060 A 
ATOM     30  C   UNL     1       4.140   8.077  -4.095  1.00  0.00     0.016 A 
ATOM     31  C   UNL     1       4.196   9.441  -6.087  1.00  0.00     0.016 A 
ATOM     32  C   UNL     1       5.515   8.216  -3.933  1.00  0.00     0.010 A 
ATOM     33  C   UNL     1       5.583   9.580  -5.931  1.00  0.00     0.010 A 
ATOM     34  C   UNL     1       6.247   8.985  -4.842  1.00  0.00    -0.014 A 
BRANCH  34  35
ATOM     35  C   UNL     1       7.686   9.239  -4.585  1.00  0.00     0.031 A 
ATOM     36  C   UNL     1       8.121  10.584  -4.074  1.00  0.00     0.074 A 
ATOM     37  C   UNL     1       8.593   8.258  -4.741  1.00  0.00     0.049 A 
ATOM     38  N   UNL     1       9.330  11.038  -3.861  1.00  0.00    -0.248 NA
ATOM     39  C   UNL     1       7.051  11.542  -3.753  1.00  0.00     0.031 C 
ATOM     40  C   UNL     1       8.293   6.881  -5.133  1.00  0.00     0.029 A 
ATOM     41  N   UNL     1       9.954   8.270  -4.570  1.00  0.00    -0.354 N 
ATOM     42  C   UNL     1       9.168  12.342  -3.410  1.00  0.00     0.074 A 
ATOM     43  C   UNL     1       7.745  12.608  -3.384  1.00  0.00     0.031 C 
ATOM     44  C   UNL     1       9.436   6.176  -5.155  1.00  0.00     0.029 A 
ATOM     45  C   UNL     1      10.551   7.062  -4.832  1.00  0.00     0.049 A 
ATOM     46  H   UNL     1      10.456   9.069  -4.287  1.00  0.00     0.167 HD
ATOM     47  C   UNL     1      10.118  13.239  -3.053  1.00  0.00     0.031 A 
ATOM     48  C   UNL     1      11.852   6.715  -4.834  1.00  0.00     0.031 A 
ATOM     49  C   UNL     1      11.532  12.975  -3.068  1.00  0.00     0.049 A 
ATOM     50  C   UNL     1      12.893   7.753  -4.521  1.00  0.00     0.074 A 
ATOM     51  C   UNL     1      12.574  13.828  -2.748  1.00  0.00     0.029 A 
ATOM     52  N   UNL     1      12.100  11.761  -3.416  1.00  0.00    -0.354 N 
ATOM     53  N   UNL     1      12.732   9.001  -4.158  1.00  0.00    -0.248 NA
ATOM     54  C   UNL     1      14.298   7.334  -4.637  1.00  0.00     0.031 C 
ATOM     55  C   UNL     1      13.777  13.138  -2.937  1.00  0.00     0.029 A 
ATOM     56  C   UNL     1      13.480  11.845  -3.337  1.00  0.00     0.049 A 
ATOM     57  H   UNL     1      11.598  10.957  -3.681  1.00  0.00     0.167 HD
ATOM     58  C   UNL     1      14.011   9.514  -3.989  1.00  0.00     0.074 A 
ATOM     59  C   UNL     1      14.938   8.438  -4.275  1.00  0.00     0.031 C 
ATOM     60  C   UNL     1      14.385  10.766  -3.631  1.00  0.00     0.031 A 
BRANCH  47  61
ATOM     61  C   UNL     1       9.649  14.611  -2.667  1.00  0.00    -0.014 A 
ATOM     62  C   UNL     1       9.054  14.858  -1.421  1.00  0.00     0.009 A 
ATOM     63  C   UNL     1       9.808  15.674  -3.570  1.00  0.00     0.009 A 
ATOM     64  C   UNL     1       8.597  16.138  -1.100  1.00  0.00     0.001 A 
ATOM     65  C   UNL     1       9.370  16.957  -3.237  1.00  0.00     0.001 A 
ATOM     66  C   UNL     1       8.757  17.186  -2.007  1.00  0.00     0.000 A 
ENDBRANCH  47  61
BRANCH  48  67
ATOM     67  C   UNL     1      12.250   5.328  -5.184  1.00  0.00    -0.014 A 
ATOM     68  C   UNL     1      12.758   4.463  -4.204  1.00  0.00     0.009 A 
ATOM     69  C   UNL     1      12.133   4.866  -6.505  1.00  0.00     0.009 A 
ATOM     70  C   UNL     1      13.153   3.166  -4.543  1.00  0.00     0.001 A 
ATOM     71  C   UNL     1      12.507   3.562  -6.836  1.00  0.00     0.001 A 
ATOM     72  C   UNL     1      13.023   2.716  -5.856  1.00  0.00     0.000 A 
ENDBRANCH  48  67
BRANCH  60  73
ATOM     73  C   UNL     1      15.857  11.029  -3.510  1.00  0.00    -0.014 A 
ATOM     74  C   UNL     1      16.655  11.209  -4.651  1.00  0.00     0.009 A 
ATOM     75  C   UNL     1      16.446  11.129  -2.240  1.00  0.00     0.009 A 
ATOM     76  C   UNL     1      18.022  11.458  -4.521  1.00  0.00     0.001 A 
ATOM     77  C   UNL     1      17.810  11.397  -2.114  1.00  0.00     0.001 A 
ATOM     78  C   UNL     1      18.598  11.554  -3.254  1.00  0.00     0.000 A 
ENDBRANCH  60  73
ENDBRANCH  34  35
ENDBRANCH  27  29
ENDBRANCH  26  27
ENDBRANCH  25  26
ENDBRANCH   1  25
TORSDOF 14
