REMARK SMILES Cc1ccccc1OC1(C(=O)OCCOC(=O)c2ccc(-c3c4nc(c(-c5ccccc5)c5ccc([nH]5)c(-c5ccccc5)c5nc(c(-c6ccccc6)c6ccc3[nH]6)C=C5)C=C4)cc2)CCN(C(=O)[C@H]2CCCCO2)CC1
REMARK SMILES IDX 13 1 12 2 10 3 11 4 9 5 66 6 78 7 67 8 77 9 68 10 69 11
REMARK SMILES IDX 70 12 8 13 7 14 1 15 2 16 3 17 4 18 6 19 5 20 71 21 72 22
REMARK SMILES IDX 76 23 73 24 75 25 74 26 14 27 15 28 16 29 17 30 18 31 19 32
REMARK SMILES IDX 65 33 20 34 64 35 21 36 22 37 23 38 58 39 24 40 63 41 57 42
REMARK SMILES IDX 59 43 25 44 62 45 56 46 55 47 26 49 48 50 33 51 47 52 34 53
REMARK SMILES IDX 37 54 46 55 60 56 35 57 36 58 45 60 61 61 38 62 27 63 28 64
REMARK SMILES IDX 32 65 29 66 31 67 30 68 49 69 50 70 54 71 51 72 53 73 52 74
REMARK SMILES IDX 39 75 40 76 44 77 41 78 43 79 42 80
REMARK H PARENT 59 48 37 59
REMARK Flexibility Score: inf
ROOT
ATOM      1  C   UNL     1       9.149  -6.384  -3.140  1.00  0.00     0.274 C 
ENDROOT
BRANCH   1   2
ATOM      2  O   UNL     1       8.070  -6.598  -2.213  1.00  0.00    -0.459 OA
BRANCH   2   3
ATOM      3  C   UNL     1       7.300  -5.474  -2.052  1.00  0.00     0.350 C 
ATOM      4  O   UNL     1       7.524  -4.439  -2.679  1.00  0.00    -0.247 OA
BRANCH   3   5
ATOM      5  C   UNL     1       6.276  -5.554  -0.857  1.00  0.00     0.209 C 
ATOM      6  C   UNL     1       7.238  -5.400   0.318  1.00  0.00     0.082 C 
ATOM      7  C   UNL     1       5.269  -4.423  -1.150  1.00  0.00     0.082 C 
ATOM      8  C   UNL     1       7.328  -4.006   0.898  1.00  0.00     0.124 C 
ATOM      9  C   UNL     1       5.026  -3.449  -0.025  1.00  0.00     0.124 C 
ATOM     10  N   UNL     1       6.124  -3.180   0.891  1.00  0.00    -0.340 N 
ATOM     11  C   UNL     1       6.095  -2.154   1.846  1.00  0.00     0.251 C 
ATOM     12  O   UNL     1       7.033  -2.019   2.639  1.00  0.00    -0.272 OA
BRANCH   5  13
ATOM     13  O   UNL     1       5.611  -6.833  -0.750  1.00  0.00    -0.475 OA
BRANCH  13  14
ATOM     14  C   UNL     1       4.463  -7.118  -0.036  1.00  0.00     0.123 A 
ATOM     15  C   UNL     1       4.611  -5.800   2.241  1.00  0.00     0.048 C 
ATOM     16  C   UNL     1       3.968  -6.668   1.205  1.00  0.00    -0.009 A 
ATOM     17  C   UNL     1       2.729  -7.178   1.692  1.00  0.00     0.007 A 
ATOM     18  C   UNL     1       2.011  -8.158   1.026  1.00  0.00     0.001 A 
ATOM     19  C   UNL     1       3.715  -8.134  -0.674  1.00  0.00     0.047 A 
ATOM     20  C   UNL     1       2.517  -8.651  -0.159  1.00  0.00     0.004 A 
ENDBRANCH  13  14
ENDBRANCH   5  13
BRANCH  11  21
ATOM     21  C   UNL     1       4.877  -1.197   1.887  1.00  0.00     0.207 C 
ATOM     22  C   UNL     1       3.666  -1.880   2.534  1.00  0.00     0.042 C 
ATOM     23  O   UNL     1       5.269  -0.043   2.646  1.00  0.00    -0.368 OA
ATOM     24  C   UNL     1       2.542  -0.896   2.833  1.00  0.00     0.006 C 
ATOM     25  C   UNL     1       4.237   0.917   2.810  1.00  0.00     0.161 C 
ATOM     26  C   UNL     1       3.079   0.311   3.583  1.00  0.00     0.029 C 
ENDBRANCH  11  21
ENDBRANCH   3   5
ENDBRANCH   2   3
ENDBRANCH   1   2
BRANCH   1  27
ATOM     27  C   UNL     1       9.767  -7.667  -3.708  1.00  0.00     0.275 C 
BRANCH  27  28
ATOM     28  O   UNL     1       8.982  -8.889  -3.703  1.00  0.00    -0.458 OA
BRANCH  28  29
ATOM     29  C   UNL     1       7.671  -9.055  -3.984  1.00  0.00     0.338 C 
ATOM     30  O   UNL     1       7.063 -10.089  -3.703  1.00  0.00    -0.246 OA
BRANCH  29  31
ATOM     31  C   UNL     1       6.959  -7.934  -4.602  1.00  0.00     0.060 A 
ATOM     32  C   UNL     1       5.740  -7.525  -4.044  1.00  0.00     0.016 A 
ATOM     33  C   UNL     1       7.533  -7.243  -5.663  1.00  0.00     0.016 A 
ATOM     34  C   UNL     1       5.120  -6.365  -4.492  1.00  0.00     0.010 A 
ATOM     35  C   UNL     1       6.975  -6.044  -6.048  1.00  0.00     0.010 A 
ATOM     36  C   UNL     1       5.757  -5.624  -5.489  1.00  0.00    -0.014 A 
BRANCH  36  37
ATOM     37  C   UNL     1       5.059  -4.617  -6.273  1.00  0.00     0.031 A 
ATOM     38  C   UNL     1       4.822  -3.246  -5.790  1.00  0.00     0.074 A 
ATOM     39  C   UNL     1       4.660  -5.082  -7.479  1.00  0.00     0.049 A 
ATOM     40  N   UNL     1       3.783  -2.538  -6.084  1.00  0.00    -0.248 NA
ATOM     41  C   UNL     1       5.738  -2.559  -4.882  1.00  0.00     0.031 C 
ATOM     42  C   UNL     1       4.068  -4.379  -8.600  1.00  0.00     0.029 A 
ATOM     43  N   UNL     1       4.549  -6.437  -7.839  1.00  0.00    -0.354 N 
ATOM     44  C   UNL     1       4.051  -1.240  -5.690  1.00  0.00     0.074 A 
ATOM     45  C   UNL     1       5.199  -1.334  -4.821  1.00  0.00     0.031 C 
ATOM     46  C   UNL     1       3.378  -5.277  -9.332  1.00  0.00     0.029 A 
ATOM     47  C   UNL     1       3.381  -6.534  -8.582  1.00  0.00     0.049 A 
ATOM     48  H   UNL     1       5.172  -7.165  -7.613  1.00  0.00     0.167 HD
ATOM     49  C   UNL     1       3.420  -0.199  -6.308  1.00  0.00     0.031 A 
ATOM     50  C   UNL     1       2.276  -7.173  -8.094  1.00  0.00     0.031 A 
ATOM     51  C   UNL     1       2.534  -0.696  -7.353  1.00  0.00     0.049 A 
ATOM     52  C   UNL     1       1.104  -6.225  -8.071  1.00  0.00     0.074 A 
ATOM     53  C   UNL     1       2.763  -0.896  -8.704  1.00  0.00     0.029 A 
ATOM     54  N   UNL     1       1.396  -1.415  -7.022  1.00  0.00    -0.354 N 
ATOM     55  N   UNL     1       1.199  -4.957  -7.774  1.00  0.00    -0.248 NA
ATOM     56  C   UNL     1      -0.247  -6.633  -8.437  1.00  0.00     0.031 C 
ATOM     57  C   UNL     1       1.813  -1.840  -9.165  1.00  0.00     0.029 A 
ATOM     58  C   UNL     1       0.990  -2.174  -8.102  1.00  0.00     0.049 A 
ATOM     59  H   UNL     1       0.945  -1.389  -6.148  1.00  0.00     0.167 HD
ATOM     60  C   UNL     1      -0.005  -4.359  -8.042  1.00  0.00     0.074 A 
ATOM     61  C   UNL     1      -0.891  -5.454  -8.402  1.00  0.00     0.031 C 
ATOM     62  C   UNL     1      -0.194  -3.009  -8.018  1.00  0.00     0.031 A 
BRANCH  49  63
ATOM     63  C   UNL     1       3.876   1.244  -6.248  1.00  0.00    -0.014 A 
ATOM     64  C   UNL     1       3.637   2.087  -7.354  1.00  0.00     0.009 A 
ATOM     65  C   UNL     1       4.569   1.825  -5.174  1.00  0.00     0.009 A 
ATOM     66  C   UNL     1       4.146   3.391  -7.430  1.00  0.00     0.001 A 
ATOM     67  C   UNL     1       5.104   3.124  -5.253  1.00  0.00     0.001 A 
ATOM     68  C   UNL     1       4.904   3.901  -6.388  1.00  0.00     0.000 A 
ENDBRANCH  49  63
BRANCH  50  69
ATOM     69  C   UNL     1       2.488  -8.251  -7.071  1.00  0.00    -0.014 A 
ATOM     70  C   UNL     1       3.352  -9.328  -7.367  1.00  0.00     0.009 A 
ATOM     71  C   UNL     1       2.029  -8.133  -5.750  1.00  0.00     0.009 A 
ATOM     72  C   UNL     1       3.808 -10.197  -6.367  1.00  0.00     0.001 A 
ATOM     73  C   UNL     1       2.468  -9.020  -4.752  1.00  0.00     0.001 A 
ATOM     74  C   UNL     1       3.376 -10.034  -5.055  1.00  0.00     0.000 A 
ENDBRANCH  50  69
BRANCH  62  75
ATOM     75  C   UNL     1      -1.530  -2.321  -8.030  1.00  0.00    -0.014 A 
ATOM     76  C   UNL     1      -2.704  -2.916  -7.555  1.00  0.00     0.009 A 
ATOM     77  C   UNL     1      -1.595  -0.950  -8.367  1.00  0.00     0.009 A 
ATOM     78  C   UNL     1      -3.896  -2.189  -7.463  1.00  0.00     0.001 A 
ATOM     79  C   UNL     1      -2.767  -0.210  -8.228  1.00  0.00     0.001 A 
ATOM     80  C   UNL     1      -3.924  -0.835  -7.786  1.00  0.00     0.000 A 
ENDBRANCH  62  75
ENDBRANCH  36  37
ENDBRANCH  29  31
ENDBRANCH  28  29
ENDBRANCH  27  28
ENDBRANCH   1  27
TORSDOF 14
