REMARK SMILES C[NH+]1CCN(c2nc3c(cc2F)c(=O)c(C(=O)OCCOC(=O)c2ccc(-c4c5nc(c(-c6ccccc6)c6ccc([nH]6)c(-c6ccccc6)c6nc(c(-c7ccccc7)c7ccc4[nH]7)C=C6)C=C5)cc2)cn3-c2ccc(F)cc2F)CC1
REMARK SMILES IDX 20 1 19 2 18 3 16 4 17 5 15 6 6 7 7 8 11 9 8 10 10 11 12 12
REMARK SMILES IDX 9 13 73 14 13 15 72 16 14 17 5 18 1 19 2 20 3 21 83 22 4 24
REMARK SMILES IDX 82 25 74 26 75 27 80 28 76 29 79 30 81 31 77 32 78 33 21 34
REMARK SMILES IDX 22 35 23 36 24 37 25 38 71 39 26 40 70 41 27 42 28 43 29 44
REMARK SMILES IDX 64 45 30 46 69 47 63 48 65 49 31 50 68 51 62 52 61 53 32 55
REMARK SMILES IDX 54 56 39 57 53 58 40 59 43 60 52 61 66 62 41 63 42 64 51 66
REMARK SMILES IDX 67 67 44 68 33 69 34 70 38 71 35 72 37 73 36 74 55 75 56 76
REMARK SMILES IDX 60 77 57 78 59 79 58 80 45 81 46 82 50 83 47 84 49 85 48 86
REMARK H PARENT 2 23 65 54 43 65
REMARK Flexibility Score: inf
ROOT
ATOM      1  C   UNL     1     -11.247   1.164   4.546  1.00  0.00     0.275 C 
ENDROOT
BRANCH   1   2
ATOM      2  C   UNL     1     -10.672  -0.223   4.274  1.00  0.00     0.275 C 
BRANCH   2   3
ATOM      3  O   UNL     1      -9.330  -0.113   3.763  1.00  0.00    -0.458 OA
BRANCH   3   4
ATOM      4  C   UNL     1      -9.163  -0.335   2.440  1.00  0.00     0.343 C 
ATOM      5  O   UNL     1     -10.045  -0.615   1.639  1.00  0.00    -0.246 OA
BRANCH   4   6
ATOM      6  C   UNL     1      -7.767  -0.103   2.038  1.00  0.00     0.124 A 
ATOM      7  C   UNL     1      -2.815  -0.168   0.992  1.00  0.00     0.167 A 
ATOM      8  N   UNL     1      -3.888   0.406   0.397  1.00  0.00    -0.209 NA
ATOM      9  C   UNL     1      -2.937  -0.838   2.216  1.00  0.00     0.166 A 
ATOM     10  C   UNL     1      -5.115   0.266   0.969  1.00  0.00     0.151 A 
ATOM     11  C   UNL     1      -4.161  -0.928   2.845  1.00  0.00     0.059 A 
ATOM     12  F   UNL     1      -1.865  -1.386   2.811  1.00  0.00    -0.203 F 
ATOM     13  C   UNL     1      -5.267  -0.382   2.206  1.00  0.00     0.069 A 
ATOM     14  N   UNL     1      -6.283   0.756   0.298  1.00  0.00    -0.297 N 
ATOM     15  C   UNL     1      -6.600  -0.543   2.823  1.00  0.00     0.205 A 
ATOM     16  C   UNL     1      -7.524   0.491   0.861  1.00  0.00     0.113 A 
ATOM     17  O   UNL     1      -6.707  -1.091   3.913  1.00  0.00    -0.288 OA
BRANCH   7  18
ATOM     18  N   UNL     1      -1.591  -0.091   0.376  1.00  0.00    -0.343 N 
ATOM     19  C   UNL     1       2.580   0.176  -0.027  1.00  0.00     0.332 C 
ATOM     20  N   UNL     1       1.176   0.048  -0.417  1.00  0.00    -0.334 N 
ATOM     21  C   UNL     1       0.409   1.250   0.003  1.00  0.00     0.283 C 
ATOM     22  C   UNL     1       0.597  -1.169   0.202  1.00  0.00     0.283 C 
ATOM     23  H   UNL     1       1.120  -0.031  -1.432  1.00  0.00     0.347 HD
ATOM     24  C   UNL     1      -1.121   1.137  -0.249  1.00  0.00     0.179 C 
ATOM     25  C   UNL     1      -0.916  -1.313  -0.049  1.00  0.00     0.179 C 
ENDBRANCH   7  18
BRANCH  14  26
ATOM     26  C   UNL     1      -6.221   1.441  -0.954  1.00  0.00     0.083 A 
ATOM     27  C   UNL     1      -5.747   0.789  -2.104  1.00  0.00     0.033 A 
ATOM     28  C   UNL     1      -6.668   2.770  -1.083  1.00  0.00     0.150 A 
ATOM     29  C   UNL     1      -5.732   1.446  -3.337  1.00  0.00     0.041 A 
ATOM     30  C   UNL     1      -6.639   3.436  -2.304  1.00  0.00     0.080 A 
ATOM     31  F   UNL     1      -7.132   3.428  -0.009  1.00  0.00    -0.205 F 
ATOM     32  C   UNL     1      -6.173   2.763  -3.423  1.00  0.00     0.126 A 
ATOM     33  F   UNL     1      -6.147   3.389  -4.606  1.00  0.00    -0.207 F 
ENDBRANCH  14  26
ENDBRANCH   4   6
ENDBRANCH   3   4
ENDBRANCH   2   3
ENDBRANCH   1   2
BRANCH   1  34
ATOM     34  O   UNL     1     -11.455   1.859   3.303  1.00  0.00    -0.458 OA
BRANCH  34  35
ATOM     35  C   UNL     1     -10.585   2.860   3.041  1.00  0.00     0.338 C 
ATOM     36  O   UNL     1      -9.681   3.270   3.744  1.00  0.00    -0.246 OA
BRANCH  35  37
ATOM     37  C   UNL     1     -10.857   3.401   1.702  1.00  0.00     0.060 A 
ATOM     38  C   UNL     1     -10.568   2.625   0.582  1.00  0.00     0.016 A 
ATOM     39  C   UNL     1     -11.265   4.726   1.557  1.00  0.00     0.016 A 
ATOM     40  C   UNL     1     -10.584   3.196  -0.686  1.00  0.00     0.010 A 
ATOM     41  C   UNL     1     -11.371   5.272   0.275  1.00  0.00     0.010 A 
ATOM     42  C   UNL     1     -10.991   4.526  -0.856  1.00  0.00    -0.014 A 
BRANCH  42  43
ATOM     43  C   UNL     1     -10.975   5.153  -2.202  1.00  0.00     0.031 A 
ATOM     44  C   UNL     1     -10.075   6.327  -2.473  1.00  0.00     0.074 A 
ATOM     45  C   UNL     1     -11.739   4.659  -3.196  1.00  0.00     0.049 A 
ATOM     46  N   UNL     1     -10.040   7.115  -3.517  1.00  0.00    -0.248 NA
ATOM     47  C   UNL     1      -9.081   6.659  -1.437  1.00  0.00     0.031 C 
ATOM     48  C   UNL     1     -12.597   3.476  -3.103  1.00  0.00     0.029 A 
ATOM     49  N   UNL     1     -11.903   5.087  -4.490  1.00  0.00    -0.354 N 
ATOM     50  C   UNL     1      -9.059   8.059  -3.246  1.00  0.00     0.074 A 
ATOM     51  C   UNL     1      -8.514   7.746  -1.943  1.00  0.00     0.031 C 
ATOM     52  C   UNL     1     -13.157   3.245  -4.301  1.00  0.00     0.029 A 
ATOM     53  C   UNL     1     -12.766   4.308  -5.221  1.00  0.00     0.049 A 
ATOM     54  H   UNL     1     -11.445   5.877  -4.859  1.00  0.00     0.167 HD
ATOM     55  C   UNL     1      -8.653   9.097  -4.014  1.00  0.00     0.031 A 
ATOM     56  C   UNL     1     -13.223   4.449  -6.479  1.00  0.00     0.031 A 
ATOM     57  C   UNL     1      -9.172   9.394  -5.321  1.00  0.00     0.049 A 
ATOM     58  C   UNL     1     -12.809   5.643  -7.287  1.00  0.00     0.074 A 
ATOM     59  C   UNL     1      -8.853  10.453  -6.154  1.00  0.00     0.029 A 
ATOM     60  N   UNL     1     -10.096   8.616  -5.996  1.00  0.00    -0.354 N 
ATOM     61  N   UNL     1     -11.972   6.599  -6.969  1.00  0.00    -0.248 NA
ATOM     62  C   UNL     1     -13.423   5.793  -8.614  1.00  0.00     0.031 C 
ATOM     63  C   UNL     1      -9.601  10.325  -7.329  1.00  0.00     0.029 A 
ATOM     64  C   UNL     1     -10.357   9.168  -7.237  1.00  0.00     0.049 A 
ATOM     65  H   UNL     1     -10.507   7.792  -5.646  1.00  0.00     0.167 HD
ATOM     66  C   UNL     1     -11.953   7.461  -8.056  1.00  0.00     0.074 A 
ATOM     67  C   UNL     1     -12.854   6.910  -9.048  1.00  0.00     0.031 C 
ATOM     68  C   UNL     1     -11.253   8.609  -8.213  1.00  0.00     0.031 A 
BRANCH  55  69
ATOM     69  C   UNL     1      -7.610  10.015  -3.451  1.00  0.00    -0.014 A 
ATOM     70  C   UNL     1      -6.252   9.668  -3.474  1.00  0.00     0.009 A 
ATOM     71  C   UNL     1      -7.987  11.276  -2.962  1.00  0.00     0.009 A 
ATOM     72  C   UNL     1      -5.290  10.565  -3.005  1.00  0.00     0.001 A 
ATOM     73  C   UNL     1      -7.021  12.177  -2.511  1.00  0.00     0.001 A 
ATOM     74  C   UNL     1      -5.674  11.819  -2.531  1.00  0.00     0.000 A 
ENDBRANCH  55  69
BRANCH  56  75
ATOM     75  C   UNL     1     -14.155   3.438  -7.037  1.00  0.00    -0.014 A 
ATOM     76  C   UNL     1     -13.701   2.504  -7.979  1.00  0.00     0.009 A 
ATOM     77  C   UNL     1     -15.488   3.377  -6.602  1.00  0.00     0.009 A 
ATOM     78  C   UNL     1     -14.566   1.528  -8.477  1.00  0.00     0.001 A 
ATOM     79  C   UNL     1     -16.345   2.387  -7.087  1.00  0.00     0.001 A 
ATOM     80  C   UNL     1     -15.884   1.466  -8.025  1.00  0.00     0.000 A 
ENDBRANCH  56  75
BRANCH  68  81
ATOM     81  C   UNL     1     -11.407   9.344  -9.509  1.00  0.00    -0.014 A 
ATOM     82  C   UNL     1     -12.510  10.180  -9.734  1.00  0.00     0.009 A 
ATOM     83  C   UNL     1     -10.394   9.266 -10.477  1.00  0.00     0.009 A 
ATOM     84  C   UNL     1     -12.599  10.922 -10.914  1.00  0.00     0.001 A 
ATOM     85  C   UNL     1     -10.479  10.020 -11.648  1.00  0.00     0.001 A 
ATOM     86  C   UNL     1     -11.582  10.845 -11.866  1.00  0.00     0.000 A 
ENDBRANCH  68  81
ENDBRANCH  42  43
ENDBRANCH  35  37
ENDBRANCH  34  35
ENDBRANCH   1  34
TORSDOF 13
