REMARK SMILES [NH3+][C@@H]1C(=O)N2C(C(=O)OCCOC(=O)c3ccc(-c4c5nc(c(-c6ccccc6)c6ccc([nH]6)c(-c6ccccc6)c6nc(c(-c7ccccc7)c7ccc4[nH]7)C=C6)C=C5)cc3)=CCS[C@@H]12
REMARK SMILES IDX 11 1 10 2 9 3 7 4 8 5 6 6 2 7 3 8 66 9 4 10 5 11 65 12 64 13
REMARK SMILES IDX 63 14 1 15 12 19 13 20 14 21 15 22 16 23 62 24 17 25 61 26
REMARK SMILES IDX 18 27 19 28 20 29 55 30 21 31 60 32 54 33 56 34 22 35 59 36
REMARK SMILES IDX 53 37 52 38 23 40 45 41 30 42 44 43 31 44 34 45 43 46 57 47
REMARK SMILES IDX 32 48 33 49 42 51 58 52 35 53 24 54 25 55 29 56 26 57 28 58
REMARK SMILES IDX 27 59 46 60 47 61 51 62 48 63 50 64 49 65 36 66 37 67 41 68
REMARK SMILES IDX 38 69 40 70 39 71
REMARK H PARENT 1 16 1 17 1 18 56 39 34 50
REMARK Flexibility Score: inf
ROOT
ATOM      1  C   UNL     1      -0.561   7.318  -2.695  1.00  0.00     0.275 C 
ENDROOT
BRANCH   1   2
ATOM      2  C   UNL     1      -0.646   6.434  -3.943  1.00  0.00     0.275 C 
BRANCH   2   3
ATOM      3  O   UNL     1      -1.196   5.137  -3.633  1.00  0.00    -0.457 OA
BRANCH   3   4
ATOM      4  C   UNL     1      -0.349   4.070  -3.716  1.00  0.00     0.354 C 
ATOM      5  O   UNL     1       0.828   4.138  -4.027  1.00  0.00    -0.244 OA
BRANCH   4   6
ATOM      6  C   UNL     1      -1.052   2.806  -3.288  1.00  0.00     0.128 C 
ATOM      7  C   UNL     1       0.413   0.033  -1.906  1.00  0.00     0.305 C 
ATOM      8  C   UNL     1       0.931   1.331  -2.636  1.00  0.00     0.289 C 
ATOM      9  C   UNL     1      -0.957   0.770  -1.916  1.00  0.00     0.217 C 
ATOM     10  O   UNL     1       2.012   1.769  -2.941  1.00  0.00    -0.267 OA
ATOM     11  N   UNL     1      -0.343   1.753  -2.796  1.00  0.00    -0.282 N 
ATOM     12  S   UNL     1      -2.282  -0.044  -2.840  1.00  0.00    -0.126 SA
ATOM     13  C   UNL     1      -3.232   1.491  -3.063  1.00  0.00     0.101 C 
ATOM     14  C   UNL     1      -2.394   2.699  -3.390  1.00  0.00     0.018 C 
BRANCH   7  15
ATOM     15  N   UNL     1       0.881  -0.128  -0.508  1.00  0.00    -0.345 N 
ATOM     16  H   UNL     1       1.779  -0.611  -0.504  1.00  0.00     0.345 HD
ATOM     17  H   UNL     1       0.198  -0.673   0.018  1.00  0.00     0.345 HD
ATOM     18  H   UNL     1       0.987   0.791  -0.078  1.00  0.00     0.345 HD
ENDBRANCH   7  15
ENDBRANCH   4   6
ENDBRANCH   3   4
ENDBRANCH   2   3
ENDBRANCH   1   2
BRANCH   1  19
ATOM     19  O   UNL     1       0.420   6.813  -1.767  1.00  0.00    -0.458 OA
BRANCH  19  20
ATOM     20  C   UNL     1      -0.082   6.082  -0.746  1.00  0.00     0.338 C 
ATOM     21  O   UNL     1      -1.256   5.877  -0.487  1.00  0.00    -0.246 OA
BRANCH  20  22
ATOM     22  C   UNL     1       1.008   5.342  -0.091  1.00  0.00     0.060 A 
ATOM     23  C   UNL     1       1.049   3.979  -0.353  1.00  0.00     0.016 A 
ATOM     24  C   UNL     1       1.906   5.907   0.813  1.00  0.00     0.016 A 
ATOM     25  C   UNL     1       1.984   3.168   0.271  1.00  0.00     0.010 A 
ATOM     26  C   UNL     1       2.856   5.081   1.446  1.00  0.00     0.010 A 
ATOM     27  C   UNL     1       2.898   3.700   1.181  1.00  0.00    -0.014 A 
BRANCH  27  28
ATOM     28  C   UNL     1       3.810   2.753   1.877  1.00  0.00     0.031 A 
ATOM     29  C   UNL     1       3.593   2.429   3.329  1.00  0.00     0.074 A 
ATOM     30  C   UNL     1       4.743   2.070   1.183  1.00  0.00     0.049 A 
ATOM     31  N   UNL     1       4.271   1.626   4.112  1.00  0.00    -0.248 NA
ATOM     32  C   UNL     1       2.449   3.082   3.984  1.00  0.00     0.031 C 
ATOM     33  C   UNL     1       4.982   2.186  -0.257  1.00  0.00     0.029 A 
ATOM     34  N   UNL     1       5.646   1.119   1.594  1.00  0.00    -0.354 N 
ATOM     35  C   UNL     1       3.654   1.696   5.354  1.00  0.00     0.074 A 
ATOM     36  C   UNL     1       2.556   2.631   5.225  1.00  0.00     0.031 C 
ATOM     37  C   UNL     1       5.955   1.331  -0.610  1.00  0.00     0.029 A 
ATOM     38  C   UNL     1       6.453   0.654   0.584  1.00  0.00     0.049 A 
ATOM     39  H   UNL     1       5.709   0.802   2.524  1.00  0.00     0.167 HD
ATOM     40  C   UNL     1       3.972   1.044   6.500  1.00  0.00     0.031 A 
ATOM     41  C   UNL     1       7.497  -0.197   0.616  1.00  0.00     0.031 A 
ATOM     42  C   UNL     1       5.066   0.117   6.634  1.00  0.00     0.049 A 
ATOM     43  C   UNL     1       7.910  -0.808   1.927  1.00  0.00     0.074 A 
ATOM     44  C   UNL     1       5.476  -0.576   7.761  1.00  0.00     0.029 A 
ATOM     45  N   UNL     1       5.930  -0.243   5.611  1.00  0.00    -0.354 N 
ATOM     46  N   UNL     1       7.341  -0.708   3.104  1.00  0.00    -0.248 NA
ATOM     47  C   UNL     1       9.113  -1.653   1.911  1.00  0.00     0.031 C 
ATOM     48  C   UNL     1       6.628  -1.301   7.436  1.00  0.00     0.029 A 
ATOM     49  C   UNL     1       6.891  -1.121   6.089  1.00  0.00     0.049 A 
ATOM     50  H   UNL     1       5.870   0.077   4.682  1.00  0.00     0.167 HD
ATOM     51  C   UNL     1       8.102  -1.492   3.962  1.00  0.00     0.074 A 
ATOM     52  C   UNL     1       9.155  -2.085   3.163  1.00  0.00     0.031 C 
ATOM     53  C   UNL     1       7.944  -1.700   5.293  1.00  0.00     0.031 A 
BRANCH  40  54
ATOM     54  C   UNL     1       3.160   1.371   7.724  1.00  0.00    -0.014 A 
ATOM     55  C   UNL     1       1.822   0.966   7.857  1.00  0.00     0.009 A 
ATOM     56  C   UNL     1       3.757   2.089   8.773  1.00  0.00     0.009 A 
ATOM     57  C   UNL     1       1.089   1.310   8.996  1.00  0.00     0.001 A 
ATOM     58  C   UNL     1       3.033   2.402   9.924  1.00  0.00     0.001 A 
ATOM     59  C   UNL     1       1.696   2.024  10.029  1.00  0.00     0.000 A 
ENDBRANCH  40  54
BRANCH  41  60
ATOM     60  C   UNL     1       8.273  -0.480  -0.623  1.00  0.00    -0.014 A 
ATOM     61  C   UNL     1       8.303  -1.767  -1.181  1.00  0.00     0.009 A 
ATOM     62  C   UNL     1       9.023   0.538  -1.235  1.00  0.00     0.009 A 
ATOM     63  C   UNL     1       9.088  -2.033  -2.306  1.00  0.00     0.001 A 
ATOM     64  C   UNL     1       9.778   0.278  -2.380  1.00  0.00     0.001 A 
ATOM     65  C   UNL     1       9.819  -1.010  -2.908  1.00  0.00     0.000 A 
ENDBRANCH  41  60
BRANCH  53  66
ATOM     66  C   UNL     1       8.914  -2.638   5.961  1.00  0.00    -0.014 A 
ATOM     67  C   UNL     1      10.268  -2.302   6.124  1.00  0.00     0.009 A 
ATOM     68  C   UNL     1       8.463  -3.877   6.444  1.00  0.00     0.009 A 
ATOM     69  C   UNL     1      11.157  -3.207   6.711  1.00  0.00     0.001 A 
ATOM     70  C   UNL     1       9.346  -4.763   7.064  1.00  0.00     0.001 A 
ATOM     71  C   UNL     1      10.694  -4.434   7.184  1.00  0.00     0.000 A 
ENDBRANCH  53  66
ENDBRANCH  27  28
ENDBRANCH  20  22
ENDBRANCH  19  20
ENDBRANCH   1  19
TORSDOF 12
