REMARK SMILES COc1ccc(-c2cc(C[C@H]3CCCC3=O)ccc2[C@@H](C)C(=O)OCCOC(=O)c2ccc(-c3c4nc(c(-c5ccccc5)c5ccc([nH]5)c(-c5ccccc5)c5nc(c(-c6ccccc6)c6ccc3[nH]6)C=C5)C=C4)cc2)cc1
REMARK SMILES IDX 25 1 24 2 22 3 23 4 20 5 21 6 19 7 7 8 8 9 9 10 18 11 17 12
REMARK SMILES IDX 6 13 3 14 4 15 79 16 5 17 78 18 2 19 1 20 10 21 11 22 12 23
REMARK SMILES IDX 15 24 13 25 14 26 16 27 26 28 27 29 28 30 29 31 30 32 31 33
REMARK SMILES IDX 77 34 32 35 76 36 33 37 34 38 35 39 70 40 36 41 75 42 69 43
REMARK SMILES IDX 71 44 37 45 74 46 68 47 67 48 38 50 60 51 45 52 59 53 46 54
REMARK SMILES IDX 49 55 58 56 72 57 47 58 48 59 57 61 73 62 50 63 39 64 40 65
REMARK SMILES IDX 44 66 41 67 43 68 42 69 61 70 62 71 66 72 63 73 65 74 64 75
REMARK SMILES IDX 51 76 52 77 56 78 53 79 55 80 54 81
REMARK H PARENT 71 49 49 60
REMARK Flexibility Score: inf
ROOT
ATOM      1  C   UNL     1       7.330   4.333   6.137  1.00  0.00     0.274 C 
ENDROOT
BRANCH   1   2
ATOM      2  O   UNL     1       5.915   4.520   5.942  1.00  0.00    -0.462 OA
BRANCH   2   3
ATOM      3  C   UNL     1       5.480   4.679   4.667  1.00  0.00     0.313 C 
ATOM      4  O   UNL     1       6.227   4.737   3.692  1.00  0.00    -0.252 OA
BRANCH   3   5
ATOM      5  C   UNL     1       3.966   4.824   4.527  1.00  0.00     0.127 C 
ATOM      6  C   UNL     1       3.639   6.276   4.172  1.00  0.00     0.025 C 
BRANCH   5   7
ATOM      7  C   UNL     1       3.108   4.332   5.692  1.00  0.00    -0.026 A 
ATOM      8  C   UNL     1       2.122   3.329   5.531  1.00  0.00    -0.014 A 
ATOM      9  C   UNL     1       1.369   2.926   6.651  1.00  0.00     0.012 A 
ATOM     10  C   UNL     1       1.478   3.571   7.886  1.00  0.00    -0.047 A 
ATOM     11  C   UNL     1       3.251   4.932   6.960  1.00  0.00     0.005 A 
ATOM     12  C   UNL     1       2.445   4.564   8.038  1.00  0.00     0.004 A 
BRANCH   8  13
ATOM     13  C   UNL     1       1.715   2.764   4.236  1.00  0.00    -0.018 A 
ATOM     14  C   UNL     1       0.762   1.641   1.824  1.00  0.00     0.118 A 
ATOM     15  C   UNL     1       0.322   2.896   2.241  1.00  0.00     0.047 A 
ATOM     16  C   UNL     1       1.656   0.936   2.628  1.00  0.00     0.047 A 
ATOM     17  C   UNL     1       0.798   3.456   3.430  1.00  0.00     0.012 A 
ATOM     18  C   UNL     1       2.122   1.490   3.829  1.00  0.00     0.012 A 
BRANCH  14  19
ATOM     19  O   UNL     1       0.231   1.207   0.642  1.00  0.00    -0.497 OA
ATOM     20  C   UNL     1       0.856   0.082   0.033  1.00  0.00     0.278 C 
ENDBRANCH  14  19
ENDBRANCH   8  13
BRANCH  10  21
ATOM     21  C   UNL     1       0.503   3.266   8.995  1.00  0.00     0.047 C 
BRANCH  21  22
ATOM     22  C   UNL     1      -0.923   3.800   8.783  1.00  0.00     0.060 C 
ATOM     23  C   UNL     1      -1.061   5.256   8.319  1.00  0.00     0.012 C 
ATOM     24  C   UNL     1      -1.668   3.054   7.698  1.00  0.00     0.136 C 
ATOM     25  C   UNL     1      -1.279   5.210   6.810  1.00  0.00     0.009 C 
ATOM     26  C   UNL     1      -2.085   3.945   6.558  1.00  0.00     0.076 C 
ATOM     27  O   UNL     1      -1.929   1.857   7.751  1.00  0.00    -0.299 OA
ENDBRANCH  21  22
ENDBRANCH  10  21
ENDBRANCH   5   7
ENDBRANCH   3   5
ENDBRANCH   2   3
ENDBRANCH   1   2
BRANCH   1  28
ATOM     28  C   UNL     1       7.639   2.866   6.420  1.00  0.00     0.275 C 
BRANCH  28  29
ATOM     29  O   UNL     1       7.348   2.070   5.259  1.00  0.00    -0.458 OA
BRANCH  29  30
ATOM     30  C   UNL     1       6.208   1.348   5.327  1.00  0.00     0.338 C 
ATOM     31  O   UNL     1       5.437   1.239   6.261  1.00  0.00    -0.246 OA
BRANCH  30  32
ATOM     32  C   UNL     1       5.998   0.671   4.043  1.00  0.00     0.060 A 
ATOM     33  C   UNL     1       5.412   1.368   2.988  1.00  0.00     0.016 A 
ATOM     34  C   UNL     1       6.264  -0.693   3.939  1.00  0.00     0.016 A 
ATOM     35  C   UNL     1       5.029   0.684   1.838  1.00  0.00     0.010 A 
ATOM     36  C   UNL     1       5.936  -1.363   2.759  1.00  0.00     0.010 A 
ATOM     37  C   UNL     1       5.286  -0.689   1.710  1.00  0.00    -0.014 A 
BRANCH  37  38
ATOM     38  C   UNL     1       4.860  -1.437   0.501  1.00  0.00     0.031 A 
ATOM     39  C   UNL     1       3.881  -2.573   0.617  1.00  0.00     0.074 A 
ATOM     40  C   UNL     1       5.374  -1.121  -0.703  1.00  0.00     0.049 A 
ATOM     41  N   UNL     1       3.531  -3.457  -0.282  1.00  0.00    -0.248 NA
ATOM     42  C   UNL     1       3.202  -2.734   1.913  1.00  0.00     0.031 C 
ATOM     43  C   UNL     1       6.292  -0.012  -0.970  1.00  0.00     0.029 A 
ATOM     44  N   UNL     1       5.210  -1.721  -1.926  1.00  0.00    -0.354 N 
ATOM     45  C   UNL     1       2.633  -4.307   0.351  1.00  0.00     0.074 A 
ATOM     46  C   UNL     1       2.472  -3.821   1.704  1.00  0.00     0.031 C 
ATOM     47  C   UNL     1       6.611  -0.012  -2.273  1.00  0.00     0.029 A 
ATOM     48  C   UNL     1       5.986  -1.164  -2.912  1.00  0.00     0.049 A 
ATOM     49  H   UNL     1       4.597  -2.476  -2.081  1.00  0.00     0.167 HD
ATOM     50  C   UNL     1       2.014  -5.404  -0.146  1.00  0.00     0.031 A 
ATOM     51  C   UNL     1       6.223  -1.565  -4.175  1.00  0.00     0.031 A 
ATOM     52  C   UNL     1       2.175  -5.890  -1.490  1.00  0.00     0.049 A 
ATOM     53  C   UNL     1       5.582  -2.821  -4.683  1.00  0.00     0.074 A 
ATOM     54  C   UNL     1       1.579  -6.987  -2.087  1.00  0.00     0.029 A 
ATOM     55  N   UNL     1       2.997  -5.312  -2.443  1.00  0.00    -0.354 N 
ATOM     56  N   UNL     1       4.760  -3.633  -4.065  1.00  0.00    -0.248 NA
ATOM     57  C   UNL     1       5.917  -3.227  -6.055  1.00  0.00     0.031 C 
ATOM     58  C   UNL     1       2.074  -7.097  -3.391  1.00  0.00     0.029 A 
ATOM     59  C   UNL     1       2.943  -6.043  -3.618  1.00  0.00     0.049 A 
ATOM     60  H   UNL     1       3.539  -4.502  -2.305  1.00  0.00     0.167 HD
ATOM     61  C   UNL     1       4.473  -4.642  -4.974  1.00  0.00     0.074 A 
ATOM     62  C   UNL     1       5.198  -4.333  -6.190  1.00  0.00     0.031 C 
ATOM     63  C   UNL     1       3.679  -5.728  -4.813  1.00  0.00     0.031 A 
BRANCH  50  64
ATOM     64  C   UNL     1       1.147  -6.192   0.794  1.00  0.00    -0.014 A 
ATOM     65  C   UNL     1      -0.130  -5.745   1.163  1.00  0.00     0.009 A 
ATOM     66  C   UNL     1       1.611  -7.421   1.291  1.00  0.00     0.009 A 
ATOM     67  C   UNL     1      -0.916  -6.504   2.035  1.00  0.00     0.001 A 
ATOM     68  C   UNL     1       0.815  -8.185   2.145  1.00  0.00     0.001 A 
ATOM     69  C   UNL     1      -0.445  -7.723   2.522  1.00  0.00     0.000 A 
ENDBRANCH  50  64
BRANCH  51  70
ATOM     70  C   UNL     1       7.173  -0.793  -5.014  1.00  0.00    -0.014 A 
ATOM     71  C   UNL     1       6.708   0.020  -6.056  1.00  0.00     0.009 A 
ATOM     72  C   UNL     1       8.550  -0.834  -4.742  1.00  0.00     0.009 A 
ATOM     73  C   UNL     1       7.606   0.778  -6.811  1.00  0.00     0.001 A 
ATOM     74  C   UNL     1       9.442  -0.057  -5.482  1.00  0.00     0.001 A 
ATOM     75  C   UNL     1       8.969   0.745  -6.519  1.00  0.00     0.000 A 
ENDBRANCH  51  70
BRANCH  63  76
ATOM     76  C   UNL     1       3.536  -6.649  -5.988  1.00  0.00    -0.014 A 
ATOM     77  C   UNL     1       4.548  -7.563  -6.317  1.00  0.00     0.009 A 
ATOM     78  C   UNL     1       2.357  -6.629  -6.748  1.00  0.00     0.009 A 
ATOM     79  C   UNL     1       4.388  -8.427  -7.402  1.00  0.00     0.001 A 
ATOM     80  C   UNL     1       2.193  -7.507  -7.820  1.00  0.00     0.001 A 
ATOM     81  C   UNL     1       3.211  -8.401  -8.149  1.00  0.00     0.000 A 
ENDBRANCH  63  76
ENDBRANCH  37  38
ENDBRANCH  30  32
ENDBRANCH  29  30
ENDBRANCH  28  29
ENDBRANCH   1  28
TORSDOF 16
