REMARK SMILES O=C(OCCOC(=O)c1cccc(N2NC(=O)[C@H]3CC=CC[C@H]3C2=O)c1)c1ccc(-c2c3nc(c(-c4ccccc4)c4ccc([nH]4)c(-c4ccccc4)c4nc(c(-c5ccccc5)c5ccc2[nH]5)C=C4)C=C3)cc1
REMARK SMILES IDX 4 1 3 2 2 3 1 4 27 5 28 6 74 7 29 8 73 9 30 10 31 11 32 12
REMARK SMILES IDX 67 13 33 14 72 15 66 16 68 17 34 18 71 19 65 20 64 21 35 23
REMARK SMILES IDX 57 24 42 25 56 26 43 27 46 28 55 29 69 30 44 31 45 32 54 34
REMARK SMILES IDX 70 35 47 36 36 37 37 38 41 39 38 40 40 41 39 42 58 43 59 44
REMARK SMILES IDX 63 45 60 46 62 47 61 48 48 49 49 50 53 51 50 52 52 53 51 54
REMARK SMILES IDX 5 55 6 56 7 57 8 58 9 59 10 60 26 61 11 62 13 63 12 64 14 65
REMARK SMILES IDX 15 66 24 67 16 68 23 70 25 71 17 72 18 73 22 74 19 75 21 76
REMARK SMILES IDX 20 77
REMARK H PARENT 68 22 46 33 15 69
REMARK Flexibility Score: inf
ROOT
ATOM      1  C   UNL     1       4.118  -0.862  -1.405  1.00  0.00     0.275 C 
ENDROOT
BRANCH   1   2
ATOM      2  O   UNL     1       2.982  -0.920  -0.524  1.00  0.00    -0.458 OA
BRANCH   2   3
ATOM      3  C   UNL     1       2.856  -0.426   0.731  1.00  0.00     0.338 C 
ATOM      4  O   UNL     1       1.966  -0.862   1.460  1.00  0.00    -0.246 OA
BRANCH   3   5
ATOM      5  C   UNL     1       3.629   0.756   1.219  1.00  0.00     0.060 A 
ATOM      6  C   UNL     1       4.979   1.008   0.973  1.00  0.00     0.016 A 
ATOM      7  C   UNL     1       2.928   1.658   2.041  1.00  0.00     0.016 A 
ATOM      8  C   UNL     1       5.600   2.152   1.482  1.00  0.00     0.010 A 
ATOM      9  C   UNL     1       3.537   2.812   2.541  1.00  0.00     0.010 A 
ATOM     10  C   UNL     1       4.888   3.052   2.279  1.00  0.00    -0.014 A 
BRANCH  10  11
ATOM     11  C   UNL     1       5.621   4.116   2.997  1.00  0.00     0.031 A 
ATOM     12  C   UNL     1       6.009   3.866   4.428  1.00  0.00     0.074 A 
ATOM     13  C   UNL     1       6.010   5.238   2.366  1.00  0.00     0.049 A 
ATOM     14  N   UNL     1       6.765   4.583   5.218  1.00  0.00    -0.248 NA
ATOM     15  C   UNL     1       5.510   2.621   5.039  1.00  0.00     0.031 C 
ATOM     16  C   UNL     1       5.758   5.562   0.961  1.00  0.00     0.029 A 
ATOM     17  N   UNL     1       6.711   6.319   2.835  1.00  0.00    -0.354 N 
ATOM     18  C   UNL     1       6.868   3.855   6.396  1.00  0.00     0.074 A 
ATOM     19  C   UNL     1       6.046   2.676   6.247  1.00  0.00     0.031 C 
ATOM     20  C   UNL     1       6.271   6.776   0.691  1.00  0.00     0.029 A 
ATOM     21  C   UNL     1       6.892   7.306   1.900  1.00  0.00     0.049 A 
ATOM     22  H   UNL     1       7.053   6.380   3.756  1.00  0.00     0.167 HD
ATOM     23  C   UNL     1       7.612   4.124   7.494  1.00  0.00     0.031 A 
ATOM     24  C   UNL     1       7.493   8.503   2.020  1.00  0.00     0.031 A 
ATOM     25  C   UNL     1       8.385   5.322   7.661  1.00  0.00     0.049 A 
ATOM     26  C   UNL     1       8.143   8.869   3.323  1.00  0.00     0.074 A 
ATOM     27  C   UNL     1       9.187   5.697   8.723  1.00  0.00     0.029 A 
ATOM     28  N   UNL     1       8.425   6.358   6.740  1.00  0.00    -0.354 N 
ATOM     29  N   UNL     1       8.255   8.161   4.419  1.00  0.00    -0.248 NA
ATOM     30  C   UNL     1       8.775  10.194   3.386  1.00  0.00     0.031 C 
ATOM     31  C   UNL     1       9.675   6.984   8.465  1.00  0.00     0.029 A 
ATOM     32  C   UNL     1       9.216   7.385   7.220  1.00  0.00     0.049 A 
ATOM     33  H   UNL     1       7.959   6.361   5.872  1.00  0.00     0.167 HD
ATOM     34  C   UNL     1       9.021   8.928   5.284  1.00  0.00     0.074 A 
ATOM     35  C   UNL     1       9.316  10.169   4.596  1.00  0.00     0.031 C 
ATOM     36  C   UNL     1       9.476   8.616   6.522  1.00  0.00     0.031 A 
BRANCH  23  37
ATOM     37  C   UNL     1       7.597   3.098   8.589  1.00  0.00    -0.014 A 
ATOM     38  C   UNL     1       8.250   1.864   8.429  1.00  0.00     0.009 A 
ATOM     39  C   UNL     1       6.906   3.352   9.782  1.00  0.00     0.009 A 
ATOM     40  C   UNL     1       8.175   0.889   9.425  1.00  0.00     0.001 A 
ATOM     41  C   UNL     1       6.852   2.384  10.787  1.00  0.00     0.001 A 
ATOM     42  C   UNL     1       7.477   1.150  10.603  1.00  0.00     0.000 A 
ENDBRANCH  23  37
BRANCH  24  43
ATOM     43  C   UNL     1       7.537   9.451   0.883  1.00  0.00    -0.014 A 
ATOM     44  C   UNL     1       8.646   9.492   0.027  1.00  0.00     0.009 A 
ATOM     45  C   UNL     1       6.496  10.369   0.695  1.00  0.00     0.009 A 
ATOM     46  C   UNL     1       8.709  10.438  -0.999  1.00  0.00     0.001 A 
ATOM     47  C   UNL     1       6.557  11.306  -0.339  1.00  0.00     0.001 A 
ATOM     48  C   UNL     1       7.663  11.341  -1.184  1.00  0.00     0.000 A 
ENDBRANCH  24  43
BRANCH  36  49
ATOM     49  C   UNL     1      10.394   9.610   7.169  1.00  0.00    -0.014 A 
ATOM     50  C   UNL     1       9.913  10.807   7.717  1.00  0.00     0.009 A 
ATOM     51  C   UNL     1      11.768   9.329   7.230  1.00  0.00     0.009 A 
ATOM     52  C   UNL     1      10.800  11.723   8.285  1.00  0.00     0.001 A 
ATOM     53  C   UNL     1      12.648  10.234   7.821  1.00  0.00     0.001 A 
ATOM     54  C   UNL     1      12.164  11.434   8.339  1.00  0.00     0.000 A 
ENDBRANCH  36  49
ENDBRANCH  10  11
ENDBRANCH   3   5
ENDBRANCH   2   3
ENDBRANCH   1   2
BRANCH   1  55
ATOM     55  C   UNL     1       4.101   0.314  -2.385  1.00  0.00     0.275 C 
BRANCH  55  56
ATOM     56  O   UNL     1       3.620   1.531  -1.793  1.00  0.00    -0.458 OA
BRANCH  56  57
ATOM     57  C   UNL     1       2.313   1.800  -2.042  1.00  0.00     0.338 C 
ATOM     58  O   UNL     1       1.563   1.188  -2.783  1.00  0.00    -0.246 OA
BRANCH  57  59
ATOM     59  C   UNL     1       1.849   2.863  -1.132  1.00  0.00     0.062 A 
ATOM     60  C   UNL     1       0.760   2.558  -0.307  1.00  0.00     0.016 A 
ATOM     61  C   UNL     1       2.463   4.121  -1.074  1.00  0.00     0.044 A 
ATOM     62  C   UNL     1       0.331   3.481   0.639  1.00  0.00     0.003 A 
ATOM     63  C   UNL     1       2.016   5.061  -0.133  1.00  0.00     0.067 A 
ATOM     64  C   UNL     1       0.970   4.715   0.739  1.00  0.00     0.028 A 
BRANCH  63  65
ATOM     65  N   UNL     1       2.519   6.396  -0.121  1.00  0.00    -0.221 N 
ATOM     66  N   UNL     1       2.570   7.043  -1.360  1.00  0.00    -0.260 N 
ATOM     67  C   UNL     1       2.668   7.098   1.078  1.00  0.00     0.249 C 
ATOM     68  C   UNL     1       2.668   8.395  -1.523  1.00  0.00     0.243 C 
ATOM     69  H   UNL     1       2.533   6.485  -2.171  1.00  0.00     0.192 HD
ATOM     70  C   UNL     1       2.585   8.606   0.989  1.00  0.00     0.097 C 
ATOM     71  O   UNL     1       2.721   6.561   2.188  1.00  0.00    -0.272 OA
ATOM     72  O   UNL     1       2.512   8.884  -2.639  1.00  0.00    -0.273 OA
ATOM     73  C   UNL     1       3.116   9.184  -0.317  1.00  0.00     0.097 C 
ATOM     74  C   UNL     1       1.116   8.959   1.278  1.00  0.00     0.041 C 
ATOM     75  C   UNL     1       2.810  10.687  -0.457  1.00  0.00     0.041 C 
ATOM     76  C   UNL     1       0.714  10.332   0.855  1.00  0.00    -0.030 C 
ATOM     77  C   UNL     1       1.476  11.111   0.079  1.00  0.00    -0.030 C 
ENDBRANCH  63  65
ENDBRANCH  57  59
ENDBRANCH  56  57
ENDBRANCH  55  56
ENDBRANCH   1  55
TORSDOF 12
