REMARK SMILES CC[C@H](C(=O)OCCOC(=O)c1ccc(-c2c3nc(c(-c4ccccc4)c4ccc([nH]4)c(-c4ccccc4)c4nc(c(-c5ccccc5)c5ccc2[nH]5)C=C4)C=C3)cc1)N(C)c1cc(C)ccc1[N+](=O)[O-]
REMARK SMILES IDX 7 1 6 2 4 3 5 4 3 5 2 6 1 7 60 8 61 9 62 10 63 11 68 12
REMARK SMILES IDX 64 13 67 14 65 15 66 16 69 17 70 18 71 19 8 20 9 21 10 22
REMARK SMILES IDX 11 23 12 24 13 25 59 26 14 27 58 28 15 29 16 30 17 31 52 32
REMARK SMILES IDX 18 33 57 34 51 35 53 36 19 37 56 38 50 39 49 40 20 42 42 43
REMARK SMILES IDX 27 44 41 45 28 46 31 47 40 48 54 49 29 50 30 51 39 53 55 54
REMARK SMILES IDX 32 55 21 56 22 57 26 58 23 59 25 60 24 61 43 62 44 63 48 64
REMARK SMILES IDX 45 65 47 66 46 67 33 68 34 69 38 70 35 71 37 72 36 73
REMARK H PARENT 53 41 31 52
REMARK Flexibility Score: inf
ROOT
ATOM      1  C   UNL     1      -0.149   1.233   0.428  1.00  0.00     0.274 C 
ENDROOT
BRANCH   1   2
ATOM      2  O   UNL     1       0.305  -0.072   0.020  1.00  0.00    -0.461 OA
BRANCH   2   3
ATOM      3  C   UNL     1       0.267  -0.314  -1.315  1.00  0.00     0.328 C 
ATOM      4  O   UNL     1       0.108   0.566  -2.159  1.00  0.00    -0.250 OA
BRANCH   3   5
ATOM      5  C   UNL     1       0.492  -1.789  -1.696  1.00  0.00     0.192 C 
BRANCH   5   6
ATOM      6  C   UNL     1       0.100  -2.950  -0.770  1.00  0.00     0.034 C 
ATOM      7  C   UNL     1       0.570  -2.837   0.672  1.00  0.00     0.007 C 
ENDBRANCH   5   6
BRANCH   5   8
ATOM      8  N   UNL     1      -0.021  -2.085  -3.085  1.00  0.00    -0.356 N 
ATOM      9  C   UNL     1       1.033  -2.347  -4.081  1.00  0.00     0.145 C 
BRANCH   8  10
ATOM     10  C   UNL     1      -1.351  -2.118  -3.529  1.00  0.00     0.116 A 
ATOM     11  C   UNL     1      -1.659  -2.987  -4.614  1.00  0.00     0.036 A 
ATOM     12  C   UNL     1      -2.475  -1.373  -3.094  1.00  0.00     0.292 A 
ATOM     13  C   UNL     1      -2.918  -3.068  -5.250  1.00  0.00    -0.049 A 
ATOM     14  C   UNL     1      -3.732  -1.405  -3.751  1.00  0.00     0.088 A 
ATOM     15  C   UNL     1      -3.139  -4.057  -6.356  1.00  0.00     0.044 C 
ATOM     16  C   UNL     1      -3.947  -2.240  -4.832  1.00  0.00     0.010 A 
BRANCH  12  17
ATOM     17  N   UNL     1      -2.521  -0.534  -1.917  1.00  0.00     0.064 N 
ATOM     18  O   UNL     1      -2.802   0.664  -2.074  1.00  0.00    -0.258 OA
ATOM     19  O   UNL     1      -2.416  -1.095  -0.817  1.00  0.00    -0.258 OA
ENDBRANCH  12  17
ENDBRANCH   8  10
ENDBRANCH   5   8
ENDBRANCH   3   5
ENDBRANCH   2   3
ENDBRANCH   1   2
BRANCH   1  20
ATOM     20  C   UNL     1       0.979   2.260   0.579  1.00  0.00     0.275 C 
BRANCH  20  21
ATOM     21  O   UNL     1       1.583   2.609  -0.679  1.00  0.00    -0.458 OA
BRANCH  21  22
ATOM     22  C   UNL     1       2.584   1.785  -1.075  1.00  0.00     0.338 C 
ATOM     23  O   UNL     1       3.075   0.867  -0.443  1.00  0.00    -0.246 OA
BRANCH  22  24
ATOM     24  C   UNL     1       2.906   2.034  -2.493  1.00  0.00     0.060 A 
ATOM     25  C   UNL     1       2.984   0.918  -3.336  1.00  0.00     0.016 A 
ATOM     26  C   UNL     1       3.169   3.311  -2.986  1.00  0.00     0.016 A 
ATOM     27  C   UNL     1       3.329   1.066  -4.675  1.00  0.00     0.010 A 
ATOM     28  C   UNL     1       3.539   3.459  -4.325  1.00  0.00     0.010 A 
ATOM     29  C   UNL     1       3.636   2.336  -5.168  1.00  0.00    -0.014 A 
BRANCH  29  30
ATOM     30  C   UNL     1       4.201   2.475  -6.527  1.00  0.00     0.031 A 
ATOM     31  C   UNL     1       5.683   2.660  -6.673  1.00  0.00     0.074 A 
ATOM     32  C   UNL     1       3.409   2.424  -7.612  1.00  0.00     0.049 A 
ATOM     33  N   UNL     1       6.385   2.925  -7.743  1.00  0.00    -0.248 NA
ATOM     34  C   UNL     1       6.481   2.529  -5.442  1.00  0.00     0.031 C 
ATOM     35  C   UNL     1       1.969   2.166  -7.598  1.00  0.00     0.029 A 
ATOM     36  N   UNL     1       3.709   2.599  -8.938  1.00  0.00    -0.354 N 
ATOM     37  C   UNL     1       7.702   3.019  -7.312  1.00  0.00     0.074 A 
ATOM     38  C   UNL     1       7.701   2.796  -5.883  1.00  0.00     0.031 C 
ATOM     39  C   UNL     1       1.507   2.220  -8.859  1.00  0.00     0.029 A 
ATOM     40  C   UNL     1       2.607   2.565  -9.757  1.00  0.00     0.049 A 
ATOM     41  H   UNL     1       4.626   2.736  -9.271  1.00  0.00     0.167 HD
ATOM     42  C   UNL     1       8.811   3.275  -8.044  1.00  0.00     0.031 A 
ATOM     43  C   UNL     1       2.497   2.828 -11.073  1.00  0.00     0.031 A 
ATOM     44  C   UNL     1       8.799   3.511  -9.463  1.00  0.00     0.049 A 
ATOM     45  C   UNL     1       3.730   3.213 -11.848  1.00  0.00     0.074 A 
ATOM     46  C   UNL     1       9.865   3.783 -10.301  1.00  0.00     0.029 A 
ATOM     47  N   UNL     1       7.657   3.512 -10.250  1.00  0.00    -0.354 N 
ATOM     48  N   UNL     1       4.972   3.306 -11.436  1.00  0.00    -0.248 NA
ATOM     49  C   UNL     1       3.545   3.533 -13.271  1.00  0.00     0.031 C 
ATOM     50  C   UNL     1       9.360   4.008 -11.586  1.00  0.00     0.029 A 
ATOM     51  C   UNL     1       7.989   3.807 -11.560  1.00  0.00     0.049 A 
ATOM     52  H   UNL     1       6.746   3.329  -9.925  1.00  0.00     0.167 HD
ATOM     53  C   UNL     1       5.719   3.663 -12.552  1.00  0.00     0.074 A 
ATOM     54  C   UNL     1       4.792   3.758 -13.661  1.00  0.00     0.031 C 
ATOM     55  C   UNL     1       7.052   3.889 -12.652  1.00  0.00     0.031 A 
BRANCH  42  56
ATOM     56  C   UNL     1      10.118   3.370  -7.309  1.00  0.00    -0.014 A 
ATOM     57  C   UNL     1      10.736   2.237  -6.757  1.00  0.00     0.009 A 
ATOM     58  C   UNL     1      10.751   4.617  -7.184  1.00  0.00     0.009 A 
ATOM     59  C   UNL     1      11.942   2.358  -6.063  1.00  0.00     0.001 A 
ATOM     60  C   UNL     1      11.972   4.730  -6.517  1.00  0.00     0.001 A 
ATOM     61  C   UNL     1      12.561   3.602  -5.948  1.00  0.00     0.000 A 
ENDBRANCH  42  56
BRANCH  43  62
ATOM     62  C   UNL     1       1.167   2.781 -11.737  1.00  0.00    -0.014 A 
ATOM     63  C   UNL     1       0.881   1.804 -12.703  1.00  0.00     0.009 A 
ATOM     64  C   UNL     1       0.181   3.730 -11.423  1.00  0.00     0.009 A 
ATOM     65  C   UNL     1      -0.353   1.795 -13.358  1.00  0.00     0.001 A 
ATOM     66  C   UNL     1      -1.064   3.699 -12.056  1.00  0.00     0.001 A 
ATOM     67  C   UNL     1      -1.326   2.739 -13.030  1.00  0.00     0.000 A 
ENDBRANCH  43  62
BRANCH  55  68
ATOM     68  C   UNL     1       7.600   4.210 -14.014  1.00  0.00    -0.014 A 
ATOM     69  C   UNL     1       7.370   5.454 -14.623  1.00  0.00     0.009 A 
ATOM     70  C   UNL     1       8.414   3.272 -14.669  1.00  0.00     0.009 A 
ATOM     71  C   UNL     1       7.923   5.738 -15.873  1.00  0.00     0.001 A 
ATOM     72  C   UNL     1       8.990   3.571 -15.904  1.00  0.00     0.001 A 
ATOM     73  C   UNL     1       8.737   4.801 -16.509  1.00  0.00     0.000 A 
ENDBRANCH  55  68
ENDBRANCH  29  30
ENDBRANCH  22  24
ENDBRANCH  21  22
ENDBRANCH  20  21
ENDBRANCH   1  20
TORSDOF 15
