REMARK SMILES O=C(CNC(=O)OCc1ccccc1)NCC(=O)OCCOC(=O)c1ccc(-c2c3nc(c(-c4ccccc4)c4ccc([nH]4)c(-c4ccccc4)c4nc(c(-c5ccccc5)c5ccc2[nH]5)C=C4)C=C3)cc1
REMARK SMILES IDX 17 1 18 2 16 3 15 4 1 5 2 6 3 8 4 9 5 10 6 12 7 13 8 14 9 15
REMARK SMILES IDX 10 16 14 17 11 18 13 19 12 20 19 21 20 22 21 23 22 24 23 25
REMARK SMILES IDX 24 26 25 27 26 28 72 29 27 30 71 31 28 32 29 33 30 34 65 35
REMARK SMILES IDX 31 36 70 37 64 38 66 39 32 40 69 41 63 42 62 43 33 45 55 46
REMARK SMILES IDX 40 47 54 48 41 49 44 50 53 51 67 52 42 53 43 54 52 56 68 57
REMARK SMILES IDX 45 58 34 59 35 60 39 61 36 62 38 63 37 64 56 65 57 66 61 67
REMARK SMILES IDX 58 68 60 69 59 70 46 71 47 72 51 73 48 74 50 75 49 76
REMARK H PARENT 15 7 4 11 66 44 44 55
REMARK Flexibility Score: inf
ROOT
ATOM      1  C   UNL     1       1.741  -3.337   0.472  1.00  0.00     0.325 C 
ATOM      2  O   UNL     1       1.282  -4.292   1.088  1.00  0.00    -0.250 OA
ENDROOT
BRANCH   1   3
ATOM      3  C   UNL     1       1.536  -1.893   0.916  1.00  0.00     0.238 C 
BRANCH   3   4
ATOM      4  N   UNL     1       2.443  -0.929   0.315  1.00  0.00    -0.344 N 
ATOM      5  O   UNL     1       0.815   0.524  -0.384  1.00  0.00    -0.273 OA
ATOM      6  C   UNL     1       2.003   0.246  -0.247  1.00  0.00     0.240 C 
ATOM      7  H   UNL     1       3.408  -1.125   0.310  1.00  0.00     0.164 HD
BRANCH   6   8
ATOM      8  C   UNL     1       3.118   1.161  -0.747  1.00  0.00     0.219 C 
BRANCH   8   9
ATOM      9  N   UNL     1       4.019   1.448   0.354  1.00  0.00    -0.312 N 
ATOM     10  C   UNL     1       5.377   1.515   0.300  1.00  0.00     0.407 C 
ATOM     11  H   UNL     1       3.605   1.610   1.232  1.00  0.00     0.167 HD
ATOM     12  O   UNL     1       6.043   1.717   1.300  1.00  0.00    -0.225 OA
BRANCH  10  13
ATOM     13  O   UNL     1       5.856   1.351  -0.957  1.00  0.00    -0.445 OA
BRANCH  13  14
ATOM     14  C   UNL     1       7.280   1.459  -1.083  1.00  0.00     0.270 C 
BRANCH  14  15
ATOM     15  C   UNL     1       7.764   2.889  -1.171  1.00  0.00    -0.011 A 
ATOM     16  C   UNL     1       9.120   3.167  -0.941  1.00  0.00     0.007 A 
ATOM     17  C   UNL     1       6.907   3.950  -1.502  1.00  0.00     0.007 A 
ATOM     18  C   UNL     1       9.599   4.477  -1.006  1.00  0.00     0.000 A 
ATOM     19  C   UNL     1       7.386   5.260  -1.558  1.00  0.00     0.000 A 
ATOM     20  C   UNL     1       8.730   5.523  -1.307  1.00  0.00     0.000 A 
ENDBRANCH  14  15
ENDBRANCH  13  14
ENDBRANCH  10  13
ENDBRANCH   8   9
ENDBRANCH   6   8
ENDBRANCH   3   4
ENDBRANCH   1   3
BRANCH   1  21
ATOM     21  O   UNL     1       2.454  -3.426  -0.684  1.00  0.00    -0.461 OA
BRANCH  21  22
ATOM     22  C   UNL     1       2.824  -4.746  -1.120  1.00  0.00     0.274 C 
BRANCH  22  23
ATOM     23  C   UNL     1       4.335  -4.949  -0.971  1.00  0.00     0.275 C 
BRANCH  23  24
ATOM     24  O   UNL     1       4.738  -5.009   0.412  1.00  0.00    -0.458 OA
BRANCH  24  25
ATOM     25  C   UNL     1       4.962  -3.814   1.007  1.00  0.00     0.338 C 
ATOM     26  O   UNL     1       4.871  -2.703   0.507  1.00  0.00    -0.246 OA
BRANCH  25  27
ATOM     27  C   UNL     1       5.197  -4.016   2.446  1.00  0.00     0.060 A 
ATOM     28  C   UNL     1       4.378  -3.319   3.337  1.00  0.00     0.016 A 
ATOM     29  C   UNL     1       6.244  -4.810   2.917  1.00  0.00     0.016 A 
ATOM     30  C   UNL     1       4.615  -3.392   4.706  1.00  0.00     0.010 A 
ATOM     31  C   UNL     1       6.477  -4.889   4.295  1.00  0.00     0.010 A 
ATOM     32  C   UNL     1       5.674  -4.167   5.196  1.00  0.00    -0.014 A 
BRANCH  32  33
ATOM     33  C   UNL     1       5.958  -4.176   6.652  1.00  0.00     0.031 A 
ATOM     34  C   UNL     1       7.158  -3.450   7.189  1.00  0.00     0.074 A 
ATOM     35  C   UNL     1       5.116  -4.803   7.493  1.00  0.00     0.049 A 
ATOM     36  N   UNL     1       7.593  -3.372   8.421  1.00  0.00    -0.248 NA
ATOM     37  C   UNL     1       7.978  -2.715   6.212  1.00  0.00     0.031 C 
ATOM     38  C   UNL     1       3.892  -5.503   7.099  1.00  0.00     0.029 A 
ATOM     39  N   UNL     1       5.160  -4.946   8.857  1.00  0.00    -0.354 N 
ATOM     40  C   UNL     1       8.746  -2.598   8.366  1.00  0.00     0.074 A 
ATOM     41  C   UNL     1       8.954  -2.248   6.977  1.00  0.00     0.031 C 
ATOM     42  C   UNL     1       3.296  -5.992   8.199  1.00  0.00     0.029 A 
ATOM     43  C   UNL     1       4.117  -5.682   9.365  1.00  0.00     0.049 A 
ATOM     44  H   UNL     1       5.870  -4.559   9.418  1.00  0.00     0.167 HD
ATOM     45  C   UNL     1       9.555  -2.211   9.382  1.00  0.00     0.031 A 
ATOM     46  C   UNL     1       3.865  -6.083  10.625  1.00  0.00     0.031 A 
ATOM     47  C   UNL     1       9.344  -2.557  10.764  1.00  0.00     0.049 A 
ATOM     48  C   UNL     1       4.815  -5.696  11.724  1.00  0.00     0.074 A 
ATOM     49  C   UNL     1      10.101  -2.200  11.867  1.00  0.00     0.029 A 
ATOM     50  N   UNL     1       8.301  -3.341  11.231  1.00  0.00    -0.354 N 
ATOM     51  N   UNL     1       5.898  -4.960  11.659  1.00  0.00    -0.248 NA
ATOM     52  C   UNL     1       4.505  -6.195  13.071  1.00  0.00     0.031 C 
ATOM     53  C   UNL     1       9.545  -2.813  12.995  1.00  0.00     0.029 A 
ATOM     54  C   UNL     1       8.409  -3.503  12.602  1.00  0.00     0.049 A 
ATOM     55  H   UNL     1       7.589  -3.726  10.671  1.00  0.00     0.167 HD
ATOM     56  C   UNL     1       6.386  -4.890  12.957  1.00  0.00     0.074 A 
ATOM     57  C   UNL     1       5.471  -5.642  13.791  1.00  0.00     0.031 C 
ATOM     58  C   UNL     1       7.493  -4.258  13.417  1.00  0.00     0.031 A 
BRANCH  45  59
ATOM     59  C   UNL     1      10.769  -1.399   9.029  1.00  0.00    -0.014 A 
ATOM     60  C   UNL     1      10.664  -0.059   8.625  1.00  0.00     0.009 A 
ATOM     61  C   UNL     1      12.044  -1.977   9.137  1.00  0.00     0.009 A 
ATOM     62  C   UNL     1      11.809   0.675   8.304  1.00  0.00     0.001 A 
ATOM     63  C   UNL     1      13.188  -1.233   8.842  1.00  0.00     0.001 A 
ATOM     64  C   UNL     1      13.069   0.089   8.417  1.00  0.00     0.000 A 
ENDBRANCH  45  59
BRANCH  46  65
ATOM     65  C   UNL     1       2.673  -6.923  10.912  1.00  0.00    -0.014 A 
ATOM     66  C   UNL     1       1.596  -6.412  11.650  1.00  0.00     0.009 A 
ATOM     67  C   UNL     1       2.614  -8.249  10.452  1.00  0.00     0.009 A 
ATOM     68  C   UNL     1       0.492  -7.219  11.941  1.00  0.00     0.001 A 
ATOM     69  C   UNL     1       1.497  -9.043  10.719  1.00  0.00     0.001 A 
ATOM     70  C   UNL     1       0.442  -8.530  11.470  1.00  0.00     0.000 A 
ENDBRANCH  46  65
BRANCH  58  71
ATOM     71  C   UNL     1       7.756  -4.326  14.895  1.00  0.00    -0.014 A 
ATOM     72  C   UNL     1       8.205  -5.509  15.502  1.00  0.00     0.009 A 
ATOM     73  C   UNL     1       7.585  -3.178  15.685  1.00  0.00     0.009 A 
ATOM     74  C   UNL     1       8.445  -5.549  16.877  1.00  0.00     0.001 A 
ATOM     75  C   UNL     1       7.852  -3.213  17.054  1.00  0.00     0.001 A 
ATOM     76  C   UNL     1       8.273  -4.401  17.650  1.00  0.00     0.000 A 
ENDBRANCH  58  71
ENDBRANCH  32  33
ENDBRANCH  25  27
ENDBRANCH  24  25
ENDBRANCH  23  24
ENDBRANCH  22  23
ENDBRANCH  21  22
ENDBRANCH   1  21
TORSDOF 17
