REMARK SMILES COc1c(Br)cc(C)cc1C(=O)OCCOC(=O)c1ccc(-c2c3nc(c(-c4ccccc4)c4ccc([nH]4)c(-c4ccccc4)c4nc(c(-c5ccccc5)c5ccc2[nH]5)C=C4)C=C3)cc1
REMARK SMILES IDX 15 1 14 2 13 3 11 4 12 5 10 6 3 7 4 8 5 9 6 10 9 11 7 12
REMARK SMILES IDX 8 13 2 14 1 15 16 16 17 17 18 18 19 19 20 20 66 21 21 22
REMARK SMILES IDX 65 23 22 24 23 25 24 26 59 27 25 28 64 29 58 30 60 31 26 32
REMARK SMILES IDX 63 33 57 34 56 35 27 37 49 38 34 39 48 40 35 41 38 42 47 43
REMARK SMILES IDX 61 44 36 45 37 46 46 48 62 49 39 50 28 51 29 52 33 53 30 54
REMARK SMILES IDX 32 55 31 56 50 57 51 58 55 59 52 60 54 61 53 62 40 63 41 64
REMARK SMILES IDX 45 65 42 66 44 67 43 68
REMARK H PARENT 60 36 38 47
REMARK Flexibility Score: inf
ROOT
ATOM      1  C   UNL     1       5.177  -0.030  -0.487  1.00  0.00     0.275 C 
ENDROOT
BRANCH   1   2
ATOM      2  C   UNL     1       5.308  -0.615   0.917  1.00  0.00     0.275 C 
BRANCH   2   3
ATOM      3  O   UNL     1       4.221  -1.517   1.220  1.00  0.00    -0.458 OA
BRANCH   3   4
ATOM      4  C   UNL     1       3.237  -0.995   1.993  1.00  0.00     0.342 C 
ATOM      5  O   UNL     1       3.165   0.154   2.402  1.00  0.00    -0.246 OA
BRANCH   4   6
ATOM      6  C   UNL     1       2.272  -2.036   2.393  1.00  0.00     0.103 A 
ATOM      7  C   UNL     1       0.897  -1.851   2.215  1.00  0.00     0.147 A 
ATOM      8  C   UNL     1      -0.012  -2.644   2.920  1.00  0.00     0.061 A 
ATOM      9  Br  UNL     1      -1.876  -2.285   2.892  1.00  0.00    -0.047 Br
ATOM     10  C   UNL     1       0.447  -3.734   3.652  1.00  0.00     0.023 A 
ATOM     11  C   UNL     1       2.733  -3.148   3.105  1.00  0.00     0.023 A 
ATOM     12  C   UNL     1       1.817  -4.032   3.691  1.00  0.00    -0.049 A 
ATOM     13  C   UNL     1       2.278  -5.281   4.376  1.00  0.00     0.044 C 
BRANCH   7  14
ATOM     14  O   UNL     1       0.426  -0.958   1.291  1.00  0.00    -0.495 OA
ATOM     15  C   UNL     1       0.292  -1.634   0.029  1.00  0.00     0.278 C 
ENDBRANCH   7  14
ENDBRANCH   4   6
ENDBRANCH   3   4
ENDBRANCH   2   3
ENDBRANCH   1   2
BRANCH   1  16
ATOM     16  O   UNL     1       4.000   0.792  -0.563  1.00  0.00    -0.458 OA
BRANCH  16  17
ATOM     17  C   UNL     1       3.132   0.490  -1.557  1.00  0.00     0.338 C 
ATOM     18  O   UNL     1       3.289  -0.332  -2.442  1.00  0.00    -0.246 OA
BRANCH  17  19
ATOM     19  C   UNL     1       1.876   1.258  -1.411  1.00  0.00     0.060 A 
ATOM     20  C   UNL     1       1.311   1.454  -0.156  1.00  0.00     0.016 A 
ATOM     21  C   UNL     1       1.147   1.602  -2.551  1.00  0.00     0.016 A 
ATOM     22  C   UNL     1      -0.029   1.828  -0.048  1.00  0.00     0.010 A 
ATOM     23  C   UNL     1      -0.152   2.116  -2.427  1.00  0.00     0.010 A 
ATOM     24  C   UNL     1      -0.784   2.188  -1.174  1.00  0.00    -0.014 A 
BRANCH  24  25
ATOM     25  C   UNL     1      -2.211   2.625  -1.049  1.00  0.00     0.031 A 
ATOM     26  C   UNL     1      -3.291   2.026  -1.926  1.00  0.00     0.074 A 
ATOM     27  C   UNL     1      -2.558   3.583  -0.162  1.00  0.00     0.049 A 
ATOM     28  N   UNL     1      -4.507   2.461  -2.155  1.00  0.00    -0.248 NA
ATOM     29  C   UNL     1      -2.960   0.789  -2.654  1.00  0.00     0.031 C 
ATOM     30  C   UNL     1      -1.661   4.226   0.802  1.00  0.00     0.029 A 
ATOM     31  N   UNL     1      -3.770   4.195   0.067  1.00  0.00    -0.354 N 
ATOM     32  C   UNL     1      -5.053   1.601  -3.103  1.00  0.00     0.074 A 
ATOM     33  C   UNL     1      -4.043   0.608  -3.399  1.00  0.00     0.031 C 
ATOM     34  C   UNL     1      -2.353   5.105   1.538  1.00  0.00     0.029 A 
ATOM     35  C   UNL     1      -3.706   5.193   1.011  1.00  0.00     0.049 A 
ATOM     36  H   UNL     1      -4.599   3.944  -0.399  1.00  0.00     0.167 HD
ATOM     37  C   UNL     1      -6.279   1.646  -3.682  1.00  0.00     0.031 A 
ATOM     38  C   UNL     1      -4.595   6.138   1.369  1.00  0.00     0.031 A 
ATOM     39  C   UNL     1      -7.308   2.595  -3.338  1.00  0.00     0.049 A 
ATOM     40  C   UNL     1      -5.919   6.203   0.670  1.00  0.00     0.074 A 
ATOM     41  C   UNL     1      -8.595   2.687  -3.843  1.00  0.00     0.029 A 
ATOM     42  N   UNL     1      -7.176   3.604  -2.399  1.00  0.00    -0.354 N 
ATOM     43  N   UNL     1      -6.401   5.418  -0.262  1.00  0.00    -0.248 NA
ATOM     44  C   UNL     1      -6.816   7.300   1.060  1.00  0.00     0.031 C 
ATOM     45  C   UNL     1      -9.221   3.789  -3.255  1.00  0.00     0.029 A 
ATOM     46  C   UNL     1      -8.348   4.342  -2.334  1.00  0.00     0.049 A 
ATOM     47  H   UNL     1      -6.371   3.772  -1.859  1.00  0.00     0.167 HD
ATOM     48  C   UNL     1      -7.664   5.913  -0.552  1.00  0.00     0.074 A 
ATOM     49  C   UNL     1      -7.884   7.049   0.317  1.00  0.00     0.031 C 
ATOM     50  C   UNL     1      -8.560   5.467  -1.464  1.00  0.00     0.031 A 
BRANCH  37  51
ATOM     51  C   UNL     1      -6.590   0.676  -4.791  1.00  0.00    -0.014 A 
ATOM     52  C   UNL     1      -6.865  -0.676  -4.543  1.00  0.00     0.009 A 
ATOM     53  C   UNL     1      -6.733   1.167  -6.102  1.00  0.00     0.009 A 
ATOM     54  C   UNL     1      -7.268  -1.517  -5.587  1.00  0.00     0.001 A 
ATOM     55  C   UNL     1      -7.161   0.332  -7.135  1.00  0.00     0.001 A 
ATOM     56  C   UNL     1      -7.426  -1.011  -6.877  1.00  0.00     0.000 A 
ENDBRANCH  37  51
BRANCH  38  57
ATOM     57  C   UNL     1      -4.218   7.172   2.372  1.00  0.00    -0.014 A 
ATOM     58  C   UNL     1      -4.871   7.248   3.610  1.00  0.00     0.009 A 
ATOM     59  C   UNL     1      -3.205   8.103   2.082  1.00  0.00     0.009 A 
ATOM     60  C   UNL     1      -4.538   8.251   4.523  1.00  0.00     0.001 A 
ATOM     61  C   UNL     1      -2.845   9.076   3.014  1.00  0.00     0.001 A 
ATOM     62  C   UNL     1      -3.521   9.158   4.228  1.00  0.00     0.000 A 
ENDBRANCH  38  57
BRANCH  50  63
ATOM     63  C   UNL     1      -9.882   6.178  -1.526  1.00  0.00    -0.014 A 
ATOM     64  C   UNL     1      -9.991   7.475  -2.051  1.00  0.00     0.009 A 
ATOM     65  C   UNL     1     -11.037   5.533  -1.057  1.00  0.00     0.009 A 
ATOM     66  C   UNL     1     -11.226   8.128  -2.064  1.00  0.00     0.001 A 
ATOM     67  C   UNL     1     -12.274   6.175  -1.102  1.00  0.00     0.001 A 
ATOM     68  C   UNL     1     -12.365   7.476  -1.594  1.00  0.00     0.000 A 
ENDBRANCH  50  63
ENDBRANCH  24  25
ENDBRANCH  17  19
ENDBRANCH  16  17
ENDBRANCH   1  16
TORSDOF 12
