REMARK SMILES COc1ccccc1OC1CCN(c2cccc(C(=O)OCCOC(=O)c3ccc(-c4c5nc(c(-c6ccccc6)c6ccc([nH]6)c(-c6ccccc6)c6nc(c(-c7ccccc7)c7ccc4[nH]7)C=C6)C=C5)cc3)n2)CC1
REMARK SMILES IDX 22 1 21 2 19 3 20 4 18 5 14 6 15 7 75 8 16 9 17 10 13 11
REMARK SMILES IDX 10 12 11 13 77 14 12 15 76 16 9 17 8 18 3 19 4 20 5 21 7 22
REMARK SMILES IDX 6 23 2 24 1 25 23 26 24 27 25 28 26 29 27 30 28 31 74 32
REMARK SMILES IDX 29 33 73 34 30 35 31 36 32 37 67 38 33 39 72 40 66 41 68 42
REMARK SMILES IDX 34 43 71 44 65 45 64 46 35 48 57 49 42 50 56 51 43 52 46 53
REMARK SMILES IDX 55 54 69 55 44 56 45 57 54 59 70 60 47 61 36 62 37 63 41 64
REMARK SMILES IDX 38 65 40 66 39 67 58 68 59 69 63 70 60 71 62 72 61 73 48 74
REMARK SMILES IDX 49 75 53 76 50 77 52 78 51 79
REMARK H PARENT 68 47 46 58
REMARK Flexibility Score: inf
ROOT
ATOM      1  C   UNL     1      -0.723  -4.231  -7.388  1.00  0.00     0.275 C 
ENDROOT
BRANCH   1   2
ATOM      2  O   UNL     1      -1.277  -3.651  -6.190  1.00  0.00    -0.457 OA
BRANCH   2   3
ATOM      3  C   UNL     1      -0.493  -3.749  -5.083  1.00  0.00     0.357 C 
ATOM      4  O   UNL     1       0.568  -4.354  -5.016  1.00  0.00    -0.244 OA
BRANCH   3   5
ATOM      5  C   UNL     1      -1.044  -2.916  -3.971  1.00  0.00     0.150 A 
ATOM      6  C   UNL     1      -0.485  -1.585  -2.148  1.00  0.00     0.129 A 
ATOM      7  C   UNL     1      -1.830  -1.290  -1.939  1.00  0.00     0.047 A 
ATOM      8  N   UNL     1      -0.102  -2.411  -3.134  1.00  0.00    -0.224 NA
ATOM      9  C   UNL     1      -2.797  -1.839  -2.784  1.00  0.00     0.006 A 
ATOM     10  C   UNL     1      -2.400  -2.660  -3.834  1.00  0.00     0.036 A 
BRANCH   6  11
ATOM     11  N   UNL     1       0.530  -0.986  -1.425  1.00  0.00    -0.356 N 
ATOM     12  C   UNL     1       2.335   0.557   0.235  1.00  0.00     0.177 C 
ATOM     13  C   UNL     1       2.127   0.821  -1.256  1.00  0.00     0.066 C 
ATOM     14  C   UNL     1       2.088  -0.942   0.501  1.00  0.00     0.066 C 
ATOM     15  C   UNL     1       0.727   0.429  -1.698  1.00  0.00     0.122 C 
ATOM     16  C   UNL     1       0.772  -1.482  -0.079  1.00  0.00     0.122 C 
BRANCH  12  17
ATOM     17  O   UNL     1       1.478   1.318   1.102  1.00  0.00    -0.486 OA
BRANCH  17  18
ATOM     18  C   UNL     1       1.335   2.653   0.821  1.00  0.00     0.161 A 
ATOM     19  C   UNL     1       0.049   3.217   0.845  1.00  0.00     0.160 A 
ATOM     20  C   UNL     1      -0.124   4.533   0.396  1.00  0.00     0.050 A 
ATOM     21  C   UNL     1       0.962   5.299  -0.028  1.00  0.00     0.004 A 
ATOM     22  C   UNL     1       2.433   3.453   0.465  1.00  0.00     0.050 A 
ATOM     23  C   UNL     1       2.244   4.765   0.022  1.00  0.00     0.004 A 
BRANCH  19  24
ATOM     24  O   UNL     1      -1.133   2.625   1.208  1.00  0.00    -0.493 OA
ATOM     25  C   UNL     1      -1.076   1.379   1.884  1.00  0.00     0.278 C 
ENDBRANCH  19  24
ENDBRANCH  17  18
ENDBRANCH  12  17
ENDBRANCH   6  11
ENDBRANCH   3   5
ENDBRANCH   2   3
ENDBRANCH   1   2
BRANCH   1  26
ATOM     26  C   UNL     1      -0.175  -3.142  -8.309  1.00  0.00     0.275 C 
BRANCH  26  27
ATOM     27  O   UNL     1       0.932  -2.470  -7.680  1.00  0.00    -0.458 OA
BRANCH  27  28
ATOM     28  C   UNL     1       0.764  -1.149  -7.445  1.00  0.00     0.338 C 
ATOM     29  O   UNL     1      -0.188  -0.452  -7.751  1.00  0.00    -0.246 OA
BRANCH  28  30
ATOM     30  C   UNL     1       1.924  -0.624  -6.706  1.00  0.00     0.060 A 
ATOM     31  C   UNL     1       2.095  -0.999  -5.382  1.00  0.00     0.016 A 
ATOM     32  C   UNL     1       2.747   0.355  -7.262  1.00  0.00     0.016 A 
ATOM     33  C   UNL     1       3.016  -0.323  -4.585  1.00  0.00     0.010 A 
ATOM     34  C   UNL     1       3.716   0.989  -6.464  1.00  0.00     0.010 A 
ATOM     35  C   UNL     1       3.817   0.713  -5.088  1.00  0.00    -0.014 A 
BRANCH  35  36
ATOM     36  C   UNL     1       4.648   1.570  -4.171  1.00  0.00     0.031 A 
ATOM     37  C   UNL     1       4.470   3.078  -4.164  1.00  0.00     0.074 A 
ATOM     38  C   UNL     1       5.505   1.044  -3.269  1.00  0.00     0.049 A 
ATOM     39  N   UNL     1       5.195   4.001  -3.573  1.00  0.00    -0.248 NA
ATOM     40  C   UNL     1       3.328   3.619  -4.918  1.00  0.00     0.031 C 
ATOM     41  C   UNL     1       5.743  -0.382  -3.041  1.00  0.00     0.029 A 
ATOM     42  N   UNL     1       6.321   1.661  -2.345  1.00  0.00    -0.354 N 
ATOM     43  C   UNL     1       4.638   5.223  -3.942  1.00  0.00     0.074 A 
ATOM     44  C   UNL     1       3.514   4.926  -4.804  1.00  0.00     0.031 C 
ATOM     45  C   UNL     1       6.587  -0.530  -2.007  1.00  0.00     0.029 A 
ATOM     46  C   UNL     1       7.041   0.785  -1.566  1.00  0.00     0.049 A 
ATOM     47  H   UNL     1       6.383   2.640  -2.251  1.00  0.00     0.167 HD
ATOM     48  C   UNL     1       5.017   6.480  -3.602  1.00  0.00     0.031 A 
ATOM     49  C   UNL     1       7.993   0.998  -0.635  1.00  0.00     0.031 A 
ATOM     50  C   UNL     1       6.094   6.805  -2.705  1.00  0.00     0.049 A 
ATOM     51  C   UNL     1       8.454   2.397  -0.335  1.00  0.00     0.074 A 
ATOM     52  C   UNL     1       6.567   8.056  -2.341  1.00  0.00     0.029 A 
ATOM     53  N   UNL     1       6.847   5.878  -2.006  1.00  0.00    -0.354 N 
ATOM     54  N   UNL     1       7.990   3.538  -0.780  1.00  0.00    -0.248 NA
ATOM     55  C   UNL     1       9.594   2.532   0.588  1.00  0.00     0.031 C 
ATOM     56  C   UNL     1       7.624   7.885  -1.441  1.00  0.00     0.029 A 
ATOM     57  C   UNL     1       7.775   6.529  -1.210  1.00  0.00     0.049 A 
ATOM     58  H   UNL     1       6.739   4.902  -2.066  1.00  0.00     0.167 HD
ATOM     59  C   UNL     1       8.767   4.522  -0.177  1.00  0.00     0.074 A 
ATOM     60  C   UNL     1       9.713   3.849   0.684  1.00  0.00     0.031 C 
ATOM     61  C   UNL     1       8.702   5.865  -0.335  1.00  0.00     0.031 A 
BRANCH  48  62
ATOM     62  C   UNL     1       4.277   7.625  -4.238  1.00  0.00    -0.014 A 
ATOM     63  C   UNL     1       2.986   7.985  -3.825  1.00  0.00     0.009 A 
ATOM     64  C   UNL     1       4.912   8.390  -5.230  1.00  0.00     0.009 A 
ATOM     65  C   UNL     1       2.336   9.073  -4.412  1.00  0.00     0.001 A 
ATOM     66  C   UNL     1       4.271   9.492  -5.796  1.00  0.00     0.001 A 
ATOM     67  C   UNL     1       2.981   9.829  -5.392  1.00  0.00     0.000 A 
ENDBRANCH  48  62
BRANCH  49  68
ATOM     68  C   UNL     1       8.646  -0.151   0.051  1.00  0.00    -0.014 A 
ATOM     69  C   UNL     1       8.486  -0.342   1.433  1.00  0.00     0.009 A 
ATOM     70  C   UNL     1       9.482  -1.024  -0.661  1.00  0.00     0.009 A 
ATOM     71  C   UNL     1       9.175  -1.365   2.090  1.00  0.00     0.001 A 
ATOM     72  C   UNL     1      10.140  -2.068  -0.009  1.00  0.00     0.001 A 
ATOM     73  C   UNL     1       9.997  -2.229   1.368  1.00  0.00     0.000 A 
ENDBRANCH  49  68
BRANCH  61  74
ATOM     74  C   UNL     1       9.636   6.705   0.490  1.00  0.00    -0.014 A 
ATOM     75  C   UNL     1      11.009   6.771   0.205  1.00  0.00     0.009 A 
ATOM     76  C   UNL     1       9.128   7.459   1.560  1.00  0.00     0.009 A 
ATOM     77  C   UNL     1      11.859   7.547   0.998  1.00  0.00     0.001 A 
ATOM     78  C   UNL     1       9.975   8.254   2.334  1.00  0.00     0.001 A 
ATOM     79  C   UNL     1      11.341   8.289   2.059  1.00  0.00     0.000 A 
ENDBRANCH  61  74
ENDBRANCH  35  36
ENDBRANCH  28  30
ENDBRANCH  27  28
ENDBRANCH  26  27
ENDBRANCH   1  26
TORSDOF 15
