REMARK SMILES C=C(CC)C[C@@H](Cc1ccccc1Br)C(=O)OCCOC(=O)c1ccc(-c2c3nc(c(-c4ccccc4)c4ccc([nH]4)c(-c4ccccc4)c4nc(c(-c5ccccc5)c5ccc2[nH]5)C=C4)C=C3)cc1
REMARK SMILES IDX 18 1 17 2 15 3 16 4 6 5 5 6 2 7 1 8 3 9 4 10 7 11 8 12 9 13
REMARK SMILES IDX 13 14 10 15 12 16 14 17 11 18 19 19 20 20 21 21 22 22 23 23
REMARK SMILES IDX 24 24 70 25 25 26 69 27 26 28 27 29 28 30 63 31 29 32 68 33
REMARK SMILES IDX 62 34 64 35 30 36 67 37 61 38 60 39 31 41 53 42 38 43 52 44
REMARK SMILES IDX 39 45 42 46 51 47 65 48 40 49 41 50 50 52 66 53 43 54 32 55
REMARK SMILES IDX 33 56 37 57 34 58 36 59 35 60 54 61 55 62 59 63 56 64 58 65
REMARK SMILES IDX 57 66 44 67 45 68 49 69 46 70 48 71 47 72
REMARK H PARENT 64 40 42 51
REMARK Flexibility Score: inf
ROOT
ATOM      1  C   UNL     1       4.096   3.679   4.047  1.00  0.00     0.274 C 
ENDROOT
BRANCH   1   2
ATOM      2  O   UNL     1       3.329   2.925   3.085  1.00  0.00    -0.462 OA
BRANCH   2   3
ATOM      3  C   UNL     1       3.084   1.625   3.383  1.00  0.00     0.309 C 
ATOM      4  O   UNL     1       3.394   1.086   4.440  1.00  0.00    -0.252 OA
BRANCH   3   5
ATOM      5  C   UNL     1       2.448   0.851   2.235  1.00  0.00     0.107 C 
BRANCH   5   6
ATOM      6  C   UNL     1       1.251   1.563   1.563  1.00  0.00     0.046 C 
BRANCH   6   7
ATOM      7  C   UNL     1       0.316   0.728   0.697  1.00  0.00    -0.077 C 
ATOM      8  C   UNL     1       0.734  -0.003  -0.351  1.00  0.00     0.008 C 
BRANCH   7   9
ATOM      9  C   UNL     1      -1.178   0.861   0.948  1.00  0.00     0.027 C 
ATOM     10  C   UNL     1      -1.645   0.347   2.301  1.00  0.00     0.008 C 
ENDBRANCH   7   9
ENDBRANCH   6   7
ENDBRANCH   5   6
BRANCH   5  11
ATOM     11  C   UNL     1       3.580   0.258   1.372  1.00  0.00     0.052 C 
BRANCH  11  12
ATOM     12  C   UNL     1       4.385   1.076   0.375  1.00  0.00    -0.033 A 
ATOM     13  C   UNL     1       4.202   2.454   0.185  1.00  0.00     0.005 A 
ATOM     14  C   UNL     1       5.396   0.458  -0.394  1.00  0.00     0.021 A 
ATOM     15  C   UNL     1       4.978   3.186  -0.719  1.00  0.00     0.000 A 
ATOM     16  C   UNL     1       6.176   1.191  -1.297  1.00  0.00     0.016 A 
ATOM     17  Br  UNL     1       5.787  -1.403  -0.260  1.00  0.00    -0.051 Br
ATOM     18  C   UNL     1       5.967   2.556  -1.459  1.00  0.00     0.001 A 
ENDBRANCH  11  12
ENDBRANCH   5  11
ENDBRANCH   3   5
ENDBRANCH   2   3
ENDBRANCH   1   2
BRANCH   1  19
ATOM     19  C   UNL     1       3.215   4.638   4.848  1.00  0.00     0.275 C 
BRANCH  19  20
ATOM     20  O   UNL     1       2.329   3.915   5.719  1.00  0.00    -0.458 OA
BRANCH  20  21
ATOM     21  C   UNL     1       1.145   3.580   5.159  1.00  0.00     0.338 C 
ATOM     22  O   UNL     1       0.719   3.912   4.066  1.00  0.00    -0.246 OA
BRANCH  21  23
ATOM     23  C   UNL     1       0.464   2.599   6.012  1.00  0.00     0.060 A 
ATOM     24  C   UNL     1       0.194   1.341   5.468  1.00  0.00     0.016 A 
ATOM     25  C   UNL     1       0.009   2.939   7.285  1.00  0.00     0.016 A 
ATOM     26  C   UNL     1      -0.582   0.428   6.168  1.00  0.00     0.010 A 
ATOM     27  C   UNL     1      -0.763   2.017   7.995  1.00  0.00     0.010 A 
ATOM     28  C   UNL     1      -1.087   0.773   7.424  1.00  0.00    -0.014 A 
BRANCH  28  29
ATOM     29  C   UNL     1      -2.058  -0.127   8.080  1.00  0.00     0.031 A 
ATOM     30  C   UNL     1      -3.515   0.230   8.053  1.00  0.00     0.074 A 
ATOM     31  C   UNL     1      -1.641  -1.272   8.647  1.00  0.00     0.049 A 
ATOM     32  N   UNL     1      -4.526  -0.377   8.619  1.00  0.00    -0.248 NA
ATOM     33  C   UNL     1      -3.884   1.429   7.282  1.00  0.00     0.031 C 
ATOM     34  C   UNL     1      -0.260  -1.755   8.664  1.00  0.00     0.029 A 
ATOM     35  N   UNL     1      -2.346  -2.238   9.314  1.00  0.00    -0.354 N 
ATOM     36  C   UNL     1      -5.645   0.379   8.294  1.00  0.00     0.074 A 
ATOM     37  C   UNL     1      -5.190   1.496   7.495  1.00  0.00     0.031 C 
ATOM     38  C   UNL     1      -0.220  -2.933   9.310  1.00  0.00     0.029 A 
ATOM     39  C   UNL     1      -1.561  -3.259   9.787  1.00  0.00     0.049 A 
ATOM     40  H   UNL     1      -3.322  -2.204   9.442  1.00  0.00     0.167 HD
ATOM     41  C   UNL     1      -6.937   0.159   8.632  1.00  0.00     0.031 A 
ATOM     42  C   UNL     1      -1.888  -4.324  10.542  1.00  0.00     0.031 A 
ATOM     43  C   UNL     1      -7.382  -0.953   9.428  1.00  0.00     0.049 A 
ATOM     44  C   UNL     1      -3.319  -4.506  10.965  1.00  0.00     0.074 A 
ATOM     45  C   UNL     1      -8.665  -1.259   9.845  1.00  0.00     0.029 A 
ATOM     46  N   UNL     1      -6.551  -1.945   9.924  1.00  0.00    -0.354 N 
ATOM     47  N   UNL     1      -4.367  -3.771  10.678  1.00  0.00    -0.248 NA
ATOM     48  C   UNL     1      -3.612  -5.668  11.815  1.00  0.00     0.031 C 
ATOM     49  C   UNL     1      -8.604  -2.418  10.627  1.00  0.00     0.029 A 
ATOM     50  C   UNL     1      -7.290  -2.860  10.652  1.00  0.00     0.049 A 
ATOM     51  H   UNL     1      -5.578  -1.992   9.779  1.00  0.00     0.167 HD
ATOM     52  C   UNL     1      -5.447  -4.396  11.286  1.00  0.00     0.074 A 
ATOM     53  C   UNL     1      -4.928  -5.576  11.949  1.00  0.00     0.031 C 
ATOM     54  C   UNL     1      -6.752  -4.030  11.296  1.00  0.00     0.031 A 
BRANCH  41  55
ATOM     55  C   UNL     1      -7.949   1.170   8.174  1.00  0.00    -0.014 A 
ATOM     56  C   UNL     1      -8.342   1.252   6.829  1.00  0.00     0.009 A 
ATOM     57  C   UNL     1      -8.524   2.048   9.105  1.00  0.00     0.009 A 
ATOM     58  C   UNL     1      -9.267   2.216   6.421  1.00  0.00     0.001 A 
ATOM     59  C   UNL     1      -9.466   2.994   8.700  1.00  0.00     0.001 A 
ATOM     60  C   UNL     1      -9.830   3.083   7.357  1.00  0.00     0.000 A 
ENDBRANCH  41  55
BRANCH  42  61
ATOM     61  C   UNL     1      -0.840  -5.287  10.966  1.00  0.00    -0.014 A 
ATOM     62  C   UNL     1      -0.813  -6.589  10.444  1.00  0.00     0.009 A 
ATOM     63  C   UNL     1       0.132  -4.912  11.907  1.00  0.00     0.009 A 
ATOM     64  C   UNL     1       0.152  -7.503  10.875  1.00  0.00     0.001 A 
ATOM     65  C   UNL     1       1.111  -5.819  12.316  1.00  0.00     0.001 A 
ATOM     66  C   UNL     1       1.115  -7.116  11.807  1.00  0.00     0.000 A 
ENDBRANCH  42  61
BRANCH  54  67
ATOM     67  C   UNL     1      -7.711  -4.943  12.003  1.00  0.00    -0.014 A 
ATOM     68  C   UNL     1      -7.762  -5.004  13.404  1.00  0.00     0.009 A 
ATOM     69  C   UNL     1      -8.600  -5.727  11.251  1.00  0.00     0.009 A 
ATOM     70  C   UNL     1      -8.663  -5.862  14.037  1.00  0.00     0.001 A 
ATOM     71  C   UNL     1      -9.517  -6.563  11.888  1.00  0.00     0.001 A 
ATOM     72  C   UNL     1      -9.542  -6.637  13.280  1.00  0.00     0.000 A 
ENDBRANCH  54  67
ENDBRANCH  28  29
ENDBRANCH  21  23
ENDBRANCH  20  21
ENDBRANCH  19  20
ENDBRANCH   1  19
TORSDOF 16
