REMARK SMILES O=C1C[C@H](c2cn[nH]c2C(=O)OCCOC(=O)c2ccc(-c3c4nc(c(-c5ccccc5)c5ccc([nH]5)c(-c5ccccc5)c5nc(c(-c6ccccc6)c6ccc3[nH]6)C=C5)C=C4)cc2)c2c(-c3cccs3)n[nH]c2N1
REMARK SMILES IDX 13 1 12 2 10 3 11 4 9 5 5 6 6 7 7 8 8 9 4 11 1 12 2 13 3 14
REMARK SMILES IDX 76 15 75 16 66 18 74 19 67 20 73 21 68 23 69 24 72 25 70 26
REMARK SMILES IDX 71 27 14 28 15 29 16 30 17 31 18 32 19 33 65 34 20 35 64 36
REMARK SMILES IDX 21 37 22 38 23 39 58 40 24 41 63 42 57 43 59 44 25 45 62 46
REMARK SMILES IDX 56 47 55 48 26 50 48 51 33 52 47 53 34 54 37 55 46 56 60 57
REMARK SMILES IDX 35 58 36 59 45 61 61 62 38 63 27 64 28 65 32 66 29 67 31 68
REMARK SMILES IDX 30 69 49 70 50 71 54 72 51 73 53 74 52 75 39 76 40 77 44 78
REMARK SMILES IDX 41 79 43 80 42 81
REMARK H PARENT 8 10 76 17 74 22 59 49 37 60
REMARK Flexibility Score: inf
ROOT
ATOM      1  C   UNL     1       7.009  -1.863  -1.700  1.00  0.00     0.275 C 
ENDROOT
BRANCH   1   2
ATOM      2  O   UNL     1       6.359  -0.589  -1.561  1.00  0.00    -0.457 OA
BRANCH   2   3
ATOM      3  C   UNL     1       6.461   0.306  -2.559  1.00  0.00     0.356 C 
ATOM      4  O   UNL     1       7.140   0.145  -3.570  1.00  0.00    -0.244 OA
BRANCH   3   5
ATOM      5  C   UNL     1       5.639   1.467  -2.327  1.00  0.00     0.147 A 
ATOM      6  C   UNL     1       4.800   1.971  -1.326  1.00  0.00     0.013 A 
ATOM      7  C   UNL     1       4.379   3.227  -1.869  1.00  0.00     0.140 A 
ATOM      8  N   UNL     1       4.853   3.473  -3.084  1.00  0.00    -0.183 NA
ATOM      9  N   UNL     1       5.585   2.389  -3.344  1.00  0.00    -0.271 N 
ATOM     10  H   UNL     1       6.052   2.259  -4.201  1.00  0.00     0.190 HD
BRANCH   6  11
ATOM     11  C   UNL     1       4.335   1.534   0.057  1.00  0.00     0.069 C 
ATOM     12  O   UNL     1       1.145  -0.347  -0.369  1.00  0.00    -0.275 OA
ATOM     13  C   UNL     1       2.291  -0.098   0.010  1.00  0.00     0.226 C 
ATOM     14  C   UNL     1       2.798   1.338   0.125  1.00  0.00     0.114 C 
ATOM     15  N   UNL     1       3.085  -1.105   0.503  1.00  0.00    -0.311 N 
ATOM     16  C   UNL     1       4.371  -0.824   0.867  1.00  0.00     0.132 A 
ATOM     17  H   UNL     1       2.731  -2.019   0.593  1.00  0.00     0.171 HD
ATOM     18  C   UNL     1       5.009   0.376   0.695  1.00  0.00     0.031 A 
ATOM     19  N   UNL     1       5.284  -1.690   1.380  1.00  0.00    -0.262 N 
ATOM     20  C   UNL     1       6.340   0.136   1.125  1.00  0.00     0.108 A 
ATOM     21  N   UNL     1       6.513  -1.146   1.500  1.00  0.00    -0.173 NA
ATOM     22  H   UNL     1       5.072  -2.616   1.638  1.00  0.00     0.192 HD
BRANCH  20  23
ATOM     23  C   UNL     1       7.477   1.094   0.951  1.00  0.00     0.055 A 
ATOM     24  C   UNL     1       8.615   0.806   0.225  1.00  0.00     0.022 A 
ATOM     25  S   UNL     1       7.462   2.707   1.500  1.00  0.00    -0.142 S 
ATOM     26  C   UNL     1       9.437   1.956   0.042  1.00  0.00     0.012 A 
ATOM     27  C   UNL     1       8.957   3.042   0.739  1.00  0.00     0.065 A 
ENDBRANCH  20  23
ENDBRANCH   6  11
ENDBRANCH   3   5
ENDBRANCH   2   3
ENDBRANCH   1   2
BRANCH   1  28
ATOM     28  C   UNL     1       5.952  -2.896  -2.019  1.00  0.00     0.275 C 
BRANCH  28  29
ATOM     29  O   UNL     1       5.663  -2.812  -3.405  1.00  0.00    -0.458 OA
BRANCH  29  30
ATOM     30  C   UNL     1       4.705  -1.946  -3.795  1.00  0.00     0.338 C 
ATOM     31  O   UNL     1       4.069  -1.167  -3.112  1.00  0.00    -0.246 OA
BRANCH  30  32
ATOM     32  C   UNL     1       4.460  -2.213  -5.213  1.00  0.00     0.060 A 
ATOM     33  C   UNL     1       3.549  -1.407  -5.898  1.00  0.00     0.016 A 
ATOM     34  C   UNL     1       4.982  -3.393  -5.771  1.00  0.00     0.016 A 
ATOM     35  C   UNL     1       3.035  -1.880  -7.086  1.00  0.00     0.010 A 
ATOM     36  C   UNL     1       4.453  -3.873  -6.933  1.00  0.00     0.010 A 
ATOM     37  C   UNL     1       3.437  -3.143  -7.535  1.00  0.00    -0.014 A 
BRANCH  37  38
ATOM     38  C   UNL     1       2.833  -3.693  -8.719  1.00  0.00     0.031 A 
ATOM     39  C   UNL     1       3.329  -3.090  -9.968  1.00  0.00     0.074 A 
ATOM     40  C   UNL     1       2.034  -4.771  -8.681  1.00  0.00     0.049 A 
ATOM     41  N   UNL     1       2.676  -2.327 -10.774  1.00  0.00    -0.248 NA
ATOM     42  C   UNL     1       4.761  -3.228 -10.278  1.00  0.00     0.031 C 
ATOM     43  C   UNL     1       1.751  -5.663  -7.553  1.00  0.00     0.029 A 
ATOM     44  N   UNL     1       1.396  -5.365  -9.717  1.00  0.00    -0.354 N 
ATOM     45  C   UNL     1       3.560  -2.031 -11.801  1.00  0.00     0.074 A 
ATOM     46  C   UNL     1       4.865  -2.453 -11.357  1.00  0.00     0.031 C 
ATOM     47  C   UNL     1       1.184  -6.799  -8.023  1.00  0.00     0.029 A 
ATOM     48  C   UNL     1       0.942  -6.645  -9.449  1.00  0.00     0.049 A 
ATOM     49  H   UNL     1       1.265  -4.924 -10.588  1.00  0.00     0.167 HD
ATOM     50  C   UNL     1       3.114  -1.695 -13.039  1.00  0.00     0.031 A 
ATOM     51  C   UNL     1       0.470  -7.523 -10.365  1.00  0.00     0.031 A 
ATOM     52  C   UNL     1       1.713  -1.360 -13.033  1.00  0.00     0.049 A 
ATOM     53  C   UNL     1       0.094  -6.750 -11.575  1.00  0.00     0.074 A 
ATOM     54  C   UNL     1       0.948  -0.403 -12.396  1.00  0.00     0.029 A 
ATOM     55  N   UNL     1       0.836  -2.337 -13.445  1.00  0.00    -0.354 N 
ATOM     56  N   UNL     1      -0.904  -5.914 -11.611  1.00  0.00    -0.248 NA
ATOM     57  C   UNL     1       1.090  -6.569 -12.621  1.00  0.00     0.031 C 
ATOM     58  C   UNL     1      -0.265  -1.069 -12.051  1.00  0.00     0.029 A 
ATOM     59  C   UNL     1      -0.199  -2.374 -12.544  1.00  0.00     0.049 A 
ATOM     60  H   UNL     1       0.933  -2.906 -14.243  1.00  0.00     0.167 HD
ATOM     61  C   UNL     1      -0.451  -4.851 -12.382  1.00  0.00     0.074 A 
ATOM     62  C   UNL     1       0.730  -5.363 -13.072  1.00  0.00     0.031 C 
ATOM     63  C   UNL     1      -0.905  -3.580 -12.166  1.00  0.00     0.031 A 
BRANCH  50  64
ATOM     64  C   UNL     1       3.845  -2.072 -14.297  1.00  0.00    -0.014 A 
ATOM     65  C   UNL     1       3.379  -1.575 -15.524  1.00  0.00     0.009 A 
ATOM     66  C   UNL     1       4.801  -3.106 -14.348  1.00  0.00     0.009 A 
ATOM     67  C   UNL     1       3.810  -2.125 -16.737  1.00  0.00     0.001 A 
ATOM     68  C   UNL     1       5.266  -3.626 -15.556  1.00  0.00     0.001 A 
ATOM     69  C   UNL     1       4.749  -3.152 -16.752  1.00  0.00     0.000 A 
ENDBRANCH  50  64
BRANCH  51  70
ATOM     70  C   UNL     1       0.583  -8.994 -10.369  1.00  0.00    -0.014 A 
ATOM     71  C   UNL     1      -0.233  -9.768 -11.207  1.00  0.00     0.009 A 
ATOM     72  C   UNL     1       1.677  -9.625  -9.749  1.00  0.00     0.009 A 
ATOM     73  C   UNL     1       0.064 -11.115 -11.452  1.00  0.00     0.001 A 
ATOM     74  C   UNL     1       1.971 -10.970  -9.990  1.00  0.00     0.001 A 
ATOM     75  C   UNL     1       1.173 -11.711 -10.855  1.00  0.00     0.000 A 
ENDBRANCH  51  70
BRANCH  63  76
ATOM     76  C   UNL     1      -2.087  -3.405 -11.239  1.00  0.00    -0.014 A 
ATOM     77  C   UNL     1      -2.069  -3.798  -9.889  1.00  0.00     0.009 A 
ATOM     78  C   UNL     1      -3.201  -2.694 -11.707  1.00  0.00     0.009 A 
ATOM     79  C   UNL     1      -3.150  -3.520  -9.045  1.00  0.00     0.001 A 
ATOM     80  C   UNL     1      -4.271  -2.396 -10.858  1.00  0.00     0.001 A 
ATOM     81  C   UNL     1      -4.248  -2.815  -9.530  1.00  0.00     0.000 A 
ENDBRANCH  63  76
ENDBRANCH  37  38
ENDBRANCH  30  32
ENDBRANCH  29  30
ENDBRANCH  28  29
ENDBRANCH   1  28
TORSDOF 13
