REMARK SMILES [NH3+]CCC1=c2cc([N+](=O)[O-])ccc2=N[C@H]1C(=O)OCCOC(=O)c1ccc(-c2c3nc(c(-c4ccccc4)c4ccc([nH]4)c(-c4ccccc4)c4nc(c(-c5ccccc5)c5ccc2[nH]5)C=C4)C=C3)cc1
REMARK SMILES IDX 19 1 18 2 16 3 17 4 15 5 4 6 5 7 6 8 13 9 14 10 7 11 12 12
REMARK SMILES IDX 11 13 3 14 2 15 1 16 8 20 9 21 10 22 20 23 21 24 22 25 23 26
REMARK SMILES IDX 24 27 25 28 71 29 26 30 70 31 27 32 28 33 29 34 64 35 30 36
REMARK SMILES IDX 69 37 63 38 65 39 31 40 68 41 62 42 61 43 32 45 54 46 39 47
REMARK SMILES IDX 53 48 40 49 43 50 52 51 66 52 41 53 42 54 51 56 67 57 44 58
REMARK SMILES IDX 33 59 34 60 38 61 35 62 37 63 36 64 55 65 56 66 60 67 57 68
REMARK SMILES IDX 59 69 58 70 45 71 46 72 50 73 47 74 49 75 48 76
REMARK H PARENT 1 17 1 18 1 19 65 44 43 55
REMARK Flexibility Score: inf
ROOT
ATOM      1  C   UNL     1      -2.794   2.932  -3.973  1.00  0.00     0.274 C 
ENDROOT
BRANCH   1   2
ATOM      2  O   UNL     1      -1.477   2.412  -4.248  1.00  0.00    -0.460 OA
BRANCH   2   3
ATOM      3  C   UNL     1      -0.973   1.565  -3.305  1.00  0.00     0.335 C 
ATOM      4  O   UNL     1      -1.593   1.191  -2.314  1.00  0.00    -0.249 OA
BRANCH   3   5
ATOM      5  C   UNL     1       0.468   1.125  -3.639  1.00  0.00     0.242 C 
ATOM      6  C   UNL     1       1.231   0.738  -2.388  1.00  0.00    -0.019 C 
ATOM      7  C   UNL     1       1.540  -0.558  -2.409  1.00  0.00     0.009 A 
ATOM      8  C   UNL     1       2.190  -1.452  -1.503  1.00  0.00     0.096 A 
ATOM      9  C   UNL     1       0.988  -1.017  -3.694  1.00  0.00     0.067 A 
ATOM     10  N   UNL     1       0.412  -0.135  -4.450  1.00  0.00    -0.265 NA
ATOM     11  C   UNL     1       2.213  -2.765  -1.803  1.00  0.00     0.270 A 
ATOM     12  C   UNL     1       1.105  -2.467  -3.978  1.00  0.00     0.035 A 
ATOM     13  C   UNL     1       1.661  -3.275  -3.055  1.00  0.00     0.088 A 
BRANCH   6  14
ATOM     14  C   UNL     1       1.577   1.760  -1.344  1.00  0.00     0.096 C 
BRANCH  14  15
ATOM     15  C   UNL     1       0.660   1.819  -0.107  1.00  0.00     0.263 C 
BRANCH  15  16
ATOM     16  N   UNL     1       0.702   0.629   0.736  1.00  0.00    -0.357 N 
ATOM     17  H   UNL     1       0.070   0.750   1.527  1.00  0.00     0.344 HD
ATOM     18  H   UNL     1       1.652   0.487   1.078  1.00  0.00     0.344 HD
ATOM     19  H   UNL     1       0.411  -0.183   0.191  1.00  0.00     0.344 HD
ENDBRANCH  15  16
ENDBRANCH  14  15
ENDBRANCH   6  14
BRANCH  11  20
ATOM     20  N   UNL     1       2.791  -3.677  -0.806  1.00  0.00     0.062 N 
ATOM     21  O   UNL     1       3.181  -3.199   0.269  1.00  0.00    -0.258 OA
ATOM     22  O   UNL     1       2.843  -4.878  -1.101  1.00  0.00    -0.258 OA
ENDBRANCH  11  20
ENDBRANCH   3   5
ENDBRANCH   2   3
ENDBRANCH   1   2
BRANCH   1  23
ATOM     23  C   UNL     1      -3.894   2.127  -4.666  1.00  0.00     0.275 C 
BRANCH  23  24
ATOM     24  O   UNL     1      -3.979   0.802  -4.117  1.00  0.00    -0.458 OA
BRANCH  24  25
ATOM     25  C   UNL     1      -3.514  -0.188  -4.911  1.00  0.00     0.338 C 
ATOM     26  O   UNL     1      -3.104  -0.104  -6.054  1.00  0.00    -0.246 OA
BRANCH  25  27
ATOM     27  C   UNL     1      -3.530  -1.445  -4.152  1.00  0.00     0.060 A 
ATOM     28  C   UNL     1      -4.590  -2.338  -4.266  1.00  0.00     0.016 A 
ATOM     29  C   UNL     1      -2.412  -1.774  -3.390  1.00  0.00     0.016 A 
ATOM     30  C   UNL     1      -4.520  -3.564  -3.594  1.00  0.00     0.010 A 
ATOM     31  C   UNL     1      -2.311  -3.017  -2.779  1.00  0.00     0.010 A 
ATOM     32  C   UNL     1      -3.369  -3.923  -2.864  1.00  0.00    -0.014 A 
BRANCH  32  33
ATOM     33  C   UNL     1      -3.233  -5.267  -2.249  1.00  0.00     0.031 A 
ATOM     34  C   UNL     1      -3.073  -5.436  -0.763  1.00  0.00     0.074 A 
ATOM     35  C   UNL     1      -3.178  -6.344  -3.055  1.00  0.00     0.049 A 
ATOM     36  N   UNL     1      -3.025  -6.545  -0.067  1.00  0.00    -0.248 NA
ATOM     37  C   UNL     1      -2.906  -4.217   0.044  1.00  0.00     0.031 C 
ATOM     38  C   UNL     1      -3.194  -6.300  -4.519  1.00  0.00     0.029 A 
ATOM     39  N   UNL     1      -3.108  -7.683  -2.762  1.00  0.00    -0.354 N 
ATOM     40  C   UNL     1      -2.812  -6.157   1.250  1.00  0.00     0.074 A 
ATOM     41  C   UNL     1      -2.675  -4.718   1.249  1.00  0.00     0.031 C 
ATOM     42  C   UNL     1      -3.208  -7.554  -4.994  1.00  0.00     0.029 A 
ATOM     43  C   UNL     1      -3.175  -8.489  -3.873  1.00  0.00     0.049 A 
ATOM     44  H   UNL     1      -3.020  -8.031  -1.846  1.00  0.00     0.167 HD
ATOM     45  C   UNL     1      -2.769  -6.929   2.361  1.00  0.00     0.031 A 
ATOM     46  C   UNL     1      -3.237  -9.829  -3.982  1.00  0.00     0.031 A 
ATOM     47  C   UNL     1      -2.936  -8.358   2.352  1.00  0.00     0.049 A 
ATOM     48  C   UNL     1      -3.264 -10.666  -2.736  1.00  0.00     0.074 A 
ATOM     49  C   UNL     1      -3.031  -9.217   3.433  1.00  0.00     0.029 A 
ATOM     50  N   UNL     1      -3.026  -9.137   1.209  1.00  0.00    -0.354 N 
ATOM     51  N   UNL     1      -3.207 -10.277  -1.485  1.00  0.00    -0.248 NA
ATOM     52  C   UNL     1      -3.385 -12.120  -2.911  1.00  0.00     0.031 C 
ATOM     53  C   UNL     1      -3.117 -10.523   2.943  1.00  0.00     0.029 A 
ATOM     54  C   UNL     1      -3.144 -10.471   1.558  1.00  0.00     0.049 A 
ATOM     55  H   UNL     1      -3.009  -8.793   0.287  1.00  0.00     0.167 HD
ATOM     56  C   UNL     1      -3.295 -11.434  -0.723  1.00  0.00     0.074 A 
ATOM     57  C   UNL     1      -3.432 -12.538  -1.652  1.00  0.00     0.031 C 
ATOM     58  C   UNL     1      -3.265 -11.564   0.626  1.00  0.00     0.031 A 
BRANCH  45  59
ATOM     59  C   UNL     1      -2.561  -6.250   3.689  1.00  0.00    -0.014 A 
ATOM     60  C   UNL     1      -1.404  -6.516   4.439  1.00  0.00     0.009 A 
ATOM     61  C   UNL     1      -3.546  -5.415   4.240  1.00  0.00     0.009 A 
ATOM     62  C   UNL     1      -1.238  -5.963   5.711  1.00  0.00     0.001 A 
ATOM     63  C   UNL     1      -3.363  -4.836   5.498  1.00  0.00     0.001 A 
ATOM     64  C   UNL     1      -2.215  -5.118   6.236  1.00  0.00     0.000 A 
ENDBRANCH  45  59
BRANCH  46  65
ATOM     65  C   UNL     1      -3.373 -10.430  -5.333  1.00  0.00    -0.014 A 
ATOM     66  C   UNL     1      -2.298 -10.418  -6.236  1.00  0.00     0.009 A 
ATOM     67  C   UNL     1      -4.615 -10.921  -5.763  1.00  0.00     0.009 A 
ATOM     68  C   UNL     1      -2.473 -10.854  -7.552  1.00  0.00     0.001 A 
ATOM     69  C   UNL     1      -4.780 -11.380  -7.072  1.00  0.00     0.001 A 
ATOM     70  C   UNL     1      -3.713 -11.335  -7.968  1.00  0.00     0.000 A 
ENDBRANCH  46  65
BRANCH  58  71
ATOM     71  C   UNL     1      -3.372 -12.948   1.202  1.00  0.00    -0.014 A 
ATOM     72  C   UNL     1      -4.514 -13.314   1.932  1.00  0.00     0.009 A 
ATOM     73  C   UNL     1      -2.295 -13.845   1.128  1.00  0.00     0.009 A 
ATOM     74  C   UNL     1      -4.569 -14.542   2.594  1.00  0.00     0.001 A 
ATOM     75  C   UNL     1      -2.365 -15.084   1.767  1.00  0.00     0.001 A 
ATOM     76  C   UNL     1      -3.495 -15.426   2.508  1.00  0.00     0.000 A 
ENDBRANCH  58  71
ENDBRANCH  32  33
ENDBRANCH  25  27
ENDBRANCH  24  25
ENDBRANCH  23  24
ENDBRANCH   1  23
TORSDOF 15
