REMARK SMILES O=C(OCCOC(=O)c1ccncc1-c1ccc(F)cc1F)c1ccc(-c2c3nc(c(-c4ccccc4)c4ccc([nH]4)c(-c4ccccc4)c4nc(c(-c5ccccc5)c5ccc2[nH]5)C=C4)C=C3)cc1
REMARK SMILES IDX 4 1 3 2 2 3 1 4 23 5 24 6 70 7 25 8 69 9 26 10 27 11 28 12
REMARK SMILES IDX 63 13 29 14 68 15 62 16 64 17 30 18 67 19 61 20 60 21 31 23
REMARK SMILES IDX 53 24 38 25 52 26 39 27 42 28 51 29 65 30 40 31 41 32 50 34
REMARK SMILES IDX 66 35 43 36 32 37 33 38 37 39 34 40 36 41 35 42 54 43 55 44
REMARK SMILES IDX 59 45 56 46 58 47 57 48 44 49 45 50 49 51 46 52 48 53 47 54
REMARK SMILES IDX 5 55 6 56 7 57 8 58 9 59 10 60 14 61 11 62 13 63 12 64 15 65
REMARK SMILES IDX 16 66 21 67 17 68 20 69 22 70 18 71 19 72
REMARK H PARENT 64 22 42 33
REMARK Flexibility Score: inf
ROOT
ATOM      1  C   UNL     1       4.603   0.985  -1.694  1.00  0.00     0.275 C 
ENDROOT
BRANCH   1   2
ATOM      2  O   UNL     1       4.963  -0.268  -1.107  1.00  0.00    -0.458 OA
BRANCH   2   3
ATOM      3  C   UNL     1       4.024  -0.944  -0.421  1.00  0.00     0.338 C 
ATOM      4  O   UNL     1       2.962  -1.335  -0.862  1.00  0.00    -0.246 OA
BRANCH   3   5
ATOM      5  C   UNL     1       4.464  -0.995   1.001  1.00  0.00     0.060 A 
ATOM      6  C   UNL     1       5.596  -0.271   1.405  1.00  0.00     0.016 A 
ATOM      7  C   UNL     1       3.671  -1.631   1.958  1.00  0.00     0.016 A 
ATOM      8  C   UNL     1       5.934  -0.192   2.741  1.00  0.00     0.010 A 
ATOM      9  C   UNL     1       3.951  -1.472   3.310  1.00  0.00     0.010 A 
ATOM     10  C   UNL     1       5.114  -0.796   3.693  1.00  0.00    -0.014 A 
BRANCH  10  11
ATOM     11  C   UNL     1       5.613  -0.898   5.070  1.00  0.00     0.031 A 
ATOM     12  C   UNL     1       6.133  -2.231   5.515  1.00  0.00     0.074 A 
ATOM     13  C   UNL     1       5.684   0.204   5.835  1.00  0.00     0.049 A 
ATOM     14  N   UNL     1       6.752  -2.544   6.620  1.00  0.00    -0.248 NA
ATOM     15  C   UNL     1       5.950  -3.363   4.586  1.00  0.00     0.031 C 
ATOM     16  C   UNL     1       5.237   1.541   5.439  1.00  0.00     0.029 A 
ATOM     17  N   UNL     1       6.170   0.377   7.099  1.00  0.00    -0.354 N 
ATOM     18  C   UNL     1       7.054  -3.894   6.499  1.00  0.00     0.074 A 
ATOM     19  C   UNL     1       6.472  -4.367   5.268  1.00  0.00     0.031 C 
ATOM     20  C   UNL     1       5.439   2.394   6.456  1.00  0.00     0.029 A 
ATOM     21  C   UNL     1       6.047   1.664   7.561  1.00  0.00     0.049 A 
ATOM     22  H   UNL     1       6.569  -0.350   7.628  1.00  0.00     0.167 HD
ATOM     23  C   UNL     1       7.805  -4.657   7.322  1.00  0.00     0.031 A 
ATOM     24  C   UNL     1       6.408   2.185   8.746  1.00  0.00     0.031 A 
ATOM     25  C   UNL     1       8.354  -4.160   8.549  1.00  0.00     0.049 A 
ATOM     26  C   UNL     1       7.153   1.289   9.695  1.00  0.00     0.074 A 
ATOM     27  C   UNL     1       9.125  -4.817   9.486  1.00  0.00     0.029 A 
ATOM     28  N   UNL     1       8.169  -2.861   9.008  1.00  0.00    -0.354 N 
ATOM     29  N   UNL     1       7.493   0.029   9.544  1.00  0.00    -0.248 NA
ATOM     30  C   UNL     1       7.609   1.893  10.951  1.00  0.00     0.031 C 
ATOM     31  C   UNL     1       9.368  -3.925  10.537  1.00  0.00     0.029 A 
ATOM     32  C   UNL     1       8.796  -2.699  10.226  1.00  0.00     0.049 A 
ATOM     33  H   UNL     1       7.665  -2.161   8.533  1.00  0.00     0.167 HD
ATOM     34  C   UNL     1       8.240  -0.301  10.664  1.00  0.00     0.074 A 
ATOM     35  C   UNL     1       8.307   0.898  11.480  1.00  0.00     0.031 C 
ATOM     36  C   UNL     1       8.829  -1.478  10.992  1.00  0.00     0.031 A 
BRANCH  23  37
ATOM     37  C   UNL     1       8.042  -6.079   6.898  1.00  0.00    -0.014 A 
ATOM     38  C   UNL     1       8.833  -6.378   5.773  1.00  0.00     0.009 A 
ATOM     39  C   UNL     1       7.427  -7.131   7.590  1.00  0.00     0.009 A 
ATOM     40  C   UNL     1       8.961  -7.694   5.323  1.00  0.00     0.001 A 
ATOM     41  C   UNL     1       7.582  -8.450   7.155  1.00  0.00     0.001 A 
ATOM     42  C   UNL     1       8.336  -8.729   6.016  1.00  0.00     0.000 A 
ENDBRANCH  23  37
BRANCH  24  43
ATOM     43  C   UNL     1       6.111   3.605   9.064  1.00  0.00    -0.014 A 
ATOM     44  C   UNL     1       7.135   4.560   9.150  1.00  0.00     0.009 A 
ATOM     45  C   UNL     1       4.784   4.019   9.273  1.00  0.00     0.009 A 
ATOM     46  C   UNL     1       6.841   5.889   9.471  1.00  0.00     0.001 A 
ATOM     47  C   UNL     1       4.491   5.353   9.568  1.00  0.00     0.001 A 
ATOM     48  C   UNL     1       5.520   6.285   9.677  1.00  0.00     0.000 A 
ENDBRANCH  24  43
BRANCH  36  49
ATOM     49  C   UNL     1       9.620  -1.497  12.265  1.00  0.00    -0.014 A 
ATOM     50  C   UNL     1       8.985  -1.479  13.515  1.00  0.00     0.009 A 
ATOM     51  C   UNL     1      11.020  -1.583  12.203  1.00  0.00     0.009 A 
ATOM     52  C   UNL     1       9.743  -1.510  14.684  1.00  0.00     0.001 A 
ATOM     53  C   UNL     1      11.772  -1.648  13.374  1.00  0.00     0.001 A 
ATOM     54  C   UNL     1      11.134  -1.601  14.613  1.00  0.00     0.000 A 
ENDBRANCH  36  49
ENDBRANCH  10  11
ENDBRANCH   3   5
ENDBRANCH   2   3
ENDBRANCH   1   2
BRANCH   1  55
ATOM     55  C   UNL     1       3.639   1.951  -0.963  1.00  0.00     0.275 C 
BRANCH  55  56
ATOM     56  O   UNL     1       3.161   1.543   0.330  1.00  0.00    -0.458 OA
BRANCH  56  57
ATOM     57  C   UNL     1       1.810   1.543   0.517  1.00  0.00     0.338 C 
ATOM     58  O   UNL     1       0.959   1.817  -0.311  1.00  0.00    -0.246 OA
BRANCH  57  59
ATOM     59  C   UNL     1       1.511   1.208   1.930  1.00  0.00     0.071 A 
ATOM     60  C   UNL     1       2.172   1.957   2.918  1.00  0.00     0.036 A 
ATOM     61  C   UNL     1       0.563   0.237   2.298  1.00  0.00     0.017 A 
ATOM     62  C   UNL     1       1.905   1.685   4.247  1.00  0.00     0.112 A 
ATOM     63  C   UNL     1       0.420   0.032   3.676  1.00  0.00     0.120 A 
ATOM     64  N   UNL     1       1.067   0.717   4.648  1.00  0.00    -0.264 NA
BRANCH  61  65
ATOM     65  C   UNL     1      -0.285  -0.565   1.399  1.00  0.00     0.020 A 
ATOM     66  C   UNL     1       0.216  -1.649   0.669  1.00  0.00     0.015 A 
ATOM     67  C   UNL     1      -1.675  -0.372   1.368  1.00  0.00     0.134 A 
ATOM     68  C   UNL     1      -0.621  -2.527  -0.023  1.00  0.00     0.040 A 
ATOM     69  C   UNL     1      -2.526  -1.231   0.672  1.00  0.00     0.079 A 
ATOM     70  F   UNL     1      -2.222   0.633   2.068  1.00  0.00    -0.206 F 
ATOM     71  C   UNL     1      -1.988  -2.311  -0.009  1.00  0.00     0.126 A 
ATOM     72  F   UNL     1      -2.796  -3.167  -0.646  1.00  0.00    -0.207 F 
ENDBRANCH  61  65
ENDBRANCH  57  59
ENDBRANCH  56  57
ENDBRANCH  55  56
ENDBRANCH   1  55
TORSDOF 12
