REMARK SMILES CN(C)C(=O)CCNC(=O)NC[C@H]1CC[C@@H](C(=O)OCCOC(=O)c2ccc(-c3c4nc(c(-c5ccccc5)c5ccc([nH]5)c(-c5ccccc5)c5nc(c(-c6ccccc6)c6ccc3[nH]6)C=C5)C=C4)cc2)CC1
REMARK SMILES IDX 19 1 17 2 18 3 16 4 13 5 14 6 74 7 15 8 73 9 12 10 11 11
REMARK SMILES IDX 8 12 9 13 10 15 7 17 6 18 4 19 1 20 2 21 3 22 5 23 20 24
REMARK SMILES IDX 21 25 22 26 23 27 24 28 25 29 26 30 72 31 27 32 71 33 28 34
REMARK SMILES IDX 29 35 30 36 65 37 31 38 70 39 64 40 66 41 32 42 69 43 63 44
REMARK SMILES IDX 62 45 33 47 55 48 40 49 54 50 41 51 44 52 53 53 67 54 42 55
REMARK SMILES IDX 43 56 52 58 68 59 45 60 34 61 35 62 39 63 36 64 38 65 37 66
REMARK SMILES IDX 56 67 57 68 61 69 58 70 60 71 59 72 46 73 47 74 51 75 48 76
REMARK SMILES IDX 50 77 49 78
REMARK H PARENT 8 14 11 16 66 46 44 57
REMARK Flexibility Score: inf
ROOT
ATOM      1  O   UNL     1       1.693   9.088   0.048  1.00  0.00    -0.462 OA
ENDROOT
BRANCH   1   2
ATOM      2  C   UNL     1       1.671  10.203  -0.723  1.00  0.00     0.309 C 
ATOM      3  O   UNL     1       1.663  11.349  -0.287  1.00  0.00    -0.252 OA
BRANCH   2   4
ATOM      4  C   UNL     1       1.585   9.900  -2.218  1.00  0.00     0.099 C 
ATOM      5  C   UNL     1      -0.097   7.474  -2.723  1.00  0.00     0.008 C 
ATOM      6  C   UNL     1      -0.694   8.810  -2.252  1.00  0.00     0.006 C 
ATOM      7  C   UNL     1       1.390   7.351  -2.358  1.00  0.00     0.006 C 
ATOM      8  C   UNL     1       0.140  10.007  -2.696  1.00  0.00     0.015 C 
ATOM      9  C   UNL     1       2.221   8.589  -2.683  1.00  0.00     0.015 C 
BRANCH   5  10
ATOM     10  C   UNL     1      -0.924   6.309  -2.139  1.00  0.00     0.121 C 
BRANCH  10  11
ATOM     11  N   UNL     1      -0.863   5.124  -2.973  1.00  0.00    -0.338 N 
ATOM     12  N   UNL     1       0.864   3.729  -2.160  1.00  0.00    -0.338 N 
ATOM     13  C   UNL     1      -0.060   4.062  -3.063  1.00  0.00     0.314 C 
ATOM     14  H   UNL     1       1.486   3.042  -2.491  1.00  0.00     0.165 HD
ATOM     15  O   UNL     1      -0.196   3.326  -4.043  1.00  0.00    -0.249 OA
ATOM     16  H   UNL     1      -1.591   5.097  -3.634  1.00  0.00     0.165 HD
BRANCH  12  17
ATOM     17  C   UNL     1       1.162   4.147  -0.803  1.00  0.00     0.127 C 
BRANCH  17  18
ATOM     18  C   UNL     1       0.245   3.516   0.234  1.00  0.00     0.121 C 
BRANCH  18  19
ATOM     19  C   UNL     1       0.734   2.120   0.558  1.00  0.00     0.223 C 
ATOM     20  C   UNL     1       0.941  -0.237  -0.012  1.00  0.00     0.146 C 
ATOM     21  N   UNL     1       0.299   1.052  -0.209  1.00  0.00    -0.349 N 
ATOM     22  C   UNL     1      -0.799   1.075  -1.166  1.00  0.00     0.146 C 
ATOM     23  O   UNL     1       1.568   1.980   1.458  1.00  0.00    -0.275 OA
ENDBRANCH  18  19
ENDBRANCH  17  18
ENDBRANCH  12  17
ENDBRANCH  10  11
ENDBRANCH   5  10
ENDBRANCH   2   4
ENDBRANCH   1   2
BRANCH   1  24
ATOM     24  C   UNL     1       1.730   9.271   1.478  1.00  0.00     0.274 C 
BRANCH  24  25
ATOM     25  C   UNL     1       3.131   9.021   2.039  1.00  0.00     0.275 C 
BRANCH  25  26
ATOM     26  O   UNL     1       4.048  10.041   1.610  1.00  0.00    -0.458 OA
BRANCH  26  27
ATOM     27  C   UNL     1       4.732   9.755   0.481  1.00  0.00     0.338 C 
ATOM     28  O   UNL     1       4.716   8.712  -0.157  1.00  0.00    -0.246 OA
BRANCH  27  29
ATOM     29  C   UNL     1       5.417  10.964   0.013  1.00  0.00     0.060 A 
ATOM     30  C   UNL     1       5.021  11.511  -1.211  1.00  0.00     0.016 A 
ATOM     31  C   UNL     1       6.477  11.516   0.733  1.00  0.00     0.016 A 
ATOM     32  C   UNL     1       5.685  12.617  -1.728  1.00  0.00     0.010 A 
ATOM     33  C   UNL     1       7.150  12.621   0.209  1.00  0.00     0.010 A 
ATOM     34  C   UNL     1       6.764  13.168  -1.029  1.00  0.00    -0.014 A 
BRANCH  34  35
ATOM     35  C   UNL     1       7.551  14.263  -1.635  1.00  0.00     0.031 A 
ATOM     36  C   UNL     1       8.886  13.955  -2.244  1.00  0.00     0.074 A 
ATOM     37  C   UNL     1       7.066  15.517  -1.651  1.00  0.00     0.049 A 
ATOM     38  N   UNL     1       9.791  14.775  -2.711  1.00  0.00    -0.248 NA
ATOM     39  C   UNL     1       9.251  12.532  -2.340  1.00  0.00     0.031 C 
ATOM     40  C   UNL     1       5.751  15.924  -1.157  1.00  0.00     0.029 A 
ATOM     41  N   UNL     1       7.634  16.682  -2.099  1.00  0.00    -0.354 N 
ATOM     42  C   UNL     1      10.843  13.971  -3.131  1.00  0.00     0.074 A 
ATOM     43  C   UNL     1      10.468  12.601  -2.859  1.00  0.00     0.031 C 
ATOM     44  C   UNL     1       5.614  17.250  -1.325  1.00  0.00     0.029 A 
ATOM     45  C   UNL     1       6.849  17.788  -1.888  1.00  0.00     0.049 A 
ATOM     46  H   UNL     1       8.519  16.721  -2.529  1.00  0.00     0.167 HD
ATOM     47  C   UNL     1      12.018  14.346  -3.688  1.00  0.00     0.031 A 
ATOM     48  C   UNL     1       7.114  19.091  -2.095  1.00  0.00     0.031 A 
ATOM     49  C   UNL     1      12.387  15.710  -3.954  1.00  0.00     0.049 A 
ATOM     50  C   UNL     1       8.457  19.488  -2.642  1.00  0.00     0.074 A 
ATOM     51  C   UNL     1      13.561  16.198  -4.500  1.00  0.00     0.029 A 
ATOM     52  N   UNL     1      11.579  16.806  -3.693  1.00  0.00    -0.354 N 
ATOM     53  N   UNL     1       9.460  18.725  -3.003  1.00  0.00    -0.248 NA
ATOM     54  C   UNL     1       8.705  20.927  -2.805  1.00  0.00     0.031 C 
ATOM     55  C   UNL     1      13.476  17.594  -4.537  1.00  0.00     0.029 A 
ATOM     56  C   UNL     1      12.232  17.970  -4.055  1.00  0.00     0.049 A 
ATOM     57  H   UNL     1      10.674  16.762  -3.308  1.00  0.00     0.167 HD
ATOM     58  C   UNL     1      10.449  19.588  -3.456  1.00  0.00     0.074 A 
ATOM     59  C   UNL     1       9.921  20.931  -3.334  1.00  0.00     0.031 C 
ATOM     60  C   UNL     1      11.684  19.295  -3.931  1.00  0.00     0.031 A 
BRANCH  47  61
ATOM     61  C   UNL     1      13.006  13.260  -4.002  1.00  0.00    -0.014 A 
ATOM     62  C   UNL     1      12.821  12.398  -5.094  1.00  0.00     0.009 A 
ATOM     63  C   UNL     1      14.148  13.108  -3.200  1.00  0.00     0.009 A 
ATOM     64  C   UNL     1      13.745  11.385  -5.357  1.00  0.00     0.001 A 
ATOM     65  C   UNL     1      15.082  12.110  -3.479  1.00  0.00     0.001 A 
ATOM     66  C   UNL     1      14.876  11.244  -4.552  1.00  0.00     0.000 A 
ENDBRANCH  47  61
BRANCH  48  67
ATOM     67  C   UNL     1       6.102  20.120  -1.745  1.00  0.00    -0.014 A 
ATOM     68  C   UNL     1       5.434  20.835  -2.750  1.00  0.00     0.009 A 
ATOM     69  C   UNL     1       5.804  20.397  -0.402  1.00  0.00     0.009 A 
ATOM     70  C   UNL     1       4.501  21.820  -2.416  1.00  0.00     0.001 A 
ATOM     71  C   UNL     1       4.853  21.364  -0.071  1.00  0.00     0.001 A 
ATOM     72  C   UNL     1       4.208  22.080  -1.078  1.00  0.00     0.000 A 
ENDBRANCH  48  67
BRANCH  60  73
ATOM     73  C   UNL     1      12.529  20.446  -4.393  1.00  0.00    -0.014 A 
ATOM     74  C   UNL     1      13.168  21.294  -3.476  1.00  0.00     0.009 A 
ATOM     75  C   UNL     1      12.721  20.654  -5.768  1.00  0.00     0.009 A 
ATOM     76  C   UNL     1      13.964  22.347  -3.930  1.00  0.00     0.001 A 
ATOM     77  C   UNL     1      13.536  21.694  -6.217  1.00  0.00     0.001 A 
ATOM     78  C   UNL     1      14.150  22.543  -5.299  1.00  0.00     0.000 A 
ENDBRANCH  60  73
ENDBRANCH  34  35
ENDBRANCH  27  29
ENDBRANCH  26  27
ENDBRANCH  25  26
ENDBRANCH  24  25
ENDBRANCH   1  24
TORSDOF 16
