REMARK SMILES Cc1ccc([C@@]23C[C@@H]4C[C@@H](C[C@@](C(=O)N5CCC(C(=O)OCCOC(=O)c6ccc(-c7c8nc(c(-c9ccccc9)c9ccc([nH]9)c(-c9ccccc9)c9nc(c(-c%10ccccc%10)c%10ccc7[nH]%10)C=C9)C=C8)cc6)CC5)(C4)C2)C3)cc1
REMARK SMILES IDX 22 1 21 2 19 3 20 4 18 5 13 6 14 7 15 8 16 9 76 10 17 11
REMARK SMILES IDX 75 12 12 13 6 14 7 15 78 16 79 17 8 18 10 19 9 20 77 21
REMARK SMILES IDX 11 22 5 23 1 24 2 25 3 26 81 27 4 28 80 29 23 30 24 31 25 32
REMARK SMILES IDX 26 33 27 34 28 35 74 36 29 37 73 38 30 39 31 40 32 41 67 42
REMARK SMILES IDX 33 43 72 44 66 45 68 46 34 47 71 48 65 49 64 50 35 52 57 53
REMARK SMILES IDX 42 54 56 55 43 56 46 57 55 58 69 59 44 60 45 61 54 63 70 64
REMARK SMILES IDX 47 65 36 66 37 67 41 68 38 69 40 70 39 71 58 72 59 73 63 74
REMARK SMILES IDX 60 75 62 76 61 77 48 78 49 79 53 80 50 81 52 82 51 83
REMARK H PARENT 68 51 46 62
REMARK Flexibility Score: inf
ROOT
ATOM      1  C   UNL     1      -9.060  -2.685  -5.912  1.00  0.00     0.274 C 
ENDROOT
BRANCH   1   2
ATOM      2  O   UNL     1      -7.843  -2.823  -5.186  1.00  0.00    -0.462 OA
BRANCH   2   3
ATOM      3  C   UNL     1      -8.015  -3.115  -3.870  1.00  0.00     0.309 C 
ATOM      4  O   UNL     1      -9.088  -3.045  -3.284  1.00  0.00    -0.252 OA
BRANCH   3   5
ATOM      5  C   UNL     1      -6.690  -3.503  -3.256  1.00  0.00     0.103 C 
ATOM      6  C   UNL     1      -5.710  -2.003   0.007  1.00  0.00     0.228 C 
ATOM      7  O   UNL     1      -6.514  -2.457   0.827  1.00  0.00    -0.274 OA
ATOM      8  N   UNL     1      -5.179  -2.815  -1.003  1.00  0.00    -0.342 N 
ATOM      9  C   UNL     1      -5.626  -4.193  -1.046  1.00  0.00     0.120 C 
ATOM     10  C   UNL     1      -4.660  -2.375  -2.295  1.00  0.00     0.120 C 
ATOM     11  C   UNL     1      -6.877  -4.228  -1.905  1.00  0.00     0.037 C 
ATOM     12  C   UNL     1      -5.836  -2.240  -3.240  1.00  0.00     0.037 C 
BRANCH   6  13
ATOM     13  C   UNL     1      -5.226  -0.550   0.131  1.00  0.00     0.051 C 
ATOM     14  C   UNL     1      -3.032   0.758   0.315  1.00  0.00    -0.003 C 
ATOM     15  C   UNL     1      -3.529   1.581  -0.913  1.00  0.00     0.015 C 
ATOM     16  C   UNL     1      -3.703  -0.622   0.259  1.00  0.00     0.028 C 
ATOM     17  C   UNL     1      -3.556   1.441   1.604  1.00  0.00     0.015 C 
ATOM     18  C   UNL     1      -5.062   1.745  -0.904  1.00  0.00    -0.009 C 
ATOM     19  C   UNL     1      -5.101   1.529   1.588  1.00  0.00    -0.009 C 
ATOM     20  C   UNL     1      -5.530   2.397   0.397  1.00  0.00     0.007 C 
ATOM     21  C   UNL     1      -5.698   0.362  -1.018  1.00  0.00     0.020 C 
ATOM     22  C   UNL     1      -5.725   0.120   1.441  1.00  0.00     0.020 C 
BRANCH  14  23
ATOM     23  C   UNL     1      -1.502   0.597   0.292  1.00  0.00    -0.042 A 
ATOM     24  C   UNL     1       2.802   0.133  -0.035  1.00  0.00     0.044 C 
ATOM     25  C   UNL     1       1.321   0.311   0.092  1.00  0.00    -0.051 A 
ATOM     26  C   UNL     1       0.507  -0.812   0.191  1.00  0.00     0.004 A 
ATOM     27  C   UNL     1       0.726   1.577   0.109  1.00  0.00     0.004 A 
ATOM     28  C   UNL     1      -0.875  -0.668   0.301  1.00  0.00     0.004 A 
ATOM     29  C   UNL     1      -0.665   1.717   0.211  1.00  0.00     0.004 A 
ENDBRANCH  14  23
ENDBRANCH   6  13
ENDBRANCH   3   5
ENDBRANCH   2   3
ENDBRANCH   1   2
BRANCH   1  30
ATOM     30  C   UNL     1      -8.804  -2.702  -7.422  1.00  0.00     0.275 C 
BRANCH  30  31
ATOM     31  O   UNL     1      -7.516  -3.180  -7.923  1.00  0.00    -0.458 OA
BRANCH  31  32
ATOM     32  C   UNL     1      -6.734  -4.231  -7.570  1.00  0.00     0.338 C 
ATOM     33  O   UNL     1      -5.562  -4.305  -7.920  1.00  0.00    -0.246 OA
BRANCH  32  34
ATOM     34  C   UNL     1      -7.288  -5.269  -6.681  1.00  0.00     0.060 A 
ATOM     35  C   UNL     1      -6.471  -5.835  -5.689  1.00  0.00     0.016 A 
ATOM     36  C   UNL     1      -8.632  -5.599  -6.751  1.00  0.00     0.016 A 
ATOM     37  C   UNL     1      -7.046  -6.569  -4.648  1.00  0.00     0.010 A 
ATOM     38  C   UNL     1      -9.216  -6.229  -5.675  1.00  0.00     0.010 A 
ATOM     39  C   UNL     1      -8.435  -6.698  -4.609  1.00  0.00    -0.014 A 
BRANCH  39  40
ATOM     40  C   UNL     1      -9.146  -7.583  -3.696  1.00  0.00     0.031 A 
ATOM     41  C   UNL     1      -9.506  -7.250  -2.304  1.00  0.00     0.074 A 
ATOM     42  C   UNL     1      -9.523  -8.734  -4.287  1.00  0.00     0.049 A 
ATOM     43  N   UNL     1      -9.521  -8.102  -1.331  1.00  0.00    -0.248 NA
ATOM     44  C   UNL     1      -9.853  -5.899  -1.875  1.00  0.00     0.031 C 
ATOM     45  C   UNL     1     -10.431  -9.762  -3.826  1.00  0.00     0.029 A 
ATOM     46  N   UNL     1      -8.950  -9.275  -5.445  1.00  0.00    -0.354 N 
ATOM     47  C   UNL     1     -10.162  -7.482  -0.272  1.00  0.00     0.074 A 
ATOM     48  C   UNL     1     -10.175  -6.077  -0.588  1.00  0.00     0.031 C 
ATOM     49  C   UNL     1     -10.131 -10.901  -4.481  1.00  0.00     0.029 A 
ATOM     50  C   UNL     1      -8.913 -10.649  -5.249  1.00  0.00     0.049 A 
ATOM     51  H   UNL     1      -8.636  -8.781  -6.237  1.00  0.00     0.167 HD
ATOM     52  C   UNL     1     -10.862  -8.210   0.644  1.00  0.00     0.031 A 
ATOM     53  C   UNL     1      -7.728 -11.316  -5.127  1.00  0.00     0.031 A 
ATOM     54  C   UNL     1     -10.892  -9.610   0.259  1.00  0.00     0.049 A 
ATOM     55  C   UNL     1      -7.687 -12.042  -3.808  1.00  0.00     0.074 A 
ATOM     56  C   UNL     1     -11.824 -10.320  -0.481  1.00  0.00     0.029 A 
ATOM     57  N   UNL     1      -9.734 -10.367   0.294  1.00  0.00    -0.354 N 
ATOM     58  N   UNL     1      -8.215 -11.581  -2.707  1.00  0.00    -0.248 NA
ATOM     59  C   UNL     1      -7.102 -13.367  -3.654  1.00  0.00     0.031 C 
ATOM     60  C   UNL     1     -11.190 -11.488  -0.961  1.00  0.00     0.029 A 
ATOM     61  C   UNL     1      -9.889 -11.492  -0.488  1.00  0.00     0.049 A 
ATOM     62  H   UNL     1      -8.922 -10.136   0.801  1.00  0.00     0.167 HD
ATOM     63  C   UNL     1      -8.182 -12.574  -1.761  1.00  0.00     0.074 A 
ATOM     64  C   UNL     1      -7.425 -13.648  -2.380  1.00  0.00     0.031 C 
ATOM     65  C   UNL     1      -8.835 -12.482  -0.567  1.00  0.00     0.031 A 
BRANCH  52  66
ATOM     66  C   UNL     1     -11.832  -7.619   1.639  1.00  0.00    -0.014 A 
ATOM     67  C   UNL     1     -13.011  -8.324   1.960  1.00  0.00     0.009 A 
ATOM     68  C   UNL     1     -11.648  -6.388   2.288  1.00  0.00     0.009 A 
ATOM     69  C   UNL     1     -13.991  -7.798   2.810  1.00  0.00     0.001 A 
ATOM     70  C   UNL     1     -12.636  -5.846   3.129  1.00  0.00     0.001 A 
ATOM     71  C   UNL     1     -13.812  -6.546   3.380  1.00  0.00     0.000 A 
ENDBRANCH  52  66
BRANCH  53  72
ATOM     72  C   UNL     1      -6.540 -10.667  -5.772  1.00  0.00    -0.014 A 
ATOM     73  C   UNL     1      -6.573 -10.416  -7.162  1.00  0.00     0.009 A 
ATOM     74  C   UNL     1      -5.539 -10.035  -5.019  1.00  0.00     0.009 A 
ATOM     75  C   UNL     1      -5.699  -9.499  -7.759  1.00  0.00     0.001 A 
ATOM     76  C   UNL     1      -4.648  -9.134  -5.625  1.00  0.00     0.001 A 
ATOM     77  C   UNL     1      -4.745  -8.846  -6.987  1.00  0.00     0.000 A 
ENDBRANCH  53  72
BRANCH  65  78
ATOM     78  C   UNL     1      -8.651 -13.379   0.628  1.00  0.00    -0.014 A 
ATOM     79  C   UNL     1      -7.516 -14.165   0.845  1.00  0.00     0.009 A 
ATOM     80  C   UNL     1      -9.588 -13.306   1.688  1.00  0.00     0.009 A 
ATOM     81  C   UNL     1      -7.341 -14.866   2.044  1.00  0.00     0.001 A 
ATOM     82  C   UNL     1      -9.392 -13.959   2.903  1.00  0.00     0.001 A 
ATOM     83  C   UNL     1      -8.268 -14.750   3.077  1.00  0.00     0.000 A 
ENDBRANCH  65  78
ENDBRANCH  39  40
ENDBRANCH  32  34
ENDBRANCH  31  32
ENDBRANCH  30  31
ENDBRANCH   1  30
TORSDOF 13
