REMARK SMILES CC1(C)Oc2ccc(NC(=O)[C@H]3CC=CC[C@@H]3C(=O)OCCOC(=O)c3ccc(-c4c5nc(c(-c6ccccc6)c6ccc([nH]6)c(-c6ccccc6)c6nc(c(-c7ccccc7)c7ccc4[nH]7)C=C6)C=C5)cc3)cc2NC1=O
REMARK SMILES IDX 21 1 20 2 18 3 19 4 17 5 12 6 13 7 14 8 16 9 15 10 10 11
REMARK SMILES IDX 9 12 11 14 8 15 1 16 2 17 3 18 4 19 77 20 5 21 76 22 78 23
REMARK SMILES IDX 6 24 75 25 7 27 74 28 22 29 23 30 24 31 25 32 26 33 27 34
REMARK SMILES IDX 73 35 28 36 72 37 29 38 30 39 31 40 66 41 32 42 71 43 65 44
REMARK SMILES IDX 67 45 33 46 70 47 64 48 63 49 34 51 56 52 41 53 55 54 42 55
REMARK SMILES IDX 45 56 54 57 68 58 43 59 44 60 53 62 69 63 46 64 35 65 36 66
REMARK SMILES IDX 40 67 37 68 39 69 38 70 57 71 58 72 62 73 59 74 61 75 60 76
REMARK SMILES IDX 47 77 48 78 52 79 49 80 51 81 50 82
REMARK H PARENT 9 13 76 26 67 50 45 61
REMARK Flexibility Score: inf
ROOT
ATOM      1  C   UNL     1      -1.594  -6.791  -5.008  1.00  0.00     0.274 C 
ENDROOT
BRANCH   1   2
ATOM      2  O   UNL     1      -1.865  -5.607  -5.796  1.00  0.00    -0.462 OA
BRANCH   2   3
ATOM      3  C   UNL     1      -2.351  -4.532  -5.129  1.00  0.00     0.310 C 
ATOM      4  O   UNL     1      -2.624  -4.534  -3.932  1.00  0.00    -0.252 OA
BRANCH   3   5
ATOM      5  C   UNL     1      -2.462  -3.265  -5.983  1.00  0.00     0.116 C 
ATOM      6  C   UNL     1      -3.226  -3.385  -7.318  1.00  0.00     0.097 C 
ATOM      7  C   UNL     1      -2.286  -4.092  -8.342  1.00  0.00     0.041 C 
ATOM      8  C   UNL     1      -0.850  -3.632  -8.280  1.00  0.00    -0.030 C 
ATOM      9  C   UNL     1      -1.123  -2.543  -6.065  1.00  0.00     0.043 C 
ATOM     10  C   UNL     1      -0.334  -2.922  -7.269  1.00  0.00    -0.030 C 
BRANCH   6  11
ATOM     11  C   UNL     1      -3.816  -2.098  -8.015  1.00  0.00     0.228 C 
ATOM     12  N   UNL     1      -4.328  -0.978  -7.418  1.00  0.00    -0.326 N 
ATOM     13  H   UNL     1      -4.521  -0.243  -8.045  1.00  0.00     0.169 HD
ATOM     14  O   UNL     1      -3.869  -2.050  -9.254  1.00  0.00    -0.274 OA
BRANCH  12  15
ATOM     15  C   UNL     1      -4.628  -0.684  -6.091  1.00  0.00     0.043 A 
ATOM     16  C   UNL     1      -2.178  -0.834  -1.001  1.00  0.00     0.067 C 
ATOM     17  C   UNL     1      -1.958  -0.163  -2.366  1.00  0.00     0.182 C 
ATOM     18  C   UNL     1      -0.547   0.021  -2.995  1.00  0.00     0.067 C 
ATOM     19  O   UNL     1      -2.591  -1.141  -3.168  1.00  0.00    -0.476 OA
ATOM     20  C   UNL     1      -2.478   1.306  -2.406  1.00  0.00     0.268 C 
ATOM     21  C   UNL     1      -3.812  -0.684  -3.613  1.00  0.00     0.144 A 
ATOM     22  N   UNL     1      -3.152   1.595  -3.584  1.00  0.00    -0.319 N 
ATOM     23  O   UNL     1      -2.159   2.163  -1.587  1.00  0.00    -0.270 OA
ATOM     24  C   UNL     1      -4.698  -1.686  -3.945  1.00  0.00     0.051 A 
ATOM     25  C   UNL     1      -3.773   0.541  -4.265  1.00  0.00     0.086 A 
ATOM     26  H   UNL     1      -3.192   2.515  -3.932  1.00  0.00     0.170 HD
ATOM     27  C   UNL     1      -5.123  -1.685  -5.253  1.00  0.00     0.030 A 
ATOM     28  C   UNL     1      -4.187   0.552  -5.576  1.00  0.00     0.056 A 
ENDBRANCH  12  15
ENDBRANCH   6  11
ENDBRANCH   3   5
ENDBRANCH   2   3
ENDBRANCH   1   2
BRANCH   1  29
ATOM     29  C   UNL     1      -0.092  -6.910  -4.729  1.00  0.00     0.275 C 
BRANCH  29  30
ATOM     30  O   UNL     1       0.321  -5.853  -3.840  1.00  0.00    -0.458 OA
BRANCH  30  31
ATOM     31  C   UNL     1       1.647  -5.588  -3.777  1.00  0.00     0.338 C 
ATOM     32  O   UNL     1       2.530  -6.188  -4.398  1.00  0.00    -0.246 OA
BRANCH  31  33
ATOM     33  C   UNL     1       1.919  -4.453  -2.852  1.00  0.00     0.060 A 
ATOM     34  C   UNL     1       3.208  -4.177  -2.377  1.00  0.00     0.016 A 
ATOM     35  C   UNL     1       0.900  -3.592  -2.476  1.00  0.00     0.016 A 
ATOM     36  C   UNL     1       3.470  -3.030  -1.579  1.00  0.00     0.010 A 
ATOM     37  C   UNL     1       1.187  -2.464  -1.692  1.00  0.00     0.010 A 
ATOM     38  C   UNL     1       2.462  -2.102  -1.255  1.00  0.00    -0.014 A 
BRANCH  38  39
ATOM     39  C   UNL     1       2.776  -0.728  -0.680  1.00  0.00     0.031 A 
ATOM     40  C   UNL     1       2.049  -0.016   0.449  1.00  0.00     0.074 A 
ATOM     41  C   UNL     1       3.538   0.124  -1.395  1.00  0.00     0.049 A 
ATOM     42  N   UNL     1       2.436   0.780   1.417  1.00  0.00    -0.248 NA
ATOM     43  C   UNL     1       0.609  -0.097   0.375  1.00  0.00     0.031 C 
ATOM     44  C   UNL     1       4.104  -0.138  -2.716  1.00  0.00     0.029 A 
ATOM     45  N   UNL     1       3.945   1.403  -1.097  1.00  0.00    -0.354 N 
ATOM     46  C   UNL     1       1.269   1.120   2.128  1.00  0.00     0.074 A 
ATOM     47  C   UNL     1       0.159   0.505   1.457  1.00  0.00     0.031 C 
ATOM     48  C   UNL     1       4.859   0.911  -3.078  1.00  0.00     0.029 A 
ATOM     49  C   UNL     1       4.837   1.906  -2.008  1.00  0.00     0.049 A 
ATOM     50  H   UNL     1       3.628   1.906  -0.312  1.00  0.00     0.167 HD
ATOM     51  C   UNL     1       1.044   2.018   3.119  1.00  0.00     0.031 A 
ATOM     52  C   UNL     1       5.618   3.000  -1.946  1.00  0.00     0.031 A 
ATOM     53  C   UNL     1       1.974   3.060   3.429  1.00  0.00     0.049 A 
ATOM     54  C   UNL     1       5.595   3.875  -0.723  1.00  0.00     0.074 A 
ATOM     55  C   UNL     1       1.945   3.991   4.450  1.00  0.00     0.029 A 
ATOM     56  N   UNL     1       3.006   3.413   2.579  1.00  0.00    -0.354 N 
ATOM     57  N   UNL     1       4.784   3.840   0.306  1.00  0.00    -0.248 NA
ATOM     58  C   UNL     1       6.636   4.909  -0.633  1.00  0.00     0.031 C 
ATOM     59  C   UNL     1       2.902   4.970   4.156  1.00  0.00     0.029 A 
ATOM     60  C   UNL     1       3.587   4.584   3.013  1.00  0.00     0.049 A 
ATOM     61  H   UNL     1       3.285   2.904   1.784  1.00  0.00     0.167 HD
ATOM     62  C   UNL     1       5.223   4.838   1.172  1.00  0.00     0.074 A 
ATOM     63  C   UNL     1       6.384   5.444   0.555  1.00  0.00     0.031 C 
ATOM     64  C   UNL     1       4.715   5.209   2.375  1.00  0.00     0.031 A 
BRANCH  51  65
ATOM     65  C   UNL     1      -0.299   1.988   3.822  1.00  0.00    -0.014 A 
ATOM     66  C   UNL     1      -1.148   3.107   3.841  1.00  0.00     0.009 A 
ATOM     67  C   UNL     1      -0.710   0.833   4.515  1.00  0.00     0.009 A 
ATOM     68  C   UNL     1      -2.361   3.076   4.541  1.00  0.00     0.001 A 
ATOM     69  C   UNL     1      -1.933   0.796   5.192  1.00  0.00     0.001 A 
ATOM     70  C   UNL     1      -2.754   1.920   5.212  1.00  0.00     0.000 A 
ENDBRANCH  51  65
BRANCH  52  71
ATOM     71  C   UNL     1       6.642   3.163  -3.006  1.00  0.00    -0.014 A 
ATOM     72  C   UNL     1       6.306   3.648  -4.277  1.00  0.00     0.009 A 
ATOM     73  C   UNL     1       7.939   2.675  -2.777  1.00  0.00     0.009 A 
ATOM     74  C   UNL     1       7.249   3.619  -5.308  1.00  0.00     0.001 A 
ATOM     75  C   UNL     1       8.882   2.664  -3.804  1.00  0.00     0.001 A 
ATOM     76  C   UNL     1       8.533   3.127  -5.071  1.00  0.00     0.000 A 
ENDBRANCH  52  71
BRANCH  64  77
ATOM     77  C   UNL     1       5.373   6.331   3.125  1.00  0.00    -0.014 A 
ATOM     78  C   UNL     1       5.972   6.061   4.367  1.00  0.00     0.009 A 
ATOM     79  C   UNL     1       5.277   7.660   2.690  1.00  0.00     0.009 A 
ATOM     80  C   UNL     1       6.449   7.100   5.165  1.00  0.00     0.001 A 
ATOM     81  C   UNL     1       5.782   8.696   3.479  1.00  0.00     0.001 A 
ATOM     82  C   UNL     1       6.356   8.416   4.719  1.00  0.00     0.000 A 
ENDBRANCH  64  77
ENDBRANCH  38  39
ENDBRANCH  31  33
ENDBRANCH  30  31
ENDBRANCH  29  30
ENDBRANCH   1  29
TORSDOF 13
