REMARK SMILES CO[C@@]1(C(=O)OCCOC(=O)c2ccc(-c3c4nc(c(-c5ccccc5)c5ccc([nH]5)c(-c5ccccc5)c5nc(c(-c6ccccc6)c6ccc3[nH]6)C=C5)C=C4)cc2)CC(c2ccccc2)=CC=C1C
REMARK SMILES IDX 8 1 7 2 6 3 4 4 5 5 3 6 60 7 70 8 61 9 69 10 71 11 68 12
REMARK SMILES IDX 2 13 1 14 62 15 63 16 67 17 64 18 66 19 65 20 9 21 10 22
REMARK SMILES IDX 11 23 12 24 13 25 59 26 14 27 58 28 15 29 16 30 17 31 52 32
REMARK SMILES IDX 18 33 57 34 51 35 53 36 19 37 56 38 50 39 49 40 20 42 42 43
REMARK SMILES IDX 27 44 41 45 28 46 31 47 40 48 54 49 29 50 30 51 39 53 55 54
REMARK SMILES IDX 32 55 21 56 22 57 26 58 23 59 25 60 24 61 43 62 44 63 48 64
REMARK SMILES IDX 45 65 47 66 46 67 33 68 34 69 38 70 35 71 37 72 36 73
REMARK H PARENT 53 41 31 52
REMARK Flexibility Score: inf
ROOT
ATOM      1  C   UNL     1      -1.718   2.175   0.244  1.00  0.00     0.275 C 
ENDROOT
BRANCH   1   2
ATOM      2  C   UNL     1      -1.124   0.887  -0.322  1.00  0.00     0.274 C 
BRANCH   2   3
ATOM      3  O   UNL     1      -0.750  -0.021   0.736  1.00  0.00    -0.460 OA
BRANCH   3   4
ATOM      4  C   UNL     1       0.571  -0.003   1.086  1.00  0.00     0.343 C 
ATOM      5  O   UNL     1       1.372   0.774   0.572  1.00  0.00    -0.248 OA
BRANCH   4   6
ATOM      6  C   UNL     1       0.931  -1.031   2.239  1.00  0.00     0.190 C 
ATOM      7  C   UNL     1       2.511  -1.157   2.203  1.00  0.00     0.088 C 
ATOM      8  C   UNL     1       0.242  -2.388   1.987  1.00  0.00    -0.030 C 
ATOM      9  C   UNL     1       3.104  -2.397   1.587  1.00  0.00    -0.037 C 
ATOM     10  C   UNL     1       0.928  -3.468   1.567  1.00  0.00     0.003 C 
ATOM     11  C   UNL     1      -1.252  -2.534   2.127  1.00  0.00     0.043 C 
ATOM     12  C   UNL     1       2.343  -3.464   1.311  1.00  0.00     0.004 C 
BRANCH   6  13
ATOM     13  O   UNL     1       0.762  -0.565   3.590  1.00  0.00    -0.362 OA
ATOM     14  C   UNL     1      -0.511  -0.339   4.143  1.00  0.00     0.197 C 
ENDBRANCH   6  13
BRANCH   9  15
ATOM     15  C   UNL     1       4.560  -2.389   1.338  1.00  0.00    -0.022 A 
ATOM     16  C   UNL     1       5.073  -2.753   0.086  1.00  0.00     0.008 A 
ATOM     17  C   UNL     1       5.454  -1.956   2.329  1.00  0.00     0.008 A 
ATOM     18  C   UNL     1       6.445  -2.680  -0.169  1.00  0.00     0.001 A 
ATOM     19  C   UNL     1       6.825  -1.884   2.075  1.00  0.00     0.001 A 
ATOM     20  C   UNL     1       7.320  -2.244   0.824  1.00  0.00     0.000 A 
ENDBRANCH   9  15
ENDBRANCH   4   6
ENDBRANCH   3   4
ENDBRANCH   2   3
ENDBRANCH   1   2
BRANCH   1  21
ATOM     21  O   UNL     1      -0.788   2.785   1.156  1.00  0.00    -0.458 OA
BRANCH  21  22
ATOM     22  C   UNL     1      -1.210   2.923   2.430  1.00  0.00     0.338 C 
ATOM     23  O   UNL     1      -2.324   2.672   2.880  1.00  0.00    -0.246 OA
BRANCH  22  24
ATOM     24  C   UNL     1      -0.117   3.445   3.261  1.00  0.00     0.060 A 
ATOM     25  C   UNL     1       1.088   2.748   3.369  1.00  0.00     0.016 A 
ATOM     26  C   UNL     1      -0.323   4.608   4.002  1.00  0.00     0.016 A 
ATOM     27  C   UNL     1       2.086   3.195   4.227  1.00  0.00     0.010 A 
ATOM     28  C   UNL     1       0.706   5.097   4.809  1.00  0.00     0.010 A 
ATOM     29  C   UNL     1       1.918   4.395   4.926  1.00  0.00    -0.014 A 
BRANCH  29  30
ATOM     30  C   UNL     1       3.023   4.951   5.741  1.00  0.00     0.031 A 
ATOM     31  C   UNL     1       2.872   5.100   7.225  1.00  0.00     0.074 A 
ATOM     32  C   UNL     1       4.148   5.367   5.129  1.00  0.00     0.049 A 
ATOM     33  N   UNL     1       3.629   5.755   8.067  1.00  0.00    -0.248 NA
ATOM     34  C   UNL     1       1.716   4.431   7.842  1.00  0.00     0.031 C 
ATOM     35  C   UNL     1       4.439   5.230   3.699  1.00  0.00     0.029 A 
ATOM     36  N   UNL     1       5.252   6.005   5.633  1.00  0.00    -0.354 N 
ATOM     37  C   UNL     1       3.024   5.609   9.308  1.00  0.00     0.074 A 
ATOM     38  C   UNL     1       1.837   4.803   9.110  1.00  0.00     0.031 C 
ATOM     39  C   UNL     1       5.641   5.766   3.443  1.00  0.00     0.029 A 
ATOM     40  C   UNL     1       6.168   6.351   4.670  1.00  0.00     0.049 A 
ATOM     41  H   UNL     1       5.376   6.197   6.591  1.00  0.00     0.167 HD
ATOM     42  C   UNL     1       3.421   6.112  10.500  1.00  0.00     0.031 A 
ATOM     43  C   UNL     1       7.279   7.106   4.749  1.00  0.00     0.031 A 
ATOM     44  C   UNL     1       4.608   6.903  10.691  1.00  0.00     0.049 A 
ATOM     45  C   UNL     1       7.649   7.723   6.064  1.00  0.00     0.074 A 
ATOM     46  C   UNL     1       5.106   7.442  11.865  1.00  0.00     0.029 A 
ATOM     47  N   UNL     1       5.482   7.269   9.680  1.00  0.00    -0.354 N 
ATOM     48  N   UNL     1       7.054   7.608   7.226  1.00  0.00    -0.248 NA
ATOM     49  C   UNL     1       8.833   8.594   6.073  1.00  0.00     0.031 C 
ATOM     50  C   UNL     1       6.258   8.174  11.555  1.00  0.00     0.029 A 
ATOM     51  C   UNL     1       6.500   8.053  10.196  1.00  0.00     0.049 A 
ATOM     52  H   UNL     1       5.392   7.011   8.734  1.00  0.00     0.167 HD
ATOM     53  C   UNL     1       7.790   8.388   8.105  1.00  0.00     0.074 A 
ATOM     54  C   UNL     1       8.888   8.954   7.348  1.00  0.00     0.031 C 
ATOM     55  C   UNL     1       7.572   8.620   9.422  1.00  0.00     0.031 A 
BRANCH  42  56
ATOM     56  C   UNL     1       2.539   5.859  11.688  1.00  0.00    -0.014 A 
ATOM     57  C   UNL     1       2.506   4.608  12.322  1.00  0.00     0.009 A 
ATOM     58  C   UNL     1       1.760   6.906  12.204  1.00  0.00     0.009 A 
ATOM     59  C   UNL     1       1.692   4.406  13.439  1.00  0.00     0.001 A 
ATOM     60  C   UNL     1       0.963   6.707  13.333  1.00  0.00     0.001 A 
ATOM     61  C   UNL     1       0.925   5.456  13.945  1.00  0.00     0.000 A 
ENDBRANCH  42  56
BRANCH  43  62
ATOM     62  C   UNL     1       8.073   7.378   3.526  1.00  0.00    -0.014 A 
ATOM     63  C   UNL     1       9.333   6.789   3.348  1.00  0.00     0.009 A 
ATOM     64  C   UNL     1       7.565   8.218   2.522  1.00  0.00     0.009 A 
ATOM     65  C   UNL     1      10.073   7.047   2.191  1.00  0.00     0.001 A 
ATOM     66  C   UNL     1       8.295   8.452   1.356  1.00  0.00     0.001 A 
ATOM     67  C   UNL     1       9.552   7.872   1.195  1.00  0.00     0.000 A 
ENDBRANCH  43  62
BRANCH  55  68
ATOM     68  C   UNL     1       8.549   9.519  10.120  1.00  0.00    -0.014 A 
ATOM     69  C   UNL     1       8.503  10.909   9.939  1.00  0.00     0.009 A 
ATOM     70  C   UNL     1       9.510   8.971  10.983  1.00  0.00     0.009 A 
ATOM     71  C   UNL     1       9.423  11.734  10.590  1.00  0.00     0.001 A 
ATOM     72  C   UNL     1      10.413   9.800  11.648  1.00  0.00     0.001 A 
ATOM     73  C   UNL     1      10.374  11.179  11.446  1.00  0.00     0.000 A 
ENDBRANCH  55  68
ENDBRANCH  29  30
ENDBRANCH  22  24
ENDBRANCH  21  22
ENDBRANCH   1  21
TORSDOF 13
