REMARK SMILES CCC(=O)N1CCC[C@](C[C@H]2CC(c3ccc(C)cc3)=NO2)(C(=O)OCCOC(=O)c2ccc(-c3c4nc(c(-c5ccccc5)c5ccc([nH]5)c(-c5ccccc5)c5nc(c(-c6ccccc6)c6ccc3[nH]6)C=C5)C=C4)cc2)C1
REMARK SMILES IDX 26 1 25 2 23 3 24 4 9 5 5 6 6 7 79 8 7 9 8 10 3 11 4 12 2 13
REMARK SMILES IDX 1 14 10 15 11 16 12 17 22 18 13 19 21 20 14 21 15 22 20 23
REMARK SMILES IDX 16 24 19 25 17 26 18 27 27 28 28 29 29 30 30 31 31 32 32 33
REMARK SMILES IDX 78 34 33 35 77 36 34 37 35 38 36 39 71 40 37 41 76 42 70 43
REMARK SMILES IDX 72 44 38 45 75 46 69 47 68 48 39 50 61 51 46 52 60 53 47 54
REMARK SMILES IDX 50 55 59 56 73 57 48 58 49 59 58 61 74 62 51 63 40 64 41 65
REMARK SMILES IDX 45 66 42 67 44 68 43 69 62 70 63 71 67 72 64 73 66 74 65 75
REMARK SMILES IDX 52 76 53 77 57 78 54 79 56 80 55 81
REMARK H PARENT 72 49 50 60
REMARK Flexibility Score: inf
ROOT
ATOM      1  C   UNL     1       0.258  -3.916   3.450  1.00  0.00     0.274 C 
ENDROOT
BRANCH   1   2
ATOM      2  O   UNL     1       1.476  -3.220   3.121  1.00  0.00    -0.462 OA
BRANCH   2   3
ATOM      3  C   UNL     1       2.359  -3.858   2.127  1.00  0.00     0.314 C 
ATOM      4  O   UNL     1       2.111  -5.085   2.314  1.00  0.00    -0.252 OA
BRANCH   3   5
ATOM      5  C   UNL     1       3.658  -2.800   0.672  1.00  0.00     0.089 C 
ATOM      6  N   UNL     1       2.348  -2.010  -1.682  1.00  0.00    -0.342 N 
ATOM      7  C   UNL     1       3.017  -2.937  -2.603  1.00  0.00     0.119 C 
ATOM      8  C   UNL     1       3.150  -1.556  -0.534  1.00  0.00     0.138 C 
ATOM      9  C   UNL     1       3.890  -4.010  -1.980  1.00  0.00     0.023 C 
ATOM     10  C   UNL     1       4.591  -3.588  -0.679  1.00  0.00     0.022 C 
BRANCH   6  11
ATOM     11  C   UNL     1       1.114  -1.543  -2.108  1.00  0.00     0.222 C 
ATOM     12  O   UNL     1       0.490  -2.162  -2.984  1.00  0.00    -0.275 OA
BRANCH  11  13
ATOM     13  C   UNL     1       0.507  -0.198  -1.717  1.00  0.00     0.097 C 
ATOM     14  C   UNL     1       0.516   0.444  -0.353  1.00  0.00     0.014 C 
ENDBRANCH  11  13
ENDBRANCH   6  11
BRANCH   5  15
ATOM     15  C   UNL     1       5.201  -1.812   1.124  1.00  0.00     0.069 C 
BRANCH  15  16
ATOM     16  C   UNL     1       6.353  -1.155   0.256  1.00  0.00     0.212 C 
ATOM     17  C   UNL     1       7.356  -1.986  -0.533  1.00  0.00     0.108 C 
ATOM     18  O   UNL     1       5.912  -0.103  -0.607  1.00  0.00    -0.392 OA
ATOM     19  C   UNL     1       7.092  -1.431  -1.891  1.00  0.00     0.091 C 
ATOM     20  N   UNL     1       6.349  -0.373  -1.925  1.00  0.00    -0.090 NA
BRANCH  19  21
ATOM     21  C   UNL     1       7.676  -2.029  -3.103  1.00  0.00    -0.001 A 
ATOM     22  C   UNL     1       7.427  -3.362  -3.436  1.00  0.00     0.010 A 
ATOM     23  C   UNL     1       8.434  -1.225  -3.954  1.00  0.00     0.010 A 
ATOM     24  C   UNL     1       7.927  -3.888  -4.631  1.00  0.00     0.004 A 
ATOM     25  C   UNL     1       8.969  -1.766  -5.126  1.00  0.00     0.004 A 
ATOM     26  C   UNL     1       8.714  -3.099  -5.478  1.00  0.00    -0.051 A 
ATOM     27  C   UNL     1       9.309  -3.667  -6.734  1.00  0.00     0.044 C 
ENDBRANCH  19  21
ENDBRANCH  15  16
ENDBRANCH   5  15
ENDBRANCH   3   5
ENDBRANCH   2   3
ENDBRANCH   1   2
BRANCH   1  28
ATOM     28  C   UNL     1      -0.711  -3.866   2.260  1.00  0.00     0.275 C 
BRANCH  28  29
ATOM     29  O   UNL     1      -0.336  -4.665   1.107  1.00  0.00    -0.458 OA
BRANCH  29  30
ATOM     30  C   UNL     1       0.301  -4.187  -0.000  1.00  0.00     0.338 C 
ATOM     31  O   UNL     1       0.043  -4.570  -1.129  1.00  0.00    -0.246 OA
BRANCH  30  32
ATOM     32  C   UNL     1       1.618  -3.569   0.277  1.00  0.00     0.060 A 
ATOM     33  C   UNL     1       2.922  -4.791   0.401  1.00  0.00     0.016 A 
ATOM     34  C   UNL     1       1.704  -2.091   1.279  1.00  0.00     0.016 A 
ATOM     35  C   UNL     1       4.223  -4.612   1.655  1.00  0.00     0.010 A 
ATOM     36  C   UNL     1       3.004  -1.900   2.500  1.00  0.00     0.010 A 
ATOM     37  C   UNL     1       4.164  -3.244   2.786  1.00  0.00    -0.014 A 
BRANCH  37  38
ATOM     38  C   UNL     1       4.466  -3.478   4.215  1.00  0.00     0.031 A 
ATOM     39  C   UNL     1       5.244  -2.410   4.869  1.00  0.00     0.074 A 
ATOM     40  C   UNL     1       3.995  -4.601   4.834  1.00  0.00     0.049 A 
ATOM     41  N   UNL     1       6.247  -2.634   5.643  1.00  0.00    -0.248 NA
ATOM     42  C   UNL     1       5.128  -0.977   4.550  1.00  0.00     0.031 C 
ATOM     43  C   UNL     1       3.924  -4.984   6.244  1.00  0.00     0.029 A 
ATOM     44  N   UNL     1       3.536  -5.761   4.228  1.00  0.00    -0.354 N 
ATOM     45  C   UNL     1       6.506  -1.425   6.254  1.00  0.00     0.074 A 
ATOM     46  C   UNL     1       6.056  -0.432   5.336  1.00  0.00     0.031 C 
ATOM     47  C   UNL     1       3.734  -6.321   6.347  1.00  0.00     0.029 A 
ATOM     48  C   UNL     1       3.710  -6.888   5.009  1.00  0.00     0.049 A 
ATOM     49  H   UNL     1       3.127  -5.780   3.332  1.00  0.00     0.167 HD
ATOM     50  C   UNL     1       6.722  -1.401   7.596  1.00  0.00     0.031 A 
ATOM     51  C   UNL     1       4.493  -7.903   4.535  1.00  0.00     0.031 A 
ATOM     52  C   UNL     1       6.742  -2.771   8.107  1.00  0.00     0.049 A 
ATOM     53  C   UNL     1       5.858  -7.803   5.184  1.00  0.00     0.074 A 
ATOM     54  C   UNL     1       5.821  -3.525   8.812  1.00  0.00     0.029 A 
ATOM     55  N   UNL     1       7.620  -3.672   7.523  1.00  0.00    -0.354 N 
ATOM     56  N   UNL     1       6.296  -6.713   5.761  1.00  0.00    -0.248 NA
ATOM     57  C   UNL     1       6.792  -8.915   5.321  1.00  0.00     0.031 C 
ATOM     58  C   UNL     1       6.134  -4.902   8.593  1.00  0.00     0.029 A 
ATOM     59  C   UNL     1       7.240  -4.975   7.762  1.00  0.00     0.049 A 
ATOM     60  H   UNL     1       8.416  -3.414   7.004  1.00  0.00     0.167 HD
ATOM     61  C   UNL     1       7.456  -6.977   6.428  1.00  0.00     0.074 A 
ATOM     62  C   UNL     1       7.747  -8.361   6.090  1.00  0.00     0.031 C 
ATOM     63  C   UNL     1       8.064  -6.062   7.240  1.00  0.00     0.031 A 
BRANCH  50  64
ATOM     64  C   UNL     1       6.595  -0.177   8.475  1.00  0.00    -0.014 A 
ATOM     65  C   UNL     1       6.618  -0.349   9.870  1.00  0.00     0.009 A 
ATOM     66  C   UNL     1       6.423   1.148   8.029  1.00  0.00     0.009 A 
ATOM     67  C   UNL     1       6.461   0.723  10.758  1.00  0.00     0.001 A 
ATOM     68  C   UNL     1       6.263   2.228   8.911  1.00  0.00     0.001 A 
ATOM     69  C   UNL     1       6.283   2.014  10.279  1.00  0.00     0.000 A 
ENDBRANCH  50  64
BRANCH  51  70
ATOM     70  C   UNL     1       4.174  -8.286   3.118  1.00  0.00    -0.014 A 
ATOM     71  C   UNL     1       2.834  -8.666   2.854  1.00  0.00     0.009 A 
ATOM     72  C   UNL     1       4.983  -7.964   2.022  1.00  0.00     0.009 A 
ATOM     73  C   UNL     1       2.276  -8.557   1.577  1.00  0.00     0.001 A 
ATOM     74  C   UNL     1       4.426  -7.888   0.729  1.00  0.00     0.001 A 
ATOM     75  C   UNL     1       3.072  -8.159   0.514  1.00  0.00     0.000 A 
ENDBRANCH  51  70
BRANCH  63  76
ATOM     76  C   UNL     1       9.506  -6.118   7.689  1.00  0.00    -0.014 A 
ATOM     77  C   UNL     1      10.454  -7.009   7.181  1.00  0.00     0.009 A 
ATOM     78  C   UNL     1       9.992  -5.134   8.585  1.00  0.00     0.009 A 
ATOM     79  C   UNL     1      11.784  -6.980   7.613  1.00  0.00     0.001 A 
ATOM     80  C   UNL     1      11.334  -5.040   8.945  1.00  0.00     0.001 A 
ATOM     81  C   UNL     1      12.226  -5.990   8.484  1.00  0.00     0.000 A 
ENDBRANCH  63  76
ENDBRANCH  37  38
ENDBRANCH  30  32
ENDBRANCH  29  30
ENDBRANCH  28  29
ENDBRANCH   1  28
TORSDOF 16
