REMARK SMILES C[C@]1(c2nnnn2CCC(=O)OCCOC(=O)c2ccc(-c3c4nc(c(-c5ccccc5)c5ccc([nH]5)c(-c5ccccc5)c5nc(c(-c6ccccc6)c6ccc3[nH]6)C=C5)C=C4)cc2)CCCO1
REMARK SMILES IDX 13 1 12 2 10 3 11 4 9 5 8 6 7 7 3 8 4 9 5 10 6 11 2 12 1 13
REMARK SMILES IDX 66 14 69 15 67 16 68 17 14 18 15 19 16 20 17 21 18 22 19 23
REMARK SMILES IDX 65 24 20 25 64 26 21 27 22 28 23 29 58 30 24 31 63 32 57 33
REMARK SMILES IDX 59 34 25 35 62 36 56 37 55 38 26 40 48 41 33 42 47 43 34 44
REMARK SMILES IDX 37 45 46 46 60 47 35 48 36 49 45 51 61 52 38 53 27 54 28 55
REMARK SMILES IDX 32 56 29 57 31 58 30 59 49 60 50 61 54 62 51 63 53 64 52 65
REMARK SMILES IDX 39 66 40 67 44 68 41 69 43 70 42 71
REMARK H PARENT 59 39 37 50
REMARK Flexibility Score: inf
ROOT
ATOM      1  C   UNL     1       0.561   2.143   4.671  1.00  0.00     0.274 C 
ENDROOT
BRANCH   1   2
ATOM      2  O   UNL     1       0.227   1.175   3.657  1.00  0.00    -0.462 OA
BRANCH   2   3
ATOM      3  C   UNL     1      -1.081   0.911   3.430  1.00  0.00     0.307 C 
ATOM      4  O   UNL     1      -2.015   1.350   4.089  1.00  0.00    -0.252 OA
BRANCH   3   5
ATOM      5  C   UNL     1      -1.265  -0.046   2.277  1.00  0.00     0.146 C 
BRANCH   5   6
ATOM      6  C   UNL     1      -0.955   0.548   0.909  1.00  0.00     0.160 C 
BRANCH   6   7
ATOM      7  N   UNL     1       0.448   0.546   0.564  1.00  0.00    -0.226 N 
ATOM      8  C   UNL     1       1.192  -0.256  -0.267  1.00  0.00     0.183 A 
ATOM      9  N   UNL     1       2.461   0.091  -0.120  1.00  0.00    -0.111 NA
ATOM     10  N   UNL     1       2.486   1.149   0.736  1.00  0.00    -0.024 NA
ATOM     11  N   UNL     1       1.266   1.452   1.133  1.00  0.00    -0.045 NA
BRANCH   8  12
ATOM     12  C   UNL     1       0.737  -1.304  -1.227  1.00  0.00     0.126 C 
ATOM     13  C   UNL     1       1.131  -0.883  -2.649  1.00  0.00     0.051 C 
ATOM     14  C   UNL     1       1.286  -2.676  -0.846  1.00  0.00     0.046 C 
ATOM     15  O   UNL     1      -0.694  -1.452  -1.207  1.00  0.00    -0.367 OA
ATOM     16  C   UNL     1       0.262  -3.615  -1.430  1.00  0.00     0.032 C 
ATOM     17  C   UNL     1      -1.025  -2.848  -1.226  1.00  0.00     0.161 C 
ENDBRANCH   8  12
ENDBRANCH   6   7
ENDBRANCH   5   6
ENDBRANCH   3   5
ENDBRANCH   2   3
ENDBRANCH   1   2
BRANCH   1  18
ATOM     18  C   UNL     1       0.549   3.579   4.151  1.00  0.00     0.275 C 
BRANCH  18  19
ATOM     19  O   UNL     1      -0.794   4.053   3.994  1.00  0.00    -0.458 OA
BRANCH  19  20
ATOM     20  C   UNL     1      -1.270   3.934   2.738  1.00  0.00     0.338 C 
ATOM     21  O   UNL     1      -0.696   3.460   1.777  1.00  0.00    -0.246 OA
BRANCH  20  22
ATOM     22  C   UNL     1      -2.579   4.569   2.586  1.00  0.00     0.060 A 
ATOM     23  C   UNL     1      -3.305   4.250   1.429  1.00  0.00     0.016 A 
ATOM     24  C   UNL     1      -2.896   5.671   3.381  1.00  0.00     0.016 A 
ATOM     25  C   UNL     1      -4.233   5.153   0.957  1.00  0.00     0.010 A 
ATOM     26  C   UNL     1      -3.816   6.579   2.902  1.00  0.00     0.010 A 
ATOM     27  C   UNL     1      -4.405   6.349   1.654  1.00  0.00    -0.014 A 
BRANCH  27  28
ATOM     28  C   UNL     1      -5.130   7.415   0.992  1.00  0.00     0.031 A 
ATOM     29  C   UNL     1      -6.604   7.379   1.083  1.00  0.00     0.074 A 
ATOM     30  C   UNL     1      -4.474   8.463   0.459  1.00  0.00     0.049 A 
ATOM     31  N   UNL     1      -7.462   7.439   0.118  1.00  0.00    -0.248 NA
ATOM     32  C   UNL     1      -7.198   7.218   2.417  1.00  0.00     0.031 C 
ATOM     33  C   UNL     1      -3.049   8.783   0.583  1.00  0.00     0.029 A 
ATOM     34  N   UNL     1      -4.989   9.553  -0.172  1.00  0.00    -0.354 N 
ATOM     35  C   UNL     1      -8.714   7.442   0.721  1.00  0.00     0.074 A 
ATOM     36  C   UNL     1      -8.497   7.210   2.128  1.00  0.00     0.031 C 
ATOM     37  C   UNL     1      -2.870  10.087   0.282  1.00  0.00     0.029 A 
ATOM     38  C   UNL     1      -4.138  10.646  -0.159  1.00  0.00     0.049 A 
ATOM     39  H   UNL     1      -5.878   9.563  -0.596  1.00  0.00     0.167 HD
ATOM     40  C   UNL     1      -9.848   7.792   0.060  1.00  0.00     0.031 A 
ATOM     41  C   UNL     1      -4.488  11.935  -0.380  1.00  0.00     0.031 A 
ATOM     42  C   UNL     1      -9.681   7.809  -1.365  1.00  0.00     0.049 A 
ATOM     43  C   UNL     1      -5.798  11.944  -1.074  1.00  0.00     0.074 A 
ATOM     44  C   UNL     1      -9.366   6.861  -2.317  1.00  0.00     0.029 A 
ATOM     45  N   UNL     1      -9.522   9.028  -1.979  1.00  0.00    -0.354 N 
ATOM     46  N   UNL     1      -5.974  11.544  -2.300  1.00  0.00    -0.248 NA
ATOM     47  C   UNL     1      -7.011  12.037  -0.274  1.00  0.00     0.031 C 
ATOM     48  C   UNL     1      -8.596   7.556  -3.294  1.00  0.00     0.029 A 
ATOM     49  C   UNL     1      -8.500   8.887  -2.884  1.00  0.00     0.049 A 
ATOM     50  H   UNL     1     -10.041   9.845  -1.803  1.00  0.00     0.167 HD
ATOM     51  C   UNL     1      -7.221  10.935  -2.302  1.00  0.00     0.074 A 
ATOM     52  C   UNL     1      -7.862  11.384  -1.071  1.00  0.00     0.031 C 
ATOM     53  C   UNL     1      -7.503   9.900  -3.150  1.00  0.00     0.031 A 
BRANCH  40  54
ATOM     54  C   UNL     1     -11.043   8.397   0.734  1.00  0.00    -0.014 A 
ATOM     55  C   UNL     1     -12.257   8.488   0.034  1.00  0.00     0.009 A 
ATOM     56  C   UNL     1     -10.950   9.101   1.950  1.00  0.00     0.009 A 
ATOM     57  C   UNL     1     -13.316   9.265   0.519  1.00  0.00     0.001 A 
ATOM     58  C   UNL     1     -12.019   9.841   2.458  1.00  0.00     0.001 A 
ATOM     59  C   UNL     1     -13.197   9.938   1.731  1.00  0.00     0.000 A 
ENDBRANCH  40  54
BRANCH  41  60
ATOM     60  C   UNL     1      -3.888  13.146   0.220  1.00  0.00    -0.014 A 
ATOM     61  C   UNL     1      -4.155  14.416  -0.310  1.00  0.00     0.009 A 
ATOM     62  C   UNL     1      -3.224  13.083   1.460  1.00  0.00     0.009 A 
ATOM     63  C   UNL     1      -3.793  15.576   0.388  1.00  0.00     0.001 A 
ATOM     64  C   UNL     1      -2.848  14.239   2.150  1.00  0.00     0.001 A 
ATOM     65  C   UNL     1      -3.146  15.487   1.619  1.00  0.00     0.000 A 
ENDBRANCH  41  60
BRANCH  53  66
ATOM     66  C   UNL     1      -6.510   9.592  -4.245  1.00  0.00    -0.014 A 
ATOM     67  C   UNL     1      -5.172   9.252  -3.975  1.00  0.00     0.009 A 
ATOM     68  C   UNL     1      -6.967   9.481  -5.567  1.00  0.00     0.009 A 
ATOM     69  C   UNL     1      -4.309   8.853  -4.999  1.00  0.00     0.001 A 
ATOM     70  C   UNL     1      -6.110   9.059  -6.588  1.00  0.00     0.001 A 
ATOM     71  C   UNL     1      -4.780   8.753  -6.305  1.00  0.00     0.000 A 
ENDBRANCH  53  66
ENDBRANCH  27  28
ENDBRANCH  20  22
ENDBRANCH  19  20
ENDBRANCH  18  19
ENDBRANCH   1  18
TORSDOF 14
