REMARK SMILES O=C(OCCOC(=O)c1ccc(-c2c3nc(c(-c4ccccc4)c4ccc([nH]4)c(-c4ccccc4)c4nc(c(-c5ccccc5)c5ccc2[nH]5)C=C4)C=C3)cc1)C1=Cc2cc(S(F)(F)(F)(F)F)cc(Br)c2O[C@@H]1C(F)(F)F
REMARK SMILES IDX 5 1 4 2 3 3 2 4 1 5 57 6 58 7 73 8 59 9 72 10 60 11 71 12
REMARK SMILES IDX 61 13 69 14 68 15 70 16 74 17 75 18 76 19 77 20 62 21 63 22
REMARK SMILES IDX 64 23 65 24 66 25 67 26 6 27 7 28 8 29 9 30 10 31 56 32
REMARK SMILES IDX 11 33 55 34 12 35 13 36 14 37 49 38 15 39 54 40 48 41 50 42
REMARK SMILES IDX 16 43 53 44 47 45 46 46 17 48 39 49 24 50 38 51 25 52 28 53
REMARK SMILES IDX 37 54 51 55 26 56 27 57 36 59 52 60 29 61 18 62 19 63 23 64
REMARK SMILES IDX 20 65 22 66 21 67 40 68 41 69 45 70 42 71 44 72 43 73 30 74
REMARK SMILES IDX 31 75 35 76 32 77 34 78 33 79
REMARK H PARENT 50 47 28 58
REMARK Flexibility Score: inf
ROOT
ATOM      1  C   UNL     1       4.935   0.996   0.986  1.00  0.00     0.275 C 
ENDROOT
BRANCH   1   2
ATOM      2  C   UNL     1       4.428   1.096  -0.444  1.00  0.00     0.275 C 
BRANCH   2   3
ATOM      3  O   UNL     1       3.009   1.096  -0.444  1.00  0.00    -0.459 OA
BRANCH   3   4
ATOM      4  C   UNL     1       2.299  -0.010   0.096  1.00  0.00     0.338 C 
ATOM      5  O   UNL     1       1.028  -0.010   0.096  1.00  0.00    -0.246 OA
BRANCH   4   6
ATOM      6  C   UNL     1       3.058  -1.193   0.673  1.00  0.00     0.087 C 
ATOM      7  C   UNL     1       4.419  -1.193   0.673  1.00  0.00     0.027 C 
ATOM      8  C   UNL     1       2.299  -2.376   1.250  1.00  0.00     0.316 C 
ATOM      9  C   UNL     1       5.179  -0.010   0.096  1.00  0.00     0.020 A 
ATOM     10  O   UNL     1       3.557   1.307   1.229  1.00  0.00    -0.474 OA
ATOM     11  C   UNL     1       6.234  -0.157  -0.790  1.00  0.00     0.036 A 
ATOM     12  C   UNL     1       4.738   1.192   0.449  1.00  0.00     0.142 A 
ATOM     13  C   UNL     1       6.952   1.039  -1.029  1.00  0.00     0.109 A 
ATOM     14  C   UNL     1       5.414   2.325   0.066  1.00  0.00     0.062 A 
ATOM     15  C   UNL     1       6.501   2.250  -0.760  1.00  0.00     0.044 A 
ATOM     16  Br  UNL     1       4.813   4.074   0.715  1.00  0.00    -0.047 Br
BRANCH   8  17
ATOM     17  C   UNL     1       2.666  -2.548   2.715  1.00  0.00     0.430 C 
ATOM     18  F   UNL     1       2.344  -1.446   3.385  1.00  0.00    -0.167 F 
ATOM     19  F   UNL     1       2.001  -3.584   3.219  1.00  0.00    -0.167 F 
ATOM     20  F   UNL     1       3.973  -2.767   2.821  1.00  0.00    -0.167 F 
ENDBRANCH   8  17
BRANCH  13  21
ATOM     21  S   UNL     1       8.605   0.897  -1.752  1.00  0.00     0.310 S 
ATOM     22  F   UNL     1       9.298   0.871  -0.326  1.00  0.00    -0.094 F 
ATOM     23  F   UNL     1       8.729   2.467  -1.708  1.00  0.00    -0.094 F 
ATOM     24  F   UNL     1      10.025   0.775  -2.376  1.00  0.00    -0.094 F 
ATOM     25  F   UNL     1       8.520  -0.677  -1.659  1.00  0.00    -0.094 F 
ATOM     26  F   UNL     1       7.211   1.002  -1.016  1.00  0.00    -0.094 F 
ENDBRANCH  13  21
ENDBRANCH   4   6
ENDBRANCH   3   4
ENDBRANCH   2   3
ENDBRANCH   1   2
BRANCH   1  27
ATOM     27  O   UNL     1       4.462  -0.208   1.573  1.00  0.00    -0.458 OA
BRANCH  27  28
ATOM     28  C   UNL     1       3.066  -0.441   1.687  1.00  0.00     0.338 C 
ATOM     29  O   UNL     1       2.240   0.427   1.263  1.00  0.00    -0.246 OA
BRANCH  28  30
ATOM     30  C   UNL     1       2.559  -1.729   2.315  1.00  0.00     0.060 A 
ATOM     31  C   UNL     1       1.454  -2.393   1.809  1.00  0.00     0.016 A 
ATOM     32  C   UNL     1       3.146  -2.125   3.438  1.00  0.00     0.016 A 
ATOM     33  C   UNL     1       0.861  -3.297   2.722  1.00  0.00     0.010 A 
ATOM     34  C   UNL     1       2.582  -3.109   4.213  1.00  0.00     0.010 A 
ATOM     35  C   UNL     1       1.456  -3.768   3.804  1.00  0.00    -0.014 A 
BRANCH  35  36
ATOM     36  C   UNL     1       0.918  -4.976   4.552  1.00  0.00     0.031 A 
ATOM     37  C   UNL     1       0.576  -4.720   5.881  1.00  0.00     0.074 A 
ATOM     38  C   UNL     1       0.669  -6.175   3.906  1.00  0.00     0.049 A 
ATOM     39  N   UNL     1      -0.057  -5.532   6.729  1.00  0.00    -0.248 NA
ATOM     40  C   UNL     1       0.870  -3.460   6.580  1.00  0.00     0.031 C 
ATOM     41  C   UNL     1       1.004  -6.438   2.563  1.00  0.00     0.029 A 
ATOM     42  N   UNL     1       0.072  -7.304   4.421  1.00  0.00    -0.354 N 
ATOM     43  C   UNL     1      -0.224  -4.928   7.908  1.00  0.00     0.074 A 
ATOM     44  C   UNL     1       0.376  -3.589   7.831  1.00  0.00     0.031 C 
ATOM     45  C   UNL     1       0.624  -7.711   2.276  1.00  0.00     0.029 A 
ATOM     46  C   UNL     1       0.045  -8.264   3.434  1.00  0.00     0.049 A 
ATOM     47  H   UNL     1      -0.276  -7.407   5.336  1.00  0.00     0.167 HD
ATOM     48  C   UNL     1      -0.853  -5.441   9.043  1.00  0.00     0.031 A 
ATOM     49  C   UNL     1      -0.449  -9.556   3.520  1.00  0.00     0.031 A 
ATOM     50  C   UNL     1      -1.387  -6.718   9.115  1.00  0.00     0.049 A 
ATOM     51  C   UNL     1      -1.027 -10.090   4.674  1.00  0.00     0.074 A 
ATOM     52  C   UNL     1      -2.031  -7.248  10.249  1.00  0.00     0.029 A 
ATOM     53  N   UNL     1      -1.391  -7.687   8.136  1.00  0.00    -0.354 N 
ATOM     54  N   UNL     1      -1.228  -9.473   5.839  1.00  0.00    -0.248 NA
ATOM     55  C   UNL     1      -1.524 -11.467   4.787  1.00  0.00     0.031 C 
ATOM     56  C   UNL     1      -2.411  -8.522   9.962  1.00  0.00     0.029 A 
ATOM     57  C   UNL     1      -2.009  -8.809   8.643  1.00  0.00     0.049 A 
ATOM     58  H   UNL     1      -1.017  -7.594   7.230  1.00  0.00     0.167 HD
ATOM     59  C   UNL     1      -1.824 -10.300   6.700  1.00  0.00     0.074 A 
ATOM     60  C   UNL     1      -2.017 -11.598   6.038  1.00  0.00     0.031 C 
ATOM     61  C   UNL     1      -2.219 -10.024   8.011  1.00  0.00     0.031 A 
BRANCH  48  62
ATOM     62  C   UNL     1      -0.960  -4.549  10.269  1.00  0.00    -0.014 A 
ATOM     63  C   UNL     1      -1.579  -3.311  10.209  1.00  0.00     0.009 A 
ATOM     64  C   UNL     1      -0.386  -4.978  11.387  1.00  0.00     0.009 A 
ATOM     65  C   UNL     1      -1.286  -2.469  11.307  1.00  0.00     0.001 A 
ATOM     66  C   UNL     1      -0.254  -4.144  12.470  1.00  0.00     0.001 A 
ATOM     67  C   UNL     1      -0.790  -2.886  12.459  1.00  0.00     0.000 A 
ENDBRANCH  48  62
BRANCH  49  68
ATOM     68  C   UNL     1      -0.357 -10.443   2.288  1.00  0.00    -0.014 A 
ATOM     69  C   UNL     1      -1.549 -10.891   1.742  1.00  0.00     0.009 A 
ATOM     70  C   UNL     1       0.811 -10.743   1.733  1.00  0.00     0.009 A 
ATOM     71  C   UNL     1      -1.387 -11.900   0.764  1.00  0.00     0.001 A 
ATOM     72  C   UNL     1       0.881 -11.635   0.691  1.00  0.00     0.001 A 
ATOM     73  C   UNL     1      -0.254 -12.164   0.140  1.00  0.00     0.000 A 
ENDBRANCH  49  68
BRANCH  61  74
ATOM     74  C   UNL     1      -2.922 -11.123   8.791  1.00  0.00    -0.014 A 
ATOM     75  C   UNL     1      -2.373 -12.386   8.943  1.00  0.00     0.009 A 
ATOM     76  C   UNL     1      -4.149 -10.849   9.218  1.00  0.00     0.009 A 
ATOM     77  C   UNL     1      -3.314 -13.380   9.302  1.00  0.00     0.001 A 
ATOM     78  C   UNL     1      -4.967 -11.849   9.684  1.00  0.00     0.001 A 
ATOM     79  C   UNL     1      -4.510 -13.132   9.805  1.00  0.00     0.000 A 
ENDBRANCH  61  74
ENDBRANCH  35  36
ENDBRANCH  28  30
ENDBRANCH  27  28
ENDBRANCH   1  27
TORSDOF 13
