REMARK SMILES O=C(N[C@@H](CS)C(=O)N[C@@H](CO)C(=O)OCCOC(=O)c1ccc(-c2c3nc(c(-c4ccccc4)c4ccc([nH]4)c(-c4ccccc4)c4nc(c(-c5ccccc5)c5ccc2[nH]5)C=C4)C=C3)cc1)c1ccc(F)cc1
REMARK SMILES IDX 16 1 15 2 13 3 14 4 10 5 9 6 7 7 8 8 4 10 3 11 1 12 2 13
REMARK SMILES IDX 69 15 70 16 75 17 71 18 74 19 72 20 73 21 5 22 6 23 11 25
REMARK SMILES IDX 12 26 17 28 18 29 19 30 20 31 21 32 22 33 68 34 23 35 67 36
REMARK SMILES IDX 24 37 25 38 26 39 61 40 27 41 66 42 60 43 62 44 28 45 65 46
REMARK SMILES IDX 59 47 58 48 29 50 51 51 36 52 50 53 37 54 40 55 49 56 63 57
REMARK SMILES IDX 38 58 39 59 48 61 64 62 41 63 30 64 31 65 35 66 32 67 34 68
REMARK SMILES IDX 33 69 52 70 53 71 57 72 54 73 56 74 55 75 42 76 43 77 47 78
REMARK SMILES IDX 44 79 46 80 45 81
REMARK H PARENT 9 9 3 14 6 24 12 27 62 49 40 60
REMARK Flexibility Score: inf
ROOT
ATOM      1  C   UNL     1       5.606  -5.237   5.044  1.00  0.00     0.274 C 
ENDROOT
BRANCH   1   2
ATOM      2  O   UNL     1       5.146  -4.702   3.785  1.00  0.00    -0.460 OA
BRANCH   2   3
ATOM      3  C   UNL     1       3.962  -4.021   3.805  1.00  0.00     0.331 C 
ATOM      4  O   UNL     1       3.315  -3.766   4.814  1.00  0.00    -0.250 OA
BRANCH   3   5
ATOM      5  C   UNL     1       3.459  -3.709   2.384  1.00  0.00     0.218 C 
BRANCH   5   6
ATOM      6  N   UNL     1       4.516  -3.848   1.372  1.00  0.00    -0.339 N 
ATOM      7  C   UNL     1       5.026  -3.022   0.429  1.00  0.00     0.244 C 
ATOM      8  O   UNL     1       6.068  -3.408  -0.116  1.00  0.00    -0.273 OA
ATOM      9  H   UNL     1       4.945  -4.733   1.383  1.00  0.00     0.164 HD
BRANCH   7  10
ATOM     10  C   UNL     1       4.479  -1.618   0.087  1.00  0.00     0.181 C 
BRANCH  10  11
ATOM     11  N   UNL     1       3.031  -1.522  -0.131  1.00  0.00    -0.339 N 
ATOM     12  O   UNL     1       1.091  -0.479  -0.579  1.00  0.00    -0.269 OA
ATOM     13  C   UNL     1       2.311  -0.495  -0.700  1.00  0.00     0.251 C 
ATOM     14  H   UNL     1       2.503  -2.297   0.171  1.00  0.00     0.164 HD
BRANCH  13  15
ATOM     15  C   UNL     1       2.995   0.627  -1.387  1.00  0.00     0.040 A 
ATOM     16  C   UNL     1       3.904   0.393  -2.425  1.00  0.00     0.017 A 
ATOM     17  C   UNL     1       2.672   1.943  -1.023  1.00  0.00     0.017 A 
ATOM     18  C   UNL     1       4.535   1.469  -3.054  1.00  0.00     0.040 A 
ATOM     19  C   UNL     1       3.296   3.017  -1.663  1.00  0.00     0.040 A 
ATOM     20  C   UNL     1       4.228   2.769  -2.666  1.00  0.00     0.123 A 
ATOM     21  F   UNL     1       4.831   3.797  -3.277  1.00  0.00    -0.207 F 
ENDBRANCH  13  15
ENDBRANCH  10  11
BRANCH  10  22
ATOM     22  C   UNL     1       5.060  -0.555   1.037  1.00  0.00     0.101 C 
BRANCH  22  23
ATOM     23  S   UNL     1       3.953  -0.028   2.377  1.00  0.00    -0.177 SA
ATOM     24  H   UNL     1       2.849   0.565   1.846  1.00  0.00     0.102 HD
ENDBRANCH  22  23
ENDBRANCH  10  22
ENDBRANCH   7  10
ENDBRANCH   5   6
BRANCH   5  25
ATOM     25  C   UNL     1       2.309  -4.684   2.094  1.00  0.00     0.193 C 
BRANCH  25  26
ATOM     26  O   UNL     1       2.797  -6.011   1.878  1.00  0.00    -0.394 OA
ATOM     27  H   UNL     1       3.392  -6.016   1.112  1.00  0.00     0.210 HD
ENDBRANCH  25  26
ENDBRANCH   5  25
ENDBRANCH   3   5
ENDBRANCH   2   3
ENDBRANCH   1   2
BRANCH   1  28
ATOM     28  C   UNL     1       6.841  -4.482   5.525  1.00  0.00     0.275 C 
BRANCH  28  29
ATOM     29  O   UNL     1       6.468  -3.125   5.818  1.00  0.00    -0.458 OA
BRANCH  29  30
ATOM     30  C   UNL     1       7.200  -2.160   5.221  1.00  0.00     0.338 C 
ATOM     31  O   UNL     1       8.201  -2.313   4.532  1.00  0.00    -0.246 OA
BRANCH  30  32
ATOM     32  C   UNL     1       6.600  -0.835   5.479  1.00  0.00     0.060 A 
ATOM     33  C   UNL     1       5.218  -0.681   5.524  1.00  0.00     0.016 A 
ATOM     34  C   UNL     1       7.421   0.294   5.535  1.00  0.00     0.016 A 
ATOM     35  C   UNL     1       4.667   0.604   5.497  1.00  0.00     0.010 A 
ATOM     36  C   UNL     1       6.856   1.576   5.603  1.00  0.00     0.010 A 
ATOM     37  C   UNL     1       5.466   1.761   5.517  1.00  0.00    -0.014 A 
BRANCH  37  38
ATOM     38  C   UNL     1       4.869   3.132   5.361  1.00  0.00     0.031 A 
ATOM     39  C   UNL     1       5.458   4.130   4.381  1.00  0.00     0.074 A 
ATOM     40  C   UNL     1       3.769   3.514   6.046  1.00  0.00     0.049 A 
ATOM     41  N   UNL     1       5.277   5.429   4.311  1.00  0.00    -0.248 NA
ATOM     42  C   UNL     1       6.381   3.609   3.360  1.00  0.00     0.031 C 
ATOM     43  C   UNL     1       3.005   2.684   6.977  1.00  0.00     0.029 A 
ATOM     44  N   UNL     1       3.088   4.712   6.047  1.00  0.00    -0.354 N 
ATOM     45  C   UNL     1       6.138   5.886   3.319  1.00  0.00     0.074 A 
ATOM     46  C   UNL     1       6.821   4.724   2.791  1.00  0.00     0.031 C 
ATOM     47  C   UNL     1       1.921   3.356   7.384  1.00  0.00     0.029 A 
ATOM     48  C   UNL     1       1.991   4.719   6.874  1.00  0.00     0.049 A 
ATOM     49  H   UNL     1       3.361   5.488   5.506  1.00  0.00     0.167 HD
ATOM     50  C   UNL     1       6.352   7.157   2.896  1.00  0.00     0.031 A 
ATOM     51  C   UNL     1       1.166   5.713   7.257  1.00  0.00     0.031 A 
ATOM     52  C   UNL     1       5.605   8.306   3.341  1.00  0.00     0.049 A 
ATOM     53  C   UNL     1       1.428   7.116   6.800  1.00  0.00     0.074 A 
ATOM     54  C   UNL     1       5.748   9.631   2.956  1.00  0.00     0.029 A 
ATOM     55  N   UNL     1       4.548   8.266   4.234  1.00  0.00    -0.354 N 
ATOM     56  N   UNL     1       2.352   7.557   5.983  1.00  0.00    -0.248 NA
ATOM     57  C   UNL     1       0.560   8.164   7.356  1.00  0.00     0.031 C 
ATOM     58  C   UNL     1       4.797  10.395   3.640  1.00  0.00     0.029 A 
ATOM     59  C   UNL     1       4.033   9.540   4.415  1.00  0.00     0.049 A 
ATOM     60  H   UNL     1       4.212   7.452   4.675  1.00  0.00     0.167 HD
ATOM     61  C   UNL     1       2.183   8.934   5.936  1.00  0.00     0.074 A 
ATOM     62  C   UNL     1       1.050   9.252   6.779  1.00  0.00     0.031 C 
ATOM     63  C   UNL     1       2.916   9.853   5.263  1.00  0.00     0.031 A 
BRANCH  50  64
ATOM     64  C   UNL     1       7.481   7.403   1.931  1.00  0.00    -0.014 A 
ATOM     65  C   UNL     1       7.379   7.088   0.569  1.00  0.00     0.009 A 
ATOM     66  C   UNL     1       8.639   8.053   2.393  1.00  0.00     0.009 A 
ATOM     67  C   UNL     1       8.423   7.402  -0.306  1.00  0.00     0.001 A 
ATOM     68  C   UNL     1       9.668   8.389   1.512  1.00  0.00     0.001 A 
ATOM     69  C   UNL     1       9.562   8.058   0.164  1.00  0.00     0.000 A 
ENDBRANCH  50  64
BRANCH  51  70
ATOM     70  C   UNL     1       0.074   5.424   8.224  1.00  0.00    -0.014 A 
ATOM     71  C   UNL     1      -1.268   5.459   7.822  1.00  0.00     0.009 A 
ATOM     72  C   UNL     1       0.379   5.078   9.551  1.00  0.00     0.009 A 
ATOM     73  C   UNL     1      -2.283   5.149   8.731  1.00  0.00     0.001 A 
ATOM     74  C   UNL     1      -0.633   4.733  10.445  1.00  0.00     0.001 A 
ATOM     75  C   UNL     1      -1.964   4.774  10.036  1.00  0.00     0.000 A 
ENDBRANCH  51  70
BRANCH  63  76
ATOM     76  C   UNL     1       2.497  11.287   5.397  1.00  0.00    -0.014 A 
ATOM     77  C   UNL     1       2.775  12.015   6.565  1.00  0.00     0.009 A 
ATOM     78  C   UNL     1       1.820  11.919   4.343  1.00  0.00     0.009 A 
ATOM     79  C   UNL     1       2.351  13.340   6.686  1.00  0.00     0.001 A 
ATOM     80  C   UNL     1       1.417  13.250   4.459  1.00  0.00     0.001 A 
ATOM     81  C   UNL     1       1.674  13.956   5.633  1.00  0.00     0.000 A 
ENDBRANCH  63  76
ENDBRANCH  37  38
ENDBRANCH  30  32
ENDBRANCH  29  30
ENDBRANCH  28  29
ENDBRANCH   1  28
TORSDOF 19
