REMARK SMILES Cc1ccc(S(=O)(=O)N2c3ccc(C(=O)OCCOC(=O)c4ccc(-c5c6nc(c(-c7ccccc7)c7ccc([nH]7)c(-c7ccccc7)c7nc(c(-c8ccccc8)c8ccc5[nH]8)C=C7)C=C6)cc4)cc3C[C@H]2C)cc1
REMARK SMILES IDX 17 1 16 2 14 3 15 4 13 5 9 6 10 7 73 8 11 9 71 10 72 11
REMARK SMILES IDX 74 12 12 13 70 14 6 15 7 16 8 17 5 18 1 19 2 20 3 21 76 22
REMARK SMILES IDX 4 23 75 24 18 25 19 26 20 27 21 28 22 29 23 30 69 31 24 32
REMARK SMILES IDX 68 33 25 34 26 35 27 36 62 37 28 38 67 39 61 40 63 41 29 42
REMARK SMILES IDX 66 43 60 44 59 45 30 47 52 48 37 49 51 50 38 51 41 52 50 53
REMARK SMILES IDX 64 54 39 55 40 56 49 58 65 59 42 60 31 61 32 62 36 63 33 64
REMARK SMILES IDX 35 65 34 66 53 67 54 68 58 69 55 70 57 71 56 72 43 73 44 74
REMARK SMILES IDX 48 75 45 76 47 77 46 78
REMARK H PARENT 63 46 41 57
REMARK Flexibility Score: inf
ROOT
ATOM      1  C   UNL     1     -11.339   3.130   2.089  1.00  0.00     0.275 C 
ENDROOT
BRANCH   1   2
ATOM      2  O   UNL     1      -9.945   3.208   1.755  1.00  0.00    -0.458 OA
BRANCH   2   3
ATOM      3  C   UNL     1      -9.428   1.968   1.546  1.00  0.00     0.338 C 
ATOM      4  O   UNL     1     -10.057   0.920   1.618  1.00  0.00    -0.246 OA
BRANCH   3   5
ATOM      5  C   UNL     1      -7.966   1.954   1.335  1.00  0.00     0.060 A 
ATOM      6  N   UNL     1      -3.837   1.601   0.660  1.00  0.00    -0.263 N 
ATOM      7  C   UNL     1      -5.250   1.590   0.944  1.00  0.00     0.055 A 
ATOM      8  C   UNL     1      -3.618   2.917  -0.070  1.00  0.00     0.101 C 
ATOM      9  C   UNL     1      -5.909   0.728   1.797  1.00  0.00     0.028 A 
ATOM     10  C   UNL     1      -5.923   2.622   0.285  1.00  0.00    -0.021 A 
ATOM     11  C   UNL     1      -4.991   3.314  -0.660  1.00  0.00     0.063 C 
ATOM     12  C   UNL     1      -3.157   3.953   0.967  1.00  0.00     0.032 C 
ATOM     13  C   UNL     1      -7.279   0.899   1.968  1.00  0.00     0.018 A 
ATOM     14  C   UNL     1      -7.281   2.841   0.493  1.00  0.00     0.021 A 
BRANCH   6  15
ATOM     15  S   UNL     1      -3.305   0.174  -0.151  1.00  0.00     0.264 S 
ATOM     16  O   UNL     1      -3.610   0.330  -1.566  1.00  0.00    -0.201 OA
ATOM     17  O   UNL     1      -3.777  -0.974   0.587  1.00  0.00    -0.201 OA
BRANCH  15  18
ATOM     18  C   UNL     1      -1.525   0.117  -0.021  1.00  0.00     0.088 A 
ATOM     19  C   UNL     1       2.769  -0.233   0.016  1.00  0.00     0.044 C 
ATOM     20  C   UNL     1       1.274  -0.115   0.034  1.00  0.00    -0.051 A 
ATOM     21  C   UNL     1       0.476  -1.253  -0.120  1.00  0.00     0.005 A 
ATOM     22  C   UNL     1       0.658   1.128   0.213  1.00  0.00     0.005 A 
ATOM     23  C   UNL     1      -0.916  -1.140  -0.150  1.00  0.00     0.022 A 
ATOM     24  C   UNL     1      -0.735   1.242   0.195  1.00  0.00     0.022 A 
ENDBRANCH  15  18
ENDBRANCH   6  15
ENDBRANCH   3   5
ENDBRANCH   2   3
ENDBRANCH   1   2
BRANCH   1  25
ATOM     25  C   UNL     1     -12.106   4.452   1.962  1.00  0.00     0.275 C 
BRANCH  25  26
ATOM     26  O   UNL     1     -11.686   5.466   1.005  1.00  0.00    -0.458 OA
BRANCH  26  27
ATOM     27  C   UNL     1     -10.985   5.331  -0.144  1.00  0.00     0.338 C 
ATOM     28  O   UNL     1     -10.262   6.219  -0.575  1.00  0.00    -0.246 OA
BRANCH  27  29
ATOM     29  C   UNL     1     -11.107   4.062  -0.873  1.00  0.00     0.060 A 
ATOM     30  C   UNL     1      -9.987   3.562  -1.560  1.00  0.00     0.016 A 
ATOM     31  C   UNL     1     -12.288   3.336  -0.793  1.00  0.00     0.016 A 
ATOM     32  C   UNL     1     -10.000   2.269  -2.062  1.00  0.00     0.010 A 
ATOM     33  C   UNL     1     -12.264   2.020  -1.172  1.00  0.00     0.010 A 
ATOM     34  C   UNL     1     -11.140   1.507  -1.845  1.00  0.00    -0.014 A 
BRANCH  34  35
ATOM     35  C   UNL     1     -11.435   0.286  -2.565  1.00  0.00     0.031 A 
ATOM     36  C   UNL     1     -10.947  -1.028  -2.134  1.00  0.00     0.074 A 
ATOM     37  C   UNL     1     -12.369   0.512  -3.517  1.00  0.00     0.049 A 
ATOM     38  N   UNL     1     -11.051  -2.078  -2.866  1.00  0.00    -0.248 NA
ATOM     39  C   UNL     1     -10.265  -1.299  -0.870  1.00  0.00     0.031 C 
ATOM     40  C   UNL     1     -13.301  -0.369  -4.191  1.00  0.00     0.029 A 
ATOM     41  N   UNL     1     -12.571   1.739  -4.148  1.00  0.00    -0.354 N 
ATOM     42  C   UNL     1     -10.800  -3.171  -2.065  1.00  0.00     0.074 A 
ATOM     43  C   UNL     1     -10.196  -2.639  -0.871  1.00  0.00     0.031 C 
ATOM     44  C   UNL     1     -13.768   0.260  -5.290  1.00  0.00     0.029 A 
ATOM     45  C   UNL     1     -13.010   1.499  -5.441  1.00  0.00     0.049 A 
ATOM     46  H   UNL     1     -12.426   2.625  -3.745  1.00  0.00     0.167 HD
ATOM     47  C   UNL     1     -11.304  -4.372  -2.460  1.00  0.00     0.031 A 
ATOM     48  C   UNL     1     -12.133   1.771  -6.456  1.00  0.00     0.031 A 
ATOM     49  C   UNL     1     -11.942  -4.231  -3.764  1.00  0.00     0.049 A 
ATOM     50  C   UNL     1     -11.697   0.487  -7.123  1.00  0.00     0.074 A 
ATOM     51  C   UNL     1     -13.258  -4.007  -4.130  1.00  0.00     0.029 A 
ATOM     52  N   UNL     1     -11.155  -3.883  -4.851  1.00  0.00    -0.354 N 
ATOM     53  N   UNL     1     -11.540  -0.655  -6.507  1.00  0.00    -0.248 NA
ATOM     54  C   UNL     1     -11.515   0.385  -8.564  1.00  0.00     0.031 C 
ATOM     55  C   UNL     1     -13.251  -3.460  -5.441  1.00  0.00     0.029 A 
ATOM     56  C   UNL     1     -11.935  -3.365  -5.864  1.00  0.00     0.049 A 
ATOM     57  H   UNL     1     -10.178  -3.990  -4.894  1.00  0.00     0.167 HD
ATOM     58  C   UNL     1     -11.362  -1.646  -7.440  1.00  0.00     0.074 A 
ATOM     59  C   UNL     1     -11.316  -0.937  -8.708  1.00  0.00     0.031 C 
ATOM     60  C   UNL     1     -11.321  -2.975  -7.124  1.00  0.00     0.031 A 
BRANCH  47  61
ATOM     61  C   UNL     1     -11.484  -5.598  -1.604  1.00  0.00    -0.014 A 
ATOM     62  C   UNL     1     -12.510  -6.506  -1.946  1.00  0.00     0.009 A 
ATOM     63  C   UNL     1     -10.725  -5.920  -0.470  1.00  0.00     0.009 A 
ATOM     64  C   UNL     1     -12.792  -7.647  -1.188  1.00  0.00     0.001 A 
ATOM     65  C   UNL     1     -11.008  -7.063   0.301  1.00  0.00     0.001 A 
ATOM     66  C   UNL     1     -12.043  -7.923  -0.056  1.00  0.00     0.000 A 
ENDBRANCH  47  61
BRANCH  48  67
ATOM     67  C   UNL     1     -11.245   2.956  -6.179  1.00  0.00    -0.014 A 
ATOM     68  C   UNL     1     -11.859   4.207  -5.927  1.00  0.00     0.009 A 
ATOM     69  C   UNL     1      -9.896   2.812  -5.824  1.00  0.00     0.009 A 
ATOM     70  C   UNL     1     -11.191   5.223  -5.231  1.00  0.00     0.001 A 
ATOM     71  C   UNL     1      -9.219   3.846  -5.152  1.00  0.00     0.001 A 
ATOM     72  C   UNL     1      -9.876   5.033  -4.824  1.00  0.00     0.000 A 
ENDBRANCH  48  67
BRANCH  60  73
ATOM     73  C   UNL     1     -10.765  -4.086  -7.989  1.00  0.00    -0.014 A 
ATOM     74  C   UNL     1     -10.063  -3.887  -9.180  1.00  0.00     0.009 A 
ATOM     75  C   UNL     1     -10.815  -5.419  -7.511  1.00  0.00     0.009 A 
ATOM     76  C   UNL     1      -9.482  -4.956  -9.873  1.00  0.00     0.001 A 
ATOM     77  C   UNL     1     -10.179  -6.477  -8.159  1.00  0.00     0.001 A 
ATOM     78  C   UNL     1      -9.524  -6.246  -9.355  1.00  0.00     0.000 A 
ENDBRANCH  60  73
ENDBRANCH  34  35
ENDBRANCH  27  29
ENDBRANCH  26  27
ENDBRANCH  25  26
ENDBRANCH   1  25
TORSDOF 13
