REMARK SMILES CC(C)(C)OC(=O)N1CCC[C@H]1C(=O)N[C@@H](Cc1ccccc1)C(=O)OCCOC(=O)c1ccc(-c2c3nc(c(-c4ccccc4)c4ccc([nH]4)c(-c4ccccc4)c4nc(c(-c5ccccc5)c5ccc2[nH]5)C=C4)C=C3)cc1
REMARK SMILES IDX 26 1 24 2 25 3 16 4 15 5 13 6 14 7 12 9 8 10 9 11 10 12
REMARK SMILES IDX 11 13 6 14 7 15 5 16 2 17 1 18 3 19 4 20 17 21 18 22 19 23
REMARK SMILES IDX 23 24 20 25 22 26 21 27 27 28 28 29 29 30 30 31 31 32 32 33
REMARK SMILES IDX 33 34 79 35 34 36 78 37 35 38 36 39 37 40 72 41 38 42 77 43
REMARK SMILES IDX 71 44 73 45 39 46 76 47 70 48 69 49 40 51 62 52 47 53 61 54
REMARK SMILES IDX 48 55 51 56 60 57 74 58 49 59 50 60 59 62 75 63 52 64 41 65
REMARK SMILES IDX 42 66 46 67 43 68 45 69 44 70 63 71 64 72 68 73 65 74 67 75
REMARK SMILES IDX 66 76 53 77 54 78 58 79 55 80 57 81 56 82
REMARK H PARENT 15 8 73 50 51 61
REMARK Flexibility Score: inf
ROOT
ATOM      1  O   UNL     1      -1.958   6.577   1.414  1.00  0.00    -0.461 OA
ENDROOT
BRANCH   1   2
ATOM      2  C   UNL     1      -2.585   5.431   1.806  1.00  0.00     0.329 C 
ATOM      3  O   UNL     1      -3.400   4.806   1.131  1.00  0.00    -0.250 OA
BRANCH   2   4
ATOM      4  C   UNL     1      -2.271   5.046   3.262  1.00  0.00     0.196 C 
BRANCH   4   5
ATOM      5  N   UNL     1      -1.041   5.653   3.783  1.00  0.00    -0.341 N 
ATOM      6  C   UNL     1       0.089   5.096   4.313  1.00  0.00     0.243 C 
ATOM      7  O   UNL     1       0.973   5.879   4.675  1.00  0.00    -0.273 OA
ATOM      8  H   UNL     1      -1.028   6.636   3.744  1.00  0.00     0.164 HD
BRANCH   6   9
ATOM      9  C   UNL     1       0.246   3.547   4.486  1.00  0.00     0.178 C 
ATOM     10  N   UNL     1       1.419   2.978   3.784  1.00  0.00    -0.296 N 
ATOM     11  C   UNL     1       2.545   3.057   4.692  1.00  0.00     0.124 C 
ATOM     12  C   UNL     1       1.948   2.647   6.017  1.00  0.00     0.024 C 
ATOM     13  C   UNL     1       0.569   3.304   5.991  1.00  0.00     0.037 C 
BRANCH  10  14
ATOM     14  C   UNL     1       1.660   3.279   2.445  1.00  0.00     0.410 C 
ATOM     15  O   UNL     1       2.285   4.310   2.184  1.00  0.00    -0.224 OA
BRANCH  14  16
ATOM     16  O   UNL     1       1.133   2.320   1.409  1.00  0.00    -0.444 OA
BRANCH  16  17
ATOM     17  C   UNL     1       0.621   1.443  -0.325  1.00  0.00     0.106 C 
ATOM     18  C   UNL     1       1.104  -0.106  -0.667  1.00  0.00     0.056 C 
ATOM     19  C   UNL     1       1.080   2.078  -1.831  1.00  0.00     0.056 C 
ATOM     20  C   UNL     1      -0.998   1.246  -0.697  1.00  0.00     0.056 C 
ENDBRANCH  16  17
ENDBRANCH  14  16
ENDBRANCH  10  14
ENDBRANCH   6   9
ENDBRANCH   4   5
BRANCH   4  21
ATOM     21  C   UNL     1      -3.508   5.379   4.125  1.00  0.00     0.072 C 
BRANCH  21  22
ATOM     22  C   UNL     1      -4.109   6.734   3.810  1.00  0.00    -0.045 A 
ATOM     23  C   UNL     1      -3.595   7.897   4.390  1.00  0.00     0.004 A 
ATOM     24  C   UNL     1      -5.101   6.846   2.819  1.00  0.00     0.004 A 
ATOM     25  C   UNL     1      -4.036   9.148   3.957  1.00  0.00     0.000 A 
ATOM     26  C   UNL     1      -5.523   8.097   2.374  1.00  0.00     0.000 A 
ATOM     27  C   UNL     1      -4.986   9.249   2.941  1.00  0.00     0.000 A 
ENDBRANCH  21  22
ENDBRANCH   4  21
ENDBRANCH   2   4
ENDBRANCH   1   2
BRANCH   1  28
ATOM     28  C   UNL     1      -2.285   7.015   0.080  1.00  0.00     0.274 C 
BRANCH  28  29
ATOM     29  C   UNL     1      -1.209   6.564  -0.902  1.00  0.00     0.275 C 
BRANCH  29  30
ATOM     30  O   UNL     1      -0.836   5.216  -0.583  1.00  0.00    -0.458 OA
BRANCH  30  31
ATOM     31  C   UNL     1       0.488   5.019  -0.408  1.00  0.00     0.338 C 
ATOM     32  O   UNL     1       1.396   5.761  -0.728  1.00  0.00    -0.246 OA
BRANCH  31  33
ATOM     33  C   UNL     1       0.676   3.691   0.187  1.00  0.00     0.060 A 
ATOM     34  C   UNL     1      -0.635   2.855   1.121  1.00  0.00     0.016 A 
ATOM     35  C   UNL     1       2.335   2.930   0.079  1.00  0.00     0.016 A 
ATOM     36  C   UNL     1      -0.311   1.254   1.923  1.00  0.00     0.010 A 
ATOM     37  C   UNL     1       2.640   1.330   0.876  1.00  0.00     0.010 A 
ATOM     38  C   UNL     1       1.319   0.473   1.812  1.00  0.00    -0.014 A 
BRANCH  38  39
ATOM     39  C   UNL     1       1.575  -0.917   2.386  1.00  0.00     0.031 A 
ATOM     40  C   UNL     1       2.942  -1.282   2.933  1.00  0.00     0.074 A 
ATOM     41  C   UNL     1       0.667  -1.923   2.297  1.00  0.00     0.049 A 
ATOM     42  N   UNL     1       3.462  -2.460   3.196  1.00  0.00    -0.248 NA
ATOM     43  C   UNL     1       3.848  -0.169   3.224  1.00  0.00     0.031 C 
ATOM     44  C   UNL     1      -0.711  -1.829   1.813  1.00  0.00     0.029 A 
ATOM     45  N   UNL     1       0.814  -3.282   2.526  1.00  0.00    -0.354 N 
ATOM     46  C   UNL     1       4.752  -2.215   3.664  1.00  0.00     0.074 A 
ATOM     47  C   UNL     1       4.956  -0.787   3.597  1.00  0.00     0.031 C 
ATOM     48  C   UNL     1      -1.252  -3.049   1.711  1.00  0.00     0.029 A 
ATOM     49  C   UNL     1      -0.259  -4.035   2.094  1.00  0.00     0.049 A 
ATOM     50  H   UNL     1       1.608  -3.674   2.956  1.00  0.00     0.167 HD
ATOM     51  C   UNL     1       5.689  -3.078   4.131  1.00  0.00     0.031 A 
ATOM     52  C   UNL     1      -0.443  -5.363   1.954  1.00  0.00     0.031 A 
ATOM     53  C   UNL     1       5.527  -4.503   4.210  1.00  0.00     0.049 A 
ATOM     54  C   UNL     1       0.633  -6.317   2.366  1.00  0.00     0.074 A 
ATOM     55  C   UNL     1       6.412  -5.448   4.705  1.00  0.00     0.029 A 
ATOM     56  N   UNL     1       4.407  -5.192   3.779  1.00  0.00    -0.354 N 
ATOM     57  N   UNL     1       1.829  -6.057   2.828  1.00  0.00    -0.248 NA
ATOM     58  C   UNL     1       0.321  -7.751   2.262  1.00  0.00     0.031 C 
ATOM     59  C   UNL     1       5.840  -6.714   4.538  1.00  0.00     0.029 A 
ATOM     60  C   UNL     1       4.583  -6.550   3.983  1.00  0.00     0.049 A 
ATOM     61  H   UNL     1       3.605  -4.778   3.386  1.00  0.00     0.167 HD
ATOM     62  C   UNL     1       2.392  -7.290   3.121  1.00  0.00     0.074 A 
ATOM     63  C   UNL     1       1.413  -8.299   2.775  1.00  0.00     0.031 C 
ATOM     64  C   UNL     1       3.609  -7.554   3.651  1.00  0.00     0.031 A 
BRANCH  51  65
ATOM     65  C   UNL     1       6.991  -2.486   4.603  1.00  0.00    -0.014 A 
ATOM     66  C   UNL     1       7.055  -1.741   5.792  1.00  0.00     0.009 A 
ATOM     67  C   UNL     1       8.166  -2.684   3.862  1.00  0.00     0.009 A 
ATOM     68  C   UNL     1       8.260  -1.169   6.206  1.00  0.00     0.001 A 
ATOM     69  C   UNL     1       9.375  -2.134   4.293  1.00  0.00     0.001 A 
ATOM     70  C   UNL     1       9.419  -1.368   5.457  1.00  0.00     0.000 A 
ENDBRANCH  51  65
BRANCH  52  71
ATOM     71  C   UNL     1      -1.720  -5.878   1.387  1.00  0.00    -0.014 A 
ATOM     72  C   UNL     1      -2.681  -6.469   2.222  1.00  0.00     0.009 A 
ATOM     73  C   UNL     1      -1.984  -5.780   0.011  1.00  0.00     0.009 A 
ATOM     74  C   UNL     1      -3.870  -6.970   1.687  1.00  0.00     0.001 A 
ATOM     75  C   UNL     1      -3.186  -6.259  -0.516  1.00  0.00     0.001 A 
ATOM     76  C   UNL     1      -4.124  -6.860   0.321  1.00  0.00     0.000 A 
ENDBRANCH  52  71
BRANCH  64  77
ATOM     77  C   UNL     1       3.926  -8.986   3.960  1.00  0.00    -0.014 A 
ATOM     78  C   UNL     1       4.232  -9.905   2.945  1.00  0.00     0.009 A 
ATOM     79  C   UNL     1       3.930  -9.416   5.296  1.00  0.00     0.009 A 
ATOM     80  C   UNL     1       4.508 -11.236   3.263  1.00  0.00     0.001 A 
ATOM     81  C   UNL     1       4.230 -10.741   5.612  1.00  0.00     0.001 A 
ATOM     82  C   UNL     1       4.510 -11.652   4.595  1.00  0.00     0.000 A 
ENDBRANCH  64  77
ENDBRANCH  38  39
ENDBRANCH  31  33
ENDBRANCH  30  31
ENDBRANCH  29  30
ENDBRANCH  28  29
ENDBRANCH   1  28
TORSDOF 18
