REMARK SMILES O=C(OCCOC(=O)c1nn(-c2ccc([N+](=O)[O-])cc2)cc1CCO)c1ccc(-c2c3nc(c(-c4ccccc4)c4ccc([nH]4)c(-c4ccccc4)c4nc(c(-c5ccccc5)c5ccc2[nH]5)C=C4)C=C3)cc1
REMARK SMILES IDX 5 1 4 2 3 3 2 4 1 5 26 6 27 7 73 8 28 9 72 10 29 11 30 12
REMARK SMILES IDX 31 13 66 14 32 15 71 16 65 17 67 18 33 19 70 20 64 21 63 22
REMARK SMILES IDX 34 24 56 25 41 26 55 27 42 28 45 29 54 30 68 31 43 32 44 33
REMARK SMILES IDX 53 35 69 36 46 37 35 38 36 39 40 40 37 41 39 42 38 43 57 44
REMARK SMILES IDX 58 45 62 46 59 47 61 48 60 49 47 50 48 51 52 52 49 53 51 54
REMARK SMILES IDX 50 55 6 56 7 57 8 58 9 59 10 60 22 61 11 62 21 63 23 64
REMARK SMILES IDX 24 65 25 66 12 68 13 69 20 70 14 71 19 72 15 73 16 74 17 75
REMARK SMILES IDX 18 76
REMARK H PARENT 67 23 45 34 25 67
REMARK Flexibility Score: inf
ROOT
ATOM      1  C   UNL     1       4.945  -1.370  -0.240  1.00  0.00     0.275 C 
ENDROOT
BRANCH   1   2
ATOM      2  C   UNL     1       5.012  -0.195   0.736  1.00  0.00     0.275 C 
BRANCH   2   3
ATOM      3  O   UNL     1       3.744   0.058   1.366  1.00  0.00    -0.458 OA
BRANCH   3   4
ATOM      4  C   UNL     1       2.688   0.821   1.041  1.00  0.00     0.338 C 
ATOM      5  O   UNL     1       1.590   0.484   1.489  1.00  0.00    -0.246 OA
BRANCH   4   6
ATOM      6  C   UNL     1       2.717   2.086   0.235  1.00  0.00     0.060 A 
ATOM      7  C   UNL     1       3.791   2.687  -0.420  1.00  0.00     0.016 A 
ATOM      8  C   UNL     1       1.456   2.718   0.127  1.00  0.00     0.016 A 
ATOM      9  C   UNL     1       3.612   3.905  -1.098  1.00  0.00     0.010 A 
ATOM     10  C   UNL     1       1.257   3.863  -0.622  1.00  0.00     0.010 A 
ATOM     11  C   UNL     1       2.347   4.511  -1.170  1.00  0.00    -0.014 A 
BRANCH  11  12
ATOM     12  C   UNL     1       2.148   5.782  -1.866  1.00  0.00     0.031 A 
ATOM     13  C   UNL     1       2.684   5.826  -3.249  1.00  0.00     0.074 A 
ATOM     14  C   UNL     1       1.452   6.832  -1.368  1.00  0.00     0.049 A 
ATOM     15  N   UNL     1       3.793   6.370  -3.621  1.00  0.00    -0.248 NA
ATOM     16  C   UNL     1       2.005   5.072  -4.313  1.00  0.00     0.031 C 
ATOM     17  C   UNL     1       0.630   6.901  -0.154  1.00  0.00     0.029 A 
ATOM     18  N   UNL     1       1.281   8.077  -1.902  1.00  0.00    -0.354 N 
ATOM     19  C   UNL     1       3.848   6.239  -5.003  1.00  0.00     0.074 A 
ATOM     20  C   UNL     1       2.821   5.287  -5.351  1.00  0.00     0.031 C 
ATOM     21  C   UNL     1      -0.119   8.030  -0.167  1.00  0.00     0.029 A 
ATOM     22  C   UNL     1       0.301   8.853  -1.286  1.00  0.00     0.049 A 
ATOM     23  H   UNL     1       1.811   8.402  -2.666  1.00  0.00     0.167 HD
ATOM     24  C   UNL     1       4.569   7.118  -5.755  1.00  0.00     0.031 A 
ATOM     25  C   UNL     1      -0.119  10.092  -1.651  1.00  0.00     0.031 A 
ATOM     26  C   UNL     1       5.432   7.929  -4.929  1.00  0.00     0.049 A 
ATOM     27  C   UNL     1       0.964  10.702  -2.451  1.00  0.00     0.074 A 
ATOM     28  C   UNL     1       6.450   7.670  -4.033  1.00  0.00     0.029 A 
ATOM     29  N   UNL     1       4.999   9.204  -4.649  1.00  0.00    -0.354 N 
ATOM     30  N   UNL     1       2.111  11.049  -1.943  1.00  0.00    -0.248 NA
ATOM     31  C   UNL     1       0.948  10.500  -3.889  1.00  0.00     0.031 C 
ATOM     32  C   UNL     1       6.230   8.583  -2.959  1.00  0.00     0.029 A 
ATOM     33  C   UNL     1       5.162   9.413  -3.305  1.00  0.00     0.049 A 
ATOM     34  H   UNL     1       4.638   9.851  -5.297  1.00  0.00     0.167 HD
ATOM     35  C   UNL     1       3.040  10.640  -2.887  1.00  0.00     0.074 A 
ATOM     36  C   UNL     1       2.263  10.403  -4.105  1.00  0.00     0.031 C 
ATOM     37  C   UNL     1       4.295  10.256  -2.512  1.00  0.00     0.031 A 
BRANCH  24  38
ATOM     38  C   UNL     1       4.189   7.556  -7.148  1.00  0.00    -0.014 A 
ATOM     39  C   UNL     1       5.028   8.471  -7.813  1.00  0.00     0.009 A 
ATOM     40  C   UNL     1       2.914   7.348  -7.705  1.00  0.00     0.009 A 
ATOM     41  C   UNL     1       4.579   9.206  -8.917  1.00  0.00     0.001 A 
ATOM     42  C   UNL     1       2.477   8.050  -8.832  1.00  0.00     0.001 A 
ATOM     43  C   UNL     1       3.298   9.002  -9.418  1.00  0.00     0.000 A 
ENDBRANCH  24  38
BRANCH  25  44
ATOM     44  C   UNL     1      -1.456  10.724  -1.567  1.00  0.00    -0.014 A 
ATOM     45  C   UNL     1      -1.610  12.113  -1.730  1.00  0.00     0.009 A 
ATOM     46  C   UNL     1      -2.612   9.928  -1.649  1.00  0.00     0.009 A 
ATOM     47  C   UNL     1      -2.861  12.676  -2.022  1.00  0.00     0.001 A 
ATOM     48  C   UNL     1      -3.862  10.491  -1.942  1.00  0.00     0.001 A 
ATOM     49  C   UNL     1      -3.983  11.862  -2.147  1.00  0.00     0.000 A 
ENDBRANCH  25  44
BRANCH  37  50
ATOM     50  C   UNL     1       4.732  10.532  -1.093  1.00  0.00    -0.014 A 
ATOM     51  C   UNL     1       4.070  10.032   0.044  1.00  0.00     0.009 A 
ATOM     52  C   UNL     1       5.941  11.219  -0.905  1.00  0.00     0.009 A 
ATOM     53  C   UNL     1       4.589  10.246   1.327  1.00  0.00     0.001 A 
ATOM     54  C   UNL     1       6.470  11.412   0.371  1.00  0.00     0.001 A 
ATOM     55  C   UNL     1       5.790  10.933   1.488  1.00  0.00     0.000 A 
ENDBRANCH  37  50
ENDBRANCH  11  12
ENDBRANCH   4   6
ENDBRANCH   3   4
ENDBRANCH   2   3
ENDBRANCH   1   2
BRANCH   1  56
ATOM     56  O   UNL     1       4.346  -0.997  -1.492  1.00  0.00    -0.457 OA
BRANCH  56  57
ATOM     57  C   UNL     1       3.010  -1.252  -1.629  1.00  0.00     0.359 C 
ATOM     58  O   UNL     1       2.301  -1.704  -0.733  1.00  0.00    -0.244 OA
BRANCH  57  59
ATOM     59  C   UNL     1       2.480  -0.759  -2.906  1.00  0.00     0.174 A 
ATOM     60  N   UNL     1       3.079  -1.024  -4.082  1.00  0.00    -0.161 NA
ATOM     61  C   UNL     1       1.338   0.083  -3.092  1.00  0.00     0.008 A 
ATOM     62  N   UNL     1       2.428  -0.256  -4.976  1.00  0.00    -0.240 N 
ATOM     63  C   UNL     1       1.427   0.487  -4.407  1.00  0.00     0.119 A 
BRANCH  61  64
ATOM     64  C   UNL     1       0.384   0.558  -2.053  1.00  0.00     0.068 C 
BRANCH  64  65
ATOM     65  C   UNL     1      -0.765  -0.371  -1.680  1.00  0.00     0.161 C 
BRANCH  65  66
ATOM     66  O   UNL     1      -0.330  -1.645  -1.229  1.00  0.00    -0.396 OA
ATOM     67  H   UNL     1       0.157  -2.090  -1.940  1.00  0.00     0.210 HD
ENDBRANCH  65  66
ENDBRANCH  64  65
ENDBRANCH  61  64
BRANCH  62  68
ATOM     68  C   UNL     1       2.756  -0.297  -6.343  1.00  0.00     0.065 A 
ATOM     69  C   UNL     1       2.788  -1.543  -6.982  1.00  0.00     0.035 A 
ATOM     70  C   UNL     1       2.992   0.889  -7.048  1.00  0.00     0.035 A 
ATOM     71  C   UNL     1       3.014  -1.604  -8.357  1.00  0.00     0.088 A 
ATOM     72  C   UNL     1       3.280   0.823  -8.414  1.00  0.00     0.088 A 
ATOM     73  C   UNL     1       3.268  -0.421  -9.066  1.00  0.00     0.269 A 
BRANCH  73  74
ATOM     74  N   UNL     1       3.516  -0.485 -10.512  1.00  0.00     0.062 N 
ATOM     75  O   UNL     1       3.367  -1.579 -11.075  1.00  0.00    -0.258 OA
ATOM     76  O   UNL     1       3.850   0.562 -11.085  1.00  0.00    -0.258 OA
ENDBRANCH  73  74
ENDBRANCH  62  68
ENDBRANCH  57  59
ENDBRANCH  56  57
ENDBRANCH   1  56
TORSDOF 16
