REMARK SMILES O=C(OCCOC(=O)c1cc(Cl)cc(Cl)c1O)c1ccc(-c2c3nc(c(-c4ccccc4)c4ccc([nH]4)c(-c4ccccc4)c4nc(c(-c5ccccc5)c5ccc2[nH]5)C=C4)C=C3)cc1
REMARK SMILES IDX 4 1 3 2 2 3 1 4 18 5 19 6 65 7 20 8 64 9 21 10 22 11 23 12
REMARK SMILES IDX 58 13 24 14 63 15 57 16 59 17 25 18 62 19 56 20 55 21 26 23
REMARK SMILES IDX 48 24 33 25 47 26 34 27 37 28 46 29 60 30 35 31 36 32 45 34
REMARK SMILES IDX 61 35 38 36 27 37 28 38 32 39 29 40 31 41 30 42 49 43 50 44
REMARK SMILES IDX 54 45 51 46 53 47 52 48 39 49 40 50 44 51 41 52 43 53 42 54
REMARK SMILES IDX 5 55 6 56 7 57 8 58 9 59 10 60 16 61 11 62 14 63 12 64 13 65
REMARK SMILES IDX 15 66 17 67
REMARK H PARENT 59 22 37 33 17 68
REMARK Flexibility Score: inf
ROOT
ATOM      1  C   UNL     1       4.247  -0.177  -1.670  1.00  0.00     0.275 C 
ENDROOT
BRANCH   1   2
ATOM      2  O   UNL     1       3.190  -0.817  -0.932  1.00  0.00    -0.458 OA
BRANCH   2   3
ATOM      3  C   UNL     1       2.959  -0.900   0.398  1.00  0.00     0.338 C 
ATOM      4  O   UNL     1       2.048  -1.621   0.799  1.00  0.00    -0.246 OA
BRANCH   3   5
ATOM      5  C   UNL     1       3.670  -0.060   1.408  1.00  0.00     0.060 A 
ATOM      6  C   UNL     1       5.002   0.343   1.323  1.00  0.00     0.016 A 
ATOM      7  C   UNL     1       2.937   0.311   2.553  1.00  0.00     0.016 A 
ATOM      8  C   UNL     1       5.570   1.149   2.310  1.00  0.00     0.010 A 
ATOM      9  C   UNL     1       3.498   1.122   3.545  1.00  0.00     0.010 A 
ATOM     10  C   UNL     1       4.829   1.532   3.430  1.00  0.00    -0.014 A 
BRANCH  10  11
ATOM     11  C   UNL     1       5.536   2.203   4.540  1.00  0.00     0.031 A 
ATOM     12  C   UNL     1       6.001   1.367   5.694  1.00  0.00     0.074 A 
ATOM     13  C   UNL     1       5.868   3.503   4.455  1.00  0.00     0.049 A 
ATOM     14  N   UNL     1       6.795   1.695   6.679  1.00  0.00    -0.248 NA
ATOM     15  C   UNL     1       5.546  -0.033   5.721  1.00  0.00     0.031 C 
ATOM     16  C   UNL     1       5.541   4.382   3.335  1.00  0.00     0.029 A 
ATOM     17  N   UNL     1       6.572   4.304   5.315  1.00  0.00    -0.354 N 
ATOM     18  C   UNL     1       6.964   0.533   7.420  1.00  0.00     0.074 A 
ATOM     19  C   UNL     1       6.146  -0.489   6.809  1.00  0.00     0.031 C 
ATOM     20  C   UNL     1       6.026   5.610   3.584  1.00  0.00     0.029 A 
ATOM     21  C   UNL     1       6.697   5.601   4.878  1.00  0.00     0.049 A 
ATOM     22  H   UNL     1       6.951   3.982   6.164  1.00  0.00     0.167 HD
ATOM     23  C   UNL     1       7.755   0.330   8.498  1.00  0.00     0.031 A 
ATOM     24  C   UNL     1       7.296   6.658   5.458  1.00  0.00     0.031 A 
ATOM     25  C   UNL     1       8.525   1.365   9.129  1.00  0.00     0.049 A 
ATOM     26  C   UNL     1       8.045   6.441   6.744  1.00  0.00     0.074 A 
ATOM     27  C   UNL     1       9.347   1.278  10.236  1.00  0.00     0.029 A 
ATOM     28  N   UNL     1       8.545   2.689   8.713  1.00  0.00    -0.354 N 
ATOM     29  N   UNL     1       8.244   5.325   7.403  1.00  0.00    -0.248 NA
ATOM     30  C   UNL     1       8.681   7.620   7.345  1.00  0.00     0.031 C 
ATOM     31  C   UNL     1       9.819   2.564  10.526  1.00  0.00     0.029 A 
ATOM     32  C   UNL     1       9.338   3.439   9.562  1.00  0.00     0.049 A 
ATOM     33  H   UNL     1       8.065   3.042   7.929  1.00  0.00     0.167 HD
ATOM     34  C   UNL     1       9.071   5.655   8.468  1.00  0.00     0.074 A 
ATOM     35  C   UNL     1       9.332   7.078   8.365  1.00  0.00     0.031 C 
ATOM     36  C   UNL     1       9.582   4.853   9.434  1.00  0.00     0.031 A 
BRANCH  23  37
ATOM     37  C   UNL     1       7.771  -1.059   9.067  1.00  0.00    -0.014 A 
ATOM     38  C   UNL     1       8.393  -2.117   8.383  1.00  0.00     0.009 A 
ATOM     39  C   UNL     1       7.117  -1.323  10.279  1.00  0.00     0.009 A 
ATOM     40  C   UNL     1       8.319  -3.420   8.880  1.00  0.00     0.001 A 
ATOM     41  C   UNL     1       7.066  -2.622  10.786  1.00  0.00     0.001 A 
ATOM     42  C   UNL     1       7.655  -3.671  10.080  1.00  0.00     0.000 A 
ENDBRANCH  23  37
BRANCH  24  43
ATOM     43  C   UNL     1       7.230   8.001   4.824  1.00  0.00    -0.014 A 
ATOM     44  C   UNL     1       8.373   8.601   4.275  1.00  0.00     0.009 A 
ATOM     45  C   UNL     1       6.013   8.703   4.783  1.00  0.00     0.009 A 
ATOM     46  C   UNL     1       8.306   9.886   3.727  1.00  0.00     0.001 A 
ATOM     47  C   UNL     1       5.944   9.976   4.213  1.00  0.00     0.001 A 
ATOM     48  C   UNL     1       7.093  10.571   3.694  1.00  0.00     0.000 A 
ENDBRANCH  24  43
BRANCH  36  49
ATOM     49  C   UNL     1      10.516   5.490  10.422  1.00  0.00    -0.014 A 
ATOM     50  C   UNL     1      10.049   6.365  11.414  1.00  0.00     0.009 A 
ATOM     51  C   UNL     1      11.884   5.175  10.378  1.00  0.00     0.009 A 
ATOM     52  C   UNL     1      10.941   6.941  12.320  1.00  0.00     0.001 A 
ATOM     53  C   UNL     1      12.767   5.727  11.305  1.00  0.00     0.001 A 
ATOM     54  C   UNL     1      12.296   6.618  12.268  1.00  0.00     0.000 A 
ENDBRANCH  36  49
ENDBRANCH  10  11
ENDBRANCH   3   5
ENDBRANCH   2   3
ENDBRANCH   1   2
BRANCH   1  55
ATOM     55  C   UNL     1       4.028   1.304  -1.987  1.00  0.00     0.275 C 
BRANCH  55  56
ATOM     56  O   UNL     1       3.568   2.096  -0.880  1.00  0.00    -0.458 OA
BRANCH  56  57
ATOM     57  C   UNL     1       2.219   2.160  -0.758  1.00  0.00     0.342 C 
ATOM     58  O   UNL     1       1.393   1.573  -1.440  1.00  0.00    -0.246 OA
BRANCH  57  59
ATOM     59  C   UNL     1       1.829   2.921   0.440  1.00  0.00     0.104 A 
ATOM     60  C   UNL     1       2.462   4.128   0.758  1.00  0.00     0.040 A 
ATOM     61  C   UNL     1       0.802   2.425   1.257  1.00  0.00     0.148 A 
ATOM     62  C   UNL     1       2.069   4.823   1.903  1.00  0.00     0.043 A 
ATOM     63  C   UNL     1       0.473   3.101   2.437  1.00  0.00     0.085 A 
ATOM     64  Cl  UNL     1       2.760   6.361   2.248  1.00  0.00    -0.084 Cl
ATOM     65  C   UNL     1       1.104   4.302   2.760  1.00  0.00     0.045 A 
ATOM     66  Cl  UNL     1      -0.702   2.474   3.536  1.00  0.00    -0.080 Cl
BRANCH  61  67
ATOM     67  O   UNL     1       0.134   1.263   0.962  1.00  0.00    -0.505 OA
ATOM     68  H   UNL     1       0.337   0.792   0.178  1.00  0.00     0.293 HD
ENDBRANCH  61  67
ENDBRANCH  57  59
ENDBRANCH  56  57
ENDBRANCH  55  56
ENDBRANCH   1  55
TORSDOF 12
