REMARK SMILES O=C(OCCOC(=O)[C@H]1CC2(CC[NH+](C(=O)c3cccc(O)c3)CC2)CN1C(=O)C1CC1)c1ccc(-c2c3nc(c(-c4ccccc4)c4ccc([nH]4)c(-c4ccccc4)c4nc(c(-c5ccccc5)c5ccc2[nH]5)C=C4)C=C3)cc1
REMARK SMILES IDX 5 1 4 2 3 3 2 4 1 5 33 6 34 7 80 8 35 9 79 10 36 11 37 12
REMARK SMILES IDX 38 13 73 14 39 15 78 16 72 17 74 18 40 19 77 20 71 21 70 22
REMARK SMILES IDX 41 24 63 25 48 26 62 27 49 28 52 29 61 30 75 31 50 32 51 33
REMARK SMILES IDX 60 35 76 36 53 37 42 38 43 39 47 40 44 41 46 42 45 43 64 44
REMARK SMILES IDX 65 45 69 46 66 47 68 48 67 49 54 50 55 51 59 52 56 53 58 54
REMARK SMILES IDX 57 55 6 56 7 57 8 58 9 59 10 60 27 61 11 62 26 63 12 64
REMARK SMILES IDX 25 65 13 66 24 67 14 68 28 70 29 71 30 72 31 73 32 74 15 75
REMARK SMILES IDX 16 76 17 77 18 78 23 79 19 80 21 81 20 82 22 83
REMARK H PARENT 74 23 52 34 14 69 22 84
REMARK Flexibility Score: inf
ROOT
ATOM      1  C   UNL     1       5.855  -2.337  -3.639  1.00  0.00     0.274 C 
ENDROOT
BRANCH   1   2
ATOM      2  C   UNL     1       5.638  -2.458  -5.144  1.00  0.00     0.275 C 
BRANCH   2   3
ATOM      3  O   UNL     1       4.615  -1.599  -5.652  1.00  0.00    -0.458 OA
BRANCH   3   4
ATOM      4  C   UNL     1       3.281  -1.666  -5.461  1.00  0.00     0.338 C 
ATOM      5  O   UNL     1       2.639  -0.632  -5.655  1.00  0.00    -0.246 OA
BRANCH   4   6
ATOM      6  C   UNL     1       2.506  -2.887  -5.009  1.00  0.00     0.060 A 
ATOM      7  C   UNL     1       2.950  -4.181  -4.707  1.00  0.00     0.016 A 
ATOM      8  C   UNL     1       1.140  -2.668  -4.838  1.00  0.00     0.016 A 
ATOM      9  C   UNL     1       2.102  -5.157  -4.088  1.00  0.00     0.010 A 
ATOM     10  C   UNL     1       0.323  -3.624  -4.220  1.00  0.00     0.010 A 
ATOM     11  C   UNL     1       0.801  -4.848  -3.702  1.00  0.00    -0.014 A 
BRANCH  11  12
ATOM     12  C   UNL     1      -0.184  -5.763  -2.970  1.00  0.00     0.031 A 
ATOM     13  C   UNL     1      -1.413  -6.084  -3.783  1.00  0.00     0.074 A 
ATOM     14  C   UNL     1      -0.196  -6.181  -1.666  1.00  0.00     0.049 A 
ATOM     15  N   UNL     1      -2.577  -6.532  -3.399  1.00  0.00    -0.248 NA
ATOM     16  C   UNL     1      -1.338  -5.754  -5.221  1.00  0.00     0.031 C 
ATOM     17  C   UNL     1       0.842  -6.035  -0.659  1.00  0.00     0.029 A 
ATOM     18  N   UNL     1      -1.194  -6.806  -0.915  1.00  0.00    -0.354 N 
ATOM     19  C   UNL     1      -3.369  -6.471  -4.533  1.00  0.00     0.074 A 
ATOM     20  C   UNL     1      -2.613  -5.794  -5.558  1.00  0.00     0.031 C 
ATOM     21  C   UNL     1       0.425  -6.403   0.559  1.00  0.00     0.029 A 
ATOM     22  C   UNL     1      -0.912  -6.928   0.441  1.00  0.00     0.049 A 
ATOM     23  H   UNL     1      -2.032  -7.133  -1.314  1.00  0.00     0.167 HD
ATOM     24  C   UNL     1      -4.579  -7.023  -4.753  1.00  0.00     0.031 A 
ATOM     25  C   UNL     1      -1.586  -7.432   1.498  1.00  0.00     0.031 A 
ATOM     26  C   UNL     1      -5.269  -7.836  -3.799  1.00  0.00     0.049 A 
ATOM     27  C   UNL     1      -2.901  -8.087   1.241  1.00  0.00     0.074 A 
ATOM     28  C   UNL     1      -6.399  -8.606  -3.996  1.00  0.00     0.029 A 
ATOM     29  N   UNL     1      -4.879  -8.012  -2.482  1.00  0.00    -0.354 N 
ATOM     30  N   UNL     1      -3.570  -8.132   0.118  1.00  0.00    -0.248 NA
ATOM     31  C   UNL     1      -3.531  -8.804   2.359  1.00  0.00     0.031 C 
ATOM     32  C   UNL     1      -6.719  -9.219  -2.783  1.00  0.00     0.029 A 
ATOM     33  C   UNL     1      -5.766  -8.860  -1.845  1.00  0.00     0.049 A 
ATOM     34  H   UNL     1      -4.090  -7.597  -2.064  1.00  0.00     0.167 HD
ATOM     35  C   UNL     1      -4.681  -8.911   0.380  1.00  0.00     0.074 A 
ATOM     36  C   UNL     1      -4.595  -9.327   1.765  1.00  0.00     0.031 C 
ATOM     37  C   UNL     1      -5.678  -9.255  -0.466  1.00  0.00     0.031 A 
BRANCH  24  38
ATOM     38  C   UNL     1      -5.173  -6.822  -6.114  1.00  0.00    -0.014 A 
ATOM     39  C   UNL     1      -4.579  -7.387  -7.258  1.00  0.00     0.009 A 
ATOM     40  C   UNL     1      -6.326  -6.042  -6.258  1.00  0.00     0.009 A 
ATOM     41  C   UNL     1      -5.095  -7.122  -8.525  1.00  0.00     0.001 A 
ATOM     42  C   UNL     1      -6.866  -5.815  -7.523  1.00  0.00     0.001 A 
ATOM     43  C   UNL     1      -6.242  -6.342  -8.655  1.00  0.00     0.000 A 
ENDBRANCH  24  38
BRANCH  25  44
ATOM     44  C   UNL     1      -1.008  -7.405   2.881  1.00  0.00    -0.014 A 
ATOM     45  C   UNL     1      -0.504  -8.570   3.486  1.00  0.00     0.009 A 
ATOM     46  C   UNL     1      -0.959  -6.205   3.611  1.00  0.00     0.009 A 
ATOM     47  C   UNL     1       0.011  -8.539   4.790  1.00  0.00     0.001 A 
ATOM     48  C   UNL     1      -0.422  -6.171   4.904  1.00  0.00     0.001 A 
ATOM     49  C   UNL     1       0.056  -7.339   5.496  1.00  0.00     0.000 A 
ENDBRANCH  25  44
BRANCH  37  50
ATOM     50  C   UNL     1      -6.749 -10.136   0.085  1.00  0.00    -0.014 A 
ATOM     51  C   UNL     1      -7.711  -9.628   0.968  1.00  0.00     0.009 A 
ATOM     52  C   UNL     1      -6.811 -11.480  -0.312  1.00  0.00     0.009 A 
ATOM     53  C   UNL     1      -8.710 -10.462   1.466  1.00  0.00     0.001 A 
ATOM     54  C   UNL     1      -7.829 -12.303   0.165  1.00  0.00     0.001 A 
ATOM     55  C   UNL     1      -8.772 -11.795   1.058  1.00  0.00     0.000 A 
ENDBRANCH  37  50
ENDBRANCH  11  12
ENDBRANCH   4   6
ENDBRANCH   3   4
ENDBRANCH   2   3
ENDBRANCH   1   2
BRANCH   1  56
ATOM     56  O   UNL     1       4.631  -2.270  -2.889  1.00  0.00    -0.461 OA
BRANCH  56  57
ATOM     57  C   UNL     1       4.356  -1.122  -2.211  1.00  0.00     0.328 C 
ATOM     58  O   UNL     1       4.931  -0.057  -2.408  1.00  0.00    -0.250 OA
BRANCH  57  59
ATOM     59  C   UNL     1       3.215  -1.272  -1.169  1.00  0.00     0.195 C 
ATOM     60  C   UNL     1       1.869  -0.727  -1.724  1.00  0.00     0.046 C 
ATOM     61  N   UNL     1       2.873  -2.573  -0.616  1.00  0.00    -0.328 N 
ATOM     62  C   UNL     1       0.717  -1.379  -0.906  1.00  0.00     0.001 C 
ATOM     63  C   UNL     1       1.449  -2.572  -0.222  1.00  0.00     0.128 C 
ATOM     64  C   UNL     1      -0.488  -1.947  -1.690  1.00  0.00     0.071 C 
ATOM     65  C   UNL     1       0.015  -0.363   0.033  1.00  0.00     0.071 C 
ATOM     66  C   UNL     1      -1.200  -0.934  -2.573  1.00  0.00     0.271 C 
ATOM     67  C   UNL     1      -0.910   0.653  -0.717  1.00  0.00     0.271 C 
ATOM     68  N   UNL     1      -1.822   0.057  -1.715  1.00  0.00    -0.267 N 
ATOM     69  H   UNL     1      -2.318   0.041  -0.865  1.00  0.00     0.357 HD
BRANCH  61  70
ATOM     70  C   UNL     1       3.512  -3.710  -1.051  1.00  0.00     0.226 C 
ATOM     71  O   UNL     1       2.940  -4.531  -1.779  1.00  0.00    -0.275 OA
BRANCH  70  72
ATOM     72  C   UNL     1       4.917  -4.086  -0.775  1.00  0.00     0.079 C 
ATOM     73  C   UNL     1       6.012  -3.272  -0.173  1.00  0.00     0.014 C 
ATOM     74  C   UNL     1       5.344  -4.344   0.644  1.00  0.00     0.014 C 
ENDBRANCH  70  72
ENDBRANCH  61  70
BRANCH  68  75
ATOM     75  C   UNL     1      -3.074   0.656  -1.952  1.00  0.00     0.344 C 
ATOM     76  O   UNL     1      -3.462   1.629  -1.304  1.00  0.00    -0.226 OA
BRANCH  75  77
ATOM     77  C   UNL     1      -4.003   0.164  -3.023  1.00  0.00     0.083 A 
ATOM     78  C   UNL     1      -4.445  -1.165  -3.091  1.00  0.00     0.018 A 
ATOM     79  C   UNL     1      -4.562   1.105  -3.904  1.00  0.00     0.064 A 
ATOM     80  C   UNL     1      -5.381  -1.554  -4.064  1.00  0.00     0.005 A 
ATOM     81  C   UNL     1      -5.502   0.710  -4.858  1.00  0.00     0.116 A 
ATOM     82  C   UNL     1      -5.909  -0.617  -4.953  1.00  0.00     0.046 A 
BRANCH  81  83
ATOM     83  O   UNL     1      -6.019   1.665  -5.685  1.00  0.00    -0.508 OA
ATOM     84  H   UNL     1      -6.651   1.430  -6.335  1.00  0.00     0.293 HD
ENDBRANCH  81  83
ENDBRANCH  75  77
ENDBRANCH  68  75
ENDBRANCH  57  59
ENDBRANCH  56  57
ENDBRANCH   1  56
TORSDOF 16
