REMARK SMILES O=C(OCCOC(=O)[C@@H]1CCn2c(C(=O)c3ccccc3)ccc21)c1ccc(-c2c3nc(c(-c4ccccc4)c4ccc([nH]4)c(-c4ccccc4)c4nc(c(-c5ccccc5)c5ccc2[nH]5)C=C4)C=C3)cc1
REMARK SMILES IDX 4 1 3 2 2 3 1 4 25 5 26 6 72 7 27 8 71 9 28 10 29 11 30 12
REMARK SMILES IDX 65 13 31 14 70 15 64 16 66 17 32 18 69 19 63 20 62 21 33 23
REMARK SMILES IDX 55 24 40 25 54 26 41 27 44 28 53 29 67 30 42 31 43 32 52 34
REMARK SMILES IDX 68 35 45 36 34 37 35 38 39 39 36 40 38 41 37 42 56 43 57 44
REMARK SMILES IDX 61 45 58 46 60 47 59 48 46 49 47 50 51 51 48 52 50 53 49 54
REMARK SMILES IDX 5 55 6 56 7 57 8 58 9 59 10 60 24 61 11 62 12 63 23 64 13 65
REMARK SMILES IDX 22 66 14 67 15 68 16 69 17 70 21 71 18 72 20 73 19 74
REMARK H PARENT 66 22 44 33
REMARK Flexibility Score: inf
ROOT
ATOM      1  C   UNL     1       3.863   1.072  -1.592  1.00  0.00     0.275 C 
ENDROOT
BRANCH   1   2
ATOM      2  O   UNL     1       3.277  -0.197  -1.274  1.00  0.00    -0.458 OA
BRANCH   2   3
ATOM      3  C   UNL     1       3.642  -1.076  -0.314  1.00  0.00     0.338 C 
ATOM      4  O   UNL     1       3.189  -2.218  -0.331  1.00  0.00    -0.246 OA
BRANCH   3   5
ATOM      5  C   UNL     1       4.467  -0.671   0.859  1.00  0.00     0.060 A 
ATOM      6  C   UNL     1       5.644   0.083   0.824  1.00  0.00     0.016 A 
ATOM      7  C   UNL     1       4.049  -1.178   2.091  1.00  0.00     0.016 A 
ATOM      8  C   UNL     1       6.327   0.415   2.007  1.00  0.00     0.010 A 
ATOM      9  C   UNL     1       4.725  -0.847   3.265  1.00  0.00     0.010 A 
ATOM     10  C   UNL     1       5.863  -0.031   3.247  1.00  0.00    -0.014 A 
BRANCH  10  11
ATOM     11  C   UNL     1       6.576   0.243   4.527  1.00  0.00     0.031 A 
ATOM     12  C   UNL     1       7.046  -0.924   5.357  1.00  0.00     0.074 A 
ATOM     13  C   UNL     1       6.687   1.496   5.012  1.00  0.00     0.049 A 
ATOM     14  N   UNL     1       7.466  -0.952   6.597  1.00  0.00    -0.248 NA
ATOM     15  C   UNL     1       6.994  -2.244   4.707  1.00  0.00     0.031 C 
ATOM     16  C   UNL     1       6.231   2.715   4.344  1.00  0.00     0.029 A 
ATOM     17  N   UNL     1       7.164   1.948   6.221  1.00  0.00    -0.354 N 
ATOM     18  C   UNL     1       7.658  -2.300   6.889  1.00  0.00     0.074 A 
ATOM     19  C   UNL     1       7.260  -3.051   5.721  1.00  0.00     0.031 C 
ATOM     20  C   UNL     1       6.369   3.759   5.179  1.00  0.00     0.029 A 
ATOM     21  C   UNL     1       6.933   3.287   6.439  1.00  0.00     0.049 A 
ATOM     22  H   UNL     1       7.627   1.368   6.868  1.00  0.00     0.167 HD
ATOM     23  C   UNL     1       8.157  -2.867   8.014  1.00  0.00     0.031 A 
ATOM     24  C   UNL     1       7.123   4.040   7.540  1.00  0.00     0.031 A 
ATOM     25  C   UNL     1       8.611  -2.117   9.150  1.00  0.00     0.049 A 
ATOM     26  C   UNL     1       7.760   3.412   8.752  1.00  0.00     0.074 A 
ATOM     27  C   UNL     1       9.228  -2.572  10.301  1.00  0.00     0.029 A 
ATOM     28  N   UNL     1       8.510  -0.740   9.262  1.00  0.00    -0.354 N 
ATOM     29  N   UNL     1       8.066   2.154   8.962  1.00  0.00    -0.248 NA
ATOM     30  C   UNL     1       8.100   4.305   9.869  1.00  0.00     0.031 C 
ATOM     31  C   UNL     1       9.492  -1.466  11.117  1.00  0.00     0.029 A 
ATOM     32  C   UNL     1       9.058  -0.324  10.460  1.00  0.00     0.049 A 
ATOM     33  H   UNL     1       8.107  -0.146   8.588  1.00  0.00     0.167 HD
ATOM     34  C   UNL     1       8.662   2.112  10.216  1.00  0.00     0.074 A 
ATOM     35  C   UNL     1       8.690   3.470  10.714  1.00  0.00     0.031 C 
ATOM     36  C   UNL     1       9.130   1.042  10.902  1.00  0.00     0.031 A 
BRANCH  23  37
ATOM     37  C   UNL     1       8.262  -4.368   8.036  1.00  0.00    -0.014 A 
ATOM     38  C   UNL     1       9.158  -5.042   7.188  1.00  0.00     0.009 A 
ATOM     39  C   UNL     1       7.444  -5.122   8.891  1.00  0.00     0.009 A 
ATOM     40  C   UNL     1       9.182  -6.437   7.144  1.00  0.00     0.001 A 
ATOM     41  C   UNL     1       7.498  -6.518   8.872  1.00  0.00     0.001 A 
ATOM     42  C   UNL     1       8.353  -7.174   7.987  1.00  0.00     0.000 A 
ENDBRANCH  23  37
BRANCH  24  43
ATOM     43  C   UNL     1       6.668   5.458   7.579  1.00  0.00    -0.014 A 
ATOM     44  C   UNL     1       7.583   6.520   7.610  1.00  0.00     0.009 A 
ATOM     45  C   UNL     1       5.296   5.751   7.649  1.00  0.00     0.009 A 
ATOM     46  C   UNL     1       7.136   7.836   7.771  1.00  0.00     0.001 A 
ATOM     47  C   UNL     1       4.850   7.068   7.789  1.00  0.00     0.001 A 
ATOM     48  C   UNL     1       5.772   8.108   7.866  1.00  0.00     0.000 A 
ENDBRANCH  24  43
BRANCH  36  49
ATOM     49  C   UNL     1       9.790   1.306  12.221  1.00  0.00    -0.014 A 
ATOM     50  C   UNL     1       9.033   1.552  13.376  1.00  0.00     0.009 A 
ATOM     51  C   UNL     1      11.188   1.233  12.318  1.00  0.00     0.009 A 
ATOM     52  C   UNL     1       9.669   1.739  14.604  1.00  0.00     0.001 A 
ATOM     53  C   UNL     1      11.819   1.400  13.551  1.00  0.00     0.001 A 
ATOM     54  C   UNL     1      11.059   1.657  14.691  1.00  0.00     0.000 A 
ENDBRANCH  36  49
ENDBRANCH  10  11
ENDBRANCH   3   5
ENDBRANCH   2   3
ENDBRANCH   1   2
BRANCH   1  55
ATOM     55  C   UNL     1       3.229   2.272  -0.896  1.00  0.00     0.274 C 
BRANCH  55  56
ATOM     56  O   UNL     1       3.087   2.166   0.530  1.00  0.00    -0.462 OA
BRANCH  56  57
ATOM     57  C   UNL     1       1.830   1.852   0.967  1.00  0.00     0.315 C 
ATOM     58  O   UNL     1       0.957   1.388   0.244  1.00  0.00    -0.251 OA
BRANCH  57  59
ATOM     59  C   UNL     1       1.577   2.241   2.419  1.00  0.00     0.148 C 
ATOM     60  C   UNL     1       2.628   3.168   3.082  1.00  0.00     0.043 C 
ATOM     61  C   UNL     1       1.563   1.087   3.359  1.00  0.00     0.033 A 
ATOM     62  C   UNL     1       2.629   2.782   4.570  1.00  0.00     0.124 C 
ATOM     63  N   UNL     1       2.171   1.404   4.548  1.00  0.00    -0.341 N 
ATOM     64  C   UNL     1       1.118  -0.202   3.436  1.00  0.00     0.025 A 
ATOM     65  C   UNL     1       2.301   0.313   5.351  1.00  0.00     0.090 A 
ATOM     66  C   UNL     1       1.591  -0.693   4.685  1.00  0.00     0.032 A 
BRANCH  65  67
ATOM     67  C   UNL     1       3.093   0.105   6.557  1.00  0.00     0.209 C 
ATOM     68  O   UNL     1       3.585  -0.999   6.794  1.00  0.00    -0.287 OA
BRANCH  67  69
ATOM     69  C   UNL     1       3.326   1.168   7.575  1.00  0.00     0.024 A 
ATOM     70  C   UNL     1       4.443   1.049   8.417  1.00  0.00     0.012 A 
ATOM     71  C   UNL     1       2.417   2.208   7.797  1.00  0.00     0.012 A 
ATOM     72  C   UNL     1       4.655   1.963   9.450  1.00  0.00     0.001 A 
ATOM     73  C   UNL     1       2.647   3.139   8.815  1.00  0.00     0.001 A 
ATOM     74  C   UNL     1       3.765   3.016   9.641  1.00  0.00     0.000 A 
ENDBRANCH  67  69
ENDBRANCH  65  67
ENDBRANCH  57  59
ENDBRANCH  56  57
ENDBRANCH  55  56
ENDBRANCH   1  55
TORSDOF 13
