REMARK SMILES Cc1cc(OCC(=O)OCCOC(=O)c2ccc(-c3c4nc(c(-c5ccccc5)c5ccc([nH]5)c(-c5ccccc5)c5nc(c(-c6ccccc6)c6ccc3[nH]6)C=C5)C=C4)cc2)ccc1NC(=O)c1ccc(N2C(=O)[C@@H]3[C@H](C2=O)[C@H]2C=C[C@@H]3C2)cc1
REMARK SMILES IDX 9 1 7 2 8 3 6 4 5 5 4 6 1 7 2 8 3 9 65 10 64 11 63 12 66 13
REMARK SMILES IDX 67 14 68 16 69 17 70 18 86 19 71 20 85 21 72 22 73 23 74 24
REMARK SMILES IDX 78 25 75 26 76 27 77 28 79 29 83 30 80 31 82 32 84 33 81 34
REMARK SMILES IDX 10 35 11 36 12 37 13 38 14 39 15 40 16 41 62 42 17 43 61 44
REMARK SMILES IDX 18 45 19 46 20 47 55 48 21 49 60 50 54 51 56 52 22 53 59 54
REMARK SMILES IDX 53 55 52 56 23 58 45 59 30 60 44 61 31 62 34 63 43 64 57 65
REMARK SMILES IDX 32 66 33 67 42 69 58 70 35 71 24 72 25 73 29 74 26 75 28 76
REMARK SMILES IDX 27 77 46 78 47 79 51 80 48 81 50 82 49 83 36 84 37 85 41 86
REMARK SMILES IDX 38 87 40 88 39 89
REMARK H PARENT 66 15 56 57 34 68
REMARK Flexibility Score: inf
ROOT
ATOM      1  O   UNL     1      -1.625  -1.569   1.972  1.00  0.00    -0.460 OA
ENDROOT
BRANCH   1   2
ATOM      2  C   UNL     1      -1.782  -2.873   1.637  1.00  0.00     0.344 C 
ATOM      3  O   UNL     1      -2.046  -3.768   2.428  1.00  0.00    -0.248 OA
BRANCH   2   4
ATOM      4  C   UNL     1      -1.691  -3.049   0.121  1.00  0.00     0.351 C 
BRANCH   4   5
ATOM      5  O   UNL     1      -0.485  -2.644  -0.513  1.00  0.00    -0.482 OA
BRANCH   5   6
ATOM      6  C   UNL     1      -0.179  -1.314  -0.449  1.00  0.00     0.120 A 
ATOM      7  C   UNL     1       3.071   0.506   0.162  1.00  0.00     0.047 C 
ATOM      8  C   UNL     1       1.599   0.319  -0.082  1.00  0.00    -0.024 A 
ATOM      9  C   UNL     1       1.156  -1.015  -0.204  1.00  0.00     0.052 A 
ATOM     10  C   UNL     1       0.671   1.374  -0.192  1.00  0.00     0.044 A 
ATOM     11  C   UNL     1      -0.659   1.061  -0.484  1.00  0.00     0.030 A 
ATOM     12  C   UNL     1      -1.077  -0.271  -0.634  1.00  0.00     0.048 A 
BRANCH  10  13
ATOM     13  N   UNL     1       1.116   2.711  -0.157  1.00  0.00    -0.322 N 
ATOM     14  C   UNL     1       0.441   3.902   0.012  1.00  0.00     0.255 C 
ATOM     15  H   UNL     1       2.088   2.814  -0.276  1.00  0.00     0.170 HD
ATOM     16  O   UNL     1       0.893   4.929  -0.497  1.00  0.00    -0.269 OA
BRANCH  14  17
ATOM     17  C   UNL     1      -0.710   4.037   0.939  1.00  0.00     0.040 A 
ATOM     18  C   UNL     1      -1.775   4.875   0.605  1.00  0.00     0.016 A 
ATOM     19  C   UNL     1      -0.662   3.502   2.223  1.00  0.00     0.016 A 
ATOM     20  C   UNL     1      -2.836   5.083   1.508  1.00  0.00     0.027 A 
ATOM     21  C   UNL     1      -1.707   3.749   3.136  1.00  0.00     0.027 A 
ATOM     22  C   UNL     1      -2.844   4.497   2.785  1.00  0.00     0.052 A 
BRANCH  22  23
ATOM     23  N   UNL     1      -3.962   4.642   3.677  1.00  0.00    -0.250 N 
ATOM     24  C   UNL     1      -5.241   4.974   3.261  1.00  0.00     0.238 C 
ATOM     25  C   UNL     1      -3.922   4.372   5.032  1.00  0.00     0.238 C 
ATOM     26  O   UNL     1      -5.663   5.157   2.126  1.00  0.00    -0.274 OA
ATOM     27  C   UNL     1      -6.165   5.008   4.447  1.00  0.00     0.099 C 
ATOM     28  C   UNL     1      -5.270   4.648   5.641  1.00  0.00     0.099 C 
ATOM     29  O   UNL     1      -2.995   3.953   5.714  1.00  0.00    -0.274 OA
ATOM     30  C   UNL     1      -7.225   3.879   4.454  1.00  0.00     0.025 C 
ATOM     31  C   UNL     1      -5.935   3.378   6.215  1.00  0.00     0.025 C 
ATOM     32  C   UNL     1      -8.068   4.072   5.698  1.00  0.00    -0.027 C 
ATOM     33  C   UNL     1      -6.414   2.672   4.940  1.00  0.00     0.017 C 
ATOM     34  C   UNL     1      -7.291   3.779   6.754  1.00  0.00    -0.027 C 
ENDBRANCH  22  23
ENDBRANCH  14  17
ENDBRANCH  10  13
ENDBRANCH   5   6
ENDBRANCH   4   5
ENDBRANCH   2   4
ENDBRANCH   1   2
BRANCH   1  35
ATOM     35  C   UNL     1      -1.889  -1.224   3.325  1.00  0.00     0.274 C 
BRANCH  35  36
ATOM     36  C   UNL     1      -1.969   0.298   3.449  1.00  0.00     0.275 C 
BRANCH  36  37
ATOM     37  O   UNL     1      -2.336   1.063   2.250  1.00  0.00    -0.458 OA
BRANCH  37  38
ATOM     38  C   UNL     1      -3.421   1.053   1.444  1.00  0.00     0.338 C 
ATOM     39  O   UNL     1      -3.591   1.815   0.513  1.00  0.00    -0.246 OA
BRANCH  38  40
ATOM     40  C   UNL     1      -4.375  -0.020   1.675  1.00  0.00     0.060 A 
ATOM     41  C   UNL     1      -4.736  -0.882   0.625  1.00  0.00     0.016 A 
ATOM     42  C   UNL     1      -4.830  -0.195   2.967  1.00  0.00     0.016 A 
ATOM     43  C   UNL     1      -5.481  -2.018   0.909  1.00  0.00     0.010 A 
ATOM     44  C   UNL     1      -5.456  -1.367   3.266  1.00  0.00     0.010 A 
ATOM     45  C   UNL     1      -5.814  -2.260   2.239  1.00  0.00    -0.014 A 
BRANCH  45  46
ATOM     46  C   UNL     1      -6.753  -3.268   2.692  1.00  0.00     0.031 A 
ATOM     47  C   UNL     1      -6.413  -4.685   2.859  1.00  0.00     0.074 A 
ATOM     48  C   UNL     1      -7.872  -2.714   3.204  1.00  0.00     0.049 A 
ATOM     49  N   UNL     1      -7.285  -5.594   3.125  1.00  0.00    -0.248 NA
ATOM     50  C   UNL     1      -5.064  -5.217   2.722  1.00  0.00     0.031 C 
ATOM     51  C   UNL     1      -8.837  -3.250   4.142  1.00  0.00     0.029 A 
ATOM     52  N   UNL     1      -8.417  -1.480   2.823  1.00  0.00    -0.354 N 
ATOM     53  C   UNL     1      -6.597  -6.713   3.538  1.00  0.00     0.074 A 
ATOM     54  C   UNL     1      -5.226  -6.472   3.158  1.00  0.00     0.031 C 
ATOM     55  C   UNL     1      -9.970  -2.531   4.029  1.00  0.00     0.029 A 
ATOM     56  C   UNL     1      -9.797  -1.645   2.881  1.00  0.00     0.049 A 
ATOM     57  H   UNL     1      -7.925  -0.667   2.567  1.00  0.00     0.167 HD
ATOM     58  C   UNL     1      -7.248  -7.631   4.308  1.00  0.00     0.031 A 
ATOM     59  C   UNL     1     -10.541  -1.673   1.735  1.00  0.00     0.031 A 
ATOM     60  C   UNL     1      -8.666  -7.291   4.436  1.00  0.00     0.049 A 
ATOM     61  C   UNL     1     -11.243  -3.002   1.605  1.00  0.00     0.074 A 
ATOM     62  C   UNL     1      -9.395  -6.675   5.440  1.00  0.00     0.029 A 
ATOM     63  N   UNL     1      -9.460  -7.265   3.294  1.00  0.00    -0.354 N 
ATOM     64  N   UNL     1     -10.761  -4.130   2.053  1.00  0.00    -0.248 NA
ATOM     65  C   UNL     1     -12.561  -3.145   1.001  1.00  0.00     0.031 C 
ATOM     66  C   UNL     1     -10.592  -6.176   4.859  1.00  0.00     0.029 A 
ATOM     67  C   UNL     1     -10.600  -6.520   3.517  1.00  0.00     0.049 A 
ATOM     68  H   UNL     1      -9.239  -7.714   2.447  1.00  0.00     0.167 HD
ATOM     69  C   UNL     1     -11.719  -5.099   1.931  1.00  0.00     0.074 A 
ATOM     70  C   UNL     1     -12.806  -4.448   1.218  1.00  0.00     0.031 C 
ATOM     71  C   UNL     1     -11.587  -6.348   2.462  1.00  0.00     0.031 A 
BRANCH  58  72
ATOM     72  C   UNL     1      -6.559  -8.652   5.185  1.00  0.00    -0.014 A 
ATOM     73  C   UNL     1      -7.215  -9.123   6.341  1.00  0.00     0.009 A 
ATOM     74  C   UNL     1      -5.264  -9.152   4.973  1.00  0.00     0.009 A 
ATOM     75  C   UNL     1      -6.591  -9.972   7.266  1.00  0.00     0.001 A 
ATOM     76  C   UNL     1      -4.624  -9.986   5.904  1.00  0.00     0.001 A 
ATOM     77  C   UNL     1      -5.285 -10.388   7.057  1.00  0.00     0.000 A 
ENDBRANCH  58  72
BRANCH  59  78
ATOM     78  C   UNL     1      -9.952  -0.913   0.585  1.00  0.00    -0.014 A 
ATOM     79  C   UNL     1      -9.790   0.484   0.710  1.00  0.00     0.009 A 
ATOM     80  C   UNL     1      -9.244  -1.568  -0.436  1.00  0.00     0.009 A 
ATOM     81  C   UNL     1      -8.887   1.186  -0.098  1.00  0.00     0.001 A 
ATOM     82  C   UNL     1      -8.351  -0.858  -1.255  1.00  0.00     0.001 A 
ATOM     83  C   UNL     1      -8.154   0.510  -1.069  1.00  0.00     0.000 A 
ENDBRANCH  59  78
BRANCH  71  84
ATOM     84  C   UNL     1     -12.447  -7.531   2.109  1.00  0.00    -0.014 A 
ATOM     85  C   UNL     1     -13.140  -7.647   0.898  1.00  0.00     0.009 A 
ATOM     86  C   UNL     1     -12.427  -8.668   2.947  1.00  0.00     0.009 A 
ATOM     87  C   UNL     1     -13.818  -8.824   0.561  1.00  0.00     0.001 A 
ATOM     88  C   UNL     1     -13.058  -9.860   2.592  1.00  0.00     0.001 A 
ATOM     89  C   UNL     1     -13.765  -9.933   1.401  1.00  0.00     0.000 A 
ENDBRANCH  71  84
ENDBRANCH  45  46
ENDBRANCH  38  40
ENDBRANCH  37  38
ENDBRANCH  36  37
ENDBRANCH  35  36
ENDBRANCH   1  35
TORSDOF 16
