REMARK SMILES CSc1ccc(CNc2ccc(N3CCOCC3)c(C(=O)OCCOC(=O)c3ccc(-c4c5nc(c(-c6ccccc6)c6ccc([nH]6)c(-c6ccccc6)c6nc(c(-c7ccccc7)c7ccc4[nH]7)C=C6)C=C5)cc3)c2)cc1
REMARK SMILES IDX 23 1 22 2 20 3 21 4 19 5 9 6 10 7 76 8 11 9 12 10 8 11 7 13
REMARK SMILES IDX 6 14 3 15 4 16 78 17 5 18 77 19 2 20 1 21 13 22 14 23 18 24
REMARK SMILES IDX 15 25 17 26 16 27 24 28 25 29 26 30 27 31 28 32 29 33 75 34
REMARK SMILES IDX 30 35 74 36 31 37 32 38 33 39 68 40 34 41 73 42 67 43 69 44
REMARK SMILES IDX 35 45 72 46 66 47 65 48 36 50 58 51 43 52 57 53 44 54 47 55
REMARK SMILES IDX 56 56 70 57 45 58 46 59 55 61 71 62 48 63 37 64 38 65 42 66
REMARK SMILES IDX 39 67 41 68 40 69 59 70 60 71 64 72 61 73 63 74 62 75 49 76
REMARK SMILES IDX 50 77 54 78 51 79 53 80 52 81
REMARK H PARENT 8 12 69 49 47 60
REMARK Flexibility Score: inf
ROOT
ATOM      1  C   UNL     1       5.687   4.365  10.943  1.00  0.00     0.275 C 
ENDROOT
BRANCH   1   2
ATOM      2  O   UNL     1       4.625   3.800  10.160  1.00  0.00    -0.458 OA
BRANCH   2   3
ATOM      3  C   UNL     1       4.708   2.471   9.898  1.00  0.00     0.340 C 
ATOM      4  O   UNL     1       5.674   1.755  10.101  1.00  0.00    -0.246 OA
BRANCH   3   5
ATOM      5  C   UNL     1       3.371   2.027   9.435  1.00  0.00     0.085 A 
ATOM      6  C   UNL     1       1.555   2.435   7.847  1.00  0.00     0.035 A 
ATOM      7  C   UNL     1       0.884   1.355   8.420  1.00  0.00     0.028 A 
ATOM      8  C   UNL     1       2.786   2.779   8.396  1.00  0.00     0.043 A 
ATOM      9  C   UNL     1       1.468   0.590   9.444  1.00  0.00     0.029 A 
ATOM     10  C   UNL     1       2.744   0.878   9.956  1.00  0.00     0.052 A 
BRANCH   6  11
ATOM     11  N   UNL     1       1.028   3.055   6.733  1.00  0.00    -0.381 N 
ATOM     12  H   UNL     1       0.052   3.024   6.603  1.00  0.00     0.160 HD
BRANCH  11  13
ATOM     13  C   UNL     1       1.829   3.753   5.741  1.00  0.00     0.148 C 
BRANCH  13  14
ATOM     14  C   UNL     1       1.500   3.242   4.356  1.00  0.00    -0.029 A 
ATOM     15  C   UNL     1       0.953   2.273   1.751  1.00  0.00     0.007 A 
ATOM     16  C   UNL     1       1.286   1.391   2.782  1.00  0.00     0.015 A 
ATOM     17  C   UNL     1       0.908   3.644   2.036  1.00  0.00     0.015 A 
ATOM     18  C   UNL     1       1.564   1.871   4.067  1.00  0.00     0.007 A 
ATOM     19  C   UNL     1       1.182   4.127   3.321  1.00  0.00     0.007 A 
BRANCH  15  20
ATOM     20  S   UNL     1       0.539   1.780   0.082  1.00  0.00    -0.130 SA
ATOM     21  C   UNL     1       1.104   0.060   0.001  1.00  0.00     0.091 C 
ENDBRANCH  15  20
ENDBRANCH  13  14
ENDBRANCH  11  13
ENDBRANCH   6  11
BRANCH  10  22
ATOM     22  N   UNL     1       3.328   0.047  10.895  1.00  0.00    -0.366 N 
ATOM     23  C   UNL     1       3.773   0.561  12.194  1.00  0.00     0.145 C 
ATOM     24  C   UNL     1       3.153  -1.408  10.861  1.00  0.00     0.145 C 
ATOM     25  C   UNL     1       4.976  -0.212  12.738  1.00  0.00     0.181 C 
ATOM     26  C   UNL     1       4.434  -2.070  11.399  1.00  0.00     0.181 C 
ATOM     27  O   UNL     1       4.737  -1.630  12.734  1.00  0.00    -0.378 OA
ENDBRANCH  10  22
ENDBRANCH   3   5
ENDBRANCH   2   3
ENDBRANCH   1   2
BRANCH   1  28
ATOM     28  C   UNL     1       5.082   5.139  12.115  1.00  0.00     0.275 C 
BRANCH  28  29
ATOM     29  O   UNL     1       4.253   4.280  12.926  1.00  0.00    -0.458 OA
BRANCH  29  30
ATOM     30  C   UNL     1       2.914   4.351  12.699  1.00  0.00     0.338 C 
ATOM     31  O   UNL     1       2.340   5.106  11.934  1.00  0.00    -0.246 OA
BRANCH  30  32
ATOM     32  C   UNL     1       2.230   3.260  13.442  1.00  0.00     0.060 A 
ATOM     33  C   UNL     1       1.148   2.611  12.832  1.00  0.00     0.016 A 
ATOM     34  C   UNL     1       2.691   2.816  14.689  1.00  0.00     0.016 A 
ATOM     35  C   UNL     1       0.563   1.492  13.442  1.00  0.00     0.010 A 
ATOM     36  C   UNL     1       2.098   1.703  15.303  1.00  0.00     0.010 A 
ATOM     37  C   UNL     1       1.039   1.022  14.679  1.00  0.00    -0.014 A 
BRANCH  37  38
ATOM     38  C   UNL     1       0.298  -0.045  15.404  1.00  0.00     0.031 A 
ATOM     39  C   UNL     1      -0.905   0.376  16.195  1.00  0.00     0.074 A 
ATOM     40  C   UNL     1       0.651  -1.346  15.389  1.00  0.00     0.049 A 
ATOM     41  N   UNL     1      -1.785  -0.357  16.824  1.00  0.00    -0.248 NA
ATOM     42  C   UNL     1      -1.139   1.827  16.286  1.00  0.00     0.031 C 
ATOM     43  C   UNL     1       1.798  -1.916  14.693  1.00  0.00     0.029 A 
ATOM     44  N   UNL     1       0.061  -2.436  15.993  1.00  0.00    -0.354 N 
ATOM     45  C   UNL     1      -2.701   0.541  17.349  1.00  0.00     0.074 A 
ATOM     46  C   UNL     1      -2.238   1.871  17.018  1.00  0.00     0.031 C 
ATOM     47  C   UNL     1       1.825  -3.247  14.892  1.00  0.00     0.029 A 
ATOM     48  C   UNL     1       0.706  -3.628  15.749  1.00  0.00     0.049 A 
ATOM     49  H   UNL     1      -0.749  -2.368  16.548  1.00  0.00     0.167 HD
ATOM     50  C   UNL     1      -3.839   0.292  18.037  1.00  0.00     0.031 A 
ATOM     51  C   UNL     1       0.424  -4.879  16.168  1.00  0.00     0.031 A 
ATOM     52  C   UNL     1      -4.260  -1.009  18.469  1.00  0.00     0.049 A 
ATOM     53  C   UNL     1      -0.784  -5.119  17.044  1.00  0.00     0.074 A 
ATOM     54  C   UNL     1      -5.381  -1.351  19.204  1.00  0.00     0.029 A 
ATOM     55  N   UNL     1      -3.556  -2.179  18.238  1.00  0.00    -0.354 N 
ATOM     56  N   UNL     1      -1.698  -4.271  17.451  1.00  0.00    -0.248 NA
ATOM     57  C   UNL     1      -1.004  -6.499  17.507  1.00  0.00     0.031 C 
ATOM     58  C   UNL     1      -5.322  -2.722  19.473  1.00  0.00     0.029 A 
ATOM     59  C   UNL     1      -4.205  -3.244  18.840  1.00  0.00     0.049 A 
ATOM     60  H   UNL     1      -2.719  -2.244  17.724  1.00  0.00     0.167 HD
ATOM     61  C   UNL     1      -2.623  -5.023  18.168  1.00  0.00     0.074 A 
ATOM     62  C   UNL     1      -2.165  -6.395  18.138  1.00  0.00     0.031 C 
ATOM     63  C   UNL     1      -3.757  -4.612  18.789  1.00  0.00     0.031 A 
BRANCH  50  64
ATOM     64  C   UNL     1      -4.668   1.490  18.392  1.00  0.00    -0.014 A 
ATOM     65  C   UNL     1      -5.347   2.212  17.395  1.00  0.00     0.009 A 
ATOM     66  C   UNL     1      -4.725   1.936  19.719  1.00  0.00     0.009 A 
ATOM     67  C   UNL     1      -6.024   3.389  17.715  1.00  0.00     0.001 A 
ATOM     68  C   UNL     1      -5.430   3.096  20.040  1.00  0.00     0.001 A 
ATOM     69  C   UNL     1      -6.064   3.829  19.037  1.00  0.00     0.000 A 
ENDBRANCH  50  64
BRANCH  51  70
ATOM     70  C   UNL     1       1.280  -6.037  15.777  1.00  0.00    -0.014 A 
ATOM     71  C   UNL     1       0.770  -7.056  14.954  1.00  0.00     0.009 A 
ATOM     72  C   UNL     1       2.573  -6.182  16.302  1.00  0.00     0.009 A 
ATOM     73  C   UNL     1       1.514  -8.213  14.707  1.00  0.00     0.001 A 
ATOM     74  C   UNL     1       3.328  -7.326  16.027  1.00  0.00     0.001 A 
ATOM     75  C   UNL     1       2.793  -8.348  15.244  1.00  0.00     0.000 A 
ENDBRANCH  51  70
BRANCH  63  76
ATOM     76  C   UNL     1      -4.633  -5.659  19.424  1.00  0.00    -0.014 A 
ATOM     77  C   UNL     1      -4.249  -6.351  20.582  1.00  0.00     0.009 A 
ATOM     78  C   UNL     1      -5.904  -5.909  18.877  1.00  0.00     0.009 A 
ATOM     79  C   UNL     1      -5.104  -7.294  21.159  1.00  0.00     0.001 A 
ATOM     80  C   UNL     1      -6.771  -6.824  19.476  1.00  0.00     0.001 A 
ATOM     81  C   UNL     1      -6.366  -7.523  20.611  1.00  0.00     0.000 A 
ENDBRANCH  63  76
ENDBRANCH  37  38
ENDBRANCH  30  32
ENDBRANCH  29  30
ENDBRANCH  28  29
ENDBRANCH   1  28
TORSDOF 16
