REMARK SMILES Cc1cc(Cl)cc2c1O[C@H](C(F)(F)F)C(C(=O)OCCOC(=O)c1ccc(-c3c4nc(c(-c5ccccc5)c5ccc([nH]5)c(-c5ccccc5)c5nc(c(-c6ccccc6)c6ccc3[nH]6)C=C5)C=C4)cc1)=C2
REMARK SMILES IDX 20 1 19 2 18 3 16 4 17 5 15 6 1 7 2 8 3 9 8 10 4 11 7 12
REMARK SMILES IDX 9 13 5 14 6 15 72 16 10 17 11 18 12 19 13 20 14 21 21 22
REMARK SMILES IDX 22 23 23 24 24 25 25 26 71 27 26 28 70 29 27 30 28 31 29 32
REMARK SMILES IDX 64 33 30 34 69 35 63 36 65 37 31 38 68 39 62 40 61 41 32 43
REMARK SMILES IDX 54 44 39 45 53 46 40 47 43 48 52 49 66 50 41 51 42 52 51 54
REMARK SMILES IDX 67 55 44 56 33 57 34 58 38 59 35 60 37 61 36 62 55 63 56 64
REMARK SMILES IDX 60 65 57 66 59 67 58 68 45 69 46 70 50 71 47 72 49 73 48 74
REMARK H PARENT 65 42 43 53
REMARK Flexibility Score: inf
ROOT
ATOM      1  C   UNL     1      -7.230   2.405  -3.325  1.00  0.00     0.275 C 
ENDROOT
BRANCH   1   2
ATOM      2  C   UNL     1      -6.225   1.451  -3.970  1.00  0.00     0.275 C 
BRANCH   2   3
ATOM      3  O   UNL     1      -5.077   1.242  -3.118  1.00  0.00    -0.459 OA
BRANCH   3   4
ATOM      4  C   UNL     1      -3.960   1.916  -3.474  1.00  0.00     0.338 C 
ATOM      5  O   UNL     1      -3.829   2.656  -4.437  1.00  0.00    -0.246 OA
BRANCH   4   6
ATOM      6  C   UNL     1      -2.871   1.665  -2.513  1.00  0.00     0.087 C 
ATOM      7  C   UNL     1       1.056  -0.392   0.096  1.00  0.00     0.048 C 
ATOM      8  C   UNL     1       0.566   0.991  -0.223  1.00  0.00    -0.007 A 
ATOM      9  C   UNL     1       1.299   2.100   0.237  1.00  0.00     0.027 A 
ATOM     10  C   UNL     1      -0.625   1.204  -0.934  1.00  0.00     0.131 A 
ATOM     11  C   UNL     1       0.859   3.395  -0.024  1.00  0.00     0.042 A 
ATOM     12  C   UNL     1      -1.047   2.507  -1.205  1.00  0.00     0.019 A 
ATOM     13  O   UNL     1      -1.341   0.101  -1.317  1.00  0.00    -0.475 OA
ATOM     14  Cl  UNL     1       1.769   4.743   0.536  1.00  0.00    -0.084 Cl
ATOM     15  C   UNL     1      -0.311   3.605  -0.744  1.00  0.00     0.032 A 
ATOM     16  C   UNL     1      -2.233   2.726  -2.008  1.00  0.00     0.027 C 
ATOM     17  C   UNL     1      -2.429   0.253  -2.272  1.00  0.00     0.316 C 
BRANCH  17  18
ATOM     18  C   UNL     1      -2.039  -0.443  -3.586  1.00  0.00     0.430 C 
ATOM     19  F   UNL     1      -1.615  -1.710  -3.367  1.00  0.00    -0.167 F 
ATOM     20  F   UNL     1      -3.094  -0.530  -4.433  1.00  0.00    -0.167 F 
ATOM     21  F   UNL     1      -1.051   0.211  -4.236  1.00  0.00    -0.167 F 
ENDBRANCH  17  18
ENDBRANCH   4   6
ENDBRANCH   3   4
ENDBRANCH   2   3
ENDBRANCH   1   2
BRANCH   1  22
ATOM     22  O   UNL     1      -6.669   3.727  -3.222  1.00  0.00    -0.458 OA
BRANCH  22  23
ATOM     23  C   UNL     1      -6.324   4.111  -1.973  1.00  0.00     0.338 C 
ATOM     24  O   UNL     1      -6.472   3.488  -0.935  1.00  0.00    -0.246 OA
BRANCH  23  25
ATOM     25  C   UNL     1      -5.629   5.407  -2.012  1.00  0.00     0.060 A 
ATOM     26  C   UNL     1      -4.389   5.477  -2.633  1.00  0.00     0.016 A 
ATOM     27  C   UNL     1      -6.089   6.480  -1.253  1.00  0.00     0.016 A 
ATOM     28  C   UNL     1      -3.528   6.531  -2.348  1.00  0.00     0.010 A 
ATOM     29  C   UNL     1      -5.282   7.616  -1.107  1.00  0.00     0.010 A 
ATOM     30  C   UNL     1      -3.964   7.633  -1.599  1.00  0.00    -0.014 A 
BRANCH  30  31
ATOM     31  C   UNL     1      -3.034   8.766  -1.311  1.00  0.00     0.031 A 
ATOM     32  C   UNL     1      -2.804   9.228   0.110  1.00  0.00     0.074 A 
ATOM     33  C   UNL     1      -2.358   9.369  -2.312  1.00  0.00     0.049 A 
ATOM     34  N   UNL     1      -2.179  10.296   0.541  1.00  0.00    -0.248 NA
ATOM     35  C   UNL     1      -3.359   8.390   1.186  1.00  0.00     0.031 C 
ATOM     36  C   UNL     1      -2.419   8.997  -3.728  1.00  0.00     0.029 A 
ATOM     37  N   UNL     1      -1.463  10.413  -2.290  1.00  0.00    -0.354 N 
ATOM     38  C   UNL     1      -2.318  10.288   1.925  1.00  0.00     0.074 A 
ATOM     39  C   UNL     1      -3.096   9.117   2.264  1.00  0.00     0.031 C 
ATOM     40  C   UNL     1      -1.546   9.741  -4.421  1.00  0.00     0.029 A 
ATOM     41  C   UNL     1      -0.956  10.729  -3.529  1.00  0.00     0.049 A 
ATOM     42  H   UNL     1      -1.210  10.888  -1.466  1.00  0.00     0.167 HD
ATOM     43  C   UNL     1      -1.839  11.175   2.831  1.00  0.00     0.031 A 
ATOM     44  C   UNL     1      -0.148  11.730  -3.925  1.00  0.00     0.031 A 
ATOM     45  C   UNL     1      -1.023  12.312   2.498  1.00  0.00     0.049 A 
ATOM     46  C   UNL     1       0.307  12.742  -2.916  1.00  0.00     0.074 A 
ATOM     47  C   UNL     1      -0.489  13.268   3.346  1.00  0.00     0.029 A 
ATOM     48  N   UNL     1      -0.602  12.634   1.217  1.00  0.00    -0.354 N 
ATOM     49  N   UNL     1       0.099  12.765  -1.622  1.00  0.00    -0.248 NA
ATOM     50  C   UNL     1       1.082  13.882  -3.425  1.00  0.00     0.031 C 
ATOM     51  C   UNL     1       0.213  14.196   2.572  1.00  0.00     0.029 A 
ATOM     52  C   UNL     1       0.165  13.787   1.250  1.00  0.00     0.049 A 
ATOM     53  H   UNL     1      -0.816  12.120   0.405  1.00  0.00     0.167 HD
ATOM     54  C   UNL     1       0.721  13.917  -1.161  1.00  0.00     0.074 A 
ATOM     55  C   UNL     1       1.337  14.551  -2.309  1.00  0.00     0.031 C 
ATOM     56  C   UNL     1       0.767  14.409   0.100  1.00  0.00     0.031 A 
BRANCH  43  57
ATOM     57  C   UNL     1      -2.209  10.975   4.276  1.00  0.00    -0.014 A 
ATOM     58  C   UNL     1      -1.648   9.944   5.044  1.00  0.00     0.009 A 
ATOM     59  C   UNL     1      -3.087  11.880   4.896  1.00  0.00     0.009 A 
ATOM     60  C   UNL     1      -1.978   9.809   6.396  1.00  0.00     0.001 A 
ATOM     61  C   UNL     1      -3.393  11.760   6.253  1.00  0.00     0.001 A 
ATOM     62  C   UNL     1      -2.843  10.720   7.000  1.00  0.00     0.000 A 
ENDBRANCH  43  57
BRANCH  44  63
ATOM     63  C   UNL     1       0.232  11.853  -5.359  1.00  0.00    -0.014 A 
ATOM     64  C   UNL     1       1.558  11.642  -5.764  1.00  0.00     0.009 A 
ATOM     65  C   UNL     1      -0.735  12.154  -6.333  1.00  0.00     0.009 A 
ATOM     66  C   UNL     1       1.908  11.736  -7.114  1.00  0.00     0.001 A 
ATOM     67  C   UNL     1      -0.389  12.212  -7.684  1.00  0.00     0.001 A 
ATOM     68  C   UNL     1       0.933  12.009  -8.073  1.00  0.00     0.000 A 
ENDBRANCH  44  63
BRANCH  56  69
ATOM     69  C   UNL     1       1.521  15.689   0.312  1.00  0.00    -0.014 A 
ATOM     70  C   UNL     1       0.990  16.918  -0.107  1.00  0.00     0.009 A 
ATOM     71  C   UNL     1       2.746  15.673   0.998  1.00  0.00     0.009 A 
ATOM     72  C   UNL     1       1.682  18.105   0.138  1.00  0.00     0.001 A 
ATOM     73  C   UNL     1       3.422  16.863   1.266  1.00  0.00     0.001 A 
ATOM     74  C   UNL     1       2.893  18.078   0.830  1.00  0.00     0.000 A 
ENDBRANCH  56  69
ENDBRANCH  30  31
ENDBRANCH  23  25
ENDBRANCH  22  23
ENDBRANCH   1  22
TORSDOF 12
