REMARK SMILES O=C(OCCOC(=O)[C@@H]1CCCN1S(=O)(=O)c1ccc2c3c(cccc13)C(=O)N2)c1ccc(-c2c3nc(c(-c4ccccc4)c4ccc([nH]4)c(-c4ccccc4)c4nc(c(-c5ccccc5)c5ccc2[nH]5)C=C4)C=C3)cc1
REMARK SMILES IDX 4 1 3 2 2 3 1 4 30 5 31 6 77 7 32 8 76 9 33 10 34 11 35 12
REMARK SMILES IDX 70 13 36 14 75 15 69 16 71 17 37 18 74 19 68 20 67 21 38 23
REMARK SMILES IDX 60 24 45 25 59 26 46 27 49 28 58 29 72 30 47 31 48 32 57 34
REMARK SMILES IDX 73 35 50 36 39 37 40 38 44 39 41 40 43 41 42 42 61 43 62 44
REMARK SMILES IDX 66 45 63 46 65 47 64 48 51 49 52 50 56 51 53 52 55 53 54 54
REMARK SMILES IDX 5 55 6 56 7 57 8 58 9 59 10 60 13 61 11 62 12 63 14 64 15 65
REMARK SMILES IDX 16 66 17 67 18 68 26 69 19 70 21 71 25 72 20 73 22 74 24 75
REMARK SMILES IDX 29 76 23 77 27 78 28 80
REMARK H PARENT 71 22 49 33 29 79
REMARK Flexibility Score: inf
ROOT
ATOM      1  C   UNL     1       4.776  -1.404   0.210  1.00  0.00     0.275 C 
ENDROOT
BRANCH   1   2
ATOM      2  O   UNL     1       4.011  -0.551   1.090  1.00  0.00    -0.458 OA
BRANCH   2   3
ATOM      3  C   UNL     1       4.003   0.803   1.188  1.00  0.00     0.338 C 
ATOM      4  O   UNL     1       3.468   1.362   2.139  1.00  0.00    -0.246 OA
BRANCH   3   5
ATOM      5  C   UNL     1       4.495   1.609   0.050  1.00  0.00     0.060 A 
ATOM      6  C   UNL     1       5.632   1.255  -0.678  1.00  0.00     0.016 A 
ATOM      7  C   UNL     1       3.759   2.738  -0.330  1.00  0.00     0.016 A 
ATOM      8  C   UNL     1       5.903   1.845  -1.901  1.00  0.00     0.010 A 
ATOM      9  C   UNL     1       4.093   3.417  -1.505  1.00  0.00     0.010 A 
ATOM     10  C   UNL     1       5.143   2.939  -2.313  1.00  0.00    -0.014 A 
BRANCH  10  11
ATOM     11  C   UNL     1       5.762   3.822  -3.313  1.00  0.00     0.031 A 
ATOM     12  C   UNL     1       6.647   4.871  -2.707  1.00  0.00     0.074 A 
ATOM     13  C   UNL     1       5.658   3.639  -4.644  1.00  0.00     0.049 A 
ATOM     14  N   UNL     1       7.349   5.798  -3.289  1.00  0.00    -0.248 NA
ATOM     15  C   UNL     1       6.781   4.851  -1.232  1.00  0.00     0.031 C 
ATOM     16  C   UNL     1       4.952   2.555  -5.329  1.00  0.00     0.029 A 
ATOM     17  N   UNL     1       6.179   4.377  -5.674  1.00  0.00    -0.354 N 
ATOM     18  C   UNL     1       8.008   6.445  -2.254  1.00  0.00     0.074 A 
ATOM     19  C   UNL     1       7.577   5.875  -1.008  1.00  0.00     0.031 C 
ATOM     20  C   UNL     1       5.024   2.737  -6.659  1.00  0.00     0.029 A 
ATOM     21  C   UNL     1       5.828   3.919  -6.924  1.00  0.00     0.049 A 
ATOM     22  H   UNL     1       6.753   5.165  -5.534  1.00  0.00     0.167 HD
ATOM     23  C   UNL     1       8.951   7.399  -2.338  1.00  0.00     0.031 A 
ATOM     24  C   UNL     1       6.156   4.394  -8.140  1.00  0.00     0.031 A 
ATOM     25  C   UNL     1       9.398   7.934  -3.579  1.00  0.00     0.049 A 
ATOM     26  C   UNL     1       7.103   5.561  -8.200  1.00  0.00     0.074 A 
ATOM     27  C   UNL     1      10.322   8.930  -3.800  1.00  0.00     0.029 A 
ATOM     28  N   UNL     1       8.947   7.494  -4.814  1.00  0.00    -0.354 N 
ATOM     29  N   UNL     1       7.714   6.172  -7.212  1.00  0.00    -0.248 NA
ATOM     30  C   UNL     1       7.429   6.086  -9.531  1.00  0.00     0.031 C 
ATOM     31  C   UNL     1      10.410   9.117  -5.179  1.00  0.00     0.029 A 
ATOM     32  C   UNL     1       9.569   8.209  -5.811  1.00  0.00     0.049 A 
ATOM     33  H   UNL     1       8.284   6.780  -4.955  1.00  0.00     0.167 HD
ATOM     34  C   UNL     1       8.520   7.133  -7.803  1.00  0.00     0.074 A 
ATOM     35  C   UNL     1       8.327   7.017  -9.235  1.00  0.00     0.031 C 
ATOM     36  C   UNL     1       9.347   8.034  -7.221  1.00  0.00     0.031 A 
BRANCH  23  37
ATOM     37  C   UNL     1       9.541   7.878  -1.053  1.00  0.00    -0.014 A 
ATOM     38  C   UNL     1      10.469   7.086  -0.356  1.00  0.00     0.009 A 
ATOM     39  C   UNL     1       9.133   9.103  -0.510  1.00  0.00     0.009 A 
ATOM     40  C   UNL     1      10.972   7.512   0.872  1.00  0.00     0.001 A 
ATOM     41  C   UNL     1       9.656   9.535   0.708  1.00  0.00     0.001 A 
ATOM     42  C   UNL     1      10.572   8.740   1.398  1.00  0.00     0.000 A 
ENDBRANCH  23  37
BRANCH  24  43
ATOM     43  C   UNL     1       5.639   3.760  -9.383  1.00  0.00    -0.014 A 
ATOM     44  C   UNL     1       6.495   3.030 -10.223  1.00  0.00     0.009 A 
ATOM     45  C   UNL     1       4.294   3.908  -9.760  1.00  0.00     0.009 A 
ATOM     46  C   UNL     1       6.025   2.491 -11.425  1.00  0.00     0.001 A 
ATOM     47  C   UNL     1       3.822   3.352 -10.954  1.00  0.00     0.001 A 
ATOM     48  C   UNL     1       4.690   2.652 -11.790  1.00  0.00     0.000 A 
ENDBRANCH  24  43
BRANCH  36  49
ATOM     49  C   UNL     1      10.108   8.957  -8.117  1.00  0.00    -0.014 A 
ATOM     50  C   UNL     1       9.473  10.066  -8.690  1.00  0.00     0.009 A 
ATOM     51  C   UNL     1      11.499   8.812  -8.235  1.00  0.00     0.009 A 
ATOM     52  C   UNL     1      10.224  11.025  -9.365  1.00  0.00     0.001 A 
ATOM     53  C   UNL     1      12.249   9.788  -8.886  1.00  0.00     0.001 A 
ATOM     54  C   UNL     1      11.611  10.893  -9.449  1.00  0.00     0.000 A 
ENDBRANCH  36  49
ENDBRANCH  10  11
ENDBRANCH   3   5
ENDBRANCH   2   3
ENDBRANCH   1   2
BRANCH   1  55
ATOM     55  C   UNL     1       4.341  -1.539  -1.271  1.00  0.00     0.274 C 
BRANCH  55  56
ATOM     56  O   UNL     1       3.428  -0.529  -1.760  1.00  0.00    -0.461 OA
BRANCH  56  57
ATOM     57  C   UNL     1       2.463  -0.949  -2.638  1.00  0.00     0.324 C 
ATOM     58  O   UNL     1       2.336  -2.118  -2.989  1.00  0.00    -0.250 OA
BRANCH  57  59
ATOM     59  C   UNL     1       1.578   0.157  -3.180  1.00  0.00     0.183 C 
ATOM     60  C   UNL     1       2.167   1.541  -3.085  1.00  0.00     0.034 C 
ATOM     61  N   UNL     1       0.143   0.406  -2.819  1.00  0.00    -0.184 NA
ATOM     62  C   UNL     1       1.153   2.434  -3.756  1.00  0.00     0.019 C 
ATOM     63  C   UNL     1      -0.179   1.723  -3.518  1.00  0.00     0.103 C 
BRANCH  61  64
ATOM     64  S   UNL     1      -0.346   0.469  -1.162  1.00  0.00     0.244 S 
ATOM     65  O   UNL     1       0.574   1.351  -0.473  1.00  0.00    -0.207 OA
ATOM     66  O   UNL     1      -1.758   0.786  -1.168  1.00  0.00    -0.207 OA
BRANCH  64  67
ATOM     67  C   UNL     1      -0.122  -1.161  -0.502  1.00  0.00     0.090 A 
ATOM     68  C   UNL     1       1.171  -1.464  -0.025  1.00  0.00     0.024 A 
ATOM     69  C   UNL     1      -1.169  -2.101  -0.313  1.00  0.00     0.005 A 
ATOM     70  C   UNL     1       1.555  -2.747   0.391  1.00  0.00     0.028 A 
ATOM     71  C   UNL     1      -0.749  -3.333   0.111  1.00  0.00     0.019 A 
ATOM     72  C   UNL     1      -2.576  -1.985  -0.424  1.00  0.00     0.010 A 
ATOM     73  C   UNL     1       0.549  -3.677   0.401  1.00  0.00     0.050 A 
ATOM     74  C   UNL     1      -1.545  -4.429   0.403  1.00  0.00     0.050 A 
ATOM     75  C   UNL     1      -3.425  -3.057  -0.075  1.00  0.00     0.002 A 
ATOM     76  N   UNL     1       0.569  -5.003   0.777  1.00  0.00    -0.321 N 
ATOM     77  C   UNL     1      -2.927  -4.303   0.336  1.00  0.00     0.014 A 
ATOM     78  C   UNL     1      -0.716  -5.547   0.808  1.00  0.00     0.256 C 
ATOM     79  H   UNL     1       1.388  -5.504   0.997  1.00  0.00     0.170 HD
ATOM     80  O   UNL     1      -0.972  -6.703   1.131  1.00  0.00    -0.269 OA
ENDBRANCH  64  67
ENDBRANCH  61  64
ENDBRANCH  57  59
ENDBRANCH  56  57
ENDBRANCH  55  56
ENDBRANCH   1  55
TORSDOF 13
