REMARK SMILES COc1cccc(CC(=O)N[C@@](C)(C(=O)OCCOC(=O)c2ccc(-c3c4nc(c(-c5ccccc5)c5ccc([nH]5)c(-c5ccccc5)c5nc(c(-c6ccccc6)c6ccc3[nH]6)C=C5)C=C4)cc2)C(F)(F)F)c1
REMARK SMILES IDX 17 1 16 2 14 3 15 4 12 5 13 6 11 7 9 8 10 9 8 11 7 12 3 13
REMARK SMILES IDX 4 14 74 15 5 16 6 17 2 18 1 19 70 20 71 21 72 22 73 23 18 24
REMARK SMILES IDX 19 25 20 26 21 27 22 28 23 29 69 30 24 31 68 32 25 33 26 34
REMARK SMILES IDX 27 35 62 36 28 37 67 38 61 39 63 40 29 41 66 42 60 43 59 44
REMARK SMILES IDX 30 46 52 47 37 48 51 49 38 50 41 51 50 52 64 53 39 54 40 55
REMARK SMILES IDX 49 57 65 58 42 59 31 60 32 61 36 62 33 63 35 64 34 65 53 66
REMARK SMILES IDX 54 67 58 68 55 69 57 70 56 71 43 72 44 73 48 74 45 75 47 76
REMARK SMILES IDX 46 77
REMARK H PARENT 11 10 63 45 41 56
REMARK Flexibility Score: inf
ROOT
ATOM      1  C   UNL     1       6.849  -5.395  -0.994  1.00  0.00     0.274 C 
ENDROOT
BRANCH   1   2
ATOM      2  O   UNL     1       5.825  -4.944  -1.908  1.00  0.00    -0.460 OA
BRANCH   2   3
ATOM      3  C   UNL     1       4.670  -4.504  -1.320  1.00  0.00     0.341 C 
ATOM      4  O   UNL     1       4.531  -4.401  -0.108  1.00  0.00    -0.249 OA
BRANCH   3   5
ATOM      5  C   UNL     1       3.530  -4.374  -2.336  1.00  0.00     0.231 C 
ATOM      6  C   UNL     1       2.962  -5.799  -2.520  1.00  0.00     0.058 C 
BRANCH   5   7
ATOM      7  N   UNL     1       4.023  -3.970  -3.705  1.00  0.00    -0.333 N 
ATOM      8  C   UNL     1       4.145  -2.840  -4.444  1.00  0.00     0.225 C 
ATOM      9  O   UNL     1       4.675  -2.985  -5.552  1.00  0.00    -0.275 OA
ATOM     10  H   UNL     1       4.348  -4.753  -4.206  1.00  0.00     0.164 HD
BRANCH   8  11
ATOM     11  C   UNL     1       3.701  -1.462  -4.003  1.00  0.00     0.135 C 
BRANCH  11  12
ATOM     12  C   UNL     1       2.212  -1.220  -3.981  1.00  0.00    -0.035 A 
ATOM     13  C   UNL     1       0.292  -0.334  -2.768  1.00  0.00     0.119 A 
ATOM     14  C   UNL     1      -0.558  -0.911  -3.709  1.00  0.00     0.046 A 
ATOM     15  C   UNL     1       1.670  -0.434  -2.947  1.00  0.00     0.050 A 
ATOM     16  C   UNL     1      -0.034  -1.607  -4.800  1.00  0.00     0.004 A 
ATOM     17  C   UNL     1       1.347  -1.763  -4.938  1.00  0.00     0.004 A 
BRANCH  13  18
ATOM     18  O   UNL     1      -0.318   0.282  -1.709  1.00  0.00    -0.497 OA
ATOM     19  C   UNL     1       0.473   0.412  -0.529  1.00  0.00     0.278 C 
ENDBRANCH  13  18
ENDBRANCH  11  12
ENDBRANCH   8  11
ENDBRANCH   5   7
BRANCH   5  20
ATOM     20  C   UNL     1       2.438  -3.550  -1.644  1.00  0.00     0.422 C 
ATOM     21  F   UNL     1       2.866  -2.313  -1.315  1.00  0.00    -0.168 F 
ATOM     22  F   UNL     1       1.352  -3.434  -2.438  1.00  0.00    -0.168 F 
ATOM     23  F   UNL     1       1.991  -4.128  -0.504  1.00  0.00    -0.168 F 
ENDBRANCH   5  20
ENDBRANCH   3   5
ENDBRANCH   2   3
ENDBRANCH   1   2
BRANCH   1  24
ATOM     24  C   UNL     1       7.970  -4.372  -0.861  1.00  0.00     0.275 C 
BRANCH  24  25
ATOM     25  O   UNL     1       7.425  -3.105  -0.451  1.00  0.00    -0.458 OA
BRANCH  25  26
ATOM     26  C   UNL     1       7.693  -2.070  -1.267  1.00  0.00     0.338 C 
ATOM     27  O   UNL     1       8.381  -2.072  -2.282  1.00  0.00    -0.246 OA
BRANCH  26  28
ATOM     28  C   UNL     1       7.009  -0.861  -0.789  1.00  0.00     0.060 A 
ATOM     29  C   UNL     1       5.621  -0.856  -0.660  1.00  0.00     0.016 A 
ATOM     30  C   UNL     1       7.734   0.316  -0.604  1.00  0.00     0.016 A 
ATOM     31  C   UNL     1       4.949   0.346  -0.444  1.00  0.00     0.010 A 
ATOM     32  C   UNL     1       7.061   1.503  -0.300  1.00  0.00     0.010 A 
ATOM     33  C   UNL     1       5.656   1.545  -0.266  1.00  0.00    -0.014 A 
BRANCH  33  34
ATOM     34  C   UNL     1       4.934   2.842  -0.113  1.00  0.00     0.031 A 
ATOM     35  C   UNL     1       5.189   3.972  -1.082  1.00  0.00     0.074 A 
ATOM     36  C   UNL     1       4.029   3.021   0.870  1.00  0.00     0.049 A 
ATOM     37  N   UNL     1       4.809   5.224  -1.010  1.00  0.00    -0.248 NA
ATOM     38  C   UNL     1       5.986   3.658  -2.279  1.00  0.00     0.031 C 
ATOM     39  C   UNL     1       3.631   2.018   1.859  1.00  0.00     0.029 A 
ATOM     40  N   UNL     1       3.265   4.118   1.187  1.00  0.00    -0.354 N 
ATOM     41  C   UNL     1       5.380   5.859  -2.107  1.00  0.00     0.074 A 
ATOM     42  C   UNL     1       6.120   4.853  -2.838  1.00  0.00     0.031 C 
ATOM     43  C   UNL     1       2.660   2.525   2.635  1.00  0.00     0.029 A 
ATOM     44  C   UNL     1       2.429   3.916   2.258  1.00  0.00     0.049 A 
ATOM     45  H   UNL     1       3.312   4.968   0.693  1.00  0.00     0.167 HD
ATOM     46  C   UNL     1       5.304   7.162  -2.470  1.00  0.00     0.031 A 
ATOM     47  C   UNL     1       1.596   4.760   2.897  1.00  0.00     0.031 A 
ATOM     48  C   UNL     1       4.519   8.157  -1.791  1.00  0.00     0.049 A 
ATOM     49  C   UNL     1       1.523   6.198   2.473  1.00  0.00     0.074 A 
ATOM     50  C   UNL     1       4.386   9.503  -2.090  1.00  0.00     0.029 A 
ATOM     51  N   UNL     1       3.707   7.909  -0.699  1.00  0.00    -0.354 N 
ATOM     52  N   UNL     1       2.147   6.802   1.492  1.00  0.00    -0.248 NA
ATOM     53  C   UNL     1       0.652   7.077   3.267  1.00  0.00     0.031 C 
ATOM     54  C   UNL     1       3.509  10.075  -1.161  1.00  0.00     0.029 A 
ATOM     55  C   UNL     1       3.073   9.076  -0.308  1.00  0.00     0.049 A 
ATOM     56  H   UNL     1       3.596   7.032  -0.264  1.00  0.00     0.167 HD
ATOM     57  C   UNL     1       1.750   8.131   1.556  1.00  0.00     0.074 A 
ATOM     58  C   UNL     1       0.808   8.240   2.650  1.00  0.00     0.031 C 
ATOM     59  C   UNL     1       2.146   9.172   0.786  1.00  0.00     0.031 A 
BRANCH  46  60
ATOM     60  C   UNL     1       6.133   7.605  -3.641  1.00  0.00    -0.014 A 
ATOM     61  C   UNL     1       5.738   7.345  -4.961  1.00  0.00     0.009 A 
ATOM     62  C   UNL     1       7.304   8.345  -3.411  1.00  0.00     0.009 A 
ATOM     63  C   UNL     1       6.514   7.801  -6.029  1.00  0.00     0.001 A 
ATOM     64  C   UNL     1       8.066   8.818  -4.480  1.00  0.00     0.001 A 
ATOM     65  C   UNL     1       7.673   8.540  -5.788  1.00  0.00     0.000 A 
ENDBRANCH  46  60
BRANCH  47  66
ATOM     66  C   UNL     1       0.797   4.278   4.052  1.00  0.00    -0.014 A 
ATOM     67  C   UNL     1      -0.590   4.111   3.936  1.00  0.00     0.009 A 
ATOM     68  C   UNL     1       1.419   3.991   5.277  1.00  0.00     0.009 A 
ATOM     69  C   UNL     1      -1.342   3.678   5.030  1.00  0.00     0.001 A 
ATOM     70  C   UNL     1       0.669   3.533   6.361  1.00  0.00     0.001 A 
ATOM     71  C   UNL     1      -0.712   3.384   6.239  1.00  0.00     0.000 A 
ENDBRANCH  47  66
BRANCH  59  72
ATOM     72  C   UNL     1       1.556  10.515   1.100  1.00  0.00    -0.014 A 
ATOM     73  C   UNL     1       2.018  11.263   2.194  1.00  0.00     0.009 A 
ATOM     74  C   UNL     1       0.549  11.048   0.283  1.00  0.00     0.009 A 
ATOM     75  C   UNL     1       1.461  12.510   2.479  1.00  0.00     0.001 A 
ATOM     76  C   UNL     1       0.006  12.303   0.561  1.00  0.00     0.001 A 
ATOM     77  C   UNL     1       0.457  13.030   1.662  1.00  0.00     0.000 A 
ENDBRANCH  59  72
ENDBRANCH  33  34
ENDBRANCH  26  28
ENDBRANCH  25  26
ENDBRANCH  24  25
ENDBRANCH   1  24
TORSDOF 16
