REMARK SMILES O=C(OCCOC(=O)c1ccc([C@H]2CCCN(C(=O)c3ccc4[nH]ccc4c3)C2)cc1)c1ccc(-c2c3nc(c(-c4ccccc4)c4ccc([nH]4)c(-c4ccccc4)c4nc(c(-c5ccccc5)c5ccc2[nH]5)C=C4)C=C3)cc1
REMARK SMILES IDX 5 1 4 2 3 3 2 4 1 5 32 6 33 7 79 8 34 9 78 10 35 11 36 12
REMARK SMILES IDX 37 13 72 14 38 15 77 16 71 17 73 18 39 19 76 20 70 21 69 22
REMARK SMILES IDX 40 24 62 25 47 26 61 27 48 28 51 29 60 30 74 31 49 32 50 33
REMARK SMILES IDX 59 35 75 36 52 37 41 38 42 39 46 40 43 41 45 42 44 43 63 44
REMARK SMILES IDX 64 45 68 46 65 47 67 48 66 49 53 50 54 51 58 52 55 53 57 54
REMARK SMILES IDX 56 55 6 56 7 57 8 58 9 59 10 60 31 61 11 62 30 63 12 64
REMARK SMILES IDX 13 65 14 66 29 67 15 68 17 69 16 70 18 71 19 72 20 73 21 74
REMARK SMILES IDX 28 75 22 76 27 77 23 78 26 79 24 80 25 81
REMARK H PARENT 73 23 51 34 24 82
REMARK Flexibility Score: inf
ROOT
ATOM      1  C   UNL     1      -4.444   7.570  -6.302  1.00  0.00     0.275 C 
ENDROOT
BRANCH   1   2
ATOM      2  C   UNL     1      -5.652   6.901  -6.963  1.00  0.00     0.275 C 
BRANCH   2   3
ATOM      3  O   UNL     1      -5.927   5.570  -6.500  1.00  0.00    -0.458 OA
BRANCH   3   4
ATOM      4  C   UNL     1      -5.496   4.393  -7.004  1.00  0.00     0.338 C 
ATOM      5  O   UNL     1      -6.064   3.355  -6.668  1.00  0.00    -0.246 OA
BRANCH   4   6
ATOM      6  C   UNL     1      -4.255   4.262  -7.828  1.00  0.00     0.060 A 
ATOM      7  C   UNL     1      -3.782   5.164  -8.788  1.00  0.00     0.016 A 
ATOM      8  C   UNL     1      -3.521   3.087  -7.622  1.00  0.00     0.016 A 
ATOM      9  C   UNL     1      -2.569   4.950  -9.459  1.00  0.00     0.010 A 
ATOM     10  C   UNL     1      -2.321   2.865  -8.296  1.00  0.00     0.010 A 
ATOM     11  C   UNL     1      -1.822   3.801  -9.213  1.00  0.00    -0.014 A 
BRANCH  11  12
ATOM     12  C   UNL     1      -0.625   3.461 -10.023  1.00  0.00     0.031 A 
ATOM     13  C   UNL     1      -0.735   2.308 -10.976  1.00  0.00     0.074 A 
ATOM     14  C   UNL     1       0.548   4.108  -9.877  1.00  0.00     0.049 A 
ATOM     15  N   UNL     1       0.199   1.702 -11.660  1.00  0.00    -0.248 NA
ATOM     16  C   UNL     1      -2.088   1.761 -11.178  1.00  0.00     0.031 C 
ATOM     17  C   UNL     1       0.777   5.277  -9.032  1.00  0.00     0.029 A 
ATOM     18  N   UNL     1       1.793   3.827 -10.392  1.00  0.00    -0.354 N 
ATOM     19  C   UNL     1      -0.461   0.727 -12.395  1.00  0.00     0.074 A 
ATOM     20  C   UNL     1      -1.849   0.749 -11.994  1.00  0.00     0.031 C 
ATOM     21  C   UNL     1       2.095   5.548  -8.996  1.00  0.00     0.029 A 
ATOM     22  C   UNL     1       2.800   4.571  -9.817  1.00  0.00     0.049 A 
ATOM     23  H   UNL     1       1.948   3.162 -11.100  1.00  0.00     0.167 HD
ATOM     24  C   UNL     1       0.032  -0.080 -13.363  1.00  0.00     0.031 A 
ATOM     25  C   UNL     1       4.139   4.439  -9.902  1.00  0.00     0.031 A 
ATOM     26  C   UNL     1       1.413  -0.105 -13.746  1.00  0.00     0.049 A 
ATOM     27  C   UNL     1       4.704   3.405 -10.837  1.00  0.00     0.074 A 
ATOM     28  C   UNL     1       2.024  -0.837 -14.747  1.00  0.00     0.029 A 
ATOM     29  N   UNL     1       2.405   0.638 -13.124  1.00  0.00    -0.354 N 
ATOM     30  N   UNL     1       4.066   2.519 -11.564  1.00  0.00    -0.248 NA
ATOM     31  C   UNL     1       6.165   3.377 -10.996  1.00  0.00     0.031 C 
ATOM     32  C   UNL     1       3.397  -0.573 -14.696  1.00  0.00     0.029 A 
ATOM     33  C   UNL     1       3.631   0.360 -13.697  1.00  0.00     0.049 A 
ATOM     34  H   UNL     1       2.258   1.270 -12.383  1.00  0.00     0.167 HD
ATOM     35  C   UNL     1       5.039   1.883 -12.324  1.00  0.00     0.074 A 
ATOM     36  C   UNL     1       6.314   2.450 -11.933  1.00  0.00     0.031 C 
ATOM     37  C   UNL     1       4.884   0.945 -13.290  1.00  0.00     0.031 A 
BRANCH  24  38
ATOM     38  C   UNL     1      -0.954  -0.980 -14.051  1.00  0.00    -0.014 A 
ATOM     39  C   UNL     1      -1.958  -0.448 -14.880  1.00  0.00     0.009 A 
ATOM     40  C   UNL     1      -0.923  -2.362 -13.823  1.00  0.00     0.009 A 
ATOM     41  C   UNL     1      -2.951  -1.273 -15.409  1.00  0.00     0.001 A 
ATOM     42  C   UNL     1      -1.900  -3.190 -14.380  1.00  0.00     0.001 A 
ATOM     43  C   UNL     1      -2.922  -2.643 -15.157  1.00  0.00     0.000 A 
ENDBRANCH  24  38
BRANCH  25  44
ATOM     44  C   UNL     1       5.037   5.267  -9.051  1.00  0.00    -0.014 A 
ATOM     45  C   UNL     1       5.765   6.345  -9.570  1.00  0.00     0.009 A 
ATOM     46  C   UNL     1       5.188   4.954  -7.692  1.00  0.00     0.009 A 
ATOM     47  C   UNL     1       6.635   7.074  -8.748  1.00  0.00     0.001 A 
ATOM     48  C   UNL     1       6.042   5.690  -6.868  1.00  0.00     0.001 A 
ATOM     49  C   UNL     1       6.770   6.748  -7.398  1.00  0.00     0.000 A 
ENDBRANCH  25  44
BRANCH  37  50
ATOM     50  C   UNL     1       6.107   0.530 -14.052  1.00  0.00    -0.014 A 
ATOM     51  C   UNL     1       7.038  -0.368 -13.514  1.00  0.00     0.009 A 
ATOM     52  C   UNL     1       6.273   0.985 -15.371  1.00  0.00     0.009 A 
ATOM     53  C   UNL     1       8.121  -0.797 -14.285  1.00  0.00     0.001 A 
ATOM     54  C   UNL     1       7.341   0.535 -16.145  1.00  0.00     0.001 A 
ATOM     55  C   UNL     1       8.265  -0.354 -15.601  1.00  0.00     0.000 A 
ENDBRANCH  37  50
ENDBRANCH  11  12
ENDBRANCH   4   6
ENDBRANCH   3   4
ENDBRANCH   2   3
ENDBRANCH   1   2
BRANCH   1  56
ATOM     56  O   UNL     1      -3.282   6.728  -6.217  1.00  0.00    -0.458 OA
BRANCH  56  57
ATOM     57  C   UNL     1      -3.114   6.083  -5.029  1.00  0.00     0.338 C 
ATOM     58  O   UNL     1      -3.837   6.161  -4.051  1.00  0.00    -0.246 OA
BRANCH  57  59
ATOM     59  C   UNL     1      -1.971   5.147  -5.127  1.00  0.00     0.060 A 
ATOM     60  C   UNL     1      -2.144   3.825  -4.710  1.00  0.00     0.016 A 
ATOM     61  C   UNL     1      -0.741   5.548  -5.643  1.00  0.00     0.016 A 
ATOM     62  C   UNL     1      -1.124   2.884  -4.913  1.00  0.00     0.005 A 
ATOM     63  C   UNL     1       0.289   4.609  -5.803  1.00  0.00     0.005 A 
ATOM     64  C   UNL     1       0.098   3.248  -5.506  1.00  0.00    -0.043 A 
BRANCH  64  65
ATOM     65  C   UNL     1       1.131   2.160  -5.840  1.00  0.00     0.039 C 
ATOM     66  C   UNL     1       0.583   1.208  -6.929  1.00  0.00     0.012 C 
ATOM     67  C   UNL     1       2.506   2.690  -6.295  1.00  0.00     0.128 C 
ATOM     68  C   UNL     1       1.588   0.142  -7.366  1.00  0.00     0.022 C 
ATOM     69  N   UNL     1       3.412   1.631  -6.742  1.00  0.00    -0.338 N 
ATOM     70  C   UNL     1       2.897   0.779  -7.811  1.00  0.00     0.120 C 
BRANCH  69  71
ATOM     71  C   UNL     1       4.685   1.549  -6.193  1.00  0.00     0.253 C 
ATOM     72  O   UNL     1       5.101   2.295  -5.310  1.00  0.00    -0.269 OA
BRANCH  71  73
ATOM     73  C   UNL     1       5.604   0.509  -6.684  1.00  0.00     0.040 A 
ATOM     74  C   UNL     1       5.721  -0.673  -5.952  1.00  0.00     0.016 A 
ATOM     75  C   UNL     1       6.384   0.753  -7.824  1.00  0.00     0.024 A 
ATOM     76  C   UNL     1       6.620  -1.664  -6.350  1.00  0.00     0.027 A 
ATOM     77  C   UNL     1       7.304  -0.233  -8.229  1.00  0.00     0.000 A 
ATOM     78  C   UNL     1       7.400  -1.413  -7.487  1.00  0.00     0.045 A 
ATOM     79  C   UNL     1       8.254  -0.328  -9.285  1.00  0.00     0.028 A 
ATOM     80  N   UNL     1       8.370  -2.188  -8.082  1.00  0.00    -0.361 N 
ATOM     81  C   UNL     1       8.899  -1.538  -9.165  1.00  0.00     0.083 A 
ATOM     82  H   UNL     1       8.644  -3.082  -7.773  1.00  0.00     0.166 HD
ENDBRANCH  71  73
ENDBRANCH  69  71
ENDBRANCH  64  65
ENDBRANCH  57  59
ENDBRANCH  56  57
ENDBRANCH   1  56
TORSDOF 14
