REMARK SMILES Cc1ccc([C@H](C)Nc2ccc(C(=O)OCCOC(=O)c3ccc(-c4c5nc(c(-c6ccccc6)c6ccc([nH]6)c(-c6ccccc6)c6nc(c(-c7ccccc7)c7ccc4[nH]7)C=C6)C=C5)cc3)cc2Cl)cc1F
REMARK SMILES IDX 16 1 15 2 13 3 14 4 12 5 9 6 10 7 70 8 11 9 69 10 71 11 8 12
REMARK SMILES IDX 6 14 7 15 5 16 1 17 2 18 3 19 73 20 4 21 72 22 74 23 17 24
REMARK SMILES IDX 18 25 19 26 20 27 21 28 22 29 68 30 23 31 67 32 24 33 25 34
REMARK SMILES IDX 26 35 61 36 27 37 66 38 60 39 62 40 28 41 65 42 59 43 58 44
REMARK SMILES IDX 29 46 51 47 36 48 50 49 37 50 40 51 49 52 63 53 38 54 39 55
REMARK SMILES IDX 48 57 64 58 41 59 30 60 31 61 35 62 32 63 34 64 33 65 52 66
REMARK SMILES IDX 53 67 57 68 54 69 56 70 55 71 42 72 43 73 47 74 44 75 46 76
REMARK SMILES IDX 45 77
REMARK H PARENT 8 13 62 45 40 56
REMARK Flexibility Score: inf
ROOT
ATOM      1  C   UNL     1      -9.424  -2.155   5.659  1.00  0.00     0.275 C 
ENDROOT
BRANCH   1   2
ATOM      2  O   UNL     1      -8.413  -2.345   4.648  1.00  0.00    -0.458 OA
BRANCH   2   3
ATOM      3  C   UNL     1      -7.295  -1.593   4.791  1.00  0.00     0.338 C 
ATOM      4  O   UNL     1      -7.061  -0.783   5.668  1.00  0.00    -0.246 OA
BRANCH   3   5
ATOM      5  C   UNL     1      -6.314  -1.929   3.740  1.00  0.00     0.061 A 
ATOM      6  C   UNL     1      -4.354  -2.390   1.751  1.00  0.00     0.053 A 
ATOM      7  C   UNL     1      -4.034  -2.429   3.112  1.00  0.00     0.028 A 
ATOM      8  C   UNL     1      -5.695  -2.100   1.411  1.00  0.00     0.065 A 
ATOM      9  C   UNL     1      -4.987  -2.171   4.087  1.00  0.00     0.018 A 
ATOM     10  C   UNL     1      -6.673  -1.907   2.399  1.00  0.00     0.038 A 
ATOM     11  Cl  UNL     1      -6.282  -2.011  -0.214  1.00  0.00    -0.082 Cl
BRANCH   6  12
ATOM     12  N   UNL     1      -3.286  -2.592   0.901  1.00  0.00    -0.377 N 
ATOM     13  H   UNL     1      -2.666  -3.318   1.141  1.00  0.00     0.161 HD
BRANCH  12  14
ATOM     14  C   UNL     1      -2.976  -1.850  -0.311  1.00  0.00     0.106 C 
ATOM     15  C   UNL     1      -1.786  -0.934   0.025  1.00  0.00     0.036 C 
BRANCH  14  16
ATOM     16  C   UNL     1      -2.790  -2.858  -1.438  1.00  0.00    -0.023 A 
ATOM     17  C   UNL     1      -2.791  -5.563  -4.823  1.00  0.00     0.047 C 
ATOM     18  C   UNL     1      -2.743  -4.649  -3.640  1.00  0.00    -0.015 A 
ATOM     19  C   UNL     1      -1.794  -3.628  -3.528  1.00  0.00     0.007 A 
ATOM     20  C   UNL     1      -3.693  -4.784  -2.635  1.00  0.00     0.126 A 
ATOM     21  C   UNL     1      -1.819  -2.740  -2.441  1.00  0.00     0.006 A 
ATOM     22  C   UNL     1      -3.713  -3.918  -1.553  1.00  0.00     0.045 A 
ATOM     23  F   UNL     1      -4.624  -5.746  -2.713  1.00  0.00    -0.207 F 
ENDBRANCH  14  16
ENDBRANCH  12  14
ENDBRANCH   6  12
ENDBRANCH   3   5
ENDBRANCH   2   3
ENDBRANCH   1   2
BRANCH   1  24
ATOM     24  C   UNL     1      -9.394  -3.269   6.707  1.00  0.00     0.275 C 
BRANCH  24  25
ATOM     25  O   UNL     1      -8.217  -3.174   7.532  1.00  0.00    -0.458 OA
BRANCH  25  26
ATOM     26  C   UNL     1      -7.234  -4.045   7.219  1.00  0.00     0.338 C 
ATOM     27  O   UNL     1      -7.244  -4.900   6.348  1.00  0.00    -0.246 OA
BRANCH  26  28
ATOM     28  C   UNL     1      -6.032  -3.778   8.019  1.00  0.00     0.060 A 
ATOM     29  C   UNL     1      -5.174  -2.786   7.569  1.00  0.00     0.016 A 
ATOM     30  C   UNL     1      -5.627  -4.635   9.037  1.00  0.00     0.016 A 
ATOM     31  C   UNL     1      -3.851  -2.758   7.986  1.00  0.00     0.010 A 
ATOM     32  C   UNL     1      -4.344  -4.487   9.585  1.00  0.00     0.010 A 
ATOM     33  C   UNL     1      -3.418  -3.582   9.029  1.00  0.00    -0.014 A 
BRANCH  33  34
ATOM     34  C   UNL     1      -2.012  -3.491   9.521  1.00  0.00     0.031 A 
ATOM     35  C   UNL     1      -1.149  -4.725   9.614  1.00  0.00     0.074 A 
ATOM     36  C   UNL     1      -1.492  -2.296   9.877  1.00  0.00     0.049 A 
ATOM     37  N   UNL     1       0.021  -4.875  10.186  1.00  0.00    -0.248 NA
ATOM     38  C   UNL     1      -1.674  -5.956   9.001  1.00  0.00     0.031 C 
ATOM     39  C   UNL     1      -2.181  -1.004   9.789  1.00  0.00     0.029 A 
ATOM     40  N   UNL     1      -0.256  -1.968  10.379  1.00  0.00    -0.354 N 
ATOM     41  C   UNL     1       0.338  -6.224  10.059  1.00  0.00     0.074 A 
ATOM     42  C   UNL     1      -0.765  -6.851   9.363  1.00  0.00     0.031 C 
ATOM     43  C   UNL     1      -1.347  -0.027  10.167  1.00  0.00     0.029 A 
ATOM     44  C   UNL     1      -0.109  -0.626  10.643  1.00  0.00     0.049 A 
ATOM     45  H   UNL     1       0.457  -2.630  10.533  1.00  0.00     0.167 HD
ATOM     46  C   UNL     1       1.444  -6.880  10.487  1.00  0.00     0.031 A 
ATOM     47  C   UNL     1       0.878   0.052  11.257  1.00  0.00     0.031 A 
ATOM     48  C   UNL     1       2.555  -6.244  11.149  1.00  0.00     0.049 A 
ATOM     49  C   UNL     1       2.059  -0.707  11.785  1.00  0.00     0.074 A 
ATOM     50  C   UNL     1       3.728  -6.818  11.609  1.00  0.00     0.029 A 
ATOM     51  N   UNL     1       2.633  -4.890  11.439  1.00  0.00    -0.354 N 
ATOM     52  N   UNL     1       2.323  -1.987  11.698  1.00  0.00    -0.248 NA
ATOM     53  C   UNL     1       3.072   0.073  12.508  1.00  0.00     0.031 C 
ATOM     54  C   UNL     1       4.489  -5.822  12.229  1.00  0.00     0.029 A 
ATOM     55  C   UNL     1       3.823  -4.615  12.093  1.00  0.00     0.049 A 
ATOM     56  H   UNL     1       1.946  -4.223  11.213  1.00  0.00     0.167 HD
ATOM     57  C   UNL     1       3.543  -2.164  12.335  1.00  0.00     0.074 A 
ATOM     58  C   UNL     1       3.975  -0.856  12.783  1.00  0.00     0.031 C 
ATOM     59  C   UNL     1       4.241  -3.309  12.533  1.00  0.00     0.031 A 
BRANCH  46  60
ATOM     60  C   UNL     1       1.489  -8.374  10.301  1.00  0.00    -0.014 A 
ATOM     61  C   UNL     1       1.624  -8.961   9.034  1.00  0.00     0.009 A 
ATOM     62  C   UNL     1       1.430  -9.210  11.429  1.00  0.00     0.009 A 
ATOM     63  C   UNL     1       1.660 -10.352   8.898  1.00  0.00     0.001 A 
ATOM     64  C   UNL     1       1.499 -10.598  11.294  1.00  0.00     0.001 A 
ATOM     65  C   UNL     1       1.603 -11.168  10.027  1.00  0.00     0.000 A 
ENDBRANCH  46  60
BRANCH  47  66
ATOM     66  C   UNL     1       0.756   1.520  11.464  1.00  0.00    -0.014 A 
ATOM     67  C   UNL     1       1.621   2.410  10.809  1.00  0.00     0.009 A 
ATOM     68  C   UNL     1      -0.233   2.042  12.316  1.00  0.00     0.009 A 
ATOM     69  C   UNL     1       1.511   3.787  11.020  1.00  0.00     0.001 A 
ATOM     70  C   UNL     1      -0.365   3.420  12.494  1.00  0.00     0.001 A 
ATOM     71  C   UNL     1       0.514   4.291  11.854  1.00  0.00     0.000 A 
ENDBRANCH  47  66
BRANCH  59  72
ATOM     72  C   UNL     1       5.570  -3.186  13.223  1.00  0.00    -0.014 A 
ATOM     73  C   UNL     1       5.662  -2.885  14.590  1.00  0.00     0.009 A 
ATOM     74  C   UNL     1       6.749  -3.401  12.492  1.00  0.00     0.009 A 
ATOM     75  C   UNL     1       6.911  -2.765  15.203  1.00  0.00     0.001 A 
ATOM     76  C   UNL     1       7.995  -3.314  13.114  1.00  0.00     0.001 A 
ATOM     77  C   UNL     1       8.075  -2.985  14.466  1.00  0.00     0.000 A 
ENDBRANCH  59  72
ENDBRANCH  33  34
ENDBRANCH  26  28
ENDBRANCH  25  26
ENDBRANCH  24  25
ENDBRANCH   1  24
TORSDOF 14
