REMARK SMILES CC1(C)[C@H](O)CC[C@@]2(C)[C@@H]1CC[C@@]1(C)Oc3oc(C(=O)OCCOC(=O)c4ccc(-c5c6nc(c(-c7ccccc7)c7ccc([nH]7)c(-c7ccccc7)c7nc(c(-c8ccccc8)c8ccc5[nH]8)C=C7)C=C6)cc4)cc(=O)c3C[C@@H]21
REMARK SMILES IDX 23 1 22 2 21 3 19 4 20 5 18 6 1 7 2 8 4 9 10 10 3 11 6 12
REMARK SMILES IDX 8 13 11 14 7 15 80 16 9 17 12 18 13 19 79 20 15 21 14 22
REMARK SMILES IDX 78 23 16 24 76 25 17 26 75 27 77 28 5 29 24 31 25 32 26 33
REMARK SMILES IDX 27 34 28 35 74 36 29 37 73 38 30 39 31 40 32 41 67 42 33 43
REMARK SMILES IDX 72 44 66 45 68 46 34 47 71 48 65 49 64 50 35 52 57 53 42 54
REMARK SMILES IDX 56 55 43 56 46 57 55 58 69 59 44 60 45 61 54 63 70 64 47 65
REMARK SMILES IDX 36 66 37 67 41 68 38 69 40 70 39 71 58 72 59 73 63 74 60 75
REMARK SMILES IDX 62 76 61 77 48 78 49 79 53 80 50 81 52 82 51 83
REMARK H PARENT 5 30 68 51 46 62
REMARK Flexibility Score: inf
ROOT
ATOM      1  C   UNL     1       7.047   4.821  11.832  1.00  0.00     0.275 C 
ENDROOT
BRANCH   1   2
ATOM      2  C   UNL     1       7.132   5.743  10.612  1.00  0.00     0.275 C 
BRANCH   2   3
ATOM      3  O   UNL     1       6.116   5.447   9.632  1.00  0.00    -0.456 OA
BRANCH   3   4
ATOM      4  C   UNL     1       6.517   4.659   8.605  1.00  0.00     0.374 C 
ATOM      5  O   UNL     1       7.636   4.200   8.435  1.00  0.00    -0.242 OA
BRANCH   4   6
ATOM      6  C   UNL     1       5.410   4.412   7.659  1.00  0.00     0.219 A 
ATOM      7  C   UNL     1       0.428  -0.627   0.968  1.00  0.00     0.014 C 
ATOM      8  C   UNL     1       0.574   0.800   1.558  1.00  0.00    -0.006 C 
ATOM      9  C   UNL     1      -0.789   1.530   1.391  1.00  0.00     0.120 C 
ATOM     10  C   UNL     1       0.913   0.697   3.115  1.00  0.00     0.004 C 
ATOM     11  C   UNL     1       1.690   1.523   0.751  1.00  0.00     0.014 C 
ATOM     12  C   UNL     1      -0.781   2.959   1.931  1.00  0.00     0.033 C 
ATOM     13  C   UNL     1       0.555   1.996   3.948  1.00  0.00    -0.022 C 
ATOM     14  C   UNL     1       2.290   0.016   3.359  1.00  0.00     0.009 C 
ATOM     15  C   UNL     1       0.285   3.200   2.995  1.00  0.00     0.010 C 
ATOM     16  C   UNL     1       1.615   2.367   5.057  1.00  0.00     0.044 C 
ATOM     17  C   UNL     1      -0.806   1.772   4.695  1.00  0.00     0.012 C 
ATOM     18  C   UNL     1       3.136   0.416   4.565  1.00  0.00     0.049 C 
ATOM     19  C   UNL     1       2.393   1.170   5.667  1.00  0.00     0.113 C 
ATOM     20  C   UNL     1       2.631   3.429   4.587  1.00  0.00     0.055 C 
ATOM     21  O   UNL     1       3.359   1.589   6.671  1.00  0.00    -0.458 OA
ATOM     22  C   UNL     1       1.499   0.178   6.432  1.00  0.00     0.057 C 
ATOM     23  C   UNL     1       3.619   3.726   5.655  1.00  0.00     0.081 A 
ATOM     24  C   UNL     1       3.919   2.849   6.622  1.00  0.00     0.292 A 
ATOM     25  C   UNL     1       4.239   5.070   5.674  1.00  0.00     0.192 A 
ATOM     26  O   UNL     1       4.819   3.162   7.634  1.00  0.00    -0.418 OA
ATOM     27  C   UNL     1       5.176   5.370   6.760  1.00  0.00     0.107 A 
ATOM     28  O   UNL     1       4.007   5.911   4.813  1.00  0.00    -0.289 OA
BRANCH   9  29
ATOM     29  O   UNL     1      -1.242   1.541   0.037  1.00  0.00    -0.393 OA
ATOM     30  H   UNL     1      -0.628   2.060  -0.505  1.00  0.00     0.210 HD
ENDBRANCH   9  29
ENDBRANCH   4   6
ENDBRANCH   3   4
ENDBRANCH   2   3
ENDBRANCH   1   2
BRANCH   1  31
ATOM     31  O   UNL     1       7.361   3.460  11.488  1.00  0.00    -0.458 OA
BRANCH  31  32
ATOM     32  C   UNL     1       6.292   2.681  11.210  1.00  0.00     0.338 C 
ATOM     33  O   UNL     1       5.111   2.991  11.254  1.00  0.00    -0.246 OA
BRANCH  32  34
ATOM     34  C   UNL     1       6.755   1.372  10.741  1.00  0.00     0.060 A 
ATOM     35  C   UNL     1       6.817   1.142   9.366  1.00  0.00     0.016 A 
ATOM     36  C   UNL     1       7.015   0.344  11.646  1.00  0.00     0.016 A 
ATOM     37  C   UNL     1       7.097  -0.126   8.880  1.00  0.00     0.010 A 
ATOM     38  C   UNL     1       7.325  -0.928  11.159  1.00  0.00     0.010 A 
ATOM     39  C   UNL     1       7.343  -1.171   9.775  1.00  0.00    -0.014 A 
BRANCH  39  40
ATOM     40  C   UNL     1       7.559  -2.529   9.240  1.00  0.00     0.031 A 
ATOM     41  C   UNL     1       6.452  -3.536   9.312  1.00  0.00     0.074 A 
ATOM     42  C   UNL     1       8.721  -2.825   8.633  1.00  0.00     0.049 A 
ATOM     43  N   UNL     1       6.455  -4.787   8.933  1.00  0.00    -0.248 NA
ATOM     44  C   UNL     1       5.170  -3.076   9.873  1.00  0.00     0.031 C 
ATOM     45  C   UNL     1       9.830  -1.891   8.432  1.00  0.00     0.029 A 
ATOM     46  N   UNL     1       9.153  -3.990   8.056  1.00  0.00    -0.354 N 
ATOM     47  C   UNL     1       5.185  -5.268   9.221  1.00  0.00     0.074 A 
ATOM     48  C   UNL     1       4.440  -4.182   9.820  1.00  0.00     0.031 C 
ATOM     49  C   UNL     1      10.811  -2.517   7.763  1.00  0.00     0.029 A 
ATOM     50  C   UNL     1      10.418  -3.904   7.531  1.00  0.00     0.049 A 
ATOM     51  H   UNL     1       8.610  -4.811   8.023  1.00  0.00     0.167 HD
ATOM     52  C   UNL     1       4.689  -6.506   8.998  1.00  0.00     0.031 A 
ATOM     53  C   UNL     1      11.182  -4.844   6.945  1.00  0.00     0.031 A 
ATOM     54  C   UNL     1       5.436  -7.576   8.397  1.00  0.00     0.049 A 
ATOM     55  C   UNL     1      10.643  -6.236   6.795  1.00  0.00     0.074 A 
ATOM     56  C   UNL     1       5.024  -8.871   8.140  1.00  0.00     0.029 A 
ATOM     57  N   UNL     1       6.745  -7.471   7.954  1.00  0.00    -0.354 N 
ATOM     58  N   UNL     1       9.455  -6.693   7.112  1.00  0.00    -0.248 NA
ATOM     59  C   UNL     1      11.544  -7.243   6.219  1.00  0.00     0.031 C 
ATOM     60  C   UNL     1       6.099  -9.564   7.577  1.00  0.00     0.029 A 
ATOM     61  C   UNL     1       7.164  -8.686   7.443  1.00  0.00     0.049 A 
ATOM     62  H   UNL     1       7.293  -6.655   7.997  1.00  0.00     0.167 HD
ATOM     63  C   UNL     1       9.461  -8.036   6.763  1.00  0.00     0.074 A 
ATOM     64  C   UNL     1      10.767  -8.319   6.205  1.00  0.00     0.031 C 
ATOM     65  C   UNL     1       8.469  -8.948   6.894  1.00  0.00     0.031 A 
BRANCH  52  66
ATOM     66  C   UNL     1       3.280  -6.782   9.426  1.00  0.00    -0.014 A 
ATOM     67  C   UNL     1       2.191  -6.327   8.668  1.00  0.00     0.009 A 
ATOM     68  C   UNL     1       3.040  -7.572  10.562  1.00  0.00     0.009 A 
ATOM     69  C   UNL     1       0.886  -6.650   9.046  1.00  0.00     0.001 A 
ATOM     70  C   UNL     1       1.736  -7.909  10.926  1.00  0.00     0.001 A 
ATOM     71  C   UNL     1       0.660  -7.446  10.169  1.00  0.00     0.000 A 
ENDBRANCH  52  66
BRANCH  53  72
ATOM     72  C   UNL     1      12.543  -4.482   6.476  1.00  0.00    -0.014 A 
ATOM     73  C   UNL     1      12.799  -4.309   5.109  1.00  0.00     0.009 A 
ATOM     74  C   UNL     1      13.573  -4.243   7.399  1.00  0.00     0.009 A 
ATOM     75  C   UNL     1      14.062  -3.898   4.675  1.00  0.00     0.001 A 
ATOM     76  C   UNL     1      14.828  -3.815   6.964  1.00  0.00     0.001 A 
ATOM     77  C   UNL     1      15.072  -3.644   5.603  1.00  0.00     0.000 A 
ENDBRANCH  53  72
BRANCH  65  78
ATOM     78  C   UNL     1       8.735 -10.344   6.417  1.00  0.00    -0.014 A 
ATOM     79  C   UNL     1       9.461 -11.245   7.209  1.00  0.00     0.009 A 
ATOM     80  C   UNL     1       8.142 -10.796   5.228  1.00  0.00     0.009 A 
ATOM     81  C   UNL     1       9.590 -12.578   6.815  1.00  0.00     0.001 A 
ATOM     82  C   UNL     1       8.257 -12.133   4.848  1.00  0.00     0.001 A 
ATOM     83  C   UNL     1       8.980 -13.023   5.642  1.00  0.00     0.000 A 
ENDBRANCH  65  78
ENDBRANCH  39  40
ENDBRANCH  32  34
ENDBRANCH  31  32
ENDBRANCH   1  31
TORSDOF 12
