REMARK SMILES O=C(CCC(=O)N1CCN(S(=O)(=O)c2cccs2)CC1)OCCOC(=O)c1ccc(-c2c3nc(c(-c4ccccc4)c4ccc([nH]4)c(-c4ccccc4)c4nc(c(-c5ccccc5)c5ccc2[nH]5)C=C4)C=C3)cc1
REMARK SMILES IDX 22 1 21 2 2 3 1 4 3 5 4 6 5 7 6 8 7 9 8 10 20 11 9 12 19 13
REMARK SMILES IDX 10 14 11 15 12 16 13 17 14 18 15 19 18 20 16 21 17 22 23 23
REMARK SMILES IDX 24 24 25 25 26 26 27 27 28 28 74 29 29 30 73 31 30 32 31 33
REMARK SMILES IDX 32 34 67 35 33 36 72 37 66 38 68 39 34 40 71 41 65 42 64 43
REMARK SMILES IDX 35 45 57 46 42 47 56 48 43 49 46 50 55 51 69 52 44 53 45 54
REMARK SMILES IDX 54 56 70 57 47 58 36 59 37 60 41 61 38 62 40 63 39 64 58 65
REMARK SMILES IDX 59 66 63 67 60 68 62 69 61 70 48 71 49 72 53 73 50 74 52 75
REMARK SMILES IDX 51 76
REMARK H PARENT 68 44 46 55
REMARK Flexibility Score: inf
ROOT
ATOM      1  C   UNL     1       4.531  -1.527  -0.667  1.00  0.00     0.274 C 
ENDROOT
BRANCH   1   2
ATOM      2  O   UNL     1       3.184  -1.093  -0.371  1.00  0.00    -0.462 OA
BRANCH   2   3
ATOM      3  C   UNL     1       2.738   0.180  -0.409  1.00  0.00     0.306 C 
ATOM      4  O   UNL     1       1.538   0.408  -0.256  1.00  0.00    -0.252 OA
BRANCH   3   5
ATOM      5  C   UNL     1       3.713   1.319  -0.527  1.00  0.00     0.132 C 
BRANCH   5   6
ATOM      6  C   UNL     1       3.821   2.072   0.790  1.00  0.00     0.112 C 
BRANCH   6   7
ATOM      7  C   UNL     1       4.686   1.359   1.813  1.00  0.00     0.223 C 
ATOM      8  O   UNL     1       5.913   1.457   1.729  1.00  0.00    -0.275 OA
ATOM      9  N   UNL     1       4.071   0.635   2.830  1.00  0.00    -0.340 N 
ATOM     10  C   UNL     1       4.958   0.070   3.861  1.00  0.00     0.136 C 
ATOM     11  C   UNL     1       2.748   0.013   2.676  1.00  0.00     0.136 C 
ATOM     12  C   UNL     1       4.231  -0.433   5.120  1.00  0.00     0.124 C 
ATOM     13  C   UNL     1       2.102  -0.506   3.958  1.00  0.00     0.124 C 
ATOM     14  N   UNL     1       3.053  -1.296   4.782  1.00  0.00    -0.194 NA
BRANCH  14  15
ATOM     15  S   UNL     1       3.486  -2.857   4.237  1.00  0.00     0.252 S 
ATOM     16  O   UNL     1       4.222  -2.717   2.998  1.00  0.00    -0.206 OA
ATOM     17  O   UNL     1       4.069  -3.562   5.357  1.00  0.00    -0.206 OA
BRANCH  15  18
ATOM     18  C   UNL     1       2.030  -3.753   3.740  1.00  0.00     0.135 A 
ATOM     19  C   UNL     1       1.436  -3.888   2.497  1.00  0.00     0.033 A 
ATOM     20  S   UNL     1       1.192  -4.639   4.934  1.00  0.00    -0.131 S 
ATOM     21  C   UNL     1       0.319  -4.769   2.520  1.00  0.00     0.013 A 
ATOM     22  C   UNL     1       0.088  -5.267   3.783  1.00  0.00     0.066 A 
ENDBRANCH  15  18
ENDBRANCH  14  15
ENDBRANCH   6   7
ENDBRANCH   5   6
ENDBRANCH   3   5
ENDBRANCH   2   3
ENDBRANCH   1   2
BRANCH   1  23
ATOM     23  C   UNL     1       4.637  -1.958  -2.129  1.00  0.00     0.275 C 
BRANCH  23  24
ATOM     24  O   UNL     1       4.191  -0.895  -2.988  1.00  0.00    -0.458 OA
BRANCH  24  25
ATOM     25  C   UNL     1       2.892  -0.973  -3.381  1.00  0.00     0.338 C 
ATOM     26  O   UNL     1       2.125  -1.905  -3.218  1.00  0.00    -0.246 OA
BRANCH  25  27
ATOM     27  C   UNL     1       2.480   0.360  -3.866  1.00  0.00     0.060 A 
ATOM     28  C   UNL     1       1.244   0.872  -3.449  1.00  0.00     0.016 A 
ATOM     29  C   UNL     1       3.321   1.120  -4.683  1.00  0.00     0.016 A 
ATOM     30  C   UNL     1       0.846   2.150  -3.843  1.00  0.00     0.010 A 
ATOM     31  C   UNL     1       2.914   2.387  -5.094  1.00  0.00     0.010 A 
ATOM     32  C   UNL     1       1.671   2.901  -4.687  1.00  0.00    -0.014 A 
BRANCH  32  33
ATOM     33  C   UNL     1       1.196   4.164  -5.292  1.00  0.00     0.031 A 
ATOM     34  C   UNL     1       0.523   4.099  -6.631  1.00  0.00     0.074 A 
ATOM     35  C   UNL     1       1.440   5.347  -4.702  1.00  0.00     0.049 A 
ATOM     36  N   UNL     1       0.176   5.072  -7.431  1.00  0.00    -0.248 NA
ATOM     37  C   UNL     1       0.211   2.753  -7.144  1.00  0.00     0.031 C 
ATOM     38  C   UNL     1       2.061   5.533  -3.391  1.00  0.00     0.029 A 
ATOM     39  N   UNL     1       1.224   6.624  -5.157  1.00  0.00    -0.354 N 
ATOM     40  C   UNL     1      -0.381   4.458  -8.545  1.00  0.00     0.074 A 
ATOM     41  C   UNL     1      -0.319   3.030  -8.325  1.00  0.00     0.031 C 
ATOM     42  C   UNL     1       2.210   6.850  -3.164  1.00  0.00     0.029 A 
ATOM     43  C   UNL     1       1.730   7.594  -4.327  1.00  0.00     0.049 A 
ATOM     44  H   UNL     1       0.752   6.825  -5.997  1.00  0.00     0.167 HD
ATOM     45  C   UNL     1      -0.891   5.035  -9.656  1.00  0.00     0.031 A 
ATOM     46  C   UNL     1       1.832   8.925  -4.509  1.00  0.00     0.031 A 
ATOM     47  C   UNL     1      -0.932   6.452  -9.883  1.00  0.00     0.049 A 
ATOM     48  C   UNL     1       1.333   9.533  -5.795  1.00  0.00     0.074 A 
ATOM     49  C   UNL     1      -1.464   7.137 -10.961  1.00  0.00     0.029 A 
ATOM     50  N   UNL     1      -0.402   7.399  -9.023  1.00  0.00    -0.354 N 
ATOM     51  N   UNL     1       0.755   8.949  -6.817  1.00  0.00    -0.248 NA
ATOM     52  C   UNL     1       1.509  10.985  -5.954  1.00  0.00     0.031 C 
ATOM     53  C   UNL     1      -1.206   8.499 -10.778  1.00  0.00     0.029 A 
ATOM     54  C   UNL     1      -0.556   8.662  -9.565  1.00  0.00     0.049 A 
ATOM     55  H   UNL     1       0.021   7.203  -8.156  1.00  0.00     0.167 HD
ATOM     56  C   UNL     1       0.483   9.962  -7.729  1.00  0.00     0.074 A 
ATOM     57  C   UNL     1       0.942  11.199  -7.133  1.00  0.00     0.031 C 
ATOM     58  C   UNL     1      -0.092   9.878  -8.953  1.00  0.00     0.031 A 
BRANCH  45  59
ATOM     59  C   UNL     1      -1.409   4.127 -10.731  1.00  0.00    -0.014 A 
ATOM     60  C   UNL     1      -2.640   3.468 -10.592  1.00  0.00     0.009 A 
ATOM     61  C   UNL     1      -0.675   3.965 -11.915  1.00  0.00     0.009 A 
ATOM     62  C   UNL     1      -3.116   2.646 -11.616  1.00  0.00     0.001 A 
ATOM     63  C   UNL     1      -1.163   3.159 -12.944  1.00  0.00     0.001 A 
ATOM     64  C   UNL     1      -2.381   2.497 -12.792  1.00  0.00     0.000 A 
ENDBRANCH  45  59
BRANCH  46  65
ATOM     65  C   UNL     1       2.485   9.780  -3.484  1.00  0.00    -0.014 A 
ATOM     66  C   UNL     1       1.737  10.708  -2.743  1.00  0.00     0.009 A 
ATOM     67  C   UNL     1       3.873   9.713  -3.282  1.00  0.00     0.009 A 
ATOM     68  C   UNL     1       2.370  11.572  -1.846  1.00  0.00     0.001 A 
ATOM     69  C   UNL     1       4.499  10.560  -2.365  1.00  0.00     0.001 A 
ATOM     70  C   UNL     1       3.749  11.497  -1.657  1.00  0.00     0.000 A 
ENDBRANCH  46  65
BRANCH  58  71
ATOM     71  C   UNL     1      -0.276  11.156  -9.718  1.00  0.00    -0.014 A 
ATOM     72  C   UNL     1       0.811  11.786 -10.344  1.00  0.00     0.009 A 
ATOM     73  C   UNL     1      -1.561  11.701  -9.867  1.00  0.00     0.009 A 
ATOM     74  C   UNL     1       0.616  12.951 -11.088  1.00  0.00     0.001 A 
ATOM     75  C   UNL     1      -1.756  12.851 -10.632  1.00  0.00     0.001 A 
ATOM     76  C   UNL     1      -0.667  13.478 -11.236  1.00  0.00     0.000 A 
ENDBRANCH  58  71
ENDBRANCH  32  33
ENDBRANCH  25  27
ENDBRANCH  24  25
ENDBRANCH  23  24
ENDBRANCH   1  23
TORSDOF 15
