REMARK SMILES O=C(OCCOC(=O)c1ccccc1C[N@H+]1CCCC[C@@H]1CCn1cccn1)c1ccc(-c2c3nc(c(-c4ccccc4)c4ccc([nH]4)c(-c4ccccc4)c4nc(c(-c5ccccc5)c5ccc2[nH]5)C=C4)C=C3)cc1
REMARK SMILES IDX 6 1 5 2 4 3 3 4 2 5 1 6 29 7 30 8 76 9 31 10 75 11 32 12
REMARK SMILES IDX 33 13 34 14 69 15 35 16 74 17 68 18 70 19 36 20 73 21 67 22
REMARK SMILES IDX 66 23 37 25 59 26 44 27 58 28 45 29 48 30 57 31 71 32 46 33
REMARK SMILES IDX 47 34 56 36 72 37 49 38 38 39 39 40 43 41 40 42 42 43 41 44
REMARK SMILES IDX 60 45 61 46 65 47 62 48 64 49 63 50 50 51 51 52 55 53 52 54
REMARK SMILES IDX 54 55 53 56 7 57 8 58 9 59 10 60 14 61 11 62 13 63 12 64
REMARK SMILES IDX 15 65 16 66 17 67 21 68 18 70 20 71 19 72 22 73 23 74 24 75
REMARK SMILES IDX 25 76 28 77 26 78 27 79
REMARK H PARENT 70 24 48 35 16 69
REMARK Flexibility Score: inf
ROOT
ATOM      1  O   UNL     1       3.962  -0.669   1.192  1.00  0.00    -0.458 OA
ENDROOT
BRANCH   1   2
ATOM      2  C   UNL     1       4.478   0.669   1.188  1.00  0.00     0.275 C 
BRANCH   2   3
ATOM      3  C   UNL     1       4.732   1.112  -0.253  1.00  0.00     0.275 C 
BRANCH   3   4
ATOM      4  O   UNL     1       3.597   1.241  -1.134  1.00  0.00    -0.458 OA
BRANCH   4   5
ATOM      5  C   UNL     1       2.465   0.562  -0.855  1.00  0.00     0.338 C 
ATOM      6  O   UNL     1       1.579   0.962  -0.117  1.00  0.00    -0.246 OA
BRANCH   5   7
ATOM      7  C   UNL     1       2.314  -0.629  -1.724  1.00  0.00     0.060 A 
ATOM      8  C   UNL     1       3.408  -1.288  -2.294  1.00  0.00     0.016 A 
ATOM      9  C   UNL     1       1.015  -1.097  -1.958  1.00  0.00     0.016 A 
ATOM     10  C   UNL     1       3.193  -2.345  -3.170  1.00  0.00     0.010 A 
ATOM     11  C   UNL     1       0.803  -2.174  -2.806  1.00  0.00     0.010 A 
ATOM     12  C   UNL     1       1.886  -2.759  -3.461  1.00  0.00    -0.014 A 
BRANCH  12  13
ATOM     13  C   UNL     1       1.691  -3.833  -4.433  1.00  0.00     0.031 A 
ATOM     14  C   UNL     1       2.391  -5.113  -4.132  1.00  0.00     0.074 A 
ATOM     15  C   UNL     1       0.870  -3.735  -5.500  1.00  0.00     0.049 A 
ATOM     16  N   UNL     1       3.369  -5.651  -4.784  1.00  0.00    -0.248 NA
ATOM     17  C   UNL     1       2.019  -5.839  -2.910  1.00  0.00     0.031 C 
ATOM     18  C   UNL     1      -0.092  -2.677  -5.826  1.00  0.00     0.029 A 
ATOM     19  N   UNL     1       0.667  -4.640  -6.500  1.00  0.00    -0.354 N 
ATOM     20  C   UNL     1       3.638  -6.867  -4.160  1.00  0.00     0.074 A 
ATOM     21  C   UNL     1       2.857  -6.878  -2.947  1.00  0.00     0.031 C 
ATOM     22  C   UNL     1      -0.927  -3.109  -6.799  1.00  0.00     0.029 A 
ATOM     23  C   UNL     1      -0.453  -4.392  -7.284  1.00  0.00     0.049 A 
ATOM     24  H   UNL     1       1.266  -5.406  -6.654  1.00  0.00     0.167 HD
ATOM     25  C   UNL     1       4.337  -7.855  -4.788  1.00  0.00     0.031 A 
ATOM     26  C   UNL     1      -0.962  -5.192  -8.253  1.00  0.00     0.031 A 
ATOM     27  C   UNL     1       5.042  -7.361  -5.940  1.00  0.00     0.049 A 
ATOM     28  C   UNL     1       0.122  -6.095  -8.697  1.00  0.00     0.074 A 
ATOM     29  C   UNL     1       6.042  -6.432  -6.147  1.00  0.00     0.029 A 
ATOM     30  N   UNL     1       4.466  -7.573  -7.169  1.00  0.00    -0.354 N 
ATOM     31  N   UNL     1       1.180  -5.681  -9.332  1.00  0.00    -0.248 NA
ATOM     32  C   UNL     1       0.246  -7.387  -8.045  1.00  0.00     0.031 C 
ATOM     33  C   UNL     1       5.673  -5.769  -7.354  1.00  0.00     0.029 A 
ATOM     34  C   UNL     1       4.521  -6.385  -7.848  1.00  0.00     0.049 A 
ATOM     35  H   UNL     1       4.085  -8.419  -7.499  1.00  0.00     0.167 HD
ATOM     36  C   UNL     1       2.221  -6.422  -8.796  1.00  0.00     0.074 A 
ATOM     37  C   UNL     1       1.575  -7.521  -8.079  1.00  0.00     0.031 C 
ATOM     38  C   UNL     1       3.490  -5.923  -8.749  1.00  0.00     0.031 A 
BRANCH  25  39
ATOM     39  C   UNL     1       4.076  -9.330  -4.604  1.00  0.00    -0.014 A 
ATOM     40  C   UNL     1       4.874 -10.251  -5.311  1.00  0.00     0.009 A 
ATOM     41  C   UNL     1       2.903  -9.833  -4.013  1.00  0.00     0.009 A 
ATOM     42  C   UNL     1       4.469 -11.579  -5.495  1.00  0.00     0.001 A 
ATOM     43  C   UNL     1       2.516 -11.169  -4.163  1.00  0.00     0.001 A 
ATOM     44  C   UNL     1       3.283 -12.033  -4.931  1.00  0.00     0.000 A 
ENDBRANCH  25  39
BRANCH  26  45
ATOM     45  C   UNL     1      -2.376  -5.431  -8.616  1.00  0.00    -0.014 A 
ATOM     46  C   UNL     1      -2.719  -6.018  -9.845  1.00  0.00     0.009 A 
ATOM     47  C   UNL     1      -3.373  -5.356  -7.626  1.00  0.00     0.009 A 
ATOM     48  C   UNL     1      -4.001  -6.547 -10.059  1.00  0.00     0.001 A 
ATOM     49  C   UNL     1      -4.651  -5.886  -7.838  1.00  0.00     0.001 A 
ATOM     50  C   UNL     1      -4.960  -6.495  -9.050  1.00  0.00     0.000 A 
ENDBRANCH  26  45
BRANCH  38  51
ATOM     51  C   UNL     1       3.783  -4.639  -9.485  1.00  0.00    -0.014 A 
ATOM     52  C   UNL     1       3.178  -3.411  -9.161  1.00  0.00     0.009 A 
ATOM     53  C   UNL     1       4.838  -4.638 -10.410  1.00  0.00     0.009 A 
ATOM     54  C   UNL     1       3.611  -2.221  -9.758  1.00  0.00     0.001 A 
ATOM     55  C   UNL     1       5.283  -3.449 -10.989  1.00  0.00     0.001 A 
ATOM     56  C   UNL     1       4.669  -2.241 -10.665  1.00  0.00     0.000 A 
ENDBRANCH  38  51
ENDBRANCH  12  13
ENDBRANCH   5   7
ENDBRANCH   4   5
ENDBRANCH   3   4
ENDBRANCH   2   3
ENDBRANCH   1   2
BRANCH   1  57
ATOM     57  C   UNL     1       2.873  -0.892   1.977  1.00  0.00     0.338 C 
ATOM     58  O   UNL     1       2.304  -0.119   2.714  1.00  0.00    -0.246 OA
BRANCH  57  59
ATOM     59  C   UNL     1       2.450  -2.278   1.702  1.00  0.00     0.068 A 
ATOM     60  C   UNL     1       1.205  -2.470   1.093  1.00  0.00     0.016 A 
ATOM     61  C   UNL     1       3.283  -3.365   2.016  1.00  0.00     0.021 A 
ATOM     62  C   UNL     1       0.823  -3.744   0.681  1.00  0.00     0.001 A 
ATOM     63  C   UNL     1       2.905  -4.627   1.535  1.00  0.00     0.010 A 
ATOM     64  C   UNL     1       1.690  -4.815   0.872  1.00  0.00     0.001 A 
BRANCH  61  65
ATOM     65  C   UNL     1       4.473  -3.210   2.953  1.00  0.00     0.300 C 
BRANCH  65  66
ATOM     66  N   UNL     1       4.192  -3.397   4.403  1.00  0.00    -0.329 N 
ATOM     67  C   UNL     1       3.235  -2.371   4.879  1.00  0.00     0.262 C 
ATOM     68  C   UNL     1       3.733  -4.764   4.772  1.00  0.00     0.186 C 
ATOM     69  H   UNL     1       5.088  -3.280   4.877  1.00  0.00     0.348 HD
ATOM     70  C   UNL     1       2.949  -2.430   6.375  1.00  0.00     0.062 C 
ATOM     71  C   UNL     1       3.496  -4.850   6.298  1.00  0.00     0.065 C 
ATOM     72  C   UNL     1       2.486  -3.818   6.775  1.00  0.00     0.012 C 
BRANCH  68  73
ATOM     73  C   UNL     1       4.736  -5.873   4.350  1.00  0.00     0.088 C 
BRANCH  73  74
ATOM     74  C   UNL     1       4.292  -7.324   4.610  1.00  0.00     0.150 C 
BRANCH  74  75
ATOM     75  N   UNL     1       3.126  -7.778   3.872  1.00  0.00    -0.273 N 
ATOM     76  C   UNL     1       3.004  -8.945   3.170  1.00  0.00     0.108 A 
ATOM     77  N   UNL     1       1.980  -7.077   3.904  1.00  0.00    -0.182 NA
ATOM     78  C   UNL     1       1.726  -8.957   2.660  1.00  0.00     0.042 A 
ATOM     79  C   UNL     1       1.145  -7.769   3.131  1.00  0.00     0.135 A 
ENDBRANCH  74  75
ENDBRANCH  73  74
ENDBRANCH  68  73
ENDBRANCH  65  66
ENDBRANCH  61  65
ENDBRANCH  57  59
ENDBRANCH   1  57
TORSDOF 16
