REMARK SMILES COc1ccc(-n2nc(C(=O)OCCOC(=O)c3ccc(-c4c5nc(c(-c6ccccc6)c6ccc([nH]6)c(-c6ccccc6)c6nc(c(-c7ccccc7)c7ccc4[nH]7)C=C6)C=C5)cc3)c(=O)cc2C)cc1
REMARK SMILES IDX 13 1 12 2 10 3 11 4 9 5 7 6 8 7 69 8 68 9 70 10 66 11 67 12
REMARK SMILES IDX 6 13 3 14 4 15 72 16 5 17 71 18 2 19 1 20 14 21 15 22 16 23
REMARK SMILES IDX 17 24 18 25 19 26 65 27 20 28 64 29 21 30 22 31 23 32 58 33
REMARK SMILES IDX 24 34 63 35 57 36 59 37 25 38 62 39 56 40 55 41 26 43 48 44
REMARK SMILES IDX 33 45 47 46 34 47 37 48 46 49 60 50 35 51 36 52 45 54 61 55
REMARK SMILES IDX 38 56 27 57 28 58 32 59 29 60 31 61 30 62 49 63 50 64 54 65
REMARK SMILES IDX 51 66 53 67 52 68 39 69 40 70 44 71 41 72 43 73 42 74
REMARK H PARENT 59 42 37 53
REMARK Flexibility Score: inf
ROOT
ATOM      1  C   UNL     1       0.263   7.563  -8.384  1.00  0.00     0.275 C 
ENDROOT
BRANCH   1   2
ATOM      2  O   UNL     1       0.979   6.316  -8.279  1.00  0.00    -0.457 OA
BRANCH   2   3
ATOM      3  C   UNL     1       1.564   6.057  -7.094  1.00  0.00     0.363 C 
ATOM      4  O   UNL     1       1.579   6.772  -6.108  1.00  0.00    -0.244 OA
BRANCH   3   5
ATOM      5  C   UNL     1       2.184   4.671  -7.074  1.00  0.00     0.216 A 
ATOM      6  N   UNL     1       2.474   2.672  -5.961  1.00  0.00    -0.237 N 
ATOM      7  N   UNL     1       1.875   3.900  -6.066  1.00  0.00    -0.156 NA
ATOM      8  C   UNL     1       3.434   2.204  -6.860  1.00  0.00     0.044 A 
ATOM      9  C   UNL     1       3.788   2.914  -7.943  1.00  0.00     0.078 A 
ATOM     10  C   UNL     1       4.094   0.863  -6.655  1.00  0.00     0.067 C 
ATOM     11  C   UNL     1       3.159   4.228  -8.125  1.00  0.00     0.215 A 
ATOM     12  O   UNL     1       3.444   4.953  -9.066  1.00  0.00    -0.287 OA
BRANCH   6  13
ATOM     13  C   UNL     1       2.028   1.931  -4.828  1.00  0.00     0.065 A 
ATOM     14  C   UNL     1       1.128   0.474  -2.585  1.00  0.00     0.119 A 
ATOM     15  C   UNL     1       0.315   0.611  -3.709  1.00  0.00     0.048 A 
ATOM     16  C   UNL     1       2.401   1.045  -2.585  1.00  0.00     0.048 A 
ATOM     17  C   UNL     1       0.754   1.344  -4.818  1.00  0.00     0.032 A 
ATOM     18  C   UNL     1       2.845   1.771  -3.699  1.00  0.00     0.032 A 
BRANCH  14  19
ATOM     19  O   UNL     1       0.602  -0.273  -1.568  1.00  0.00    -0.497 OA
ATOM     20  C   UNL     1       1.028   0.084  -0.257  1.00  0.00     0.278 C 
ENDBRANCH  14  19
ENDBRANCH   6  13
ENDBRANCH   3   5
ENDBRANCH   2   3
ENDBRANCH   1   2
BRANCH   1  21
ATOM     21  C   UNL     1      -1.239   7.312  -8.537  1.00  0.00     0.275 C 
BRANCH  21  22
ATOM     22  O   UNL     1      -1.799   6.782  -7.319  1.00  0.00    -0.458 OA
BRANCH  22  23
ATOM     23  C   UNL     1      -1.786   5.434  -7.244  1.00  0.00     0.338 C 
ATOM     24  O   UNL     1      -1.404   4.646  -8.097  1.00  0.00    -0.246 OA
BRANCH  23  25
ATOM     25  C   UNL     1      -2.174   4.988  -5.902  1.00  0.00     0.060 A 
ATOM     26  C   UNL     1      -1.151   4.588  -5.053  1.00  0.00     0.016 A 
ATOM     27  C   UNL     1      -3.503   4.746  -5.563  1.00  0.00     0.016 A 
ATOM     28  C   UNL     1      -1.435   3.814  -3.938  1.00  0.00     0.010 A 
ATOM     29  C   UNL     1      -3.791   4.038  -4.386  1.00  0.00     0.010 A 
ATOM     30  C   UNL     1      -2.756   3.498  -3.599  1.00  0.00    -0.014 A 
BRANCH  30  31
ATOM     31  C   UNL     1      -3.008   2.528  -2.491  1.00  0.00     0.031 A 
ATOM     32  C   UNL     1      -3.769   1.248  -2.754  1.00  0.00     0.074 A 
ATOM     33  C   UNL     1      -2.482   2.738  -1.266  1.00  0.00     0.049 A 
ATOM     34  N   UNL     1      -4.149   0.321  -1.908  1.00  0.00    -0.248 NA
ATOM     35  C   UNL     1      -4.168   0.976  -4.145  1.00  0.00     0.031 C 
ATOM     36  C   UNL     1      -1.673   3.895  -0.875  1.00  0.00     0.029 A 
ATOM     37  N   UNL     1      -2.524   1.969  -0.128  1.00  0.00    -0.354 N 
ATOM     38  C   UNL     1      -4.880  -0.601  -2.651  1.00  0.00     0.074 A 
ATOM     39  C   UNL     1      -4.899  -0.121  -4.014  1.00  0.00     0.031 C 
ATOM     40  C   UNL     1      -1.252   3.734   0.388  1.00  0.00     0.029 A 
ATOM     41  C   UNL     1      -1.836   2.514   0.930  1.00  0.00     0.049 A 
ATOM     42  H   UNL     1      -3.003   1.110  -0.075  1.00  0.00     0.167 HD
ATOM     43  C   UNL     1      -5.481  -1.743  -2.237  1.00  0.00     0.031 A 
ATOM     44  C   UNL     1      -1.710   2.102   2.205  1.00  0.00     0.031 A 
ATOM     45  C   UNL     1      -5.413  -2.256  -0.893  1.00  0.00     0.049 A 
ATOM     46  C   UNL     1      -2.403   0.842   2.639  1.00  0.00     0.074 A 
ATOM     47  C   UNL     1      -5.974  -3.417  -0.386  1.00  0.00     0.029 A 
ATOM     48  N   UNL     1      -4.730  -1.654   0.151  1.00  0.00    -0.354 N 
ATOM     49  N   UNL     1      -3.114   0.001   1.930  1.00  0.00    -0.248 NA
ATOM     50  C   UNL     1      -2.274   0.476   4.057  1.00  0.00     0.031 C 
ATOM     51  C   UNL     1      -5.679  -3.487   0.979  1.00  0.00     0.029 A 
ATOM     52  C   UNL     1      -4.876  -2.407   1.306  1.00  0.00     0.049 A 
ATOM     53  H   UNL     1      -4.218  -0.817   0.083  1.00  0.00     0.167 HD
ATOM     54  C   UNL     1      -3.502  -1.001   2.808  1.00  0.00     0.074 A 
ATOM     55  C   UNL     1      -2.914  -0.683   4.093  1.00  0.00     0.031 C 
ATOM     56  C   UNL     1      -4.283  -2.083   2.576  1.00  0.00     0.031 A 
BRANCH  43  57
ATOM     57  C   UNL     1      -6.313  -2.504  -3.235  1.00  0.00    -0.014 A 
ATOM     58  C   UNL     1      -5.735  -3.237  -4.282  1.00  0.00     0.009 A 
ATOM     59  C   UNL     1      -7.709  -2.538  -3.075  1.00  0.00     0.009 A 
ATOM     60  C   UNL     1      -6.539  -3.966  -5.162  1.00  0.00     0.001 A 
ATOM     61  C   UNL     1      -8.508  -3.292  -3.937  1.00  0.00     0.001 A 
ATOM     62  C   UNL     1      -7.923  -3.999  -4.984  1.00  0.00     0.000 A 
ENDBRANCH  43  57
BRANCH  44  63
ATOM     63  C   UNL     1      -0.946   2.921   3.186  1.00  0.00    -0.014 A 
ATOM     64  C   UNL     1       0.221   2.427   3.789  1.00  0.00     0.009 A 
ATOM     65  C   UNL     1      -1.407   4.196   3.552  1.00  0.00     0.009 A 
ATOM     66  C   UNL     1       0.886   3.177   4.763  1.00  0.00     0.001 A 
ATOM     67  C   UNL     1      -0.718   4.960   4.494  1.00  0.00     0.001 A 
ATOM     68  C   UNL     1       0.420   4.444   5.110  1.00  0.00     0.000 A 
ENDBRANCH  44  63
BRANCH  56  69
ATOM     69  C   UNL     1      -4.500  -3.026   3.728  1.00  0.00    -0.014 A 
ATOM     70  C   UNL     1      -5.267  -2.658   4.845  1.00  0.00     0.009 A 
ATOM     71  C   UNL     1      -3.923  -4.305   3.692  1.00  0.00     0.009 A 
ATOM     72  C   UNL     1      -5.402  -3.530   5.928  1.00  0.00     0.001 A 
ATOM     73  C   UNL     1      -4.090  -5.189   4.759  1.00  0.00     0.001 A 
ATOM     74  C   UNL     1      -4.815  -4.794   5.883  1.00  0.00     0.000 A 
ENDBRANCH  56  69
ENDBRANCH  30  31
ENDBRANCH  23  25
ENDBRANCH  22  23
ENDBRANCH  21  22
ENDBRANCH   1  21
TORSDOF 13
