REMARK SMILES CN1N[C@H](C(=O)N[C@@H](CC2=c3ccccc3=NC2)C(=O)OCCOC(=O)c2ccc(-c3c4nc(c(-c5ccccc5)c5ccc([nH]5)c(-c5ccccc5)c5nc(c(-c6ccccc6)c6ccc3[nH]6)C=C5)C=C4)cc2)c2ccccc2C1=O
REMARK SMILES IDX 22 1 21 2 19 3 20 4 8 5 7 6 5 7 6 8 4 10 1 11 2 12 3 13
REMARK SMILES IDX 81 14 80 16 82 17 75 18 79 19 76 20 78 21 77 22 9 23 10 24
REMARK SMILES IDX 11 25 18 26 12 27 16 28 17 29 13 30 15 31 14 32 23 33 24 34
REMARK SMILES IDX 25 35 26 36 27 37 28 38 74 39 29 40 73 41 30 42 31 43 32 44
REMARK SMILES IDX 67 45 33 46 72 47 66 48 68 49 34 50 71 51 65 52 64 53 35 55
REMARK SMILES IDX 57 56 42 57 56 58 43 59 46 60 55 61 69 62 44 63 45 64 54 66
REMARK SMILES IDX 70 67 47 68 36 69 37 70 41 71 38 72 40 73 39 74 58 75 59 76
REMARK SMILES IDX 63 77 60 78 62 79 61 80 48 81 49 82 53 83 50 84 52 85 51 86
REMARK H PARENT 7 9 3 15 68 54 46 65
REMARK Flexibility Score: inf
ROOT
ATOM      1  C   UNL     1      -3.541   7.582  -2.477  1.00  0.00     0.274 C 
ENDROOT
BRANCH   1   2
ATOM      2  O   UNL     1      -3.255   6.574  -1.486  1.00  0.00    -0.461 OA
BRANCH   2   3
ATOM      3  C   UNL     1      -2.966   5.344  -1.986  1.00  0.00     0.329 C 
ATOM      4  O   UNL     1      -2.929   5.079  -3.185  1.00  0.00    -0.250 OA
BRANCH   3   5
ATOM      5  C   UNL     1      -2.748   4.271  -0.912  1.00  0.00     0.196 C 
BRANCH   5   6
ATOM      6  N   UNL     1      -2.636   4.721   0.482  1.00  0.00    -0.341 N 
ATOM      7  C   UNL     1      -1.929   4.241   1.544  1.00  0.00     0.244 C 
ATOM      8  O   UNL     1      -2.282   4.617   2.669  1.00  0.00    -0.273 OA
ATOM      9  H   UNL     1      -3.173   5.521   0.688  1.00  0.00     0.164 HD
BRANCH   7  10
ATOM     10  C   UNL     1      -0.649   3.391   1.382  1.00  0.00     0.195 C 
ATOM     11  C   UNL     1       0.205   0.027   0.171  1.00  0.00     0.169 C 
ATOM     12  N   UNL     1       0.261   1.478   0.230  1.00  0.00    -0.276 N 
ATOM     13  N   UNL     1      -0.928   2.189   0.570  1.00  0.00    -0.215 NA
ATOM     14  C   UNL     1       1.389   2.151  -0.252  1.00  0.00     0.268 C 
ATOM     15  H   UNL     1      -1.540   1.569   1.100  1.00  0.00     0.149 HD
ATOM     16  C   UNL     1       1.480   3.600   0.061  1.00  0.00     0.046 A 
ATOM     17  O   UNL     1       2.299   1.600  -0.865  1.00  0.00    -0.268 OA
ATOM     18  C   UNL     1       0.504   4.213   0.854  1.00  0.00    -0.007 A 
ATOM     19  C   UNL     1       2.591   4.330  -0.381  1.00  0.00     0.014 A 
ATOM     20  C   UNL     1       0.683   5.558   1.223  1.00  0.00     0.007 A 
ATOM     21  C   UNL     1       2.729   5.676  -0.046  1.00  0.00     0.001 A 
ATOM     22  C   UNL     1       1.778   6.287   0.762  1.00  0.00     0.000 A 
ENDBRANCH   7  10
ENDBRANCH   5   6
BRANCH   5  23
ATOM     23  C   UNL     1      -3.871   3.209  -1.121  1.00  0.00     0.070 C 
BRANCH  23  24
ATOM     24  C   UNL     1      -5.113   3.241  -0.266  1.00  0.00    -0.037 C 
ATOM     25  C   UNL     1      -5.658   4.186   0.500  1.00  0.00     0.001 A 
ATOM     26  C   UNL     1      -5.819   1.937   0.001  1.00  0.00     0.174 C 
ATOM     27  C   UNL     1      -5.588   5.605   0.648  1.00  0.00     0.010 A 
ATOM     28  C   UNL     1      -6.186   3.342   1.596  1.00  0.00     0.065 A 
ATOM     29  N   UNL     1      -6.351   2.074   1.370  1.00  0.00    -0.280 NA
ATOM     30  C   UNL     1      -5.815   6.150   1.854  1.00  0.00     0.001 A 
ATOM     31  C   UNL     1      -6.311   3.997   2.917  1.00  0.00     0.028 A 
ATOM     32  C   UNL     1      -6.074   5.316   3.014  1.00  0.00     0.002 A 
ENDBRANCH  23  24
ENDBRANCH   5  23
ENDBRANCH   3   5
ENDBRANCH   2   3
ENDBRANCH   1   2
BRANCH   1  33
ATOM     33  C   UNL     1      -2.322   8.449  -2.801  1.00  0.00     0.275 C 
BRANCH  33  34
ATOM     34  O   UNL     1      -1.264   7.701  -3.432  1.00  0.00    -0.458 OA
BRANCH  34  35
ATOM     35  C   UNL     1      -0.365   7.177  -2.574  1.00  0.00     0.338 C 
ATOM     36  O   UNL     1      -0.384   7.279  -1.348  1.00  0.00    -0.246 OA
BRANCH  35  37
ATOM     37  C   UNL     1       0.641   6.376  -3.279  1.00  0.00     0.060 A 
ATOM     38  C   UNL     1       1.742   6.989  -3.881  1.00  0.00     0.016 A 
ATOM     39  C   UNL     1       0.576   4.986  -3.179  1.00  0.00     0.016 A 
ATOM     40  C   UNL     1       2.794   6.198  -4.363  1.00  0.00     0.010 A 
ATOM     41  C   UNL     1       1.641   4.205  -3.625  1.00  0.00     0.010 A 
ATOM     42  C   UNL     1       2.769   4.800  -4.210  1.00  0.00    -0.014 A 
BRANCH  42  43
ATOM     43  C   UNL     1       3.928   3.945  -4.586  1.00  0.00     0.031 A 
ATOM     44  C   UNL     1       3.794   2.904  -5.664  1.00  0.00     0.074 A 
ATOM     45  C   UNL     1       5.076   4.013  -3.880  1.00  0.00     0.049 A 
ATOM     46  N   UNL     1       4.699   2.078  -6.126  1.00  0.00    -0.248 NA
ATOM     47  C   UNL     1       2.475   2.766  -6.302  1.00  0.00     0.031 C 
ATOM     48  C   UNL     1       5.328   4.915  -2.757  1.00  0.00     0.029 A 
ATOM     49  N   UNL     1       6.233   3.277  -3.973  1.00  0.00    -0.354 N 
ATOM     50  C   UNL     1       4.066   1.341  -7.117  1.00  0.00     0.074 A 
ATOM     51  C   UNL     1       2.682   1.757  -7.136  1.00  0.00     0.031 C 
ATOM     52  C   UNL     1       6.530   4.641  -2.226  1.00  0.00     0.029 A 
ATOM     53  C   UNL     1       7.153   3.568  -2.994  1.00  0.00     0.049 A 
ATOM     54  H   UNL     1       6.388   2.603  -4.674  1.00  0.00     0.167 HD
ATOM     55  C   UNL     1       4.601   0.437  -7.971  1.00  0.00     0.031 A 
ATOM     56  C   UNL     1       8.371   3.049  -2.746  1.00  0.00     0.031 A 
ATOM     57  C   UNL     1       5.978   0.025  -7.958  1.00  0.00     0.049 A 
ATOM     58  C   UNL     1       8.951   2.043  -3.699  1.00  0.00     0.074 A 
ATOM     59  C   UNL     1       6.640  -0.794  -8.855  1.00  0.00     0.029 A 
ATOM     60  N   UNL     1       6.899   0.393  -6.992  1.00  0.00    -0.354 N 
ATOM     61  N   UNL     1       8.394   1.489  -4.746  1.00  0.00    -0.248 NA
ATOM     62  C   UNL     1      10.347   1.639  -3.474  1.00  0.00     0.031 C 
ATOM     63  C   UNL     1       7.957  -0.950  -8.412  1.00  0.00     0.029 A 
ATOM     64  C   UNL     1       8.123  -0.194  -7.263  1.00  0.00     0.049 A 
ATOM     65  H   UNL     1       6.712   0.983  -6.226  1.00  0.00     0.167 HD
ATOM     66  C   UNL     1       9.384   0.717  -5.337  1.00  0.00     0.074 A 
ATOM     67  C   UNL     1      10.574   0.862  -4.526  1.00  0.00     0.031 C 
ATOM     68  C   UNL     1       9.310  -0.028  -6.466  1.00  0.00     0.031 A 
BRANCH  55  69
ATOM     69  C   UNL     1       3.704  -0.119  -9.040  1.00  0.00    -0.014 A 
ATOM     70  C   UNL     1       3.339  -1.473  -9.033  1.00  0.00     0.009 A 
ATOM     71  C   UNL     1       3.270   0.699 -10.097  1.00  0.00     0.009 A 
ATOM     72  C   UNL     1       2.550  -1.995 -10.060  1.00  0.00     0.001 A 
ATOM     73  C   UNL     1       2.460   0.180 -11.108  1.00  0.00     0.001 A 
ATOM     74  C   UNL     1       2.105  -1.167 -11.091  1.00  0.00     0.000 A 
ENDBRANCH  55  69
BRANCH  56  75
ATOM     75  C   UNL     1       9.160   3.547  -1.591  1.00  0.00    -0.014 A 
ATOM     76  C   UNL     1       8.862   3.126  -0.287  1.00  0.00     0.009 A 
ATOM     77  C   UNL     1      10.198   4.471  -1.788  1.00  0.00     0.009 A 
ATOM     78  C   UNL     1       9.592   3.617   0.799  1.00  0.00     0.001 A 
ATOM     79  C   UNL     1      10.937   4.946  -0.703  1.00  0.00     0.001 A 
ATOM     80  C   UNL     1      10.632   4.522   0.589  1.00  0.00     0.000 A 
ENDBRANCH  56  75
BRANCH  68  81
ATOM     81  C   UNL     1      10.557  -0.714  -6.941  1.00  0.00    -0.014 A 
ATOM     82  C   UNL     1      11.205  -0.243  -8.094  1.00  0.00     0.009 A 
ATOM     83  C   UNL     1      11.025  -1.881  -6.322  1.00  0.00     0.009 A 
ATOM     84  C   UNL     1      12.288  -0.939  -8.632  1.00  0.00     0.001 A 
ATOM     85  C   UNL     1      12.123  -2.563  -6.850  1.00  0.00     0.001 A 
ATOM     86  C   UNL     1      12.747  -2.098  -8.008  1.00  0.00     0.000 A 
ENDBRANCH  68  81
ENDBRANCH  42  43
ENDBRANCH  35  37
ENDBRANCH  34  35
ENDBRANCH  33  34
ENDBRANCH   1  33
TORSDOF 15
