REMARK SMILES COc1ccc(C(=O)N(C)C)cc1NC(=O)[C@H]1[C@@H](C(=O)OCCOC(=O)c2ccc(-c3c4nc(c(-c5ccccc5)c5ccc([nH]5)c(-c5ccccc5)c5nc(c(-c6ccccc6)c6ccc3[nH]6)C=C5)C=C4)cc2)[C@H]2C=C[C@@H]1C2
REMARK SMILES IDX 22 1 21 2 19 3 20 4 18 5 17 6 78 7 75 8 77 9 79 10 76 11
REMARK SMILES IDX 15 12 14 13 16 15 13 16 3 17 4 18 5 19 12 20 6 21 2 22 1 23
REMARK SMILES IDX 7 24 8 25 9 26 10 27 11 28 23 29 24 30 25 31 26 32 27 33
REMARK SMILES IDX 28 34 74 35 29 36 73 37 30 38 31 39 32 40 67 41 33 42 72 43
REMARK SMILES IDX 66 44 68 45 34 46 71 47 65 48 64 49 35 51 57 52 42 53 56 54
REMARK SMILES IDX 43 55 46 56 55 57 69 58 44 59 45 60 54 62 70 63 47 64 36 65
REMARK SMILES IDX 37 66 41 67 38 68 40 69 39 70 58 71 59 72 63 73 60 74 62 75
REMARK SMILES IDX 61 76 48 77 49 78 53 79 50 80 52 81 51 82
REMARK H PARENT 14 14 68 50 46 61
REMARK Flexibility Score: inf
ROOT
ATOM      1  C   UNL     1       8.957  -4.714   1.331  1.00  0.00     0.274 C 
ENDROOT
BRANCH   1   2
ATOM      2  O   UNL     1       7.528  -4.854   1.443  1.00  0.00    -0.462 OA
BRANCH   2   3
ATOM      3  C   UNL     1       6.806  -4.229   0.493  1.00  0.00     0.310 C 
ATOM      4  O   UNL     1       7.281  -3.587  -0.441  1.00  0.00    -0.252 OA
BRANCH   3   5
ATOM      5  C   UNL     1       5.316  -4.367   0.630  1.00  0.00     0.119 C 
ATOM      6  C   UNL     1       4.583  -3.443   1.638  1.00  0.00     0.100 C 
ATOM      7  C   UNL     1       3.467  -4.381   2.184  1.00  0.00     0.025 C 
ATOM      8  C   UNL     1       4.639  -5.736   0.836  1.00  0.00     0.027 C 
ATOM      9  C   UNL     1       4.095  -5.452   3.046  1.00  0.00    -0.027 C 
ATOM     10  C   UNL     1       3.176  -5.260   0.961  1.00  0.00     0.017 C 
ATOM     11  C   UNL     1       4.822  -6.240   2.240  1.00  0.00    -0.027 C 
BRANCH   6  12
ATOM     12  C   UNL     1       5.361  -2.795   2.771  1.00  0.00     0.229 C 
ATOM     13  N   UNL     1       5.131  -1.511   3.166  1.00  0.00    -0.323 N 
ATOM     14  H   UNL     1       5.558  -1.294   4.026  1.00  0.00     0.170 HD
ATOM     15  O   UNL     1       6.235  -3.401   3.395  1.00  0.00    -0.274 OA
BRANCH  13  16
ATOM     16  C   UNL     1       4.421  -0.426   2.621  1.00  0.00     0.084 A 
ATOM     17  C   UNL     1       4.868   0.858   2.985  1.00  0.00     0.142 A 
ATOM     18  C   UNL     1       4.325   2.006   2.406  1.00  0.00     0.049 A 
ATOM     19  C   UNL     1       3.351   1.881   1.417  1.00  0.00     0.018 A 
ATOM     20  C   UNL     1       3.356  -0.523   1.730  1.00  0.00     0.044 A 
ATOM     21  C   UNL     1       2.876   0.613   1.065  1.00  0.00     0.042 A 
BRANCH  17  22
ATOM     22  O   UNL     1       5.808   1.009   3.976  1.00  0.00    -0.495 OA
ATOM     23  C   UNL     1       7.135   1.035   3.447  1.00  0.00     0.278 C 
ENDBRANCH  17  22
BRANCH  21  24
ATOM     24  C   UNL     1       1.797   0.500   0.049  1.00  0.00     0.253 C 
ATOM     25  O   UNL     1       0.878   1.314   0.117  1.00  0.00    -0.269 OA
ATOM     26  N   UNL     1       1.852  -0.505  -0.921  1.00  0.00    -0.345 N 
ATOM     27  C   UNL     1       3.022  -1.299  -1.268  1.00  0.00     0.146 C 
ATOM     28  C   UNL     1       0.685  -0.710  -1.764  1.00  0.00     0.146 C 
ENDBRANCH  21  24
ENDBRANCH  13  16
ENDBRANCH   6  12
ENDBRANCH   3   5
ENDBRANCH   2   3
ENDBRANCH   1   2
BRANCH   1  29
ATOM     29  C   UNL     1       9.577  -6.064   0.998  1.00  0.00     0.275 C 
BRANCH  29  30
ATOM     30  O   UNL     1       8.973  -6.593  -0.195  1.00  0.00    -0.458 OA
BRANCH  30  31
ATOM     31  C   UNL     1       8.092  -7.596   0.015  1.00  0.00     0.338 C 
ATOM     32  O   UNL     1       7.812  -8.145   1.070  1.00  0.00    -0.246 OA
BRANCH  31  33
ATOM     33  C   UNL     1       7.474  -7.986  -1.256  1.00  0.00     0.060 A 
ATOM     34  C   UNL     1       6.578  -7.128  -1.895  1.00  0.00     0.016 A 
ATOM     35  C   UNL     1       7.685  -9.279  -1.731  1.00  0.00     0.016 A 
ATOM     36  C   UNL     1       5.820  -7.597  -2.966  1.00  0.00     0.010 A 
ATOM     37  C   UNL     1       6.992  -9.715  -2.860  1.00  0.00     0.010 A 
ATOM     38  C   UNL     1       6.027  -8.892  -3.466  1.00  0.00    -0.014 A 
BRANCH  38  39
ATOM     39  C   UNL     1       5.245  -9.406  -4.618  1.00  0.00     0.031 A 
ATOM     40  C   UNL     1       4.373 -10.621  -4.459  1.00  0.00     0.074 A 
ATOM     41  C   UNL     1       5.354  -8.814  -5.822  1.00  0.00     0.049 A 
ATOM     42  N   UNL     1       3.793 -11.348  -5.380  1.00  0.00    -0.248 NA
ATOM     43  C   UNL     1       4.137 -11.088  -3.084  1.00  0.00     0.031 C 
ATOM     44  C   UNL     1       6.140  -7.613  -6.110  1.00  0.00     0.029 A 
ATOM     45  N   UNL     1       4.814  -9.159  -7.035  1.00  0.00    -0.354 N 
ATOM     46  C   UNL     1       3.167 -12.387  -4.702  1.00  0.00     0.074 A 
ATOM     47  C   UNL     1       3.437 -12.195  -3.293  1.00  0.00     0.031 C 
ATOM     48  C   UNL     1       6.026  -7.317  -7.413  1.00  0.00     0.029 A 
ATOM     49  C   UNL     1       5.223  -8.346  -8.063  1.00  0.00     0.049 A 
ATOM     50  H   UNL     1       4.195  -9.915  -7.156  1.00  0.00     0.167 HD
ATOM     51  C   UNL     1       2.441 -13.412  -5.210  1.00  0.00     0.031 A 
ATOM     52  C   UNL     1       5.022  -8.443  -9.389  1.00  0.00     0.031 A 
ATOM     53  C   UNL     1       2.156 -13.591  -6.609  1.00  0.00     0.049 A 
ATOM     54  C   UNL     1       4.241  -9.600  -9.934  1.00  0.00     0.074 A 
ATOM     55  C   UNL     1       1.418 -14.589  -7.221  1.00  0.00     0.029 A 
ATOM     56  N   UNL     1       2.594 -12.743  -7.614  1.00  0.00    -0.354 N 
ATOM     57  N   UNL     1       3.687 -10.596  -9.287  1.00  0.00    -0.248 NA
ATOM     58  C   UNL     1       4.069  -9.653 -11.392  1.00  0.00     0.031 C 
ATOM     59  C   UNL     1       1.437 -14.362  -8.603  1.00  0.00     0.029 A 
ATOM     60  C   UNL     1       2.154 -13.201  -8.845  1.00  0.00     0.049 A 
ATOM     61  H   UNL     1       3.138 -11.934  -7.475  1.00  0.00     0.167 HD
ATOM     62  C   UNL     1       3.100 -11.396 -10.257  1.00  0.00     0.074 A 
ATOM     63  C   UNL     1       3.346 -10.756 -11.534  1.00  0.00     0.031 C 
ATOM     64  C   UNL     1       2.422 -12.559 -10.104  1.00  0.00     0.031 A 
BRANCH  51  65
ATOM     65  C   UNL     1       1.944 -14.446  -4.240  1.00  0.00    -0.014 A 
ATOM     66  C   UNL     1       0.872 -14.183  -3.373  1.00  0.00     0.009 A 
ATOM     67  C   UNL     1       2.554 -15.710  -4.203  1.00  0.00     0.009 A 
ATOM     68  C   UNL     1       0.447 -15.154  -2.462  1.00  0.00     0.001 A 
ATOM     69  C   UNL     1       2.112 -16.685  -3.307  1.00  0.00     0.001 A 
ATOM     70  C   UNL     1       1.066 -16.403  -2.431  1.00  0.00     0.000 A 
ENDBRANCH  51  65
BRANCH  52  71
ATOM     71  C   UNL     1       5.626  -7.430 -10.290  1.00  0.00    -0.014 A 
ATOM     72  C   UNL     1       4.831  -6.439 -10.882  1.00  0.00     0.009 A 
ATOM     73  C   UNL     1       7.011  -7.422 -10.519  1.00  0.00     0.009 A 
ATOM     74  C   UNL     1       5.412  -5.460 -11.691  1.00  0.00     0.001 A 
ATOM     75  C   UNL     1       7.592  -6.428 -11.308  1.00  0.00     0.001 A 
ATOM     76  C   UNL     1       6.792  -5.451 -11.896  1.00  0.00     0.000 A 
ENDBRANCH  52  71
BRANCH  64  77
ATOM     77  C   UNL     1       1.891 -13.201 -11.352  1.00  0.00    -0.014 A 
ATOM     78  C   UNL     1       2.741 -13.905 -12.218  1.00  0.00     0.009 A 
ATOM     79  C   UNL     1       0.523 -13.119 -11.651  1.00  0.00     0.009 A 
ATOM     80  C   UNL     1       2.233 -14.493 -13.377  1.00  0.00     0.001 A 
ATOM     81  C   UNL     1       0.015 -13.725 -12.800  1.00  0.00     0.001 A 
ATOM     82  C   UNL     1       0.871 -14.405 -13.666  1.00  0.00     0.000 A 
ENDBRANCH  64  77
ENDBRANCH  38  39
ENDBRANCH  31  33
ENDBRANCH  30  31
ENDBRANCH  29  30
ENDBRANCH   1  29
TORSDOF 15
