REMARK SMILES O=C(OCCOC(=O)[C@@H]1C[C@@H]1C(=O)N1CCN(c2ncc(C(F)(F)F)cc2Cl)CC1)c1ccc(-c2c3nc(c(-c4ccccc4)c4ccc([nH]4)c(-c4ccccc4)c4nc(c(-c5ccccc5)c5ccc2[nH]5)C=C4)C=C3)cc1
REMARK SMILES IDX 5 1 4 2 3 3 2 4 1 5 31 6 32 7 78 8 33 9 77 10 34 11 35 12
REMARK SMILES IDX 36 13 71 14 37 15 76 16 70 17 72 18 38 19 75 20 69 21 68 22
REMARK SMILES IDX 39 24 61 25 46 26 60 27 47 28 50 29 59 30 73 31 48 32 49 33
REMARK SMILES IDX 58 35 74 36 51 37 40 38 41 39 45 40 42 41 44 42 43 43 62 44
REMARK SMILES IDX 63 45 67 46 64 47 66 48 65 49 52 50 53 51 57 52 54 53 56 54
REMARK SMILES IDX 55 55 6 56 7 57 8 58 9 59 10 60 11 61 12 62 13 63 14 64
REMARK SMILES IDX 15 65 30 66 16 67 29 68 17 69 18 70 19 71 27 72 20 73 26 74
REMARK SMILES IDX 28 75 21 76 22 77 23 78 24 79 25 80
REMARK H PARENT 72 23 50 34
REMARK Flexibility Score: inf
ROOT
ATOM      1  C   UNL     1       4.002   2.137   0.002  1.00  0.00     0.274 C 
ENDROOT
BRANCH   1   2
ATOM      2  C   UNL     1       4.307   1.151  -1.128  1.00  0.00     0.275 C 
BRANCH   2   3
ATOM      3  O   UNL     1       3.305   0.141  -1.312  1.00  0.00    -0.458 OA
BRANCH   3   4
ATOM      4  C   UNL     1       3.218  -1.097  -0.768  1.00  0.00     0.338 C 
ATOM      5  O   UNL     1       2.460  -1.914  -1.288  1.00  0.00    -0.246 OA
BRANCH   4   6
ATOM      6  C   UNL     1       3.924  -1.499   0.493  1.00  0.00     0.060 A 
ATOM      7  C   UNL     1       5.112  -0.956   0.984  1.00  0.00     0.016 A 
ATOM      8  C   UNL     1       3.315  -2.514   1.254  1.00  0.00     0.016 A 
ATOM      9  C   UNL     1       5.627  -1.330   2.226  1.00  0.00     0.010 A 
ATOM     10  C   UNL     1       3.815  -2.882   2.511  1.00  0.00     0.010 A 
ATOM     11  C   UNL     1       4.975  -2.279   3.012  1.00  0.00    -0.014 A 
BRANCH  11  12
ATOM     12  C   UNL     1       5.630  -2.716   4.266  1.00  0.00     0.031 A 
ATOM     13  C   UNL     1       6.246  -4.083   4.290  1.00  0.00     0.074 A 
ATOM     14  C   UNL     1       5.800  -1.863   5.299  1.00  0.00     0.049 A 
ATOM     15  N   UNL     1       7.012  -4.627   5.198  1.00  0.00    -0.248 NA
ATOM     16  C   UNL     1       5.981  -4.947   3.127  1.00  0.00     0.031 C 
ATOM     17  C   UNL     1       5.289  -0.492   5.366  1.00  0.00     0.029 A 
ATOM     18  N   UNL     1       6.485  -2.010   6.480  1.00  0.00    -0.354 N 
ATOM     19  C   UNL     1       7.337  -5.880   4.699  1.00  0.00     0.074 A 
ATOM     20  C   UNL     1       6.620  -6.054   3.459  1.00  0.00     0.031 C 
ATOM     21  C   UNL     1       5.687   0.078   6.516  1.00  0.00     0.029 A 
ATOM     22  C   UNL     1       6.485  -0.882   7.270  1.00  0.00     0.049 A 
ATOM     23  H   UNL     1       6.936  -2.847   6.739  1.00  0.00     0.167 HD
ATOM     24  C   UNL     1       8.198  -6.793   5.200  1.00  0.00     0.031 A 
ATOM     25  C   UNL     1       7.080  -0.648   8.456  1.00  0.00     0.031 A 
ATOM     26  C   UNL     1       8.893  -6.633   6.442  1.00  0.00     0.049 A 
ATOM     27  C   UNL     1       7.950  -1.730   9.046  1.00  0.00     0.074 A 
ATOM     28  C   UNL     1       9.745  -7.517   7.075  1.00  0.00     0.029 A 
ATOM     29  N   UNL     1       8.806  -5.505   7.243  1.00  0.00    -0.354 N 
ATOM     30  N   UNL     1       8.271  -2.899   8.543  1.00  0.00    -0.248 NA
ATOM     31  C   UNL     1       8.559  -1.451  10.354  1.00  0.00     0.031 C 
ATOM     32  C   UNL     1      10.136  -6.941   8.288  1.00  0.00     0.029 A 
ATOM     33  C   UNL     1       9.578  -5.674   8.377  1.00  0.00     0.049 A 
ATOM     34  H   UNL     1       8.273  -4.703   7.036  1.00  0.00     0.167 HD
ATOM     35  C   UNL     1       9.142  -3.479   9.457  1.00  0.00     0.074 A 
ATOM     36  C   UNL     1       9.320  -2.522  10.529  1.00  0.00     0.031 C 
ATOM     37  C   UNL     1       9.739  -4.696   9.421  1.00  0.00     0.031 A 
BRANCH  24  38
ATOM     38  C   UNL     1       8.392  -8.041   4.389  1.00  0.00    -0.014 A 
ATOM     39  C   UNL     1       9.068  -8.002   3.157  1.00  0.00     0.009 A 
ATOM     40  C   UNL     1       7.840  -9.252   4.826  1.00  0.00     0.009 A 
ATOM     41  C   UNL     1       9.143  -9.142   2.356  1.00  0.00     0.001 A 
ATOM     42  C   UNL     1       7.945 -10.399   4.037  1.00  0.00     0.001 A 
ATOM     43  C   UNL     1       8.583 -10.340   2.798  1.00  0.00     0.000 A 
ENDBRANCH  24  38
BRANCH  25  44
ATOM     44  C   UNL     1       6.888   0.643   9.179  1.00  0.00    -0.014 A 
ATOM     45  C   UNL     1       7.966   1.511   9.424  1.00  0.00     0.009 A 
ATOM     46  C   UNL     1       5.629   0.977   9.704  1.00  0.00     0.009 A 
ATOM     47  C   UNL     1       7.798   2.649  10.220  1.00  0.00     0.001 A 
ATOM     48  C   UNL     1       5.456   2.132  10.471  1.00  0.00     0.001 A 
ATOM     49  C   UNL     1       6.544   2.958  10.743  1.00  0.00     0.000 A 
ENDBRANCH  25  44
BRANCH  37  50
ATOM     50  C   UNL     1      10.667  -5.039  10.552  1.00  0.00    -0.014 A 
ATOM     51  C   UNL     1      10.181  -5.297  11.842  1.00  0.00     0.009 A 
ATOM     52  C   UNL     1      12.043  -5.160  10.303  1.00  0.00     0.009 A 
ATOM     53  C   UNL     1      11.062  -5.632  12.872  1.00  0.00     0.001 A 
ATOM     54  C   UNL     1      12.916  -5.532  11.325  1.00  0.00     0.001 A 
ATOM     55  C   UNL     1      12.426  -5.757  12.610  1.00  0.00     0.000 A 
ENDBRANCH  37  50
ENDBRANCH  11  12
ENDBRANCH   4   6
ENDBRANCH   3   4
ENDBRANCH   2   3
ENDBRANCH   1   2
BRANCH   1  56
ATOM     56  O   UNL     1       3.560   1.536   1.233  1.00  0.00    -0.462 OA
BRANCH  56  57
ATOM     57  C   UNL     1       2.212   1.538   1.439  1.00  0.00     0.309 C 
ATOM     58  O   UNL     1       1.364   1.891   0.632  1.00  0.00    -0.252 OA
BRANCH  57  59
ATOM     59  C   UNL     1       1.863   1.290   2.858  1.00  0.00     0.112 C 
ATOM     60  C   UNL     1       2.125  -0.005   3.566  1.00  0.00     0.030 C 
ATOM     61  C   UNL     1       0.711   0.378   3.240  1.00  0.00     0.094 C 
BRANCH  61  62
ATOM     62  C   UNL     1      -0.049  -0.454   2.259  1.00  0.00     0.226 C 
ATOM     63  O   UNL     1       0.491  -1.420   1.735  1.00  0.00    -0.275 OA
ATOM     64  N   UNL     1      -1.382  -0.145   2.082  1.00  0.00    -0.339 N 
ATOM     65  C   UNL     1      -2.285  -1.143   1.483  1.00  0.00     0.141 C 
ATOM     66  C   UNL     1      -2.073   0.971   2.730  1.00  0.00     0.141 C 
ATOM     67  C   UNL     1      -3.238  -1.714   2.566  1.00  0.00     0.139 C 
ATOM     68  C   UNL     1      -2.984   0.421   3.843  1.00  0.00     0.139 C 
ATOM     69  N   UNL     1      -3.871  -0.593   3.272  1.00  0.00    -0.352 N 
BRANCH  69  70
ATOM     70  C   UNL     1      -5.228  -0.564   3.465  1.00  0.00     0.147 A 
ATOM     71  N   UNL     1      -5.790  -1.669   4.014  1.00  0.00    -0.237 NA
ATOM     72  C   UNL     1      -6.026   0.539   3.112  1.00  0.00     0.084 A 
ATOM     73  C   UNL     1      -7.123  -1.666   4.263  1.00  0.00     0.126 A 
ATOM     74  C   UNL     1      -7.396   0.509   3.362  1.00  0.00     0.039 A 
ATOM     75  Cl  UNL     1      -5.423   1.934   2.287  1.00  0.00    -0.080 Cl
ATOM     76  C   UNL     1      -7.966  -0.610   3.963  1.00  0.00     0.075 A 
BRANCH  76  77
ATOM     77  C   UNL     1      -9.425  -0.684   4.277  1.00  0.00     0.417 C 
ATOM     78  F   UNL     1     -10.031  -1.761   3.708  1.00  0.00    -0.166 F 
ATOM     79  F   UNL     1      -9.664  -0.778   5.613  1.00  0.00    -0.166 F 
ATOM     80  F   UNL     1     -10.123   0.405   3.850  1.00  0.00    -0.166 F 
ENDBRANCH  76  77
ENDBRANCH  69  70
ENDBRANCH  61  62
ENDBRANCH  57  59
ENDBRANCH  56  57
ENDBRANCH   1  56
TORSDOF 14
