REMARK SMILES O=C(OCCOC(=O)c1cncc(OCC[NH+]2CCCC2)n1)c1ccc(-c2c3nc(c(-c4ccccc4)c4ccc([nH]4)c(-c4ccccc4)c4nc(c(-c5ccccc5)c5ccc2[nH]5)C=C4)C=C3)cc1
REMARK SMILES IDX 5 1 4 2 3 3 2 4 1 5 23 6 24 7 70 8 25 9 69 10 26 11 27 12
REMARK SMILES IDX 28 13 63 14 29 15 68 16 62 17 64 18 30 19 67 20 61 21 60 22
REMARK SMILES IDX 31 24 53 25 38 26 52 27 39 28 42 29 51 30 65 31 40 32 41 33
REMARK SMILES IDX 50 35 66 36 43 37 32 38 33 39 37 40 34 41 36 42 35 43 54 44
REMARK SMILES IDX 55 45 59 46 56 47 58 48 57 49 44 50 45 51 49 52 46 53 48 54
REMARK SMILES IDX 47 55 6 56 7 57 8 58 9 59 10 60 22 61 11 62 13 63 12 64
REMARK SMILES IDX 14 65 15 66 16 67 17 68 18 69 21 70 19 72 20 73
REMARK H PARENT 64 23 42 34 17 71
REMARK Flexibility Score: inf
ROOT
ATOM      1  C   UNL     1       3.940  -1.982  -0.580  1.00  0.00     0.275 C 
ENDROOT
BRANCH   1   2
ATOM      2  C   UNL     1       5.082  -1.550   0.343  1.00  0.00     0.275 C 
BRANCH   2   3
ATOM      3  O   UNL     1       4.809  -0.466   1.263  1.00  0.00    -0.458 OA
BRANCH   3   4
ATOM      4  C   UNL     1       3.866   0.456   0.965  1.00  0.00     0.338 C 
ATOM      5  O   UNL     1       2.801   0.522   1.563  1.00  0.00    -0.246 OA
BRANCH   4   6
ATOM      6  C   UNL     1       4.270   1.463  -0.060  1.00  0.00     0.060 A 
ATOM      7  C   UNL     1       5.538   1.489  -0.654  1.00  0.00     0.016 A 
ATOM      8  C   UNL     1       3.312   2.402  -0.457  1.00  0.00     0.016 A 
ATOM      9  C   UNL     1       5.825   2.406  -1.666  1.00  0.00     0.010 A 
ATOM     10  C   UNL     1       3.593   3.324  -1.465  1.00  0.00     0.010 A 
ATOM     11  C   UNL     1       4.858   3.334  -2.065  1.00  0.00    -0.014 A 
BRANCH  11  12
ATOM     12  C   UNL     1       5.239   4.447  -2.957  1.00  0.00     0.031 A 
ATOM     13  C   UNL     1       5.697   5.723  -2.323  1.00  0.00     0.074 A 
ATOM     14  C   UNL     1       5.181   4.325  -4.293  1.00  0.00     0.049 A 
ATOM     15  N   UNL     1       6.154   6.807  -2.889  1.00  0.00    -0.248 NA
ATOM     16  C   UNL     1       5.647   5.776  -0.852  1.00  0.00     0.031 C 
ATOM     17  C   UNL     1       4.761   3.128  -5.012  1.00  0.00     0.029 A 
ATOM     18  N   UNL     1       5.457   5.233  -5.282  1.00  0.00    -0.354 N 
ATOM     19  C   UNL     1       6.487   7.654  -1.842  1.00  0.00     0.074 A 
ATOM     20  C   UNL     1       6.118   6.989  -0.613  1.00  0.00     0.031 C 
ATOM     21  C   UNL     1       4.752   3.389  -6.331  1.00  0.00     0.029 A 
ATOM     22  C   UNL     1       5.185   4.767  -6.544  1.00  0.00     0.049 A 
ATOM     23  H   UNL     1       5.815   6.133  -5.104  1.00  0.00     0.167 HD
ATOM     24  C   UNL     1       7.075   8.870  -1.899  1.00  0.00     0.031 A 
ATOM     25  C   UNL     1       5.273   5.391  -7.734  1.00  0.00     0.031 A 
ATOM     26  C   UNL     1       7.378   9.553  -3.122  1.00  0.00     0.049 A 
ATOM     27  C   UNL     1       5.825   6.789  -7.779  1.00  0.00     0.074 A 
ATOM     28  C   UNL     1       7.972  10.787  -3.304  1.00  0.00     0.029 A 
ATOM     29  N   UNL     1       7.077   9.056  -4.383  1.00  0.00    -0.354 N 
ATOM     30  N   UNL     1       6.229   7.545  -6.785  1.00  0.00    -0.248 NA
ATOM     31  C   UNL     1       5.968   7.407  -9.104  1.00  0.00     0.031 C 
ATOM     32  C   UNL     1       7.995  11.055  -4.679  1.00  0.00     0.029 A 
ATOM     33  C   UNL     1       7.450   9.970  -5.350  1.00  0.00     0.049 A 
ATOM     34  H   UNL     1       6.659   8.183  -4.561  1.00  0.00     0.167 HD
ATOM     35  C   UNL     1       6.718   8.707  -7.366  1.00  0.00     0.074 A 
ATOM     36  C   UNL     1       6.545   8.562  -8.798  1.00  0.00     0.031 C 
ATOM     37  C   UNL     1       7.278   9.788  -6.769  1.00  0.00     0.031 A 
BRANCH  24  38
ATOM     38  C   UNL     1       7.393   9.509  -0.580  1.00  0.00    -0.014 A 
ATOM     39  C   UNL     1       8.438   9.015   0.219  1.00  0.00     0.009 A 
ATOM     40  C   UNL     1       6.594  10.551  -0.092  1.00  0.00     0.009 A 
ATOM     41  C   UNL     1       8.643   9.518   1.504  1.00  0.00     0.001 A 
ATOM     42  C   UNL     1       6.816  11.067   1.186  1.00  0.00     0.001 A 
ATOM     43  C   UNL     1       7.829  10.541   1.988  1.00  0.00     0.000 A 
ENDBRANCH  24  38
BRANCH  25  44
ATOM     44  C   UNL     1       4.843   4.687  -8.969  1.00  0.00    -0.014 A 
ATOM     45  C   UNL     1       5.784   4.182  -9.878  1.00  0.00     0.009 A 
ATOM     46  C   UNL     1       3.477   4.492  -9.229  1.00  0.00     0.009 A 
ATOM     47  C   UNL     1       5.365   3.507 -11.028  1.00  0.00     0.001 A 
ATOM     48  C   UNL     1       3.061   3.801 -10.370  1.00  0.00     0.001 A 
ATOM     49  C   UNL     1       4.005   3.314 -11.271  1.00  0.00     0.000 A 
ENDBRANCH  25  44
BRANCH  37  50
ATOM     50  C   UNL     1       7.797  10.873  -7.663  1.00  0.00    -0.014 A 
ATOM     51  C   UNL     1       6.934  11.812  -8.245  1.00  0.00     0.009 A 
ATOM     52  C   UNL     1       9.182  11.003  -7.853  1.00  0.00     0.009 A 
ATOM     53  C   UNL     1       7.450  12.856  -9.014  1.00  0.00     0.001 A 
ATOM     54  C   UNL     1       9.695  12.058  -8.606  1.00  0.00     0.001 A 
ATOM     55  C   UNL     1       8.829  12.982  -9.188  1.00  0.00     0.000 A 
ENDBRANCH  37  50
ENDBRANCH  11  12
ENDBRANCH   4   6
ENDBRANCH   3   4
ENDBRANCH   2   3
ENDBRANCH   1   2
BRANCH   1  56
ATOM     56  O   UNL     1       3.630  -0.945  -1.526  1.00  0.00    -0.457 OA
BRANCH  56  57
ATOM     57  C   UNL     1       2.634  -1.268  -2.384  1.00  0.00     0.358 C 
ATOM     58  O   UNL     1       2.116  -2.368  -2.513  1.00  0.00    -0.244 OA
BRANCH  57  59
ATOM     59  C   UNL     1       2.273  -0.102  -3.207  1.00  0.00     0.170 A 
ATOM     60  C   UNL     1       2.623  -0.103  -4.546  1.00  0.00     0.147 A 
ATOM     61  N   UNL     1       1.464   0.844  -2.653  1.00  0.00    -0.203 NA
ATOM     62  N   UNL     1       2.198   0.860  -5.400  1.00  0.00    -0.257 NA
ATOM     63  C   UNL     1       0.989   1.766  -3.516  1.00  0.00     0.233 A 
ATOM     64  C   UNL     1       1.366   1.785  -4.854  1.00  0.00     0.179 A 
BRANCH  63  65
ATOM     65  O   UNL     1       0.058   2.700  -3.116  1.00  0.00    -0.471 OA
BRANCH  65  66
ATOM     66  C   UNL     1      -0.347   2.637  -1.745  1.00  0.00     0.292 C 
BRANCH  66  67
ATOM     67  C   UNL     1      -1.655   1.839  -1.538  1.00  0.00     0.304 C 
BRANCH  67  68
ATOM     68  N   UNL     1      -1.664   0.612  -0.735  1.00  0.00    -0.332 N 
ATOM     69  C   UNL     1      -1.279  -0.597  -1.446  1.00  0.00     0.262 C 
ATOM     70  C   UNL     1      -0.898   0.632   0.507  1.00  0.00     0.262 C 
ATOM     71  H   UNL     1      -2.657   0.589  -0.502  1.00  0.00     0.348 HD
ATOM     72  C   UNL     1      -1.164  -1.629  -0.338  1.00  0.00     0.067 C 
ATOM     73  C   UNL     1      -0.800  -0.835   0.910  1.00  0.00     0.067 C 
ENDBRANCH  67  68
ENDBRANCH  66  67
ENDBRANCH  65  66
ENDBRANCH  63  65
ENDBRANCH  57  59
ENDBRANCH  56  57
ENDBRANCH   1  56
TORSDOF 15
