REMARK SMILES CCC(CC)N(CC(C)C)C(=O)N[C@H](C)C(=O)OCCOC(=O)c1ccc(-c2c3nc(c(-c4ccccc4)c4ccc([nH]4)c(-c4ccccc4)c4nc(c(-c5ccccc5)c5ccc2[nH]5)C=C4)C=C3)cc1
REMARK SMILES IDX 19 1 18 2 16 3 17 4 14 5 15 6 13 7 11 8 12 9 6 11 3 12 2 13
REMARK SMILES IDX 1 14 4 15 5 16 7 17 8 18 9 19 10 20 20 21 21 22 22 23 23 24
REMARK SMILES IDX 24 25 25 26 71 27 26 28 70 29 27 30 28 31 29 32 64 33 30 34
REMARK SMILES IDX 69 35 63 36 65 37 31 38 68 39 62 40 61 41 32 43 54 44 39 45
REMARK SMILES IDX 53 46 40 47 43 48 52 49 66 50 41 51 42 52 51 54 67 55 44 56
REMARK SMILES IDX 33 57 34 58 38 59 35 60 37 61 36 62 55 63 56 64 60 65 57 66
REMARK SMILES IDX 59 67 58 68 45 69 46 70 50 71 47 72 49 73 48 74
REMARK H PARENT 13 10 65 42 43 53
REMARK Flexibility Score: inf
ROOT
ATOM      1  C   UNL     1      -2.097   8.620  -2.012  1.00  0.00     0.274 C 
ENDROOT
BRANCH   1   2
ATOM      2  O   UNL     1      -2.348   7.319  -2.575  1.00  0.00    -0.461 OA
BRANCH   2   3
ATOM      3  C   UNL     1      -1.445   6.848  -3.474  1.00  0.00     0.328 C 
ATOM      4  O   UNL     1      -0.503   7.499  -3.916  1.00  0.00    -0.250 OA
BRANCH   3   5
ATOM      5  C   UNL     1      -1.666   5.360  -3.812  1.00  0.00     0.190 C 
ATOM      6  C   UNL     1      -3.066   4.865  -3.468  1.00  0.00     0.043 C 
BRANCH   5   7
ATOM      7  N   UNL     1      -1.391   5.175  -5.243  1.00  0.00    -0.325 N 
ATOM      8  C   UNL     1      -1.253   4.147  -6.096  1.00  0.00     0.318 C 
ATOM      9  O   UNL     1      -1.379   4.474  -7.280  1.00  0.00    -0.249 OA
ATOM     10  H   UNL     1      -1.277   6.039  -5.700  1.00  0.00     0.166 HD
BRANCH   8  11
ATOM     11  N   UNL     1      -1.004   2.854  -5.707  1.00  0.00    -0.322 N 
BRANCH  11  12
ATOM     12  C   UNL     1      -1.054   1.770  -6.731  1.00  0.00     0.086 C 
BRANCH  12  13
ATOM     13  C   UNL     1      -2.392   1.745  -7.506  1.00  0.00     0.022 C 
ATOM     14  C   UNL     1      -2.617   0.454  -8.281  1.00  0.00     0.006 C 
ENDBRANCH  12  13
BRANCH  12  15
ATOM     15  C   UNL     1       0.218   1.640  -7.602  1.00  0.00     0.022 C 
ATOM     16  C   UNL     1       0.446   2.690  -8.677  1.00  0.00     0.006 C 
ENDBRANCH  12  15
ENDBRANCH  11  12
BRANCH  11  17
ATOM     17  C   UNL     1      -0.548   2.429  -4.379  1.00  0.00     0.124 C 
BRANCH  17  18
ATOM     18  C   UNL     1       0.979   2.459  -4.162  1.00  0.00     0.002 C 
ATOM     19  C   UNL     1       1.677   3.701  -4.717  1.00  0.00     0.009 C 
ATOM     20  C   UNL     1       1.277   2.310  -2.667  1.00  0.00     0.009 C 
ENDBRANCH  17  18
ENDBRANCH  11  17
ENDBRANCH   8  11
ENDBRANCH   5   7
ENDBRANCH   3   5
ENDBRANCH   2   3
ENDBRANCH   1   2
BRANCH   1  21
ATOM     21  C   UNL     1      -1.683   8.485  -0.544  1.00  0.00     0.275 C 
BRANCH  21  22
ATOM     22  O   UNL     1      -0.331   8.003  -0.409  1.00  0.00    -0.458 OA
BRANCH  22  23
ATOM     23  C   UNL     1      -0.192   6.659  -0.404  1.00  0.00     0.338 C 
ATOM     24  O   UNL     1      -1.064   5.815  -0.513  1.00  0.00    -0.246 OA
BRANCH  23  25
ATOM     25  C   UNL     1       1.233   6.312  -0.350  1.00  0.00     0.060 A 
ATOM     26  C   UNL     1       1.824   5.793  -1.500  1.00  0.00     0.016 A 
ATOM     27  C   UNL     1       1.944   6.376   0.848  1.00  0.00     0.016 A 
ATOM     28  C   UNL     1       3.116   5.275  -1.443  1.00  0.00     0.010 A 
ATOM     29  C   UNL     1       3.258   5.896   0.890  1.00  0.00     0.010 A 
ATOM     30  C   UNL     1       3.848   5.315  -0.247  1.00  0.00    -0.014 A 
BRANCH  30  31
ATOM     31  C   UNL     1       5.213   4.729  -0.183  1.00  0.00     0.031 A 
ATOM     32  C   UNL     1       5.499   3.543   0.699  1.00  0.00     0.074 A 
ATOM     33  C   UNL     1       6.211   5.258  -0.916  1.00  0.00     0.049 A 
ATOM     34  N   UNL     1       6.648   2.980   0.981  1.00  0.00    -0.248 NA
ATOM     35  C   UNL     1       4.344   2.914   1.357  1.00  0.00     0.031 C 
ATOM     36  C   UNL     1       6.080   6.387  -1.838  1.00  0.00     0.029 A 
ATOM     37  N   UNL     1       7.537   4.912  -0.999  1.00  0.00    -0.354 N 
ATOM     38  C   UNL     1       6.363   1.967   1.887  1.00  0.00     0.074 A 
ATOM     39  C   UNL     1       4.931   1.991   2.106  1.00  0.00     0.031 C 
ATOM     40  C   UNL     1       7.270   6.628  -2.408  1.00  0.00     0.029 A 
ATOM     41  C   UNL     1       8.260   5.713  -1.847  1.00  0.00     0.049 A 
ATOM     42  H   UNL     1       7.931   4.161  -0.498  1.00  0.00     0.167 HD
ATOM     43  C   UNL     1       7.213   1.100   2.488  1.00  0.00     0.031 A 
ATOM     44  C   UNL     1       9.577   5.738  -2.123  1.00  0.00     0.031 A 
ATOM     45  C   UNL     1       8.632   1.044   2.250  1.00  0.00     0.049 A 
ATOM     46  C   UNL     1      10.503   4.777  -1.439  1.00  0.00     0.074 A 
ATOM     47  C   UNL     1       9.563   0.171   2.789  1.00  0.00     0.029 A 
ATOM     48  N   UNL     1       9.324   1.887   1.397  1.00  0.00    -0.354 N 
ATOM     49  N   UNL     1      10.220   3.843  -0.565  1.00  0.00    -0.248 NA
ATOM     50  C   UNL     1      11.931   4.884  -1.771  1.00  0.00     0.031 C 
ATOM     51  C   UNL     1      10.825   0.512   2.290  1.00  0.00     0.029 A 
ATOM     52  C   UNL     1      10.673   1.571   1.410  1.00  0.00     0.049 A 
ATOM     53  H   UNL     1       8.918   2.606   0.861  1.00  0.00     0.167 HD
ATOM     54  C   UNL     1      11.434   3.251  -0.240  1.00  0.00     0.074 A 
ATOM     55  C   UNL     1      12.451   3.916  -1.028  1.00  0.00     0.031 C 
ATOM     56  C   UNL     1      11.680   2.250   0.639  1.00  0.00     0.031 A 
BRANCH  43  57
ATOM     57  C   UNL     1       6.631   0.163   3.508  1.00  0.00    -0.014 A 
ATOM     58  C   UNL     1       5.872  -0.954   3.130  1.00  0.00     0.009 A 
ATOM     59  C   UNL     1       6.873   0.394   4.872  1.00  0.00     0.009 A 
ATOM     60  C   UNL     1       5.338  -1.803   4.103  1.00  0.00     0.001 A 
ATOM     61  C   UNL     1       6.356  -0.468   5.839  1.00  0.00     0.001 A 
ATOM     62  C   UNL     1       5.582  -1.561   5.455  1.00  0.00     0.000 A 
ENDBRANCH  43  57
BRANCH  44  63
ATOM     63  C   UNL     1      10.099   6.752  -3.072  1.00  0.00    -0.014 A 
ATOM     64  C   UNL     1      10.476   6.386  -4.371  1.00  0.00     0.009 A 
ATOM     65  C   UNL     1      10.184   8.101  -2.689  1.00  0.00     0.009 A 
ATOM     66  C   UNL     1      10.932   7.352  -5.270  1.00  0.00     0.001 A 
ATOM     67  C   UNL     1      10.618   9.067  -3.597  1.00  0.00     0.001 A 
ATOM     68  C   UNL     1      10.995   8.691  -4.885  1.00  0.00     0.000 A 
ENDBRANCH  44  63
BRANCH  56  69
ATOM     69  C   UNL     1      13.107   1.813   0.792  1.00  0.00    -0.014 A 
ATOM     70  C   UNL     1      14.020   2.581   1.531  1.00  0.00     0.009 A 
ATOM     71  C   UNL     1      13.537   0.608   0.215  1.00  0.00     0.009 A 
ATOM     72  C   UNL     1      15.346   2.163   1.667  1.00  0.00     0.001 A 
ATOM     73  C   UNL     1      14.858   0.184   0.369  1.00  0.00     0.001 A 
ATOM     74  C   UNL     1      15.763   0.965   1.088  1.00  0.00     0.000 A 
ENDBRANCH  56  69
ENDBRANCH  30  31
ENDBRANCH  23  25
ENDBRANCH  22  23
ENDBRANCH  21  22
ENDBRANCH   1  21
TORSDOF 18
