REMARK SMILES COc1cc([C@@H]2CC(=O)Nc3c(C(=O)OCCOC(=O)c4ccc(-c5c6nc(c(-c7ccccc7)c7ccc([nH]7)c(-c7ccccc7)c7nc(c(-c8ccccc8)c8ccc5[nH]8)C=C7)C=C6)cc4)cn(-c4ccc(F)cc4)c32)c(OC)c2c1OCO2
REMARK SMILES IDX 16 1 15 2 13 3 14 4 12 5 6 6 7 7 78 8 8 9 11 10 70 11 9 12
REMARK SMILES IDX 10 13 69 14 5 16 3 17 4 18 83 19 82 20 84 21 79 22 86 23
REMARK SMILES IDX 85 24 2 25 1 26 80 27 81 28 71 29 72 30 77 31 73 32 76 33
REMARK SMILES IDX 74 34 75 35 17 36 18 37 19 38 20 39 21 40 22 41 68 42 23 43
REMARK SMILES IDX 67 44 24 45 25 46 26 47 61 48 27 49 66 50 60 51 62 52 28 53
REMARK SMILES IDX 65 54 59 55 58 56 29 58 51 59 36 60 50 61 37 62 40 63 49 64
REMARK SMILES IDX 63 65 38 66 39 67 48 69 64 70 41 71 30 72 31 73 35 74 32 75
REMARK SMILES IDX 34 76 33 77 52 78 53 79 57 80 54 81 56 82 55 83 42 84 43 85
REMARK SMILES IDX 47 86 44 87 46 88 45 89
REMARK H PARENT 10 15 62 57 40 68
REMARK Flexibility Score: inf
ROOT
ATOM      1  C   UNL     1      -0.436  11.832  -2.162  1.00  0.00     0.275 C 
ENDROOT
BRANCH   1   2
ATOM      2  O   UNL     1      -0.367  10.395  -2.161  1.00  0.00    -0.458 OA
BRANCH   2   3
ATOM      3  C   UNL     1      -0.776   9.758  -1.019  1.00  0.00     0.341 C 
ATOM      4  O   UNL     1      -1.015  10.325   0.043  1.00  0.00    -0.246 OA
BRANCH   3   5
ATOM      5  C   UNL     1      -0.978   8.332  -1.226  1.00  0.00     0.102 A 
ATOM      6  C   UNL     1      -0.598   5.082  -2.985  1.00  0.00     0.082 C 
ATOM      7  C   UNL     1      -0.320   5.623  -4.402  1.00  0.00     0.115 C 
ATOM      8  C   UNL     1      -0.904   6.220  -2.055  1.00  0.00     0.055 A 
ATOM      9  C   UNL     1       0.344   6.992  -4.474  1.00  0.00     0.225 C 
ATOM     10  C   UNL     1      -0.574   7.528  -2.314  1.00  0.00     0.078 A 
ATOM     11  N   UNL     1      -1.624   6.195  -0.877  1.00  0.00    -0.317 N 
ATOM     12  O   UNL     1       0.999   7.341  -5.457  1.00  0.00    -0.275 OA
ATOM     13  N   UNL     1       0.078   7.883  -3.468  1.00  0.00    -0.324 N 
ATOM     14  C   UNL     1      -1.700   7.486  -0.392  1.00  0.00     0.109 A 
ATOM     15  H   UNL     1       0.367   8.818  -3.578  1.00  0.00     0.170 HD
BRANCH   6  16
ATOM     16  C   UNL     1       0.511   4.144  -2.500  1.00  0.00     0.012 A 
ATOM     17  C   UNL     1       1.068   1.868  -1.752  1.00  0.00     0.165 A 
ATOM     18  C   UNL     1       0.167   2.781  -2.300  1.00  0.00     0.059 A 
ATOM     19  C   UNL     1       2.353   2.308  -1.508  1.00  0.00     0.211 A 
ATOM     20  C   UNL     1       2.727   3.618  -1.745  1.00  0.00     0.211 A 
ATOM     21  O   UNL     1       3.386   1.553  -1.037  1.00  0.00    -0.449 OA
ATOM     22  C   UNL     1       1.831   4.567  -2.223  1.00  0.00     0.168 A 
ATOM     23  O   UNL     1       4.042   3.819  -1.434  1.00  0.00    -0.449 OA
ATOM     24  C   UNL     1       4.468   2.492  -1.093  1.00  0.00     0.468 C 
BRANCH  17  25
ATOM     25  O   UNL     1       0.590   0.610  -1.530  1.00  0.00    -0.493 OA
ATOM     26  C   UNL     1       0.995   0.047  -0.284  1.00  0.00     0.278 C 
ENDBRANCH  17  25
BRANCH  22  27
ATOM     27  O   UNL     1       2.098   5.884  -2.445  1.00  0.00    -0.492 OA
ATOM     28  C   UNL     1       3.430   6.354  -2.310  1.00  0.00     0.278 C 
ENDBRANCH  22  27
ENDBRANCH   6  16
BRANCH  11  29
ATOM     29  C   UNL     1      -2.203   5.069  -0.255  1.00  0.00     0.046 A 
ATOM     30  C   UNL     1      -1.375   4.043   0.205  1.00  0.00     0.029 A 
ATOM     31  C   UNL     1      -3.594   4.978  -0.130  1.00  0.00     0.029 A 
ATOM     32  C   UNL     1      -1.939   2.875   0.715  1.00  0.00     0.041 A 
ATOM     33  C   UNL     1      -4.152   3.802   0.381  1.00  0.00     0.041 A 
ATOM     34  C   UNL     1      -3.322   2.758   0.783  1.00  0.00     0.123 A 
ATOM     35  F   UNL     1      -3.862   1.622   1.243  1.00  0.00    -0.207 F 
ENDBRANCH  11  29
ENDBRANCH   3   5
ENDBRANCH   2   3
ENDBRANCH   1   2
BRANCH   1  36
ATOM     36  C   UNL     1      -1.817  12.327  -2.575  1.00  0.00     0.275 C 
BRANCH  36  37
ATOM     37  O   UNL     1      -2.768  12.073  -1.545  1.00  0.00    -0.458 OA
BRANCH  37  38
ATOM     38  C   UNL     1      -3.444  10.908  -1.654  1.00  0.00     0.338 C 
ATOM     39  O   UNL     1      -3.238  10.009  -2.451  1.00  0.00    -0.246 OA
BRANCH  38  40
ATOM     40  C   UNL     1      -4.629  10.964  -0.794  1.00  0.00     0.060 A 
ATOM     41  C   UNL     1      -5.488   9.862  -0.843  1.00  0.00     0.016 A 
ATOM     42  C   UNL     1      -5.029  12.201  -0.271  1.00  0.00     0.016 A 
ATOM     43  C   UNL     1      -6.825  10.072  -0.599  1.00  0.00     0.010 A 
ATOM     44  C   UNL     1      -6.365  12.416  -0.056  1.00  0.00     0.010 A 
ATOM     45  C   UNL     1      -7.250  11.373  -0.315  1.00  0.00    -0.014 A 
BRANCH  45  46
ATOM     46  C   UNL     1      -8.669  11.629  -0.260  1.00  0.00     0.031 A 
ATOM     47  C   UNL     1      -9.299  11.174   0.996  1.00  0.00     0.074 A 
ATOM     48  C   UNL     1      -9.293  12.345  -1.212  1.00  0.00     0.049 A 
ATOM     49  N   UNL     1     -10.195  10.259   1.151  1.00  0.00    -0.248 NA
ATOM     50  C   UNL     1      -8.744  11.704   2.252  1.00  0.00     0.031 C 
ATOM     51  C   UNL     1      -8.696  13.108  -2.313  1.00  0.00     0.029 A 
ATOM     52  N   UNL     1     -10.611  12.655  -1.303  1.00  0.00    -0.354 N 
ATOM     53  C   UNL     1     -10.449  10.219   2.517  1.00  0.00     0.074 A 
ATOM     54  C   UNL     1      -9.406  10.981   3.152  1.00  0.00     0.031 C 
ATOM     55  C   UNL     1      -9.613  13.982  -2.789  1.00  0.00     0.029 A 
ATOM     56  C   UNL     1     -10.880  13.745  -2.116  1.00  0.00     0.049 A 
ATOM     57  H   UNL     1     -11.314  12.150  -0.833  1.00  0.00     0.167 HD
ATOM     58  C   UNL     1     -11.642   9.790   3.009  1.00  0.00     0.031 A 
ATOM     59  C   UNL     1     -12.037  14.450  -2.143  1.00  0.00     0.031 A 
ATOM     60  C   UNL     1     -12.387   9.044   2.030  1.00  0.00     0.049 A 
ATOM     61  C   UNL     1     -13.081  13.626  -1.484  1.00  0.00     0.074 A 
ATOM     62  C   UNL     1     -12.169   7.878   1.324  1.00  0.00     0.029 A 
ATOM     63  N   UNL     1     -13.395   9.707   1.371  1.00  0.00    -0.354 N 
ATOM     64  N   UNL     1     -13.548  12.517  -1.985  1.00  0.00    -0.248 NA
ATOM     65  C   UNL     1     -13.277  13.790  -0.050  1.00  0.00     0.031 C 
ATOM     66  C   UNL     1     -12.719   8.123   0.033  1.00  0.00     0.029 A 
ATOM     67  C   UNL     1     -13.286   9.399   0.041  1.00  0.00     0.049 A 
ATOM     68  H   UNL     1     -14.070  10.295   1.780  1.00  0.00     0.167 HD
ATOM     69  C   UNL     1     -13.706  11.671  -0.895  1.00  0.00     0.074 A 
ATOM     70  C   UNL     1     -13.617  12.540   0.277  1.00  0.00     0.031 C 
ATOM     71  C   UNL     1     -13.602  10.316  -1.031  1.00  0.00     0.031 A 
BRANCH  58  72
ATOM     72  C   UNL     1     -12.302  10.421   4.208  1.00  0.00    -0.014 A 
ATOM     73  C   UNL     1     -13.534   9.903   4.643  1.00  0.00     0.009 A 
ATOM     74  C   UNL     1     -11.916  11.667   4.741  1.00  0.00     0.009 A 
ATOM     75  C   UNL     1     -14.370  10.636   5.493  1.00  0.00     0.001 A 
ATOM     76  C   UNL     1     -12.727  12.380   5.625  1.00  0.00     0.001 A 
ATOM     77  C   UNL     1     -13.970  11.879   5.975  1.00  0.00     0.000 A 
ENDBRANCH  58  72
BRANCH  59  78
ATOM     78  C   UNL     1     -12.215  15.897  -2.395  1.00  0.00    -0.014 A 
ATOM     79  C   UNL     1     -13.475  16.422  -2.717  1.00  0.00     0.009 A 
ATOM     80  C   UNL     1     -11.192  16.808  -2.066  1.00  0.00     0.009 A 
ATOM     81  C   UNL     1     -13.709  17.805  -2.683  1.00  0.00     0.001 A 
ATOM     82  C   UNL     1     -11.424  18.187  -2.036  1.00  0.00     0.001 A 
ATOM     83  C   UNL     1     -12.688  18.684  -2.331  1.00  0.00     0.000 A 
ENDBRANCH  59  78
BRANCH  71  84
ATOM     84  C   UNL     1     -13.531   9.746  -2.425  1.00  0.00    -0.014 A 
ATOM     85  C   UNL     1     -12.466  10.013  -3.303  1.00  0.00     0.009 A 
ATOM     86  C   UNL     1     -14.463   8.762  -2.786  1.00  0.00     0.009 A 
ATOM     87  C   UNL     1     -12.347   9.323  -4.514  1.00  0.00     0.001 A 
ATOM     88  C   UNL     1     -14.333   8.059  -3.985  1.00  0.00     0.001 A 
ATOM     89  C   UNL     1     -13.276   8.340  -4.849  1.00  0.00     0.000 A 
ENDBRANCH  71  84
ENDBRANCH  45  46
ENDBRANCH  38  40
ENDBRANCH  37  38
ENDBRANCH  36  37
ENDBRANCH   1  36
TORSDOF 15
