REMARK SMILES COc1ccc(OC)c(C[NH2+][C@@H](C(=O)OCCOC(=O)c2ccc(-c3c4nc(c(-c5ccccc5)c5ccc([nH]5)c(-c5ccccc5)c5nc(c(-c6ccccc6)c6ccc3[nH]6)C=C5)C=C4)cc2)C(C)C)c1
REMARK SMILES IDX 16 1 15 2 13 3 14 4 12 5 11 6 10 9 9 10 3 11 4 12 72 13 5 14
REMARK SMILES IDX 6 15 2 16 1 17 7 18 8 19 69 20 70 21 71 22 17 23 18 24 19 25
REMARK SMILES IDX 20 26 21 27 22 28 68 29 23 30 67 31 24 32 25 33 26 34 61 35
REMARK SMILES IDX 27 36 66 37 60 38 62 39 28 40 65 41 59 42 58 43 29 45 51 46
REMARK SMILES IDX 36 47 50 48 37 49 40 50 49 51 63 52 38 53 39 54 48 56 64 57
REMARK SMILES IDX 41 58 30 59 31 60 35 61 32 62 34 63 33 64 52 65 53 66 57 67
REMARK SMILES IDX 54 68 56 69 55 70 42 71 43 72 47 73 44 74 46 75 45 76
REMARK H PARENT 11 7 11 8 62 44 40 55
REMARK Flexibility Score: inf
ROOT
ATOM      1  C   UNL     1       7.434  -1.599   1.328  1.00  0.00     0.274 C 
ENDROOT
BRANCH   1   2
ATOM      2  O   UNL     1       6.568  -2.062   2.386  1.00  0.00    -0.458 OA
BRANCH   2   3
ATOM      3  C   UNL     1       7.044  -3.050   3.196  1.00  0.00     0.365 C 
ATOM      4  O   UNL     1       8.170  -3.523   3.097  1.00  0.00    -0.245 OA
BRANCH   3   5
ATOM      5  C   UNL     1       5.994  -3.544   4.233  1.00  0.00     0.296 C 
BRANCH   5   6
ATOM      6  N   UNL     1       4.695  -2.840   4.107  1.00  0.00    -0.330 N 
ATOM      7  H   UNL     1       4.167  -2.982   4.968  1.00  0.00     0.347 HD
ATOM      8  H   UNL     1       4.904  -1.856   3.936  1.00  0.00     0.347 HD
BRANCH   6   9
ATOM      9  C   UNL     1       3.883  -3.302   2.988  1.00  0.00     0.302 C 
BRANCH   9  10
ATOM     10  C   UNL     1       2.458  -2.809   3.100  1.00  0.00     0.052 A 
ATOM     11  C   UNL     1       0.791  -1.216   2.247  1.00  0.00     0.119 A 
ATOM     12  C   UNL     1      -0.121  -1.675   3.189  1.00  0.00     0.050 A 
ATOM     13  C   UNL     1       2.073  -1.767   2.218  1.00  0.00     0.059 A 
ATOM     14  C   UNL     1       0.241  -2.685   4.079  1.00  0.00     0.051 A 
ATOM     15  C   UNL     1       1.517  -3.268   4.039  1.00  0.00     0.127 A 
BRANCH  11  16
ATOM     16  O   UNL     1       0.332  -0.213   1.438  1.00  0.00    -0.497 OA
ATOM     17  C   UNL     1       1.051   0.001   0.230  1.00  0.00     0.278 C 
ENDBRANCH  11  16
BRANCH  15  18
ATOM     18  O   UNL     1       1.700  -4.181   5.041  1.00  0.00    -0.496 OA
ATOM     19  C   UNL     1       2.417  -5.364   4.733  1.00  0.00     0.278 C 
ENDBRANCH  15  18
ENDBRANCH   9  10
ENDBRANCH   6   9
ENDBRANCH   5   6
BRANCH   5  20
ATOM     20  C   UNL     1       6.458  -3.415   5.715  1.00  0.00     0.053 C 
ATOM     21  C   UNL     1       5.449  -4.035   6.695  1.00  0.00     0.014 C 
ATOM     22  C   UNL     1       7.828  -4.050   5.986  1.00  0.00     0.014 C 
ENDBRANCH   5  20
ENDBRANCH   3   5
ENDBRANCH   2   3
ENDBRANCH   1   2
BRANCH   1  23
ATOM     23  C   UNL     1       7.389  -0.073   1.260  1.00  0.00     0.275 C 
BRANCH  23  24
ATOM     24  O   UNL     1       7.986   0.471   2.451  1.00  0.00    -0.458 OA
BRANCH  24  25
ATOM     25  C   UNL     1       7.108   0.795   3.425  1.00  0.00     0.338 C 
ATOM     26  O   UNL     1       5.888   0.798   3.364  1.00  0.00    -0.246 OA
BRANCH  25  27
ATOM     27  C   UNL     1       7.838   0.979   4.683  1.00  0.00     0.060 A 
ATOM     28  C   UNL     1       8.082  -0.158   5.447  1.00  0.00     0.016 A 
ATOM     29  C   UNL     1       8.132   2.243   5.184  1.00  0.00     0.016 A 
ATOM     30  C   UNL     1       8.506  -0.037   6.766  1.00  0.00     0.010 A 
ATOM     31  C   UNL     1       8.656   2.356   6.479  1.00  0.00     0.010 A 
ATOM     32  C   UNL     1       8.802   1.223   7.305  1.00  0.00    -0.014 A 
BRANCH  32  33
ATOM     33  C   UNL     1       9.191   1.354   8.739  1.00  0.00     0.031 A 
ATOM     34  C   UNL     1       8.366   2.204   9.674  1.00  0.00     0.074 A 
ATOM     35  C   UNL     1      10.250   0.683   9.237  1.00  0.00     0.049 A 
ATOM     36  N   UNL     1       8.627   2.578  10.902  1.00  0.00    -0.248 NA
ATOM     37  C   UNL     1       7.084   2.710   9.156  1.00  0.00     0.031 C 
ATOM     38  C   UNL     1      11.111  -0.233   8.486  1.00  0.00     0.029 A 
ATOM     39  N   UNL     1      10.771   0.655  10.508  1.00  0.00    -0.354 N 
ATOM     40  C   UNL     1       7.582   3.414  11.276  1.00  0.00     0.074 A 
ATOM     41  C   UNL     1       6.678   3.488  10.148  1.00  0.00     0.031 C 
ATOM     42  C   UNL     1      12.011  -0.775   9.320  1.00  0.00     0.029 A 
ATOM     43  C   UNL     1      11.853  -0.180  10.643  1.00  0.00     0.049 A 
ATOM     44  H   UNL     1      10.402   1.184  11.253  1.00  0.00     0.167 HD
ATOM     45  C   UNL     1       7.392   4.067  12.448  1.00  0.00     0.031 A 
ATOM     46  C   UNL     1      12.654  -0.420  11.698  1.00  0.00     0.031 A 
ATOM     47  C   UNL     1       8.250   3.954  13.596  1.00  0.00     0.049 A 
ATOM     48  C   UNL     1      12.434   0.326  12.982  1.00  0.00     0.074 A 
ATOM     49  C   UNL     1       8.143   4.591  14.821  1.00  0.00     0.029 A 
ATOM     50  N   UNL     1       9.356   3.124  13.672  1.00  0.00    -0.354 N 
ATOM     51  N   UNL     1      11.499   1.192  13.284  1.00  0.00    -0.248 NA
ATOM     52  C   UNL     1      13.400   0.077  14.063  1.00  0.00     0.031 C 
ATOM     53  C   UNL     1       9.201   4.162  15.632  1.00  0.00     0.029 A 
ATOM     54  C   UNL     1       9.942   3.233  14.922  1.00  0.00     0.049 A 
ATOM     55  H   UNL     1       9.679   2.544  12.946  1.00  0.00     0.167 HD
ATOM     56  C   UNL     1      11.761   1.589  14.588  1.00  0.00     0.074 A 
ATOM     57  C   UNL     1      12.926   0.851  15.029  1.00  0.00     0.031 C 
ATOM     58  C   UNL     1      11.100   2.495  15.348  1.00  0.00     0.031 A 
BRANCH  45  59
ATOM     59  C   UNL     1       6.224   5.008  12.529  1.00  0.00    -0.014 A 
ATOM     60  C   UNL     1       4.911   4.539  12.683  1.00  0.00     0.009 A 
ATOM     61  C   UNL     1       6.452   6.392  12.476  1.00  0.00     0.009 A 
ATOM     62  C   UNL     1       3.846   5.440  12.752  1.00  0.00     0.001 A 
ATOM     63  C   UNL     1       5.388   7.290  12.568  1.00  0.00     0.001 A 
ATOM     64  C   UNL     1       4.085   6.813  12.697  1.00  0.00     0.000 A 
ENDBRANCH  45  59
BRANCH  46  65
ATOM     65  C   UNL     1      13.780  -1.380  11.570  1.00  0.00    -0.014 A 
ATOM     66  C   UNL     1      13.739  -2.618  12.229  1.00  0.00     0.009 A 
ATOM     67  C   UNL     1      14.905  -1.059  10.795  1.00  0.00     0.009 A 
ATOM     68  C   UNL     1      14.809  -3.509  12.125  1.00  0.00     0.001 A 
ATOM     69  C   UNL     1      15.961  -1.963  10.671  1.00  0.00     0.001 A 
ATOM     70  C   UNL     1      15.916  -3.183  11.342  1.00  0.00     0.000 A 
ENDBRANCH  46  65
BRANCH  58  71
ATOM     71  C   UNL     1      11.612   2.717  16.741  1.00  0.00    -0.014 A 
ATOM     72  C   UNL     1      12.766   3.482  16.973  1.00  0.00     0.009 A 
ATOM     73  C   UNL     1      10.919   2.175  17.834  1.00  0.00     0.009 A 
ATOM     74  C   UNL     1      13.234   3.673  18.274  1.00  0.00     0.001 A 
ATOM     75  C   UNL     1      11.379   2.384  19.134  1.00  0.00     0.001 A 
ATOM     76  C   UNL     1      12.539   3.126  19.353  1.00  0.00     0.000 A 
ENDBRANCH  58  71
ENDBRANCH  32  33
ENDBRANCH  25  27
ENDBRANCH  24  25
ENDBRANCH  23  24
ENDBRANCH   1  23
TORSDOF 17
