REMARK SMILES CCCN(CC)S(=O)(=O)c1ccc(C(=O)OCCOC(=O)c2ccc(-c3c4nc(c(-c5ccccc5)c5ccc([nH]5)c(-c5ccccc5)c5nc(c(-c6ccccc6)c6ccc3[nH]6)C=C5)C=C4)cc2)o1
REMARK SMILES IDX 17 1 16 2 14 3 15 4 13 5 10 6 11 7 70 8 12 9 7 10 8 11 9 12
REMARK SMILES IDX 4 13 3 14 2 15 1 16 5 17 6 18 18 19 19 20 20 21 21 22 22 23
REMARK SMILES IDX 23 24 69 25 24 26 68 27 25 28 26 29 27 30 62 31 28 32 67 33
REMARK SMILES IDX 61 34 63 35 29 36 66 37 60 38 59 39 30 41 52 42 37 43 51 44
REMARK SMILES IDX 38 45 41 46 50 47 64 48 39 49 40 50 49 52 65 53 42 54 31 55
REMARK SMILES IDX 32 56 36 57 33 58 35 59 34 60 53 61 54 62 58 63 55 64 57 65
REMARK SMILES IDX 56 66 43 67 44 68 48 69 45 70 47 71 46 72
REMARK H PARENT 63 40 41 51
REMARK Flexibility Score: inf
ROOT
ATOM      1  C   UNL     1      -1.124  -4.058  -8.894  1.00  0.00     0.275 C 
ENDROOT
BRANCH   1   2
ATOM      2  O   UNL     1      -0.498  -4.118  -7.599  1.00  0.00    -0.456 OA
BRANCH   2   3
ATOM      3  C   UNL     1       0.102  -2.974  -7.155  1.00  0.00     0.374 C 
ATOM      4  O   UNL     1       0.231  -1.953  -7.820  1.00  0.00    -0.242 OA
BRANCH   3   5
ATOM      5  C   UNL     1       0.479  -3.126  -5.767  1.00  0.00     0.213 A 
ATOM      6  C   UNL     1       1.009  -2.359  -3.735  1.00  0.00     0.234 A 
ATOM      7  C   UNL     1       0.855  -3.739  -3.649  1.00  0.00     0.065 A 
ATOM      8  O   UNL     1       0.824  -2.005  -5.055  1.00  0.00    -0.436 OA
ATOM      9  C   UNL     1       0.514  -4.223  -4.930  1.00  0.00     0.060 A 
BRANCH   6  10
ATOM     10  S   UNL     1       1.357  -1.188  -2.410  1.00  0.00     0.276 S 
ATOM     11  O   UNL     1       2.792  -1.251  -2.238  1.00  0.00    -0.204 OA
ATOM     12  O   UNL     1       0.467  -1.645  -1.363  1.00  0.00    -0.204 OA
BRANCH  10  13
ATOM     13  N   UNL     1       0.925   0.423  -2.797  1.00  0.00    -0.195 NA
BRANCH  13  14
ATOM     14  C   UNL     1       1.198   1.427  -1.708  1.00  0.00     0.102 C 
BRANCH  14  15
ATOM     15  C   UNL     1       0.329   1.285  -0.458  1.00  0.00     0.013 C 
ATOM     16  C   UNL     1       0.964   0.461   0.660  1.00  0.00     0.005 C 
ENDBRANCH  14  15
ENDBRANCH  13  14
BRANCH  13  17
ATOM     17  C   UNL     1       1.361   0.954  -4.127  1.00  0.00     0.099 C 
ATOM     18  C   UNL     1       2.862   1.121  -4.282  1.00  0.00     0.022 C 
ENDBRANCH  13  17
ENDBRANCH  10  13
ENDBRANCH   6  10
ENDBRANCH   3   5
ENDBRANCH   2   3
ENDBRANCH   1   2
BRANCH   1  19
ATOM     19  C   UNL     1      -2.626  -3.765  -8.785  1.00  0.00     0.275 C 
BRANCH  19  20
ATOM     20  O   UNL     1      -2.880  -2.403  -8.389  1.00  0.00    -0.458 OA
BRANCH  20  21
ATOM     21  C   UNL     1      -3.007  -2.206  -7.055  1.00  0.00     0.338 C 
ATOM     22  O   UNL     1      -2.970  -3.062  -6.186  1.00  0.00    -0.246 OA
BRANCH  21  23
ATOM     23  C   UNL     1      -3.029  -0.761  -6.755  1.00  0.00     0.060 A 
ATOM     24  C   UNL     1      -2.183  -0.306  -5.741  1.00  0.00     0.016 A 
ATOM     25  C   UNL     1      -3.883   0.130  -7.410  1.00  0.00     0.016 A 
ATOM     26  C   UNL     1      -2.171   1.038  -5.387  1.00  0.00     0.010 A 
ATOM     27  C   UNL     1      -3.875   1.485  -7.050  1.00  0.00     0.010 A 
ATOM     28  C   UNL     1      -3.016   1.945  -6.037  1.00  0.00    -0.014 A 
BRANCH  28  29
ATOM     29  C   UNL     1      -3.015   3.358  -5.592  1.00  0.00     0.031 A 
ATOM     30  C   UNL     1      -4.069   3.842  -4.641  1.00  0.00     0.074 A 
ATOM     31  C   UNL     1      -2.021   4.182  -5.973  1.00  0.00     0.049 A 
ATOM     32  N   UNL     1      -4.214   5.026  -4.102  1.00  0.00    -0.248 NA
ATOM     33  C   UNL     1      -5.089   2.862  -4.237  1.00  0.00     0.031 C 
ATOM     34  C   UNL     1      -0.905   3.815  -6.845  1.00  0.00     0.029 A 
ATOM     35  N   UNL     1      -1.784   5.497  -5.659  1.00  0.00    -0.354 N 
ATOM     36  C   UNL     1      -5.341   4.936  -3.297  1.00  0.00     0.074 A 
ATOM     37  C   UNL     1      -5.855   3.589  -3.436  1.00  0.00     0.031 C 
ATOM     38  C   UNL     1      -0.097   4.879  -6.989  1.00  0.00     0.029 A 
ATOM     39  C   UNL     1      -0.654   6.008  -6.249  1.00  0.00     0.049 A 
ATOM     40  H   UNL     1      -2.369   6.024  -5.068  1.00  0.00     0.167 HD
ATOM     41  C   UNL     1      -5.897   5.887  -2.509  1.00  0.00     0.031 A 
ATOM     42  C   UNL     1      -0.137   7.251  -6.210  1.00  0.00     0.031 A 
ATOM     43  C   UNL     1      -5.399   7.231  -2.380  1.00  0.00     0.049 A 
ATOM     44  C   UNL     1      -0.823   8.313  -5.395  1.00  0.00     0.074 A 
ATOM     45  C   UNL     1      -5.900   8.265  -1.607  1.00  0.00     0.029 A 
ATOM     46  N   UNL     1      -4.290   7.729  -3.044  1.00  0.00    -0.354 N 
ATOM     47  N   UNL     1      -1.883   8.212  -4.630  1.00  0.00    -0.248 NA
ATOM     48  C   UNL     1      -0.236   9.661  -5.436  1.00  0.00     0.031 C 
ATOM     49  C   UNL     1      -5.122   9.404  -1.844  1.00  0.00     0.029 A 
ATOM     50  C   UNL     1      -4.104   9.063  -2.720  1.00  0.00     0.049 A 
ATOM     51  H   UNL     1      -3.718   7.211  -3.656  1.00  0.00     0.167 HD
ATOM     52  C   UNL     1      -2.075   9.474  -4.081  1.00  0.00     0.074 A 
ATOM     53  C   UNL     1      -1.014  10.319  -4.587  1.00  0.00     0.031 C 
ATOM     54  C   UNL     1      -3.045   9.893  -3.231  1.00  0.00     0.031 A 
BRANCH  41  55
ATOM     55  C   UNL     1      -7.141   5.513  -1.756  1.00  0.00    -0.014 A 
ATOM     56  C   UNL     1      -7.091   4.664  -0.640  1.00  0.00     0.009 A 
ATOM     57  C   UNL     1      -8.380   6.038  -2.157  1.00  0.00     0.009 A 
ATOM     58  C   UNL     1      -8.262   4.322   0.040  1.00  0.00     0.001 A 
ATOM     59  C   UNL     1      -9.545   5.714  -1.461  1.00  0.00     0.001 A 
ATOM     60  C   UNL     1      -9.487   4.850  -0.369  1.00  0.00     0.000 A 
ENDBRANCH  41  55
BRANCH  42  61
ATOM     61  C   UNL     1       1.090   7.571  -6.986  1.00  0.00    -0.014 A 
ATOM     62  C   UNL     1       2.301   7.850  -6.335  1.00  0.00     0.009 A 
ATOM     63  C   UNL     1       1.046   7.621  -8.388  1.00  0.00     0.009 A 
ATOM     64  C   UNL     1       3.437   8.193  -7.071  1.00  0.00     0.001 A 
ATOM     65  C   UNL     1       2.190   7.938  -9.123  1.00  0.00     0.001 A 
ATOM     66  C   UNL     1       3.382   8.232  -8.464  1.00  0.00     0.000 A 
ENDBRANCH  42  61
BRANCH  54  67
ATOM     67  C   UNL     1      -2.983  11.321  -2.766  1.00  0.00    -0.014 A 
ATOM     68  C   UNL     1      -3.321  12.382  -3.620  1.00  0.00     0.009 A 
ATOM     69  C   UNL     1      -2.620  11.604  -1.439  1.00  0.00     0.009 A 
ATOM     70  C   UNL     1      -3.266  13.700  -3.162  1.00  0.00     0.001 A 
ATOM     71  C   UNL     1      -2.592  12.920  -0.977  1.00  0.00     0.001 A 
ATOM     72  C   UNL     1      -2.907  13.968  -1.841  1.00  0.00     0.000 A 
ENDBRANCH  54  67
ENDBRANCH  28  29
ENDBRANCH  21  23
ENDBRANCH  20  21
ENDBRANCH  19  20
ENDBRANCH   1  19
TORSDOF 16
