REMARK SMILES O=C(C[NH2+]Cc1cccs1)OCCOC(=O)c1ccc(-c2c3nc(c(-c4ccccc4)c4ccc([nH]4)c(-c4ccccc4)c4nc(c(-c5ccccc5)c5ccc2[nH]5)C=C4)C=C3)cc1
REMARK SMILES IDX 12 1 11 2 2 3 1 4 3 5 4 6 5 9 6 10 7 11 10 12 8 13 9 14
REMARK SMILES IDX 13 15 14 16 15 17 16 18 17 19 18 20 64 21 19 22 63 23 20 24
REMARK SMILES IDX 21 25 22 26 57 27 23 28 62 29 56 30 58 31 24 32 61 33 55 34
REMARK SMILES IDX 54 35 25 37 47 38 32 39 46 40 33 41 36 42 45 43 59 44 34 45
REMARK SMILES IDX 35 46 44 48 60 49 37 50 26 51 27 52 31 53 28 54 30 55 29 56
REMARK SMILES IDX 48 57 49 58 53 59 50 60 52 61 51 62 38 63 39 64 43 65 40 66
REMARK SMILES IDX 42 67 41 68
REMARK H PARENT 4 7 4 8 58 36 36 47
REMARK Flexibility Score: inf
ROOT
ATOM      1  C   UNL     1       4.464  -0.970   0.066  1.00  0.00     0.274 C 
ENDROOT
BRANCH   1   2
ATOM      2  O   UNL     1       3.184  -0.827   0.720  1.00  0.00    -0.458 OA
BRANCH   2   3
ATOM      3  C   UNL     1       2.614   0.360   1.050  1.00  0.00     0.361 C 
ATOM      4  O   UNL     1       1.624   0.396   1.778  1.00  0.00    -0.245 OA
BRANCH   3   5
ATOM      5  C   UNL     1       3.207   1.634   0.461  1.00  0.00     0.385 C 
BRANCH   5   6
ATOM      6  N   UNL     1       4.193   2.242   1.359  1.00  0.00    -0.333 N 
ATOM      7  H   UNL     1       4.554   1.515   1.977  1.00  0.00     0.347 HD
ATOM      8  H   UNL     1       3.711   2.985   1.866  1.00  0.00     0.347 HD
BRANCH   6   9
ATOM      9  C   UNL     1       5.323   2.865   0.670  1.00  0.00     0.308 C 
BRANCH   9  10
ATOM     10  C   UNL     1       4.987   4.026  -0.222  1.00  0.00     0.059 A 
ATOM     11  C   UNL     1       4.373   4.013  -1.461  1.00  0.00     0.021 A 
ATOM     12  S   UNL     1       5.494   5.612   0.189  1.00  0.00    -0.143 S 
ATOM     13  C   UNL     1       4.360   5.288  -2.088  1.00  0.00     0.012 A 
ATOM     14  C   UNL     1       4.952   6.247  -1.302  1.00  0.00     0.065 A 
ENDBRANCH   9  10
ENDBRANCH   6   9
ENDBRANCH   5   6
ENDBRANCH   3   5
ENDBRANCH   2   3
ENDBRANCH   1   2
BRANCH   1  15
ATOM     15  C   UNL     1       4.310  -1.363  -1.407  1.00  0.00     0.275 C 
BRANCH  15  16
ATOM     16  O   UNL     1       3.740  -0.285  -2.175  1.00  0.00    -0.458 OA
BRANCH  16  17
ATOM     17  C   UNL     1       2.407  -0.375  -2.434  1.00  0.00     0.338 C 
ATOM     18  O   UNL     1       1.671  -1.298  -2.164  1.00  0.00    -0.246 OA
BRANCH  17  19
ATOM     19  C   UNL     1       1.935   0.937  -2.945  1.00  0.00     0.060 A 
ATOM     20  C   UNL     1       0.738   1.457  -2.434  1.00  0.00     0.016 A 
ATOM     21  C   UNL     1       2.677   1.675  -3.869  1.00  0.00     0.016 A 
ATOM     22  C   UNL     1       0.296   2.728  -2.825  1.00  0.00     0.010 A 
ATOM     23  C   UNL     1       2.237   2.947  -4.250  1.00  0.00     0.010 A 
ATOM     24  C   UNL     1       1.046   3.491  -3.730  1.00  0.00    -0.014 A 
BRANCH  24  25
ATOM     25  C   UNL     1       0.609   4.841  -4.183  1.00  0.00     0.031 A 
ATOM     26  C   UNL     1       0.165   5.040  -5.607  1.00  0.00     0.074 A 
ATOM     27  C   UNL     1       0.706   5.915  -3.374  1.00  0.00     0.049 A 
ATOM     28  N   UNL     1      -0.107   6.155  -6.238  1.00  0.00    -0.248 NA
ATOM     29  C   UNL     1       0.005   3.828  -6.424  1.00  0.00     0.031 C 
ATOM     30  C   UNL     1       1.101   5.898  -1.967  1.00  0.00     0.029 A 
ATOM     31  N   UNL     1       0.553   7.254  -3.659  1.00  0.00    -0.354 N 
ATOM     32  C   UNL     1      -0.508   5.777  -7.512  1.00  0.00     0.074 A 
ATOM     33  C   UNL     1      -0.365   4.338  -7.590  1.00  0.00     0.031 C 
ATOM     34  C   UNL     1       1.270   7.164  -1.544  1.00  0.00     0.029 A 
ATOM     35  C   UNL     1       0.992   8.077  -2.648  1.00  0.00     0.049 A 
ATOM     36  H   UNL     1       0.168   7.588  -4.501  1.00  0.00     0.167 HD
ATOM     37  C   UNL     1      -0.995   6.547  -8.513  1.00  0.00     0.031 A 
ATOM     38  C   UNL     1       1.197   9.409  -2.628  1.00  0.00     0.031 A 
ATOM     39  C   UNL     1      -1.136   7.976  -8.455  1.00  0.00     0.049 A 
ATOM     40  C   UNL     1       0.837  10.251  -3.820  1.00  0.00     0.074 A 
ATOM     41  C   UNL     1      -1.730   8.823  -9.377  1.00  0.00     0.029 A 
ATOM     42  N   UNL     1      -0.654   8.774  -7.434  1.00  0.00    -0.354 N 
ATOM     43  N   UNL     1       0.337   9.880  -4.972  1.00  0.00    -0.248 NA
ATOM     44  C   UNL     1       1.041  11.703  -3.695  1.00  0.00     0.031 C 
ATOM     45  C   UNL     1      -1.551  10.140  -8.942  1.00  0.00     0.029 A 
ATOM     46  C   UNL     1      -0.888  10.108  -7.727  1.00  0.00     0.049 A 
ATOM     47  H   UNL     1      -0.209   8.444  -6.620  1.00  0.00     0.167 HD
ATOM     48  C   UNL     1       0.099  11.054  -5.676  1.00  0.00     0.074 A 
ATOM     49  C   UNL     1       0.538  12.148  -4.838  1.00  0.00     0.031 C 
ATOM     50  C   UNL     1      -0.467  11.204  -6.897  1.00  0.00     0.031 A 
BRANCH  37  51
ATOM     51  C   UNL     1      -1.451   5.848  -9.759  1.00  0.00    -0.014 A 
ATOM     52  C   UNL     1      -2.643   5.106  -9.762  1.00  0.00     0.009 A 
ATOM     53  C   UNL     1      -0.727   5.985 -10.951  1.00  0.00     0.009 A 
ATOM     54  C   UNL     1      -3.087   4.489 -10.933  1.00  0.00     0.001 A 
ATOM     55  C   UNL     1      -1.184   5.385 -12.125  1.00  0.00     0.001 A 
ATOM     56  C   UNL     1      -2.360   4.633 -12.114  1.00  0.00     0.000 A 
ENDBRANCH  37  51
BRANCH  38  57
ATOM     57  C   UNL     1       1.837  10.051  -1.452  1.00  0.00    -0.014 A 
ATOM     58  C   UNL     1       1.093  10.838  -0.562  1.00  0.00     0.009 A 
ATOM     59  C   UNL     1       3.225   9.944  -1.273  1.00  0.00     0.009 A 
ATOM     60  C   UNL     1       1.735  11.535   0.465  1.00  0.00     0.001 A 
ATOM     61  C   UNL     1       3.860  10.621  -0.231  1.00  0.00     0.001 A 
ATOM     62  C   UNL     1       3.116  11.426   0.629  1.00  0.00     0.000 A 
ENDBRANCH  38  57
BRANCH  50  63
ATOM     63  C   UNL     1      -0.726  12.603  -7.378  1.00  0.00    -0.014 A 
ATOM     64  C   UNL     1       0.312  13.431  -7.830  1.00  0.00     0.009 A 
ATOM     65  C   UNL     1      -2.044  13.087  -7.409  1.00  0.00     0.009 A 
ATOM     66  C   UNL     1       0.036  14.724  -8.281  1.00  0.00     0.001 A 
ATOM     67  C   UNL     1      -2.320  14.369  -7.885  1.00  0.00     0.001 A 
ATOM     68  C   UNL     1      -1.278  15.189  -8.314  1.00  0.00     0.000 A 
ENDBRANCH  50  63
ENDBRANCH  24  25
ENDBRANCH  17  19
ENDBRANCH  16  17
ENDBRANCH  15  16
ENDBRANCH   1  15
TORSDOF 14
