REMARK SMILES Cc1[nH]c2ccccc2c1[C@@H](C(=O)OCCOC(=O)c1ccc(-c2c3nc(c(-c4ccccc4)c4ccc([nH]4)c(-c4ccccc4)c4nc(c(-c5ccccc5)c5ccc2[nH]5)C=C4)C=C3)cc1)[NH+]1CCCC1
REMARK SMILES IDX 16 1 15 2 14 3 12 4 13 5 11 6 10 7 1 8 2 9 3 10 4 11 9 13
REMARK SMILES IDX 5 14 8 15 6 16 7 17 68 18 69 19 72 20 70 22 71 23 17 24
REMARK SMILES IDX 18 25 19 26 20 27 21 28 67 29 22 30 66 31 23 32 24 33 25 34
REMARK SMILES IDX 60 35 26 36 65 37 59 38 61 39 27 40 64 41 58 42 57 43 28 45
REMARK SMILES IDX 50 46 35 47 49 48 36 49 39 50 48 51 62 52 37 53 38 54 47 56
REMARK SMILES IDX 63 57 40 58 29 59 30 60 34 61 31 62 33 63 32 64 51 65 52 66
REMARK SMILES IDX 56 67 53 68 55 69 54 70 41 71 42 72 46 73 43 74 45 75 44 76
REMARK H PARENT 3 12 68 21 61 44 39 55
REMARK Flexibility Score: inf
ROOT
ATOM      1  C   UNL     1       0.370  -4.142  -3.411  1.00  0.00     0.275 C 
ENDROOT
BRANCH   1   2
ATOM      2  C   UNL     1      -1.004  -3.509  -3.203  1.00  0.00     0.274 C 
BRANCH   2   3
ATOM      3  O   UNL     1      -1.006  -2.586  -2.093  1.00  0.00    -0.457 OA
BRANCH   3   4
ATOM      4  C   UNL     1      -1.459  -3.091  -0.908  1.00  0.00     0.370 C 
ATOM      5  O   UNL     1      -1.776  -4.272  -0.764  1.00  0.00    -0.245 OA
BRANCH   4   6
ATOM      6  C   UNL     1      -1.720  -2.025   0.169  1.00  0.00     0.328 C 
BRANCH   6   7
ATOM      7  C   UNL     1      -1.232  -0.614  -0.090  1.00  0.00     0.049 A 
ATOM      8  C   UNL     1      -3.549   0.634  -0.111  1.00  0.00     0.065 C 
ATOM      9  C   UNL     1      -2.067   0.502  -0.162  1.00  0.00     0.022 A 
ATOM     10  N   UNL     1      -1.280   1.618  -0.253  1.00  0.00    -0.358 N 
ATOM     11  C   UNL     1       0.046   1.275  -0.286  1.00  0.00     0.046 A 
ATOM     12  H   UNL     1      -1.620   2.541  -0.289  1.00  0.00     0.166 HD
ATOM     13  C   UNL     1       0.113  -0.120  -0.286  1.00  0.00     0.009 A 
ATOM     14  C   UNL     1       1.175   2.102  -0.319  1.00  0.00     0.027 A 
ATOM     15  C   UNL     1       1.394  -0.704  -0.414  1.00  0.00     0.011 A 
ATOM     16  C   UNL     1       2.428   1.491  -0.375  1.00  0.00     0.002 A 
ATOM     17  C   UNL     1       2.538   0.107  -0.440  1.00  0.00     0.001 A 
ENDBRANCH   6   7
BRANCH   6  18
ATOM     18  N   UNL     1      -1.472  -2.540   1.544  1.00  0.00    -0.319 N 
ATOM     19  C   UNL     1      -2.249  -1.886   2.596  1.00  0.00     0.263 C 
ATOM     20  C   UNL     1      -0.103  -2.574   2.043  1.00  0.00     0.263 C 
ATOM     21  H   UNL     1      -1.772  -3.499   1.372  1.00  0.00     0.349 HD
ATOM     22  C   UNL     1      -1.323  -0.866   3.236  1.00  0.00     0.067 C 
ATOM     23  C   UNL     1       0.081  -1.380   2.968  1.00  0.00     0.067 C 
ENDBRANCH   6  18
ENDBRANCH   4   6
ENDBRANCH   3   4
ENDBRANCH   2   3
ENDBRANCH   1   2
BRANCH   1  24
ATOM     24  O   UNL     1       0.763  -4.844  -2.220  1.00  0.00    -0.458 OA
BRANCH  24  25
ATOM     25  C   UNL     1       2.022  -4.618  -1.780  1.00  0.00     0.338 C 
ATOM     26  O   UNL     1       2.896  -3.999  -2.363  1.00  0.00    -0.246 OA
BRANCH  25  27
ATOM     27  C   UNL     1       2.208  -5.179  -0.418  1.00  0.00     0.060 A 
ATOM     28  C   UNL     1       1.131  -5.388   0.440  1.00  0.00     0.016 A 
ATOM     29  C   UNL     1       3.505  -5.387   0.060  1.00  0.00     0.016 A 
ATOM     30  C   UNL     1       1.350  -5.685   1.786  1.00  0.00     0.010 A 
ATOM     31  C   UNL     1       3.715  -5.779   1.391  1.00  0.00     0.010 A 
ATOM     32  C   UNL     1       2.642  -5.884   2.291  1.00  0.00    -0.014 A 
BRANCH  32  33
ATOM     33  C   UNL     1       2.868  -6.144   3.747  1.00  0.00     0.031 A 
ATOM     34  C   UNL     1       3.848  -5.306   4.538  1.00  0.00     0.074 A 
ATOM     35  C   UNL     1       2.183  -7.107   4.399  1.00  0.00     0.049 A 
ATOM     36  N   UNL     1       4.340  -5.519   5.736  1.00  0.00    -0.248 NA
ATOM     37  C   UNL     1       4.356  -4.082   3.897  1.00  0.00     0.031 C 
ATOM     38  C   UNL     1       1.159  -7.975   3.815  1.00  0.00     0.029 A 
ATOM     39  N   UNL     1       2.233  -7.503   5.715  1.00  0.00    -0.354 N 
ATOM     40  C   UNL     1       5.277  -4.514   5.949  1.00  0.00     0.074 A 
ATOM     41  C   UNL     1       5.271  -3.677   4.768  1.00  0.00     0.031 C 
ATOM     42  C   UNL     1       0.622  -8.737   4.778  1.00  0.00     0.029 A 
ATOM     43  C   UNL     1       1.343  -8.503   6.024  1.00  0.00     0.049 A 
ATOM     44  H   UNL     1       2.848  -7.107   6.374  1.00  0.00     0.167 HD
ATOM     45  C   UNL     1       6.079  -4.313   7.023  1.00  0.00     0.031 A 
ATOM     46  C   UNL     1       1.148  -9.197   7.160  1.00  0.00     0.031 A 
ATOM     47  C   UNL     1       6.034  -5.089   8.237  1.00  0.00     0.049 A 
ATOM     48  C   UNL     1       2.037  -8.954   8.341  1.00  0.00     0.074 A 
ATOM     49  C   UNL     1       6.808  -4.950   9.378  1.00  0.00     0.029 A 
ATOM     50  N   UNL     1       5.145  -6.121   8.482  1.00  0.00    -0.354 N 
ATOM     51  N   UNL     1       3.008  -8.085   8.477  1.00  0.00    -0.248 NA
ATOM     52  C   UNL     1       1.825  -9.814   9.514  1.00  0.00     0.031 C 
ATOM     53  C   UNL     1       6.403  -5.917  10.305  1.00  0.00     0.029 A 
ATOM     54  C   UNL     1       5.350  -6.628   9.756  1.00  0.00     0.049 A 
ATOM     55  H   UNL     1       4.468  -6.447   7.846  1.00  0.00     0.167 HD
ATOM     56  C   UNL     1       3.531  -8.303   9.744  1.00  0.00     0.074 A 
ATOM     57  C   UNL     1       2.747  -9.358  10.350  1.00  0.00     0.031 C 
ATOM     58  C   UNL     1       4.580  -7.691  10.344  1.00  0.00     0.031 A 
BRANCH  45  59
ATOM     59  C   UNL     1       7.120  -3.232   6.928  1.00  0.00    -0.014 A 
ATOM     60  C   UNL     1       6.790  -1.875   7.046  1.00  0.00     0.009 A 
ATOM     61  C   UNL     1       8.470  -3.596   6.788  1.00  0.00     0.009 A 
ATOM     62  C   UNL     1       7.792  -0.901   7.004  1.00  0.00     0.001 A 
ATOM     63  C   UNL     1       9.470  -2.623   6.772  1.00  0.00     0.001 A 
ATOM     64  C   UNL     1       9.130  -1.276   6.874  1.00  0.00     0.000 A 
ENDBRANCH  45  59
BRANCH  46  65
ATOM     65  C   UNL     1       0.097 -10.246   7.208  1.00  0.00    -0.014 A 
ATOM     66  C   UNL     1      -1.072 -10.048   7.957  1.00  0.00     0.009 A 
ATOM     67  C   UNL     1       0.247 -11.438   6.482  1.00  0.00     0.009 A 
ATOM     68  C   UNL     1      -2.068 -11.026   7.980  1.00  0.00     0.001 A 
ATOM     69  C   UNL     1      -0.764 -12.400   6.482  1.00  0.00     0.001 A 
ATOM     70  C   UNL     1      -1.918 -12.195   7.235  1.00  0.00     0.000 A 
ENDBRANCH  46  65
BRANCH  58  71
ATOM     71  C   UNL     1       4.927  -8.149  11.729  1.00  0.00    -0.014 A 
ATOM     72  C   UNL     1       5.584  -9.371  11.941  1.00  0.00     0.009 A 
ATOM     73  C   UNL     1       4.590  -7.353  12.834  1.00  0.00     0.009 A 
ATOM     74  C   UNL     1       5.862  -9.806  13.238  1.00  0.00     0.001 A 
ATOM     75  C   UNL     1       4.888  -7.782  14.129  1.00  0.00     0.001 A 
ATOM     76  C   UNL     1       5.514  -9.011  14.330  1.00  0.00     0.000 A 
ENDBRANCH  58  71
ENDBRANCH  32  33
ENDBRANCH  25  27
ENDBRANCH  24  25
ENDBRANCH   1  24
TORSDOF 13
