REMARK SMILES CC[C@](C)(NC(=O)CNC(=O)c1cccc(Cl)c1)C(=O)OCCOC(=O)c1ccc(-c2c3nc(c(-c4ccccc4)c4ccc([nH]4)c(-c4ccccc4)c4nc(c(-c5ccccc5)c5ccc2[nH]5)C=C4)C=C3)cc1
REMARK SMILES IDX 22 1 21 2 19 3 20 4 3 5 4 6 2 7 1 8 5 9 6 10 7 12 8 13 9 14
REMARK SMILES IDX 10 15 11 17 12 18 13 19 18 20 14 21 16 22 15 23 17 24 23 25
REMARK SMILES IDX 24 26 25 27 26 28 27 29 28 30 74 31 29 32 73 33 30 34 31 35
REMARK SMILES IDX 32 36 67 37 33 38 72 39 66 40 68 41 34 42 71 43 65 44 64 45
REMARK SMILES IDX 35 47 57 48 42 49 56 50 43 51 46 52 55 53 69 54 44 55 45 56
REMARK SMILES IDX 54 58 70 59 47 60 36 61 37 62 41 63 38 64 40 65 39 66 58 67
REMARK SMILES IDX 59 68 63 69 60 70 62 71 61 72 48 73 49 74 53 75 50 76 52 77
REMARK SMILES IDX 51 78
REMARK H PARENT 5 11 9 16 68 46 46 57
REMARK Flexibility Score: inf
ROOT
ATOM      1  C   UNL     1       4.321  -0.869   4.858  1.00  0.00     0.274 C 
ENDROOT
BRANCH   1   2
ATOM      2  O   UNL     1       2.841  -0.645   4.832  1.00  0.00    -0.460 OA
BRANCH   2   3
ATOM      3  C   UNL     1       2.203   0.529   4.377  1.00  0.00     0.331 C 
ATOM      4  O   UNL     1       2.744   1.629   4.384  1.00  0.00    -0.249 OA
BRANCH   3   5
ATOM      5  C   UNL     1       0.704   0.260   3.699  1.00  0.00     0.135 C 
ATOM      6  C   UNL     1       0.564   0.171   2.135  1.00  0.00     0.047 C 
BRANCH   5   7
ATOM      7  C   UNL     1      -0.266   1.419   4.061  1.00  0.00     0.037 C 
ATOM      8  C   UNL     1      -1.760   1.075   3.917  1.00  0.00     0.007 C 
ENDBRANCH   5   7
BRANCH   5   9
ATOM      9  N   UNL     1       0.242  -0.999   4.247  1.00  0.00    -0.339 N 
ATOM     10  C   UNL     1       0.833  -2.184   3.963  1.00  0.00     0.240 C 
ATOM     11  H   UNL     1      -0.534  -0.993   4.852  1.00  0.00     0.164 HD
ATOM     12  O   UNL     1       0.371  -3.215   4.451  1.00  0.00    -0.273 OA
BRANCH  10  13
ATOM     13  C   UNL     1       2.083  -2.215   3.050  1.00  0.00     0.216 C 
BRANCH  13  14
ATOM     14  N   UNL     1       2.957  -0.975   2.391  1.00  0.00    -0.343 N 
ATOM     15  C   UNL     1       3.776  -0.210   1.591  1.00  0.00     0.251 C 
ATOM     16  H   UNL     1       2.716  -0.278   3.044  1.00  0.00     0.164 HD
ATOM     17  O   UNL     1       4.373  -0.694   0.630  1.00  0.00    -0.269 OA
BRANCH  15  18
ATOM     18  C   UNL     1       4.144   1.180   1.895  1.00  0.00     0.041 A 
ATOM     19  C   UNL     1       5.287   1.498   2.651  1.00  0.00     0.014 A 
ATOM     20  C   UNL     1       3.469   2.191   1.225  1.00  0.00     0.034 A 
ATOM     21  C   UNL     1       5.603   2.833   2.921  1.00  0.00     0.002 A 
ATOM     22  C   UNL     1       3.816   3.517   1.456  1.00  0.00     0.041 A 
ATOM     23  C   UNL     1       4.849   3.846   2.334  1.00  0.00     0.020 A 
ATOM     24  Cl  UNL     1       2.969   4.756   0.620  1.00  0.00    -0.084 Cl
ENDBRANCH  15  18
ENDBRANCH  13  14
ENDBRANCH  10  13
ENDBRANCH   5   9
ENDBRANCH   3   5
ENDBRANCH   2   3
ENDBRANCH   1   2
BRANCH   1  25
ATOM     25  C   UNL     1       5.025  -2.186   4.070  1.00  0.00     0.275 C 
BRANCH  25  26
ATOM     26  O   UNL     1       4.819  -2.448   2.585  1.00  0.00    -0.458 OA
BRANCH  26  27
ATOM     27  C   UNL     1       4.577  -3.692   2.012  1.00  0.00     0.338 C 
ATOM     28  O   UNL     1       4.688  -4.733   2.645  1.00  0.00    -0.246 OA
BRANCH  27  29
ATOM     29  C   UNL     1       4.014  -3.724   0.542  1.00  0.00     0.060 A 
ATOM     30  C   UNL     1       2.919  -2.978   0.037  1.00  0.00     0.016 A 
ATOM     31  C   UNL     1       4.484  -4.703  -0.339  1.00  0.00     0.016 A 
ATOM     32  C   UNL     1       2.356  -3.131  -1.237  1.00  0.00     0.010 A 
ATOM     33  C   UNL     1       3.924  -4.872  -1.639  1.00  0.00     0.010 A 
ATOM     34  C   UNL     1       2.857  -4.079  -2.103  1.00  0.00    -0.014 A 
BRANCH  34  35
ATOM     35  C   UNL     1       2.161  -4.308  -3.398  1.00  0.00     0.031 A 
ATOM     36  C   UNL     1       1.383  -5.575  -3.577  1.00  0.00     0.074 A 
ATOM     37  C   UNL     1       2.130  -3.380  -4.377  1.00  0.00     0.049 A 
ATOM     38  N   UNL     1       0.979  -6.159  -4.673  1.00  0.00    -0.248 NA
ATOM     39  C   UNL     1       1.007  -6.277  -2.340  1.00  0.00     0.031 C 
ATOM     40  C   UNL     1       2.645  -2.014  -4.277  1.00  0.00     0.029 A 
ATOM     41  N   UNL     1       1.657  -3.462  -5.668  1.00  0.00    -0.354 N 
ATOM     42  C   UNL     1       0.391  -7.349  -4.263  1.00  0.00     0.074 A 
ATOM     43  C   UNL     1       0.443  -7.376  -2.818  1.00  0.00     0.031 C 
ATOM     44  C   UNL     1       2.508  -1.404  -5.467  1.00  0.00     0.029 A 
ATOM     45  C   UNL     1       1.989  -2.366  -6.433  1.00  0.00     0.049 A 
ATOM     46  H   UNL     1       1.136  -4.224  -6.009  1.00  0.00     0.167 HD
ATOM     47  C   UNL     1      -0.102  -8.343  -5.039  1.00  0.00     0.031 A 
ATOM     48  C   UNL     1       1.974  -2.197  -7.770  1.00  0.00     0.031 A 
ATOM     49  C   UNL     1      -0.161  -8.268  -6.475  1.00  0.00     0.049 A 
ATOM     50  C   UNL     1       1.530  -3.344  -8.638  1.00  0.00     0.074 A 
ATOM     51  C   UNL     1      -0.603  -9.218  -7.378  1.00  0.00     0.029 A 
ATOM     52  N   UNL     1       0.231  -7.161  -7.214  1.00  0.00    -0.354 N 
ATOM     53  N   UNL     1       1.101  -4.530  -8.276  1.00  0.00    -0.248 NA
ATOM     54  C   UNL     1       1.589  -3.143 -10.092  1.00  0.00     0.031 C 
ATOM     55  C   UNL     1      -0.429  -8.701  -8.667  1.00  0.00     0.029 A 
ATOM     56  C   UNL     1       0.063  -7.408  -8.563  1.00  0.00     0.049 A 
ATOM     57  H   UNL     1       0.578  -6.322  -6.833  1.00  0.00     0.167 HD
ATOM     58  C   UNL     1       0.823  -5.212  -9.453  1.00  0.00     0.074 A 
ATOM     59  C   UNL     1       1.122  -4.301 -10.541  1.00  0.00     0.031 C 
ATOM     60  C   UNL     1       0.361  -6.476  -9.621  1.00  0.00     0.031 A 
BRANCH  47  61
ATOM     61  C   UNL     1      -0.486  -9.624  -4.353  1.00  0.00    -0.014 A 
ATOM     62  C   UNL     1      -1.617  -9.729  -3.529  1.00  0.00     0.009 A 
ATOM     63  C   UNL     1       0.336 -10.751  -4.519  1.00  0.00     0.009 A 
ATOM     64  C   UNL     1      -1.886 -10.920  -2.848  1.00  0.00     0.001 A 
ATOM     65  C   UNL     1       0.048 -11.949  -3.862  1.00  0.00     0.001 A 
ATOM     66  C   UNL     1      -1.055 -12.028  -3.016  1.00  0.00     0.000 A 
ENDBRANCH  47  61
BRANCH  48  67
ATOM     67  C   UNL     1       2.517  -0.944  -8.366  1.00  0.00    -0.014 A 
ATOM     68  C   UNL     1       1.681  -0.025  -9.015  1.00  0.00     0.009 A 
ATOM     69  C   UNL     1       3.890  -0.652  -8.267  1.00  0.00     0.009 A 
ATOM     70  C   UNL     1       2.207   1.157  -9.550  1.00  0.00     0.001 A 
ATOM     71  C   UNL     1       4.407   0.542  -8.775  1.00  0.00     0.001 A 
ATOM     72  C   UNL     1       3.565   1.444  -9.421  1.00  0.00     0.000 A 
ENDBRANCH  48  67
BRANCH  60  73
ATOM     73  C   UNL     1       0.100  -6.930 -11.027  1.00  0.00    -0.014 A 
ATOM     74  C   UNL     1       1.149  -7.291 -11.884  1.00  0.00     0.009 A 
ATOM     75  C   UNL     1      -1.226  -7.070 -11.468  1.00  0.00     0.009 A 
ATOM     76  C   UNL     1       0.874  -7.768 -13.167  1.00  0.00     0.001 A 
ATOM     77  C   UNL     1      -1.498  -7.571 -12.740  1.00  0.00     0.001 A 
ATOM     78  C   UNL     1      -0.448  -7.915 -13.591  1.00  0.00     0.000 A 
ENDBRANCH  60  73
ENDBRANCH  34  35
ENDBRANCH  27  29
ENDBRANCH  26  27
ENDBRANCH  25  26
ENDBRANCH   1  25
TORSDOF 16
