REMARK SMILES CC(C)Oc1ccc(-c2ccc(/C(=C\c3ccc(S(C)(=O)=O)cc3)C(=O)OCCOC(=O)c3ccc(-c4c5nc(c(-c6ccccc6)c6ccc([nH]6)c(-c6ccccc6)c6nc(c(-c7ccccc7)c7ccc4[nH]7)C=C6)C=C5)cc3)cc2)cc1
REMARK SMILES IDX 28 1 27 2 25 3 26 4 13 5 14 6 12 7 9 8 10 9 82 10 11 11
REMARK SMILES IDX 81 12 8 13 5 14 6 15 84 16 7 17 83 18 4 19 2 20 1 21 3 22
REMARK SMILES IDX 15 23 16 24 24 25 17 26 23 27 18 28 19 29 20 30 21 31 22 32
REMARK SMILES IDX 29 33 30 34 31 35 32 36 33 37 34 38 80 39 35 40 79 41 36 42
REMARK SMILES IDX 37 43 38 44 73 45 39 46 78 47 72 48 74 49 40 50 77 51 71 52
REMARK SMILES IDX 70 53 41 55 63 56 48 57 62 58 49 59 52 60 61 61 75 62 50 63
REMARK SMILES IDX 51 64 60 66 76 67 53 68 42 69 43 70 47 71 44 72 46 73 45 74
REMARK SMILES IDX 64 75 65 76 69 77 66 78 68 79 67 80 54 81 55 82 59 83 56 84
REMARK SMILES IDX 58 85 57 86
REMARK H PARENT 74 54 52 65
REMARK Flexibility Score: inf
ROOT
ATOM      1  C   UNL     1      -7.508   9.666  -1.358  1.00  0.00     0.275 C 
ENDROOT
BRANCH   1   2
ATOM      2  O   UNL     1      -6.897   9.101  -0.178  1.00  0.00    -0.458 OA
BRANCH   2   3
ATOM      3  C   UNL     1      -7.170   7.795   0.114  1.00  0.00     0.338 C 
ATOM      4  O   UNL     1      -7.881   7.074  -0.570  1.00  0.00    -0.246 OA
BRANCH   3   5
ATOM      5  C   UNL     1      -6.462   7.340   1.384  1.00  0.00     0.067 C 
ATOM      6  C   UNL     1      -6.302   8.346   2.290  1.00  0.00     0.024 C 
BRANCH   5   7
ATOM      7  C   UNL     1      -5.973   5.899   1.515  1.00  0.00    -0.011 A 
ATOM      8  C   UNL     1      -4.478   3.423   1.533  1.00  0.00    -0.018 A 
ATOM      9  C   UNL     1      -4.537   4.236   2.654  1.00  0.00     0.009 A 
ATOM     10  C   UNL     1      -5.330   3.755   0.477  1.00  0.00     0.009 A 
ATOM     11  C   UNL     1      -5.312   5.407   2.650  1.00  0.00     0.009 A 
ATOM     12  C   UNL     1      -6.047   4.975   0.460  1.00  0.00     0.009 A 
BRANCH   8  13
ATOM     13  C   UNL     1      -3.521   2.310   1.462  1.00  0.00    -0.018 A 
ATOM     14  C   UNL     1      -1.632   0.202   1.324  1.00  0.00     0.119 A 
ATOM     15  C   UNL     1      -2.772   0.094   2.123  1.00  0.00     0.047 A 
ATOM     16  C   UNL     1      -1.439   1.356   0.583  1.00  0.00     0.047 A 
ATOM     17  C   UNL     1      -3.705   1.137   2.198  1.00  0.00     0.012 A 
ATOM     18  C   UNL     1      -2.359   2.405   0.678  1.00  0.00     0.012 A 
BRANCH  14  19
ATOM     19  O   UNL     1      -0.838  -0.903   1.261  1.00  0.00    -0.491 OA
BRANCH  19  20
ATOM     20  C   UNL     1       0.588  -0.779   1.392  1.00  0.00     0.167 C 
ATOM     21  C   UNL     1       1.292  -0.298   0.132  1.00  0.00     0.052 C 
ATOM     22  C   UNL     1       1.030  -0.025   2.642  1.00  0.00     0.052 C 
ENDBRANCH  19  20
ENDBRANCH  14  19
ENDBRANCH   8  13
ENDBRANCH   5   7
BRANCH   6  23
ATOM     23  C   UNL     1      -5.683   8.286   3.620  1.00  0.00    -0.025 A 
ATOM     24  C   UNL     1      -6.514   8.085   4.731  1.00  0.00     0.009 A 
ATOM     25  C   UNL     1      -4.288   8.216   3.766  1.00  0.00     0.009 A 
ATOM     26  C   UNL     1      -5.969   7.658   5.941  1.00  0.00     0.021 A 
ATOM     27  C   UNL     1      -3.739   7.775   4.974  1.00  0.00     0.021 A 
ATOM     28  C   UNL     1      -4.589   7.456   6.039  1.00  0.00     0.067 A 
BRANCH  28  29
ATOM     29  S   UNL     1      -3.959   6.551   7.438  1.00  0.00     0.175 S 
ATOM     30  C   UNL     1      -3.840   7.763   8.719  1.00  0.00     0.163 C 
ATOM     31  O   UNL     1      -4.980   5.592   7.815  1.00  0.00    -0.224 OA
ATOM     32  O   UNL     1      -2.618   6.109   7.107  1.00  0.00    -0.224 OA
ENDBRANCH  28  29
ENDBRANCH   6  23
ENDBRANCH   3   5
ENDBRANCH   2   3
ENDBRANCH   1   2
BRANCH   1  33
ATOM     33  C   UNL     1      -6.442  10.162  -2.339  1.00  0.00     0.275 C 
BRANCH  33  34
ATOM     34  O   UNL     1      -5.654   9.062  -2.832  1.00  0.00    -0.458 OA
BRANCH  34  35
ATOM     35  C   UNL     1      -4.493   8.858  -2.168  1.00  0.00     0.338 C 
ATOM     36  O   UNL     1      -4.006   9.557  -1.293  1.00  0.00    -0.246 OA
BRANCH  35  37
ATOM     37  C   UNL     1      -3.979   7.519  -2.496  1.00  0.00     0.060 A 
ATOM     38  C   UNL     1      -3.759   6.670  -1.419  1.00  0.00     0.016 A 
ATOM     39  C   UNL     1      -3.704   7.085  -3.798  1.00  0.00     0.016 A 
ATOM     40  C   UNL     1      -3.310   5.376  -1.644  1.00  0.00     0.010 A 
ATOM     41  C   UNL     1      -3.226   5.779  -4.013  1.00  0.00     0.010 A 
ATOM     42  C   UNL     1      -3.042   4.904  -2.932  1.00  0.00    -0.014 A 
BRANCH  42  43
ATOM     43  C   UNL     1      -2.509   3.523  -3.084  1.00  0.00     0.031 A 
ATOM     44  C   UNL     1      -1.027   3.286  -3.014  1.00  0.00     0.074 A 
ATOM     45  C   UNL     1      -3.337   2.462  -3.142  1.00  0.00     0.049 A 
ATOM     46  N   UNL     1      -0.358   2.167  -3.132  1.00  0.00    -0.248 NA
ATOM     47  C   UNL     1      -0.191   4.466  -2.753  1.00  0.00     0.031 C 
ATOM     48  C   UNL     1      -4.796   2.524  -3.084  1.00  0.00     0.029 A 
ATOM     49  N   UNL     1      -3.063   1.117  -3.227  1.00  0.00    -0.354 N 
ATOM     50  C   UNL     1       0.978   2.506  -2.970  1.00  0.00     0.074 A 
ATOM     51  C   UNL     1       1.024   3.936  -2.744  1.00  0.00     0.031 C 
ATOM     52  C   UNL     1      -5.288   1.273  -3.115  1.00  0.00     0.029 A 
ATOM     53  C   UNL     1      -4.186   0.324  -3.262  1.00  0.00     0.049 A 
ATOM     54  H   UNL     1      -2.148   0.755  -3.261  1.00  0.00     0.167 HD
ATOM     55  C   UNL     1       2.070   1.705  -3.010  1.00  0.00     0.031 A 
ATOM     56  C   UNL     1      -4.313  -1.009  -3.429  1.00  0.00     0.031 A 
ATOM     57  C   UNL     1       2.039   0.287  -3.259  1.00  0.00     0.049 A 
ATOM     58  C   UNL     1      -3.079  -1.859  -3.610  1.00  0.00     0.074 A 
ATOM     59  C   UNL     1       3.102  -0.599  -3.330  1.00  0.00     0.029 A 
ATOM     60  N   UNL     1       0.887  -0.457  -3.459  1.00  0.00    -0.354 N 
ATOM     61  N   UNL     1      -1.816  -1.513  -3.551  1.00  0.00    -0.248 NA
ATOM     62  C   UNL     1      -3.294  -3.286  -3.901  1.00  0.00     0.031 C 
ATOM     63  C   UNL     1       2.594  -1.875  -3.597  1.00  0.00     0.029 A 
ATOM     64  C   UNL     1       1.212  -1.793  -3.632  1.00  0.00     0.049 A 
ATOM     65  H   UNL     1      -0.026  -0.091  -3.476  1.00  0.00     0.167 HD
ATOM     66  C   UNL     1      -1.091  -2.680  -3.765  1.00  0.00     0.074 A 
ATOM     67  C   UNL     1      -2.052  -3.747  -3.943  1.00  0.00     0.031 C 
ATOM     68  C   UNL     1       0.253  -2.851  -3.812  1.00  0.00     0.031 A 
BRANCH  55  69
ATOM     69  C   UNL     1       3.408   2.361  -2.821  1.00  0.00    -0.014 A 
ATOM     70  C   UNL     1       3.819   2.847  -1.570  1.00  0.00     0.009 A 
ATOM     71  C   UNL     1       4.281   2.470  -3.914  1.00  0.00     0.009 A 
ATOM     72  C   UNL     1       5.064   3.464  -1.429  1.00  0.00     0.001 A 
ATOM     73  C   UNL     1       5.536   3.060  -3.763  1.00  0.00     0.001 A 
ATOM     74  C   UNL     1       5.922   3.567  -2.524  1.00  0.00     0.000 A 
ENDBRANCH  55  69
BRANCH  56  75
ATOM     75  C   UNL     1      -5.664  -1.633  -3.527  1.00  0.00    -0.014 A 
ATOM     76  C   UNL     1      -6.099  -2.578  -2.584  1.00  0.00     0.009 A 
ATOM     77  C   UNL     1      -6.499  -1.335  -4.616  1.00  0.00     0.009 A 
ATOM     78  C   UNL     1      -7.323  -3.234  -2.752  1.00  0.00     0.001 A 
ATOM     79  C   UNL     1      -7.737  -1.964  -4.761  1.00  0.00     0.001 A 
ATOM     80  C   UNL     1      -8.142  -2.924  -3.837  1.00  0.00     0.000 A 
ENDBRANCH  56  75
BRANCH  68  81
ATOM     81  C   UNL     1       0.770  -4.248  -4.024  1.00  0.00    -0.014 A 
ATOM     82  C   UNL     1       0.669  -4.883  -5.272  1.00  0.00     0.009 A 
ATOM     83  C   UNL     1       1.409  -4.923  -2.971  1.00  0.00     0.009 A 
ATOM     84  C   UNL     1       1.172  -6.174  -5.453  1.00  0.00     0.001 A 
ATOM     85  C   UNL     1       1.938  -6.202  -3.163  1.00  0.00     0.001 A 
ATOM     86  C   UNL     1       1.812  -6.829  -4.401  1.00  0.00     0.000 A 
ENDBRANCH  68  81
ENDBRANCH  42  43
ENDBRANCH  35  37
ENDBRANCH  34  35
ENDBRANCH  33  34
ENDBRANCH   1  33
TORSDOF 17
