REMARK SMILES C/C(=N\Nc1nc(-c2ccc(Cl)cc2)cs1)c1nnn(-c2ccc(C(=O)OCCOC(=O)c3ccc(-c4c5nc(c(-c6ccccc6)c6ccc([nH]6)c(-c6ccccc6)c6nc(c(-c7ccccc7)c7ccc4[nH]7)C=C6)C=C5)cc3)cc2)c1C
REMARK SMILES IDX 27 1 25 2 26 3 24 4 21 5 22 6 82 7 23 8 81 9 20 10 17 11
REMARK SMILES IDX 18 12 83 13 19 14 84 15 2 16 1 17 3 18 4 19 5 21 6 22 16 23
REMARK SMILES IDX 7 24 15 25 8 26 9 27 14 28 10 29 13 30 11 31 12 32 28 33
REMARK SMILES IDX 29 34 30 35 31 36 32 37 33 38 34 39 80 40 35 41 79 42 36 43
REMARK SMILES IDX 37 44 38 45 73 46 39 47 78 48 72 49 74 50 40 51 77 52 71 53
REMARK SMILES IDX 70 54 41 56 63 57 48 58 62 59 49 60 52 61 61 62 75 63 50 64
REMARK SMILES IDX 51 65 60 67 76 68 53 69 42 70 43 71 47 72 44 73 46 74 45 75
REMARK SMILES IDX 64 76 65 77 69 78 66 79 68 80 67 81 54 82 55 83 59 84 56 85
REMARK SMILES IDX 58 86 57 87
REMARK H PARENT 4 20 74 55 52 66
REMARK Flexibility Score: inf
ROOT
ATOM      1  O   UNL     1       8.009   3.129   5.647  1.00  0.00    -0.458 OA
ENDROOT
BRANCH   1   2
ATOM      2  C   UNL     1       7.139   2.171   6.059  1.00  0.00     0.338 C 
ATOM      3  O   UNL     1       7.381   1.256   6.834  1.00  0.00    -0.246 OA
BRANCH   2   4
ATOM      4  C   UNL     1       5.789   2.436   5.498  1.00  0.00     0.060 A 
ATOM      5  C   UNL     1       3.305   2.673   4.283  1.00  0.00     0.067 A 
ATOM      6  C   UNL     1       3.421   1.883   5.430  1.00  0.00     0.029 A 
ATOM      7  C   UNL     1       4.373   3.461   3.841  1.00  0.00     0.029 A 
ATOM      8  C   UNL     1       4.679   1.753   6.027  1.00  0.00     0.018 A 
ATOM      9  C   UNL     1       5.615   3.341   4.447  1.00  0.00     0.018 A 
BRANCH   5  10
ATOM     10  N   UNL     1       2.206   2.485   3.421  1.00  0.00    -0.217 N 
ATOM     11  C   UNL     1       0.987   1.797   1.751  1.00  0.00     0.132 A 
ATOM     12  N   UNL     1       0.169   2.030   2.821  1.00  0.00    -0.128 NA
ATOM     13  C   UNL     1       2.296   2.088   2.097  1.00  0.00     0.071 A 
ATOM     14  N   UNL     1       0.933   2.366   3.856  1.00  0.00    -0.061 NA
ATOM     15  C   UNL     1       3.567   1.816   1.369  1.00  0.00     0.069 C 
BRANCH  11  16
ATOM     16  C   UNL     1       0.587   1.121   0.527  1.00  0.00     0.087 C 
ATOM     17  C   UNL     1       1.247  -0.223   0.314  1.00  0.00     0.071 C 
ATOM     18  N   UNL     1      -0.200   1.786  -0.272  1.00  0.00    -0.176 NA
BRANCH  18  19
ATOM     19  N   UNL     1      -0.523   1.360  -1.540  1.00  0.00    -0.252 N 
ATOM     20  H   UNL     1      -0.817   2.073  -2.152  1.00  0.00     0.193 HD
BRANCH  19  21
ATOM     21  C   UNL     1      -0.502   0.117  -2.085  1.00  0.00     0.203 A 
ATOM     22  N   UNL     1      -0.734  -1.006  -1.448  1.00  0.00    -0.219 NA
ATOM     23  S   UNL     1      -0.022  -0.106  -3.732  1.00  0.00    -0.103 S 
ATOM     24  C   UNL     1      -0.218  -2.075  -2.149  1.00  0.00     0.084 A 
ATOM     25  C   UNL     1       0.223  -1.781  -3.421  1.00  0.00     0.097 A 
BRANCH  24  26
ATOM     26  C   UNL     1      -0.086  -3.358  -1.487  1.00  0.00     0.001 A 
ATOM     27  C   UNL     1      -1.191  -3.898  -0.816  1.00  0.00     0.012 A 
ATOM     28  C   UNL     1       1.160  -3.993  -1.385  1.00  0.00     0.012 A 
ATOM     29  C   UNL     1      -1.061  -5.072  -0.070  1.00  0.00     0.021 A 
ATOM     30  C   UNL     1       1.292  -5.162  -0.628  1.00  0.00     0.021 A 
ATOM     31  C   UNL     1       0.180  -5.697   0.022  1.00  0.00     0.041 A 
ATOM     32  Cl  UNL     1       0.348  -7.127   0.964  1.00  0.00    -0.084 Cl
ENDBRANCH  24  26
ENDBRANCH  19  21
ENDBRANCH  18  19
ENDBRANCH  11  16
ENDBRANCH   5  10
ENDBRANCH   2   4
ENDBRANCH   1   2
BRANCH   1  33
ATOM     33  C   UNL     1       9.262   3.208   6.345  1.00  0.00     0.275 C 
BRANCH  33  34
ATOM     34  C   UNL     1       9.145   4.113   7.562  1.00  0.00     0.275 C 
BRANCH  34  35
ATOM     35  O   UNL     1       8.359   3.486   8.573  1.00  0.00    -0.458 OA
BRANCH  35  36
ATOM     36  C   UNL     1       7.041   3.783   8.552  1.00  0.00     0.338 C 
ATOM     37  O   UNL     1       6.436   4.409   7.697  1.00  0.00    -0.246 OA
BRANCH  36  38
ATOM     38  C   UNL     1       6.457   3.430   9.848  1.00  0.00     0.060 A 
ATOM     39  C   UNL     1       5.095   3.701  10.018  1.00  0.00     0.016 A 
ATOM     40  C   UNL     1       7.317   3.210  10.932  1.00  0.00     0.016 A 
ATOM     41  C   UNL     1       4.648   3.997  11.284  1.00  0.00     0.010 A 
ATOM     42  C   UNL     1       6.877   3.532  12.188  1.00  0.00     0.010 A 
ATOM     43  C   UNL     1       5.577   4.012  12.327  1.00  0.00    -0.014 A 
BRANCH  43  44
ATOM     44  C   UNL     1       5.155   4.512  13.614  1.00  0.00     0.031 A 
ATOM     45  C   UNL     1       4.315   3.563  14.368  1.00  0.00     0.074 A 
ATOM     46  C   UNL     1       5.636   5.664  14.115  1.00  0.00     0.049 A 
ATOM     47  N   UNL     1       3.093   3.716  14.752  1.00  0.00    -0.248 NA
ATOM     48  C   UNL     1       4.867   2.218  14.600  1.00  0.00     0.031 C 
ATOM     49  C   UNL     1       6.705   6.510  13.575  1.00  0.00     0.029 A 
ATOM     50  N   UNL     1       5.354   6.246  15.309  1.00  0.00    -0.354 N 
ATOM     51  C   UNL     1       2.778   2.551  15.440  1.00  0.00     0.074 A 
ATOM     52  C   UNL     1       3.825   1.603  15.153  1.00  0.00     0.031 C 
ATOM     53  C   UNL     1       7.143   7.340  14.549  1.00  0.00     0.029 A 
ATOM     54  C   UNL     1       6.303   7.168  15.723  1.00  0.00     0.049 A 
ATOM     55  H   UNL     1       4.548   6.032  15.833  1.00  0.00     0.167 HD
ATOM     56  C   UNL     1       1.839   2.538  16.422  1.00  0.00     0.031 A 
ATOM     57  C   UNL     1       6.433   7.672  16.974  1.00  0.00     0.031 A 
ATOM     58  C   UNL     1       0.958   3.673  16.344  1.00  0.00     0.049 A 
ATOM     59  C   UNL     1       5.160   7.426  17.694  1.00  0.00     0.074 A 
ATOM     60  C   UNL     1       0.096   4.170  15.387  1.00  0.00     0.029 A 
ATOM     61  N   UNL     1       1.180   4.706  17.224  1.00  0.00    -0.354 N 
ATOM     62  N   UNL     1       4.038   8.012  17.390  1.00  0.00    -0.248 NA
ATOM     63  C   UNL     1       5.030   6.199  18.466  1.00  0.00     0.031 C 
ATOM     64  C   UNL     1       0.222   5.588  15.476  1.00  0.00     0.029 A 
ATOM     65  C   UNL     1       1.115   5.875  16.510  1.00  0.00     0.049 A 
ATOM     66  H   UNL     1       1.353   4.622  18.189  1.00  0.00     0.167 HD
ATOM     67  C   UNL     1       3.071   7.028  17.539  1.00  0.00     0.074 A 
ATOM     68  C   UNL     1       3.721   5.972  18.311  1.00  0.00     0.031 C 
ATOM     69  C   UNL     1       1.936   7.035  16.778  1.00  0.00     0.031 A 
BRANCH  56  70
ATOM     70  C   UNL     1       2.020   1.738  17.686  1.00  0.00    -0.014 A 
ATOM     71  C   UNL     1       0.980   1.716  18.627  1.00  0.00     0.009 A 
ATOM     72  C   UNL     1       3.271   1.244  18.111  1.00  0.00     0.009 A 
ATOM     73  C   UNL     1       1.202   1.286  19.941  1.00  0.00     0.001 A 
ATOM     74  C   UNL     1       3.485   0.772  19.406  1.00  0.00     0.001 A 
ATOM     75  C   UNL     1       2.455   0.821  20.331  1.00  0.00     0.000 A 
ENDBRANCH  56  70
BRANCH  57  76
ATOM     76  C   UNL     1       7.678   8.061  17.669  1.00  0.00    -0.014 A 
ATOM     77  C   UNL     1       7.641   8.869  18.815  1.00  0.00     0.009 A 
ATOM     78  C   UNL     1       8.895   7.427  17.353  1.00  0.00     0.009 A 
ATOM     79  C   UNL     1       8.773   9.011  19.630  1.00  0.00     0.001 A 
ATOM     80  C   UNL     1      10.025   7.572  18.163  1.00  0.00     0.001 A 
ATOM     81  C   UNL     1       9.959   8.354  19.310  1.00  0.00     0.000 A 
ENDBRANCH  57  76
BRANCH  69  82
ATOM     82  C   UNL     1       1.672   8.256  15.928  1.00  0.00    -0.014 A 
ATOM     83  C   UNL     1       2.532   8.658  14.890  1.00  0.00     0.009 A 
ATOM     84  C   UNL     1       0.451   8.928  16.076  1.00  0.00     0.009 A 
ATOM     85  C   UNL     1       2.195   9.723  14.047  1.00  0.00     0.001 A 
ATOM     86  C   UNL     1       0.105   9.978  15.222  1.00  0.00     0.001 A 
ATOM     87  C   UNL     1       0.978  10.379  14.212  1.00  0.00     0.000 A 
ENDBRANCH  69  82
ENDBRANCH  43  44
ENDBRANCH  36  38
ENDBRANCH  35  36
ENDBRANCH  34  35
ENDBRANCH  33  34
ENDBRANCH   1  33
TORSDOF 16
