REMARK SMILES Nc1cccc(C(=O)N[C@@H]2C=C[C@@H](C(=O)OCCOC(=O)c3ccc(-c4c5nc(c(-c6ccccc6)c6ccc([nH]6)c(-c6ccccc6)c6nc(c(-c7ccccc7)c7ccc4[nH]7)C=C6)C=C5)cc3)C2)c1
REMARK SMILES IDX 17 1 16 2 14 3 15 4 13 5 10 6 11 7 70 8 12 9 9 10 7 11 8 12
REMARK SMILES IDX 6 14 2 15 3 16 71 17 4 18 5 19 1 20 18 23 19 24 20 25 21 26
REMARK SMILES IDX 22 27 23 28 69 29 24 30 68 31 25 32 26 33 27 34 62 35 28 36
REMARK SMILES IDX 67 37 61 38 63 39 29 40 66 41 60 42 59 43 30 45 52 46 37 47
REMARK SMILES IDX 51 48 38 49 41 50 50 51 64 52 39 53 40 54 49 56 65 57 42 58
REMARK SMILES IDX 31 59 32 60 36 61 33 62 35 63 34 64 53 65 54 66 58 67 55 68
REMARK SMILES IDX 57 69 56 70 43 71 44 72 48 73 45 74 47 75 46 76
REMARK H PARENT 9 13 1 21 1 22 63 44 41 55
REMARK Flexibility Score: inf
ROOT
ATOM      1  C   UNL     1       0.794   2.111   5.245  1.00  0.00     0.274 C 
ENDROOT
BRANCH   1   2
ATOM      2  O   UNL     1       0.743   2.449   3.845  1.00  0.00    -0.462 OA
BRANCH   2   3
ATOM      3  C   UNL     1       1.785   3.186   3.380  1.00  0.00     0.312 C 
ATOM      4  O   UNL     1       2.679   3.638   4.089  1.00  0.00    -0.252 OA
BRANCH   3   5
ATOM      5  C   UNL     1       1.818   3.254   1.855  1.00  0.00     0.124 C 
ATOM      6  C   UNL     1       0.354   4.518   0.326  1.00  0.00     0.106 C 
ATOM      7  C   UNL     1       1.619   5.245   0.633  1.00  0.00    -0.006 C 
ATOM      8  C   UNL     1       0.483   3.201   1.107  1.00  0.00     0.048 C 
ATOM      9  C   UNL     1       2.420   4.561   1.447  1.00  0.00    -0.014 C 
BRANCH   6  10
ATOM     10  N   UNL     1       0.235   4.324  -1.109  1.00  0.00    -0.346 N 
ATOM     11  C   UNL     1       0.063   5.257  -2.109  1.00  0.00     0.251 C 
ATOM     12  O   UNL     1       0.019   4.903  -3.283  1.00  0.00    -0.269 OA
ATOM     13  H   UNL     1       0.285   3.389  -1.412  1.00  0.00     0.164 HD
BRANCH  11  14
ATOM     14  C   UNL     1       0.044   6.698  -1.771  1.00  0.00     0.041 A 
ATOM     15  C   UNL     1      -0.548   8.471  -0.234  1.00  0.00     0.032 A 
ATOM     16  C   UNL     1       0.356   9.311  -0.890  1.00  0.00     0.025 A 
ATOM     17  C   UNL     1      -0.768   7.196  -0.748  1.00  0.00     0.039 A 
ATOM     18  C   UNL     1       1.091   8.856  -1.989  1.00  0.00     0.003 A 
ATOM     19  C   UNL     1       0.951   7.540  -2.421  1.00  0.00     0.014 A 
BRANCH  15  20
ATOM     20  N   UNL     1      -1.280   8.922   0.852  1.00  0.00    -0.399 N 
ATOM     21  H   UNL     1      -1.121   9.825   1.212  1.00  0.00     0.156 HD
ATOM     22  H   UNL     1      -1.959   8.341   1.264  1.00  0.00     0.156 HD
ENDBRANCH  15  20
ENDBRANCH  11  14
ENDBRANCH   6  10
ENDBRANCH   3   5
ENDBRANCH   2   3
ENDBRANCH   1   2
BRANCH   1  23
ATOM     23  C   UNL     1       1.264   0.667   5.436  1.00  0.00     0.275 C 
BRANCH  23  24
ATOM     24  O   UNL     1       2.605   0.468   4.941  1.00  0.00    -0.458 OA
BRANCH  24  25
ATOM     25  C   UNL     1       2.681   0.035   3.668  1.00  0.00     0.338 C 
ATOM     26  O   UNL     1       1.746  -0.197   2.901  1.00  0.00    -0.246 OA
BRANCH  25  27
ATOM     27  C   UNL     1       4.073  -0.059   3.227  1.00  0.00     0.060 A 
ATOM     28  C   UNL     1       4.628   1.017   2.535  1.00  0.00     0.016 A 
ATOM     29  C   UNL     1       4.762  -1.268   3.317  1.00  0.00     0.016 A 
ATOM     30  C   UNL     1       5.819   0.861   1.839  1.00  0.00     0.010 A 
ATOM     31  C   UNL     1       6.009  -1.392   2.695  1.00  0.00     0.010 A 
ATOM     32  C   UNL     1       6.532  -0.341   1.919  1.00  0.00    -0.014 A 
BRANCH  32  33
ATOM     33  C   UNL     1       7.809  -0.491   1.176  1.00  0.00     0.031 A 
ATOM     34  C   UNL     1       7.949  -1.544   0.110  1.00  0.00     0.074 A 
ATOM     35  C   UNL     1       8.842   0.331   1.445  1.00  0.00     0.049 A 
ATOM     36  N   UNL     1       9.024  -1.932  -0.527  1.00  0.00    -0.248 NA
ATOM     37  C   UNL     1       6.726  -2.262  -0.283  1.00  0.00     0.031 C 
ATOM     38  C   UNL     1       8.826   1.426   2.419  1.00  0.00     0.029 A 
ATOM     39  N   UNL     1      10.108   0.376   0.918  1.00  0.00    -0.354 N 
ATOM     40  C   UNL     1       8.621  -2.979  -1.347  1.00  0.00     0.074 A 
ATOM     41  C   UNL     1       7.200  -3.158  -1.138  1.00  0.00     0.031 C 
ATOM     42  C   UNL     1      10.013   2.050   2.399  1.00  0.00     0.029 A 
ATOM     43  C   UNL     1      10.898   1.352   1.475  1.00  0.00     0.049 A 
ATOM     44  H   UNL     1      10.420  -0.233   0.210  1.00  0.00     0.167 HD
ATOM     45  C   UNL     1       9.372  -3.728  -2.188  1.00  0.00     0.031 A 
ATOM     46  C   UNL     1      12.203   1.629   1.300  1.00  0.00     0.031 A 
ATOM     47  C   UNL     1      10.773  -3.515  -2.435  1.00  0.00     0.049 A 
ATOM     48  C   UNL     1      13.014   0.776   0.370  1.00  0.00     0.074 A 
ATOM     49  C   UNL     1      11.613  -4.207  -3.290  1.00  0.00     0.029 A 
ATOM     50  N   UNL     1      11.535  -2.523  -1.839  1.00  0.00    -0.354 N 
ATOM     51  N   UNL     1      12.627  -0.238  -0.365  1.00  0.00    -0.248 NA
ATOM     52  C   UNL     1      14.444   1.094   0.260  1.00  0.00     0.031 C 
ATOM     53  C   UNL     1      12.894  -3.654  -3.186  1.00  0.00     0.029 A 
ATOM     54  C   UNL     1      12.840  -2.596  -2.294  1.00  0.00     0.049 A 
ATOM     55  H   UNL     1      11.198  -1.865  -1.188  1.00  0.00     0.167 HD
ATOM     56  C   UNL     1      13.765  -0.678  -1.026  1.00  0.00     0.074 A 
ATOM     57  C   UNL     1      14.850   0.195  -0.625  1.00  0.00     0.031 C 
ATOM     58  C   UNL     1      13.902  -1.718  -1.882  1.00  0.00     0.031 A 
BRANCH  45  59
ATOM     59  C   UNL     1       8.704  -4.885  -2.873  1.00  0.00    -0.014 A 
ATOM     60  C   UNL     1       7.861  -4.700  -3.978  1.00  0.00     0.009 A 
ATOM     61  C   UNL     1       8.971  -6.191  -2.429  1.00  0.00     0.009 A 
ATOM     62  C   UNL     1       7.281  -5.801  -4.612  1.00  0.00     0.001 A 
ATOM     63  C   UNL     1       8.406  -7.290  -3.077  1.00  0.00     0.001 A 
ATOM     64  C   UNL     1       7.557  -7.094  -4.165  1.00  0.00     0.000 A 
ENDBRANCH  45  59
BRANCH  46  65
ATOM     65  C   UNL     1      12.837   2.723   2.077  1.00  0.00    -0.014 A 
ATOM     66  C   UNL     1      13.240   3.909   1.447  1.00  0.00     0.009 A 
ATOM     67  C   UNL     1      13.039   2.583   3.460  1.00  0.00     0.009 A 
ATOM     68  C   UNL     1      13.849   4.927   2.185  1.00  0.00     0.001 A 
ATOM     69  C   UNL     1      13.623   3.613   4.199  1.00  0.00     0.001 A 
ATOM     70  C   UNL     1      14.034   4.781   3.560  1.00  0.00     0.000 A 
ENDBRANCH  46  65
BRANCH  58  71
ATOM     71  C   UNL     1      15.269  -1.951  -2.451  1.00  0.00    -0.014 A 
ATOM     72  C   UNL     1      16.273  -2.560  -1.684  1.00  0.00     0.009 A 
ATOM     73  C   UNL     1      15.545  -1.583  -3.776  1.00  0.00     0.009 A 
ATOM     74  C   UNL     1      17.541  -2.772  -2.227  1.00  0.00     0.001 A 
ATOM     75  C   UNL     1      16.808  -1.814  -4.322  1.00  0.00     0.001 A 
ATOM     76  C   UNL     1      17.806  -2.401  -3.545  1.00  0.00     0.000 A 
ENDBRANCH  58  71
ENDBRANCH  32  33
ENDBRANCH  25  27
ENDBRANCH  24  25
ENDBRANCH  23  24
ENDBRANCH   1  23
TORSDOF 14
