REMARK SMILES O=C(OCCOC(=O)c1ccc(O)c(Br)n1)c1ccc(-c2c3nc(c(-c4ccccc4)c4ccc([nH]4)c(-c4ccccc4)c4nc(c(-c5ccccc5)c5ccc2[nH]5)C=C4)C=C3)cc1
REMARK SMILES IDX 4 1 3 2 2 3 1 4 17 5 18 6 64 7 19 8 63 9 20 10 21 11 22 12
REMARK SMILES IDX 57 13 23 14 62 15 56 16 58 17 24 18 61 19 55 20 54 21 25 23
REMARK SMILES IDX 47 24 32 25 46 26 33 27 36 28 45 29 59 30 34 31 35 32 44 34
REMARK SMILES IDX 60 35 37 36 26 37 27 38 31 39 28 40 30 41 29 42 48 43 49 44
REMARK SMILES IDX 53 45 50 46 52 47 51 48 38 49 39 50 43 51 40 52 42 53 41 54
REMARK SMILES IDX 5 55 6 56 7 57 8 58 9 59 10 60 16 61 11 62 14 63 12 64 15 65
REMARK SMILES IDX 13 66
REMARK H PARENT 58 22 36 33 13 67
REMARK Flexibility Score: inf
ROOT
ATOM      1  C   UNL     1       3.984   1.409  -0.625  1.00  0.00     0.275 C 
ENDROOT
BRANCH   1   2
ATOM      2  O   UNL     1       3.036   0.393  -0.995  1.00  0.00    -0.458 OA
BRANCH   2   3
ATOM      3  C   UNL     1       3.166  -0.942  -0.805  1.00  0.00     0.338 C 
ATOM      4  O   UNL     1       2.623  -1.726  -1.580  1.00  0.00    -0.246 OA
BRANCH   3   5
ATOM      5  C   UNL     1       3.714  -1.490   0.472  1.00  0.00     0.060 A 
ATOM      6  C   UNL     1       4.843  -1.020   1.146  1.00  0.00     0.016 A 
ATOM      7  C   UNL     1       3.024  -2.588   1.018  1.00  0.00     0.016 A 
ATOM      8  C   UNL     1       5.224  -1.567   2.373  1.00  0.00     0.010 A 
ATOM      9  C   UNL     1       3.394  -3.133   2.249  1.00  0.00     0.010 A 
ATOM     10  C   UNL     1       4.500  -2.621   2.932  1.00  0.00    -0.014 A 
BRANCH  10  11
ATOM     11  C   UNL     1       5.007  -3.290   4.145  1.00  0.00     0.031 A 
ATOM     12  C   UNL     1       5.788  -4.554   3.983  1.00  0.00     0.074 A 
ATOM     13  C   UNL     1       4.829  -2.753   5.364  1.00  0.00     0.049 A 
ATOM     14  N   UNL     1       6.433  -5.235   4.892  1.00  0.00    -0.248 NA
ATOM     15  C   UNL     1       5.899  -5.100   2.620  1.00  0.00     0.031 C 
ATOM     16  C   UNL     1       4.170  -1.480   5.640  1.00  0.00     0.029 A 
ATOM     17  N   UNL     1       5.187  -3.222   6.603  1.00  0.00    -0.354 N 
ATOM     18  C   UNL     1       7.088  -6.238   4.199  1.00  0.00     0.074 A 
ATOM     19  C   UNL     1       6.687  -6.145   2.814  1.00  0.00     0.031 C 
ATOM     20  C   UNL     1       4.113  -1.301   6.971  1.00  0.00     0.029 A 
ATOM     21  C   UNL     1       4.729  -2.443   7.635  1.00  0.00     0.049 A 
ATOM     22  H   UNL     1       5.720  -4.038   6.738  1.00  0.00     0.167 HD
ATOM     23  C   UNL     1       7.997  -7.119   4.670  1.00  0.00     0.031 A 
ATOM     24  C   UNL     1       4.793  -2.626   8.967  1.00  0.00     0.031 A 
ATOM     25  C   UNL     1       8.365  -7.226   6.050  1.00  0.00     0.049 A 
ATOM     26  C   UNL     1       5.623  -3.755   9.501  1.00  0.00     0.074 A 
ATOM     27  C   UNL     1       9.306  -8.056   6.627  1.00  0.00     0.029 A 
ATOM     28  N   UNL     1       7.782  -6.495   7.073  1.00  0.00    -0.354 N 
ATOM     29  N   UNL     1       6.316  -4.641   8.827  1.00  0.00    -0.248 NA
ATOM     30  C   UNL     1       5.738  -3.878  10.960  1.00  0.00     0.031 C 
ATOM     31  C   UNL     1       9.252  -7.867   8.011  1.00  0.00     0.029 A 
ATOM     32  C   UNL     1       8.308  -6.889   8.288  1.00  0.00     0.049 A 
ATOM     33  H   UNL     1       7.095  -5.800   6.952  1.00  0.00     0.167 HD
ATOM     34  C   UNL     1       7.002  -5.385   9.774  1.00  0.00     0.074 A 
ATOM     35  C   UNL     1       6.609  -4.876  11.073  1.00  0.00     0.031 C 
ATOM     36  C   UNL     1       7.907  -6.373   9.572  1.00  0.00     0.031 A 
BRANCH  23  37
ATOM     37  C   UNL     1       8.657  -8.007   3.662  1.00  0.00    -0.014 A 
ATOM     38  C   UNL     1       9.635  -7.492   2.795  1.00  0.00     0.009 A 
ATOM     39  C   UNL     1       8.299  -9.358   3.570  1.00  0.00     0.009 A 
ATOM     40  C   UNL     1      10.221  -8.311   1.830  1.00  0.00     0.001 A 
ATOM     41  C   UNL     1       8.901 -10.178   2.615  1.00  0.00     0.001 A 
ATOM     42  C   UNL     1       9.855  -9.653   1.742  1.00  0.00     0.000 A 
ENDBRANCH  23  37
BRANCH  24  43
ATOM     43  C   UNL     1       4.057  -1.698   9.861  1.00  0.00    -0.014 A 
ATOM     44  C   UNL     1       4.703  -0.617  10.474  1.00  0.00     0.009 A 
ATOM     45  C   UNL     1       2.671  -1.851  10.034  1.00  0.00     0.009 A 
ATOM     46  C   UNL     1       3.973   0.298  11.239  1.00  0.00     0.001 A 
ATOM     47  C   UNL     1       1.944  -0.930  10.792  1.00  0.00     0.001 A 
ATOM     48  C   UNL     1       2.595   0.145  11.392  1.00  0.00     0.000 A 
ENDBRANCH  24  43
BRANCH  36  49
ATOM     49  C   UNL     1       8.582  -6.970  10.769  1.00  0.00    -0.014 A 
ATOM     50  C   UNL     1       7.951  -7.965  11.526  1.00  0.00     0.009 A 
ATOM     51  C   UNL     1       9.926  -6.654  11.026  1.00  0.00     0.009 A 
ATOM     52  C   UNL     1       8.663  -8.648  12.513  1.00  0.00     0.001 A 
ATOM     53  C   UNL     1      10.639  -7.352  11.999  1.00  0.00     0.001 A 
ATOM     54  C   UNL     1      10.008  -8.351  12.738  1.00  0.00     0.000 A 
ENDBRANCH  36  49
ENDBRANCH  10  11
ENDBRANCH   3   5
ENDBRANCH   2   3
ENDBRANCH   1   2
BRANCH   1  55
ATOM     55  C   UNL     1       3.591   2.193   0.632  1.00  0.00     0.275 C 
BRANCH  55  56
ATOM     56  O   UNL     1       2.995   1.380   1.654  1.00  0.00    -0.457 OA
BRANCH  56  57
ATOM     57  C   UNL     1       1.631   1.348   1.636  1.00  0.00     0.357 C 
ATOM     58  O   UNL     1       0.896   1.917   0.857  1.00  0.00    -0.244 OA
BRANCH  57  59
ATOM     59  C   UNL     1       1.162   0.359   2.638  1.00  0.00     0.150 A 
ATOM     60  C   UNL     1       0.597  -0.821   2.168  1.00  0.00     0.040 A 
ATOM     61  N   UNL     1       1.330   0.656   3.951  1.00  0.00    -0.230 NA
ATOM     62  C   UNL     1       0.301  -1.820   3.090  1.00  0.00     0.051 A 
ATOM     63  C   UNL     1       0.943  -0.302   4.824  1.00  0.00     0.148 A 
ATOM     64  C   UNL     1       0.510  -1.571   4.438  1.00  0.00     0.148 A 
ATOM     65  Br  UNL     1       0.893   0.173   6.664  1.00  0.00    -0.025 Br
BRANCH  64  66
ATOM     66  O   UNL     1       0.293  -2.603   5.305  1.00  0.00    -0.505 OA
ATOM     67  H   UNL     1       0.003  -3.433   4.982  1.00  0.00     0.293 HD
ENDBRANCH  64  66
ENDBRANCH  57  59
ENDBRANCH  56  57
ENDBRANCH  55  56
ENDBRANCH   1  55
TORSDOF 12
