REMARK SMILES C[C@H](O)[C@H](NC(=O)N1CC[N@@H+]2CCC[C@@H]2C1)C(=O)OCCOC(=O)c1ccc(-c2c3nc(c(-c4ccccc4)c4ccc([nH]4)c(-c4ccccc4)c4nc(c(-c5ccccc5)c5ccc2[nH]5)C=C4)C=C3)cc1
REMARK SMILES IDX 20 1 19 2 17 3 18 4 4 5 2 6 1 7 3 8 5 10 6 11 7 13 8 14 9 15
REMARK SMILES IDX 16 16 10 17 15 18 11 19 14 20 12 21 13 23 21 24 22 25 23 26
REMARK SMILES IDX 24 27 25 28 26 29 72 30 27 31 71 32 28 33 29 34 30 35 65 36
REMARK SMILES IDX 31 37 70 38 64 39 66 40 32 41 69 42 63 43 62 44 33 46 55 47
REMARK SMILES IDX 40 48 54 49 41 50 44 51 53 52 67 53 42 54 43 55 52 57 68 58
REMARK SMILES IDX 45 59 34 60 35 61 39 62 36 63 38 64 37 65 56 66 57 67 61 68
REMARK SMILES IDX 58 69 60 70 59 71 46 72 47 73 51 74 48 75 50 76 49 77
REMARK H PARENT 3 9 5 12 11 22 66 45 44 56
REMARK Flexibility Score: inf
ROOT
ATOM      1  C   UNL     1      -1.599   4.733   1.913  1.00  0.00     0.274 C 
ENDROOT
BRANCH   1   2
ATOM      2  O   UNL     1      -1.152   3.371   1.791  1.00  0.00    -0.460 OA
BRANCH   2   3
ATOM      3  C   UNL     1      -1.920   2.522   1.039  1.00  0.00     0.331 C 
ATOM      4  O   UNL     1      -2.976   2.834   0.502  1.00  0.00    -0.250 OA
BRANCH   3   5
ATOM      5  C   UNL     1      -1.324   1.098   1.020  1.00  0.00     0.222 C 
BRANCH   5   6
ATOM      6  C   UNL     1      -2.214   0.199   1.909  1.00  0.00     0.145 C 
ATOM      7  C   UNL     1      -3.307  -0.463   1.065  1.00  0.00     0.041 C 
BRANCH   6   8
ATOM      8  O   UNL     1      -2.824   0.901   2.993  1.00  0.00    -0.391 OA
ATOM      9  H   UNL     1      -3.422   1.580   2.643  1.00  0.00     0.211 HD
ENDBRANCH   6   8
ENDBRANCH   5   6
BRANCH   5  10
ATOM     10  N   UNL     1       0.115   1.176   1.316  1.00  0.00    -0.322 N 
ATOM     11  C   UNL     1       1.058   0.262   1.629  1.00  0.00     0.318 C 
ATOM     12  H   UNL     1       0.467   2.095   1.278  1.00  0.00     0.166 HD
ATOM     13  O   UNL     1       2.239   0.599   1.645  1.00  0.00    -0.249 OA
BRANCH  11  14
ATOM     14  N   UNL     1       0.633  -0.940   2.102  1.00  0.00    -0.313 N 
ATOM     15  C   UNL     1       0.327  -2.056   1.206  1.00  0.00     0.183 C 
ATOM     16  C   UNL     1       1.033  -1.283   3.461  1.00  0.00     0.186 C 
ATOM     17  C   UNL     1      -0.303  -3.233   1.977  1.00  0.00     0.284 C 
ATOM     18  C   UNL     1       1.456  -2.748   3.650  1.00  0.00     0.204 C 
ATOM     19  N   UNL     1       0.601  -3.767   3.003  1.00  0.00    -0.330 N 
ATOM     20  C   UNL     1       1.496  -3.122   5.134  1.00  0.00     0.073 C 
ATOM     21  C   UNL     1      -0.077  -4.527   4.051  1.00  0.00     0.262 C 
ATOM     22  H   UNL     1       1.195  -4.397   2.465  1.00  0.00     0.348 HD
ATOM     23  C   UNL     1       0.941  -4.533   5.177  1.00  0.00     0.068 C 
ENDBRANCH  11  14
ENDBRANCH   5  10
ENDBRANCH   3   5
ENDBRANCH   2   3
ENDBRANCH   1   2
BRANCH   1  24
ATOM     24  C   UNL     1      -0.886   5.652   0.914  1.00  0.00     0.275 C 
BRANCH  24  25
ATOM     25  O   UNL     1      -1.311   5.408  -0.439  1.00  0.00    -0.458 OA
BRANCH  25  26
ATOM     26  C   UNL     1      -0.659   4.404  -1.073  1.00  0.00     0.338 C 
ATOM     27  O   UNL     1       0.270   3.741  -0.641  1.00  0.00    -0.246 OA
BRANCH  26  28
ATOM     28  C   UNL     1      -1.369   4.067  -2.320  1.00  0.00     0.060 A 
ATOM     29  C   UNL     1      -1.651   2.717  -2.557  1.00  0.00     0.016 A 
ATOM     30  C   UNL     1      -1.729   5.039  -3.253  1.00  0.00     0.016 A 
ATOM     31  C   UNL     1      -2.301   2.329  -3.721  1.00  0.00     0.010 A 
ATOM     32  C   UNL     1      -2.369   4.648  -4.432  1.00  0.00     0.010 A 
ATOM     33  C   UNL     1      -2.651   3.291  -4.672  1.00  0.00    -0.014 A 
BRANCH  33  34
ATOM     34  C   UNL     1      -3.240   2.862  -5.958  1.00  0.00     0.031 A 
ATOM     35  C   UNL     1      -2.378   2.829  -7.184  1.00  0.00     0.074 A 
ATOM     36  C   UNL     1      -4.528   2.480  -6.016  1.00  0.00     0.049 A 
ATOM     37  N   UNL     1      -2.712   2.577  -8.423  1.00  0.00    -0.248 NA
ATOM     38  C   UNL     1      -0.947   3.116  -6.988  1.00  0.00     0.031 C 
ATOM     39  C   UNL     1      -5.440   2.401  -4.875  1.00  0.00     0.029 A 
ATOM     40  N   UNL     1      -5.290   2.088  -7.086  1.00  0.00    -0.354 N 
ATOM     41  C   UNL     1      -1.540   2.699  -9.158  1.00  0.00     0.074 A 
ATOM     42  C   UNL     1      -0.489   3.057  -8.230  1.00  0.00     0.031 C 
ATOM     43  C   UNL     1      -6.644   1.992  -5.308  1.00  0.00     0.029 A 
ATOM     44  C   UNL     1      -6.599   1.830  -6.758  1.00  0.00     0.049 A 
ATOM     45  H   UNL     1      -4.935   2.000  -8.000  1.00  0.00     0.167 HD
ATOM     46  C   UNL     1      -1.361   2.530 -10.489  1.00  0.00     0.031 A 
ATOM     47  C   UNL     1      -7.648   1.532  -7.548  1.00  0.00     0.031 A 
ATOM     48  C   UNL     1      -2.413   2.180 -11.405  1.00  0.00     0.049 A 
ATOM     49  C   UNL     1      -7.440   1.438  -9.034  1.00  0.00     0.074 A 
ATOM     50  C   UNL     1      -2.337   1.988 -12.774  1.00  0.00     0.029 A 
ATOM     51  N   UNL     1      -3.735   1.973 -11.043  1.00  0.00    -0.354 N 
ATOM     52  N   UNL     1      -6.333   1.569  -9.724  1.00  0.00    -0.248 NA
ATOM     53  C   UNL     1      -8.630   1.160  -9.852  1.00  0.00     0.031 C 
ATOM     54  C   UNL     1      -3.624   1.712 -13.246  1.00  0.00     0.029 A 
ATOM     55  C   UNL     1      -4.491   1.678 -12.165  1.00  0.00     0.049 A 
ATOM     56  H   UNL     1      -4.085   2.026 -10.124  1.00  0.00     0.167 HD
ATOM     57  C   UNL     1      -6.686   1.366 -11.052  1.00  0.00     0.074 A 
ATOM     58  C   UNL     1      -8.108   1.090 -11.069  1.00  0.00     0.031 C 
ATOM     59  C   UNL     1      -5.904   1.405 -12.158  1.00  0.00     0.031 A 
BRANCH  46  60
ATOM     60  C   UNL     1       0.016   2.775 -11.035  1.00  0.00    -0.014 A 
ATOM     61  C   UNL     1       1.066   1.872 -10.808  1.00  0.00     0.009 A 
ATOM     62  C   UNL     1       0.260   3.920 -11.810  1.00  0.00     0.009 A 
ATOM     63  C   UNL     1       2.340   2.128 -11.318  1.00  0.00     0.001 A 
ATOM     64  C   UNL     1       1.528   4.161 -12.340  1.00  0.00     0.001 A 
ATOM     65  C   UNL     1       2.569   3.270 -12.087  1.00  0.00     0.000 A 
ENDBRANCH  46  60
BRANCH  47  66
ATOM     66  C   UNL     1      -8.997   1.346  -6.954  1.00  0.00    -0.014 A 
ATOM     67  C   UNL     1      -9.606   0.083  -6.939  1.00  0.00     0.009 A 
ATOM     68  C   UNL     1      -9.689   2.439  -6.407  1.00  0.00     0.009 A 
ATOM     69  C   UNL     1     -10.888  -0.078  -6.407  1.00  0.00     0.001 A 
ATOM     70  C   UNL     1     -10.957   2.270  -5.850  1.00  0.00     0.001 A 
ATOM     71  C   UNL     1     -11.560   1.014  -5.858  1.00  0.00     0.000 A 
ENDBRANCH  47  66
BRANCH  59  72
ATOM     72  C   UNL     1      -6.563   1.105 -13.474  1.00  0.00    -0.014 A 
ATOM     73  C   UNL     1      -7.408   2.037 -14.095  1.00  0.00     0.009 A 
ATOM     74  C   UNL     1      -6.294  -0.111 -14.122  1.00  0.00     0.009 A 
ATOM     75  C   UNL     1      -7.993   1.744 -15.329  1.00  0.00     0.001 A 
ATOM     76  C   UNL     1      -6.858  -0.389 -15.367  1.00  0.00     0.001 A 
ATOM     77  C   UNL     1      -7.713   0.535 -15.965  1.00  0.00     0.000 A 
ENDBRANCH  59  72
ENDBRANCH  33  34
ENDBRANCH  26  28
ENDBRANCH  25  26
ENDBRANCH  24  25
ENDBRANCH   1  24
TORSDOF 15
