REMARK SMILES O=C(COc1ccccc1/C=C1\C(=O)Nc2ccccc21)OCCOC(=O)c1ccc(-c2c3nc(c(-c4ccccc4)c4ccc([nH]4)c(-c4ccccc4)c4nc(c(-c5ccccc5)c5ccc2[nH]5)C=C4)C=C3)cc1
REMARK SMILES IDX 23 1 22 2 2 3 1 4 3 5 4 6 5 7 6 8 10 9 7 10 9 11 8 12 11 13
REMARK SMILES IDX 12 14 13 15 21 16 14 17 15 18 16 19 20 20 17 22 19 23 18 24
REMARK SMILES IDX 24 25 25 26 26 27 27 28 28 29 29 30 75 31 30 32 74 33 31 34
REMARK SMILES IDX 32 35 33 36 68 37 34 38 73 39 67 40 69 41 35 42 72 43 66 44
REMARK SMILES IDX 65 45 36 47 58 48 43 49 57 50 44 51 47 52 56 53 70 54 45 55
REMARK SMILES IDX 46 56 55 58 71 59 48 60 37 61 38 62 42 63 39 64 41 65 40 66
REMARK SMILES IDX 59 67 60 68 64 69 61 70 63 71 62 72 49 73 50 74 54 75 51 76
REMARK SMILES IDX 53 77 52 78
REMARK H PARENT 15 21 69 46 47 57
REMARK Flexibility Score: inf
ROOT
ATOM      1  C   UNL     1       4.544  -0.130  -1.249  1.00  0.00     0.274 C 
ENDROOT
BRANCH   1   2
ATOM      2  O   UNL     1       3.130  -0.416  -1.354  1.00  0.00    -0.460 OA
BRANCH   2   3
ATOM      3  C   UNL     1       2.218  -0.106  -0.398  1.00  0.00     0.344 C 
ATOM      4  O   UNL     1       1.030   0.009  -0.693  1.00  0.00    -0.248 OA
BRANCH   3   5
ATOM      5  C   UNL     1       2.688   0.045   1.036  1.00  0.00     0.352 C 
BRANCH   5   6
ATOM      6  O   UNL     1       3.465  -1.095   1.384  1.00  0.00    -0.481 OA
BRANCH   6   7
ATOM      7  C   UNL     1       3.048  -1.704   2.539  1.00  0.00     0.127 A 
ATOM      8  C   UNL     1       3.723  -1.341   3.710  1.00  0.00     0.047 A 
ATOM      9  C   UNL     1       2.124  -2.771   2.510  1.00  0.00     0.017 A 
ATOM     10  C   UNL     1       3.517  -2.066   4.878  1.00  0.00     0.004 A 
ATOM     11  C   UNL     1       2.025  -3.544   3.671  1.00  0.00     0.012 A 
ATOM     12  C   UNL     1       2.693  -3.186   4.848  1.00  0.00     0.001 A 
BRANCH   9  13
ATOM     13  C   UNL     1       1.334  -3.046   1.287  1.00  0.00     0.026 C 
ATOM     14  C   UNL     1       0.083  -3.522   1.136  1.00  0.00     0.050 C 
ATOM     15  C   UNL     1      -0.889  -4.080   2.156  1.00  0.00     0.256 C 
ATOM     16  C   UNL     1      -0.625  -3.570  -0.162  1.00  0.00     0.011 A 
ATOM     17  O   UNL     1      -0.790  -4.160   3.364  1.00  0.00    -0.269 OA
ATOM     18  N   UNL     1      -1.982  -4.512   1.423  1.00  0.00    -0.321 N 
ATOM     19  C   UNL     1      -1.852  -4.195   0.079  1.00  0.00     0.049 A 
ATOM     20  C   UNL     1      -0.353  -3.061  -1.421  1.00  0.00     0.011 A 
ATOM     21  H   UNL     1      -2.755  -4.985   1.808  1.00  0.00     0.170 HD
ATOM     22  C   UNL     1      -2.808  -4.385  -0.900  1.00  0.00     0.027 A 
ATOM     23  C   UNL     1      -1.318  -3.216  -2.426  1.00  0.00     0.001 A 
ATOM     24  C   UNL     1      -2.530  -3.882  -2.171  1.00  0.00     0.002 A 
ENDBRANCH   9  13
ENDBRANCH   6   7
ENDBRANCH   5   6
ENDBRANCH   3   5
ENDBRANCH   2   3
ENDBRANCH   1   2
BRANCH   1  25
ATOM     25  C   UNL     1       4.856   1.208  -1.917  1.00  0.00     0.275 C 
BRANCH  25  26
ATOM     26  O   UNL     1       4.309   2.268  -1.109  1.00  0.00    -0.458 OA
BRANCH  26  27
ATOM     27  C   UNL     1       3.130   2.782  -1.539  1.00  0.00     0.338 C 
ATOM     28  O   UNL     1       2.558   2.544  -2.583  1.00  0.00    -0.246 OA
BRANCH  27  29
ATOM     29  C   UNL     1       2.538   3.559  -0.431  1.00  0.00     0.060 A 
ATOM     30  C   UNL     1       1.186   3.358  -0.132  1.00  0.00     0.016 A 
ATOM     31  C   UNL     1       3.300   4.472   0.304  1.00  0.00     0.016 A 
ATOM     32  C   UNL     1       0.584   4.091   0.889  1.00  0.00     0.010 A 
ATOM     33  C   UNL     1       2.692   5.218   1.317  1.00  0.00     0.010 A 
ATOM     34  C   UNL     1       1.326   5.049   1.595  1.00  0.00    -0.014 A 
BRANCH  34  35
ATOM     35  C   UNL     1       0.627   5.984   2.505  1.00  0.00     0.031 A 
ATOM     36  C   UNL     1       0.132   7.291   1.953  1.00  0.00     0.074 A 
ATOM     37  C   UNL     1       0.411   5.669   3.793  1.00  0.00     0.049 A 
ATOM     38  N   UNL     1      -0.550   8.236   2.548  1.00  0.00    -0.248 NA
ATOM     39  C   UNL     1       0.446   7.567   0.541  1.00  0.00     0.031 C 
ATOM     40  C   UNL     1       0.826   4.430   4.448  1.00  0.00     0.029 A 
ATOM     41  N   UNL     1      -0.220   6.380   4.783  1.00  0.00    -0.354 N 
ATOM     42  C   UNL     1      -0.770   9.204   1.578  1.00  0.00     0.074 A 
ATOM     43  C   UNL     1      -0.110   8.757   0.370  1.00  0.00     0.031 C 
ATOM     44  C   UNL     1       0.444   4.471   5.737  1.00  0.00     0.029 A 
ATOM     45  C   UNL     1      -0.234   5.740   5.996  1.00  0.00     0.049 A 
ATOM     46  H   UNL     1      -0.625   7.265   4.636  1.00  0.00     0.167 HD
ATOM     47  C   UNL     1      -1.473  10.357   1.675  1.00  0.00     0.031 A 
ATOM     48  C   UNL     1      -0.735   6.137   7.181  1.00  0.00     0.031 A 
ATOM     49  C   UNL     1      -2.097  10.831   2.879  1.00  0.00     0.049 A 
ATOM     50  C   UNL     1      -1.448   7.459   7.282  1.00  0.00     0.074 A 
ATOM     51  C   UNL     1      -2.821  11.993   3.077  1.00  0.00     0.029 A 
ATOM     52  N   UNL     1      -2.061  10.168   4.095  1.00  0.00    -0.354 N 
ATOM     53  N   UNL     1      -1.688   8.345   6.346  1.00  0.00    -0.248 NA
ATOM     54  C   UNL     1      -1.974   7.825   8.606  1.00  0.00     0.031 C 
ATOM     55  C   UNL     1      -3.188  12.054   4.426  1.00  0.00     0.029 A 
ATOM     56  C   UNL     1      -2.732  10.907   5.054  1.00  0.00     0.049 A 
ATOM     57  H   UNL     1      -1.622   9.301   4.254  1.00  0.00     0.167 HD
ATOM     58  C   UNL     1      -2.413   9.359   6.961  1.00  0.00     0.074 A 
ATOM     59  C   UNL     1      -2.588   8.971   8.345  1.00  0.00     0.031 C 
ATOM     60  C   UNL     1      -2.892  10.510   6.428  1.00  0.00     0.031 A 
BRANCH  47  61
ATOM     61  C   UNL     1      -1.587  11.191   0.433  1.00  0.00    -0.014 A 
ATOM     62  C   UNL     1      -2.434  10.802  -0.617  1.00  0.00     0.009 A 
ATOM     63  C   UNL     1      -0.859  12.384   0.318  1.00  0.00     0.009 A 
ATOM     64  C   UNL     1      -2.528  11.580  -1.772  1.00  0.00     0.001 A 
ATOM     65  C   UNL     1      -0.972  13.171  -0.830  1.00  0.00     0.001 A 
ATOM     66  C   UNL     1      -1.800  12.765  -1.876  1.00  0.00     0.000 A 
ENDBRANCH  47  61
BRANCH  48  67
ATOM     67  C   UNL     1      -0.580   5.280   8.384  1.00  0.00    -0.014 A 
ATOM     68  C   UNL     1      -1.685   4.620   8.942  1.00  0.00     0.009 A 
ATOM     69  C   UNL     1       0.672   5.157   9.006  1.00  0.00     0.009 A 
ATOM     70  C   UNL     1      -1.546   3.882  10.119  1.00  0.00     0.001 A 
ATOM     71  C   UNL     1       0.812   4.397  10.169  1.00  0.00     0.001 A 
ATOM     72  C   UNL     1      -0.298   3.769  10.731  1.00  0.00     0.000 A 
ENDBRANCH  48  67
BRANCH  60  73
ATOM     73  C   UNL     1      -3.668  11.416   7.340  1.00  0.00    -0.014 A 
ATOM     74  C   UNL     1      -3.026  12.173   8.332  1.00  0.00     0.009 A 
ATOM     75  C   UNL     1      -5.059  11.534   7.186  1.00  0.00     0.009 A 
ATOM     76  C   UNL     1      -3.767  13.002   9.177  1.00  0.00     0.001 A 
ATOM     77  C   UNL     1      -5.793  12.383   8.015  1.00  0.00     0.001 A 
ATOM     78  C   UNL     1      -5.148  13.109   9.016  1.00  0.00     0.000 A 
ENDBRANCH  60  73
ENDBRANCH  34  35
ENDBRANCH  27  29
ENDBRANCH  26  27
ENDBRANCH  25  26
ENDBRANCH   1  25
TORSDOF 14
