REMARK SMILES CC/C=C/C/C=C/C/C=C/C/C=C/CCSCCCC(=O)OCCOC(=O)c1ccc(-c2c3nc(c(-c4ccccc4)c4ccc([nH]4)c(-c4ccccc4)c4nc(c(-c5ccccc5)c5ccc2[nH]5)C=C4)C=C3)cc1
REMARK SMILES IDX 17 1 16 2 15 3 14 4 13 5 12 6 11 7 10 8 9 9 8 10 7 11 6 12
REMARK SMILES IDX 5 13 4 14 3 15 2 16 1 17 18 18 19 19 20 20 21 21 22 22 23 23
REMARK SMILES IDX 24 24 25 25 26 26 27 27 28 28 29 29 75 30 30 31 74 32 31 33
REMARK SMILES IDX 32 34 33 35 68 36 34 37 73 38 67 39 69 40 35 41 72 42 66 43
REMARK SMILES IDX 65 44 36 46 58 47 43 48 57 49 44 50 47 51 56 52 70 53 45 54
REMARK SMILES IDX 46 55 55 57 71 58 48 59 37 60 38 61 42 62 39 63 41 64 40 65
REMARK SMILES IDX 59 66 60 67 64 68 61 69 63 70 62 71 49 72 50 73 54 74 51 75
REMARK SMILES IDX 53 76 52 77
REMARK H PARENT 69 45 47 56
REMARK Flexibility Score: inf
ROOT
ATOM      1  C   UNL     1      -7.091  -5.324  11.771  1.00  0.00     0.070 C 
ENDROOT
BRANCH   1   2
ATOM      2  S   UNL     1      -7.542  -7.003  11.206  1.00  0.00    -0.162 SA
BRANCH   2   3
ATOM      3  C   UNL     1      -6.459  -7.388   9.778  1.00  0.00     0.073 C 
BRANCH   3   4
ATOM      4  C   UNL     1      -7.042  -7.226   8.362  1.00  0.00     0.038 C 
BRANCH   4   5
ATOM      5  C   UNL     1      -6.636  -5.976   7.618  1.00  0.00    -0.030 C 
ATOM      6  C   UNL     1      -5.678  -5.930   6.668  1.00  0.00    -0.027 C 
BRANCH   6   7
ATOM      7  C   UNL     1      -5.237  -4.710   5.882  1.00  0.00     0.054 C 
BRANCH   7   8
ATOM      8  C   UNL     1      -3.757  -4.452   6.002  1.00  0.00    -0.027 C 
ATOM      9  C   UNL     1      -3.146  -3.301   5.663  1.00  0.00    -0.027 C 
BRANCH   9  10
ATOM     10  C   UNL     1      -1.677  -3.057   5.872  1.00  0.00     0.054 C 
BRANCH  10  11
ATOM     11  C   UNL     1      -0.840  -3.606   4.761  1.00  0.00    -0.027 C 
ATOM     12  C   UNL     1       0.133  -2.923   4.136  1.00  0.00    -0.027 C 
BRANCH  12  13
ATOM     13  C   UNL     1       0.896  -3.467   2.964  1.00  0.00     0.054 C 
BRANCH  13  14
ATOM     14  C   UNL     1       0.397  -2.810   1.713  1.00  0.00    -0.027 C 
ATOM     15  C   UNL     1       1.158  -2.123   0.849  1.00  0.00    -0.031 C 
BRANCH  15  16
ATOM     16  C   UNL     1       0.594  -1.381  -0.327  1.00  0.00     0.023 C 
ATOM     17  C   UNL     1       0.974   0.090  -0.263  1.00  0.00     0.008 C 
ENDBRANCH  15  16
ENDBRANCH  13  14
ENDBRANCH  12  13
ENDBRANCH  10  11
ENDBRANCH   9  10
ENDBRANCH   7   8
ENDBRANCH   6   7
ENDBRANCH   4   5
ENDBRANCH   3   4
ENDBRANCH   2   3
ENDBRANCH   1   2
BRANCH   1  18
ATOM     18  C   UNL     1      -5.680  -5.027  12.292  1.00  0.00     0.023 C 
BRANCH  18  19
ATOM     19  C   UNL     1      -4.554  -4.933  11.279  1.00  0.00     0.123 C 
BRANCH  19  20
ATOM     20  C   UNL     1      -4.889  -4.184  10.016  1.00  0.00     0.305 C 
ATOM     21  O   UNL     1      -4.305  -4.408   8.966  1.00  0.00    -0.252 OA
BRANCH  20  22
ATOM     22  O   UNL     1      -5.824  -3.218  10.201  1.00  0.00    -0.462 OA
BRANCH  22  23
ATOM     23  C   UNL     1      -6.317  -2.547   9.030  1.00  0.00     0.274 C 
BRANCH  23  24
ATOM     24  C   UNL     1      -5.623  -1.220   8.742  1.00  0.00     0.275 C 
BRANCH  24  25
ATOM     25  O   UNL     1      -4.216  -1.380   8.527  1.00  0.00    -0.458 OA
BRANCH  25  26
ATOM     26  C   UNL     1      -3.482  -1.444   9.663  1.00  0.00     0.338 C 
ATOM     27  O   UNL     1      -3.862  -1.314  10.812  1.00  0.00    -0.246 OA
BRANCH  26  28
ATOM     28  C   UNL     1      -2.109  -1.811   9.314  1.00  0.00     0.060 A 
ATOM     29  C   UNL     1      -1.597  -3.033   9.763  1.00  0.00     0.016 A 
ATOM     30  C   UNL     1      -1.313  -0.909   8.614  1.00  0.00     0.016 A 
ATOM     31  C   UNL     1      -0.269  -3.357   9.537  1.00  0.00     0.010 A 
ATOM     32  C   UNL     1       0.018  -1.236   8.377  1.00  0.00     0.010 A 
ATOM     33  C   UNL     1       0.549  -2.446   8.868  1.00  0.00    -0.014 A 
BRANCH  33  34
ATOM     34  C   UNL     1       2.008  -2.653   8.867  1.00  0.00     0.031 A 
ATOM     35  C   UNL     1       2.829  -1.771   9.757  1.00  0.00     0.074 A 
ATOM     36  C   UNL     1       2.575  -3.613   8.118  1.00  0.00     0.049 A 
ATOM     37  N   UNL     1       4.126  -1.643   9.831  1.00  0.00    -0.248 NA
ATOM     38  C   UNL     1       2.079  -0.896  10.678  1.00  0.00     0.031 C 
ATOM     39  C   UNL     1       1.861  -4.579   7.284  1.00  0.00     0.029 A 
ATOM     40  N   UNL     1       3.897  -3.923   7.938  1.00  0.00    -0.354 N 
ATOM     41  C   UNL     1       4.343  -0.647  10.774  1.00  0.00     0.074 A 
ATOM     42  C   UNL     1       3.050  -0.176  11.213  1.00  0.00     0.031 C 
ATOM     43  C   UNL     1       2.757  -5.369   6.668  1.00  0.00     0.029 A 
ATOM     44  C   UNL     1       4.101  -4.934   7.032  1.00  0.00     0.049 A 
ATOM     45  H   UNL     1       4.628  -3.466   8.412  1.00  0.00     0.167 HD
ATOM     46  C   UNL     1       5.521  -0.176  11.241  1.00  0.00     0.031 A 
ATOM     47  C   UNL     1       5.252  -5.424   6.536  1.00  0.00     0.031 A 
ATOM     48  C   UNL     1       6.797  -0.667  10.804  1.00  0.00     0.049 A 
ATOM     49  C   UNL     1       6.552  -4.835   7.016  1.00  0.00     0.074 A 
ATOM     50  C   UNL     1       8.058  -0.269  11.201  1.00  0.00     0.029 A 
ATOM     51  N   UNL     1       6.966  -1.678   9.868  1.00  0.00    -0.354 N 
ATOM     52  N   UNL     1       6.755  -3.883   7.896  1.00  0.00    -0.248 NA
ATOM     53  C   UNL     1       7.782  -5.392   6.437  1.00  0.00     0.031 C 
ATOM     54  C   UNL     1       8.993  -1.007  10.469  1.00  0.00     0.029 A 
ATOM     55  C   UNL     1       8.313  -1.907   9.662  1.00  0.00     0.049 A 
ATOM     56  H   UNL     1       6.235  -2.160   9.418  1.00  0.00     0.167 HD
ATOM     57  C   UNL     1       8.134  -3.751   8.002  1.00  0.00     0.074 A 
ATOM     58  C   UNL     1       8.715  -4.731   7.106  1.00  0.00     0.031 C 
ATOM     59  C   UNL     1       8.858  -2.899   8.770  1.00  0.00     0.031 A 
BRANCH  46  60
ATOM     60  C   UNL     1       5.459   0.946  12.236  1.00  0.00    -0.014 A 
ATOM     61  C   UNL     1       4.962   0.748  13.535  1.00  0.00     0.009 A 
ATOM     62  C   UNL     1       5.872   2.232  11.856  1.00  0.00     0.009 A 
ATOM     63  C   UNL     1       4.832   1.825  14.414  1.00  0.00     0.001 A 
ATOM     64  C   UNL     1       5.774   3.300  12.748  1.00  0.00     0.001 A 
ATOM     65  C   UNL     1       5.241   3.099  14.021  1.00  0.00     0.000 A 
ENDBRANCH  46  60
BRANCH  47  66
ATOM     66  C   UNL     1       5.232  -6.507   5.518  1.00  0.00    -0.014 A 
ATOM     67  C   UNL     1       5.720  -7.786   5.825  1.00  0.00     0.009 A 
ATOM     68  C   UNL     1       4.748  -6.261   4.223  1.00  0.00     0.009 A 
ATOM     69  C   UNL     1       5.758  -8.784   4.847  1.00  0.00     0.001 A 
ATOM     70  C   UNL     1       4.758  -7.269   3.256  1.00  0.00     0.001 A 
ATOM     71  C   UNL     1       5.275  -8.525   3.565  1.00  0.00     0.000 A 
ENDBRANCH  47  66
BRANCH  59  72
ATOM     72  C   UNL     1      10.354  -3.025   8.713  1.00  0.00    -0.014 A 
ATOM     73  C   UNL     1      11.081  -2.608   7.588  1.00  0.00     0.009 A 
ATOM     74  C   UNL     1      11.047  -3.514   9.832  1.00  0.00     0.009 A 
ATOM     75  C   UNL     1      12.474  -2.707   7.575  1.00  0.00     0.001 A 
ATOM     76  C   UNL     1      12.440  -3.579   9.829  1.00  0.00     0.001 A 
ATOM     77  C   UNL     1      13.151  -3.184   8.697  1.00  0.00     0.000 A 
ENDBRANCH  59  72
ENDBRANCH  33  34
ENDBRANCH  26  28
ENDBRANCH  25  26
ENDBRANCH  24  25
ENDBRANCH  23  24
ENDBRANCH  22  23
ENDBRANCH  20  22
ENDBRANCH  19  20
ENDBRANCH  18  19
ENDBRANCH   1  18
TORSDOF 24
