REMARK SMILES O=C(CSc1cc(-c2ccccc2)nc(-c2ccccc2F)n1)OCCOC(=O)c1ccc(-c2c3nc(c(-c4ccccc4)c4ccc([nH]4)c(-c4ccccc4)c4nc(c(-c5ccccc5)c5ccc2[nH]5)C=C4)C=C3)cc1
REMARK SMILES IDX 25 1 24 2 2 3 1 4 3 5 4 6 5 7 6 8 23 9 7 10 15 11 14 12 8 13
REMARK SMILES IDX 9 14 13 15 10 16 12 17 11 18 16 19 17 20 21 21 18 22 20 23
REMARK SMILES IDX 22 24 19 25 26 26 27 27 28 28 29 29 30 30 31 31 77 32 32 33
REMARK SMILES IDX 76 34 33 35 34 36 35 37 70 38 36 39 75 40 69 41 71 42 37 43
REMARK SMILES IDX 74 44 68 45 67 46 38 48 60 49 45 50 59 51 46 52 49 53 58 54
REMARK SMILES IDX 72 55 47 56 48 57 57 59 73 60 50 61 39 62 40 63 44 64 41 65
REMARK SMILES IDX 43 66 42 67 61 68 62 69 66 70 63 71 65 72 64 73 51 74 52 75
REMARK SMILES IDX 56 76 53 77 55 78 54 79
REMARK H PARENT 71 47 49 58
REMARK Flexibility Score: inf
ROOT
ATOM      1  C   UNL     1       4.532   0.225  -0.921  1.00  0.00     0.274 C 
ENDROOT
BRANCH   1   2
ATOM      2  O   UNL     1       3.226  -0.373  -0.761  1.00  0.00    -0.461 OA
BRANCH   2   3
ATOM      3  C   UNL     1       2.559  -0.527   0.409  1.00  0.00     0.316 C 
ATOM      4  O   UNL     1       1.398  -0.936   0.393  1.00  0.00    -0.251 OA
BRANCH   3   5
ATOM      5  C   UNL     1       3.256  -0.186   1.708  1.00  0.00     0.199 C 
BRANCH   5   6
ATOM      6  S   UNL     1       4.399  -1.475   2.251  1.00  0.00    -0.094 SA
BRANCH   6   7
ATOM      7  C   UNL     1       3.242  -2.792   2.531  1.00  0.00     0.101 A 
ATOM      8  C   UNL     1       3.652  -4.071   2.267  1.00  0.00     0.064 A 
ATOM      9  N   UNL     1       2.037  -2.490   3.028  1.00  0.00    -0.222 NA
ATOM     10  C   UNL     1       2.743  -5.072   2.528  1.00  0.00     0.075 A 
ATOM     11  C   UNL     1       1.208  -3.528   3.241  1.00  0.00     0.163 A 
ATOM     12  N   UNL     1       1.505  -4.819   2.999  1.00  0.00    -0.228 NA
BRANCH  10  13
ATOM     13  C   UNL     1       3.119  -6.473   2.304  1.00  0.00     0.000 A 
ATOM     14  C   UNL     1       2.346  -7.319   1.498  1.00  0.00     0.010 A 
ATOM     15  C   UNL     1       4.321  -6.978   2.838  1.00  0.00     0.010 A 
ATOM     16  C   UNL     1       2.779  -8.617   1.207  1.00  0.00     0.001 A 
ATOM     17  C   UNL     1       4.751  -8.273   2.552  1.00  0.00     0.001 A 
ATOM     18  C   UNL     1       3.983  -9.089   1.728  1.00  0.00     0.000 A 
ENDBRANCH  10  13
BRANCH  11  19
ATOM     19  C   UNL     1      -0.103  -3.205   3.792  1.00  0.00     0.055 A 
ATOM     20  C   UNL     1      -1.005  -2.380   3.092  1.00  0.00     0.015 A 
ATOM     21  C   UNL     1      -0.486  -3.660   5.058  1.00  0.00     0.134 A 
ATOM     22  C   UNL     1      -2.245  -2.039   3.644  1.00  0.00     0.001 A 
ATOM     23  C   UNL     1      -1.716  -3.316   5.618  1.00  0.00     0.040 A 
ATOM     24  F   UNL     1       0.351  -4.414   5.788  1.00  0.00    -0.206 F 
ATOM     25  C   UNL     1      -2.599  -2.505   4.909  1.00  0.00     0.003 A 
ENDBRANCH  11  19
ENDBRANCH   6   7
ENDBRANCH   5   6
ENDBRANCH   3   5
ENDBRANCH   2   3
ENDBRANCH   1   2
BRANCH   1  26
ATOM     26  C   UNL     1       4.428   1.718  -1.237  1.00  0.00     0.275 C 
BRANCH  26  27
ATOM     27  O   UNL     1       3.939   2.424  -0.081  1.00  0.00    -0.458 OA
BRANCH  27  28
ATOM     28  C   UNL     1       2.622   2.749  -0.098  1.00  0.00     0.338 C 
ATOM     29  O   UNL     1       1.864   2.664  -1.047  1.00  0.00    -0.246 OA
BRANCH  28  30
ATOM     30  C   UNL     1       2.175   3.026   1.290  1.00  0.00     0.060 A 
ATOM     31  C   UNL     1       0.886   2.618   1.653  1.00  0.00     0.016 A 
ATOM     32  C   UNL     1       3.016   3.615   2.243  1.00  0.00     0.016 A 
ATOM     33  C   UNL     1       0.421   2.835   2.951  1.00  0.00     0.010 A 
ATOM     34  C   UNL     1       2.550   3.826   3.546  1.00  0.00     0.010 A 
ATOM     35  C   UNL     1       1.238   3.468   3.898  1.00  0.00    -0.014 A 
BRANCH  35  36
ATOM     36  C   UNL     1       0.661   3.883   5.201  1.00  0.00     0.031 A 
ATOM     37  C   UNL     1       0.195   5.304   5.370  1.00  0.00     0.074 A 
ATOM     38  C   UNL     1       0.508   3.007   6.211  1.00  0.00     0.049 A 
ATOM     39  N   UNL     1      -0.422   5.860   6.382  1.00  0.00    -0.248 NA
ATOM     40  C   UNL     1       0.454   6.218   4.245  1.00  0.00     0.031 C 
ATOM     41  C   UNL     1       0.905   1.600   6.188  1.00  0.00     0.029 A 
ATOM     42  N   UNL     1      -0.036   3.184   7.460  1.00  0.00    -0.354 N 
ATOM     43  C   UNL     1      -0.648   7.177   6.005  1.00  0.00     0.074 A 
ATOM     44  C   UNL     1      -0.052   7.354   4.699  1.00  0.00     0.031 C 
ATOM     45  C   UNL     1       0.594   1.041   7.372  1.00  0.00     0.029 A 
ATOM     46  C   UNL     1      -0.019   2.050   8.235  1.00  0.00     0.049 A 
ATOM     47  H   UNL     1      -0.404   4.043   7.771  1.00  0.00     0.167 HD
ATOM     48  C   UNL     1      -1.314   8.151   6.671  1.00  0.00     0.031 A 
ATOM     49  C   UNL     1      -0.452   1.849   9.494  1.00  0.00     0.031 A 
ATOM     50  C   UNL     1      -1.882   8.002   7.982  1.00  0.00     0.049 A 
ATOM     51  C   UNL     1      -1.123   2.970  10.246  1.00  0.00     0.074 A 
ATOM     52  C   UNL     1      -2.575   8.937   8.733  1.00  0.00     0.029 A 
ATOM     53  N   UNL     1      -1.814   6.848   8.743  1.00  0.00    -0.354 N 
ATOM     54  N   UNL     1      -1.387   4.192   9.851  1.00  0.00    -0.248 NA
ATOM     55  C   UNL     1      -1.576   2.671  11.613  1.00  0.00     0.031 C 
ATOM     56  C   UNL     1      -2.888   8.360   9.969  1.00  0.00     0.029 A 
ATOM     57  C   UNL     1      -2.433   7.051   9.965  1.00  0.00     0.049 A 
ATOM     58  H   UNL     1      -1.388   6.007   8.459  1.00  0.00     0.167 HD
ATOM     59  C   UNL     1      -2.065   4.794  10.906  1.00  0.00     0.074 A 
ATOM     60  C   UNL     1      -2.183   3.800  11.951  1.00  0.00     0.031 C 
ATOM     61  C   UNL     1      -2.549   6.056  10.998  1.00  0.00     0.031 A 
BRANCH  48  62
ATOM     62  C   UNL     1      -1.457   9.474   5.977  1.00  0.00    -0.014 A 
ATOM     63  C   UNL     1      -2.339   9.624   4.895  1.00  0.00     0.009 A 
ATOM     64  C   UNL     1      -0.727  10.586   6.422  1.00  0.00     0.009 A 
ATOM     65  C   UNL     1      -2.465  10.857   4.252  1.00  0.00     0.001 A 
ATOM     66  C   UNL     1      -0.872  11.823   5.792  1.00  0.00     0.001 A 
ATOM     67  C   UNL     1      -1.734  11.956   4.703  1.00  0.00     0.000 A 
ENDBRANCH  48  62
BRANCH  49  68
ATOM     68  C   UNL     1      -0.273   0.525  10.145  1.00  0.00    -0.014 A 
ATOM     69  C   UNL     1      -1.376  -0.303  10.405  1.00  0.00     0.009 A 
ATOM     70  C   UNL     1       1.002   0.108  10.557  1.00  0.00     0.009 A 
ATOM     71  C   UNL     1      -1.210  -1.504  11.098  1.00  0.00     0.001 A 
ATOM     72  C   UNL     1       1.168  -1.106  11.226  1.00  0.00     0.001 A 
ATOM     73  C   UNL     1       0.061  -1.906  11.506  1.00  0.00     0.000 A 
ENDBRANCH  49  68
BRANCH  61  74
ATOM     74  C   UNL     1      -3.283   6.426  12.257  1.00  0.00    -0.014 A 
ATOM     75  C   UNL     1      -2.604   6.617  13.470  1.00  0.00     0.009 A 
ATOM     76  C   UNL     1      -4.674   6.619  12.219  1.00  0.00     0.009 A 
ATOM     77  C   UNL     1      -3.307   6.958  14.627  1.00  0.00     0.001 A 
ATOM     78  C   UNL     1      -5.370   6.986  13.372  1.00  0.00     0.001 A 
ATOM     79  C   UNL     1      -4.688   7.146  14.577  1.00  0.00     0.000 A 
ENDBRANCH  61  74
ENDBRANCH  35  36
ENDBRANCH  28  30
ENDBRANCH  27  28
ENDBRANCH  26  27
ENDBRANCH   1  26
TORSDOF 15
