REMARK SMILES O=C(OCCOC(=O)c1cc(Br)ccc1NC(=O)c1ccc(Br)s1)c1ccc(-c2c3nc(c(-c4ccccc4)c4ccc([nH]4)c(-c4ccccc4)c4nc(c(-c5ccccc5)c5ccc2[nH]5)C=C4)C=C3)cc1
REMARK SMILES IDX 4 1 3 2 2 3 1 4 25 5 26 6 72 7 27 8 71 9 28 10 29 11 30 12
REMARK SMILES IDX 65 13 31 14 70 15 64 16 66 17 32 18 69 19 63 20 62 21 33 23
REMARK SMILES IDX 55 24 40 25 54 26 41 27 44 28 53 29 67 30 42 31 43 32 52 34
REMARK SMILES IDX 68 35 45 36 34 37 35 38 39 39 36 40 38 41 37 42 56 43 57 44
REMARK SMILES IDX 61 45 58 46 60 47 59 48 46 49 47 50 51 51 48 52 50 53 49 54
REMARK SMILES IDX 5 55 6 56 7 57 8 58 9 59 10 60 15 61 11 62 14 63 12 64 13 65
REMARK SMILES IDX 16 66 17 67 18 69 19 70 20 71 24 72 21 73 22 74 23 75
REMARK H PARENT 66 22 44 33 16 68
REMARK Flexibility Score: inf
ROOT
ATOM      1  C   UNL     1       4.143  -1.360  -0.771  1.00  0.00     0.275 C 
ENDROOT
BRANCH   1   2
ATOM      2  O   UNL     1       3.217  -1.177   0.311  1.00  0.00    -0.458 OA
BRANCH   2   3
ATOM      3  C   UNL     1       3.115  -0.183   1.221  1.00  0.00     0.338 C 
ATOM      4  O   UNL     1       2.328  -0.318   2.156  1.00  0.00    -0.246 OA
BRANCH   3   5
ATOM      5  C   UNL     1       3.797   1.140   1.085  1.00  0.00     0.060 A 
ATOM      6  C   UNL     1       5.014   1.376   0.446  1.00  0.00     0.016 A 
ATOM      7  C   UNL     1       3.141   2.239   1.669  1.00  0.00     0.016 A 
ATOM      8  C   UNL     1       5.517   2.671   0.306  1.00  0.00     0.010 A 
ATOM      9  C   UNL     1       3.623   3.541   1.511  1.00  0.00     0.010 A 
ATOM     10  C   UNL     1       4.822   3.763   0.826  1.00  0.00    -0.014 A 
BRANCH  10  11
ATOM     11  C   UNL     1       5.450   5.101   0.808  1.00  0.00     0.031 A 
ATOM     12  C   UNL     1       5.998   5.641   2.094  1.00  0.00     0.074 A 
ATOM     13  C   UNL     1       5.604   5.784  -0.341  1.00  0.00     0.049 A 
ATOM     14  N   UNL     1       6.646   6.755   2.309  1.00  0.00    -0.248 NA
ATOM     15  C   UNL     1       5.819   4.803   3.292  1.00  0.00     0.031 C 
ATOM     16  C   UNL     1       5.208   5.312  -1.666  1.00  0.00     0.029 A 
ATOM     17  N   UNL     1       6.143   7.022  -0.578  1.00  0.00    -0.354 N 
ATOM     18  C   UNL     1       6.983   6.729   3.654  1.00  0.00     0.074 A 
ATOM     19  C   UNL     1       6.391   5.542   4.226  1.00  0.00     0.031 C 
ATOM     20  C   UNL     1       5.487   6.263  -2.573  1.00  0.00     0.029 A 
ATOM     21  C   UNL     1       6.058   7.416  -1.892  1.00  0.00     0.049 A 
ATOM     22  H   UNL     1       6.552   7.577   0.125  1.00  0.00     0.167 HD
ATOM     23  C   UNL     1       7.761   7.593   4.345  1.00  0.00     0.031 A 
ATOM     24  C   UNL     1       6.394   8.579  -2.478  1.00  0.00     0.031 A 
ATOM     25  C   UNL     1       8.319   8.787   3.780  1.00  0.00     0.049 A 
ATOM     26  C   UNL     1       7.088   9.621  -1.649  1.00  0.00     0.074 A 
ATOM     27  C   UNL     1       9.113   9.741   4.386  1.00  0.00     0.029 A 
ATOM     28  N   UNL     1       8.118   9.199   2.470  1.00  0.00    -0.354 N 
ATOM     29  N   UNL     1       7.439   9.565  -0.386  1.00  0.00    -0.248 NA
ATOM     30  C   UNL     1       7.474  10.863  -2.330  1.00  0.00     0.031 C 
ATOM     31  C   UNL     1       9.343  10.763   3.457  1.00  0.00     0.029 A 
ATOM     32  C   UNL     1       8.743  10.414   2.256  1.00  0.00     0.049 A 
ATOM     33  H   UNL     1       7.606   8.700   1.792  1.00  0.00     0.167 HD
ATOM     34  C   UNL     1       8.138  10.736  -0.135  1.00  0.00     0.074 A 
ATOM     35  C   UNL     1       8.150  11.488  -1.375  1.00  0.00     0.031 C 
ATOM     36  C   UNL     1       8.737  11.142   1.012  1.00  0.00     0.031 A 
BRANCH  23  37
ATOM     37  C   UNL     1       8.006   7.259   5.788  1.00  0.00    -0.014 A 
ATOM     38  C   UNL     1       8.796   6.154   6.152  1.00  0.00     0.009 A 
ATOM     39  C   UNL     1       7.386   8.012   6.793  1.00  0.00     0.009 A 
ATOM     40  C   UNL     1       8.911   5.777   7.491  1.00  0.00     0.001 A 
ATOM     41  C   UNL     1       7.528   7.651   8.134  1.00  0.00     0.001 A 
ATOM     42  C   UNL     1       8.276   6.526   8.480  1.00  0.00     0.000 A 
ENDBRANCH  23  37
BRANCH  24  43
ATOM     43  C   UNL     1       6.083   8.819  -3.913  1.00  0.00    -0.014 A 
ATOM     44  C   UNL     1       7.098   8.866  -4.881  1.00  0.00     0.009 A 
ATOM     45  C   UNL     1       4.753   9.021  -4.319  1.00  0.00     0.009 A 
ATOM     46  C   UNL     1       6.790   9.138  -6.218  1.00  0.00     0.001 A 
ATOM     47  C   UNL     1       4.447   9.272  -5.659  1.00  0.00     0.001 A 
ATOM     48  C   UNL     1       5.466   9.339  -6.606  1.00  0.00     0.000 A 
ENDBRANCH  24  43
BRANCH  36  49
ATOM     49  C   UNL     1       9.500  12.433   0.962  1.00  0.00    -0.014 A 
ATOM     50  C   UNL     1       8.843  13.670   0.889  1.00  0.00     0.009 A 
ATOM     51  C   UNL     1      10.902  12.406   1.042  1.00  0.00     0.009 A 
ATOM     52  C   UNL     1       9.579  14.855   0.867  1.00  0.00     0.001 A 
ATOM     53  C   UNL     1      11.632  13.594   1.054  1.00  0.00     0.001 A 
ATOM     54  C   UNL     1      10.971  14.816   0.957  1.00  0.00     0.000 A 
ENDBRANCH  36  49
ENDBRANCH  10  11
ENDBRANCH   3   5
ENDBRANCH   2   3
ENDBRANCH   1   2
BRANCH   1  55
ATOM     55  C   UNL     1       3.729  -0.706  -2.092  1.00  0.00     0.275 C 
BRANCH  55  56
ATOM     56  O   UNL     1       3.288   0.658  -1.984  1.00  0.00    -0.458 OA
BRANCH  56  57
ATOM     57  C   UNL     1       1.947   0.839  -1.850  1.00  0.00     0.340 C 
ATOM     58  O   UNL     1       1.097  -0.024  -1.720  1.00  0.00    -0.246 OA
BRANCH  57  59
ATOM     59  C   UNL     1       1.663   2.287  -1.768  1.00  0.00     0.084 A 
ATOM     60  C   UNL     1       2.127   3.108  -2.808  1.00  0.00     0.033 A 
ATOM     61  C   UNL     1       0.953   2.831  -0.678  1.00  0.00     0.056 A 
ATOM     62  C   UNL     1       1.947   4.484  -2.725  1.00  0.00     0.018 A 
ATOM     63  C   UNL     1       0.991   4.221  -0.533  1.00  0.00     0.028 A 
ATOM     64  Br  UNL     1       2.348   5.588  -4.202  1.00  0.00    -0.051 Br
ATOM     65  C   UNL     1       1.459   5.049  -1.556  1.00  0.00     0.018 A 
BRANCH  61  66
ATOM     66  N   UNL     1       0.269   1.977   0.223  1.00  0.00    -0.320 N 
ATOM     67  C   UNL     1      -0.632   2.200   1.251  1.00  0.00     0.265 C 
ATOM     68  H   UNL     1       0.479   1.024   0.091  1.00  0.00     0.170 HD
ATOM     69  O   UNL     1      -0.953   1.231   1.940  1.00  0.00    -0.268 OA
BRANCH  67  70
ATOM     70  C   UNL     1      -1.198   3.515   1.476  1.00  0.00     0.093 A 
ATOM     71  C   UNL     1      -1.870   4.354   0.602  1.00  0.00     0.027 A 
ATOM     72  S   UNL     1      -1.095   4.202   3.046  1.00  0.00    -0.123 S 
ATOM     73  C   UNL     1      -2.175   5.617   1.195  1.00  0.00     0.028 A 
ATOM     74  C   UNL     1      -1.801   5.646   2.514  1.00  0.00     0.071 A 
ATOM     75  Br  UNL     1      -2.040   7.137   3.623  1.00  0.00    -0.039 Br
ENDBRANCH  67  70
ENDBRANCH  61  66
ENDBRANCH  57  59
ENDBRANCH  56  57
ENDBRANCH  55  56
ENDBRANCH   1  55
TORSDOF 13
