REMARK SMILES CC[C@@H](C)C[C@@H](C)NC(=O)NC1(CC(=O)OCCOC(=O)c2ccc(-c3c4nc(c(-c5ccccc5)c5ccc([nH]5)c(-c5ccccc5)c5nc(c(-c6ccccc6)c6ccc3[nH]6)C=C5)C=C4)cc2)CCC1
REMARK SMILES IDX 14 1 15 2 13 3 12 4 70 5 72 6 71 7 11 8 8 9 9 10 10 12 6 14
REMARK SMILES IDX 7 15 5 16 3 17 4 18 2 19 1 20 16 21 17 22 18 23 19 24 20 25
REMARK SMILES IDX 21 26 22 27 23 28 69 29 24 30 68 31 25 32 26 33 27 34 62 35
REMARK SMILES IDX 28 36 67 37 61 38 63 39 29 40 66 41 60 42 59 43 30 45 52 46
REMARK SMILES IDX 37 47 51 48 38 49 41 50 50 51 64 52 39 53 40 54 49 56 65 57
REMARK SMILES IDX 42 58 31 59 32 60 36 61 33 62 35 63 34 64 53 65 54 66 58 67
REMARK SMILES IDX 55 68 57 69 56 70 43 71 44 72 48 73 45 74 47 75 46 76
REMARK H PARENT 8 11 11 13 63 44 41 55
REMARK Flexibility Score: inf
ROOT
ATOM      1  C   UNL     1       0.070  -0.377  -2.671  1.00  0.00     0.308 C 
ATOM      2  O   UNL     1       1.235  -0.502  -2.397  1.00  0.00    -0.252 OA
ENDROOT
BRANCH   1   3
ATOM      3  C   UNL     1      -0.258   1.048  -2.834  1.00  0.00     0.151 C 
BRANCH   3   4
ATOM      4  C   UNL     1      -0.988   1.085  -4.114  1.00  0.00     0.052 C 
ATOM      5  C   UNL     1      -1.533   2.443  -4.656  1.00  0.00     0.029 C 
ATOM      6  C   UNL     1      -2.495   0.790  -3.767  1.00  0.00     0.029 C 
ATOM      7  C   UNL     1      -2.654   2.326  -3.603  1.00  0.00     0.005 C 
BRANCH   4   8
ATOM      8  N   UNL     1      -0.258   0.285  -5.156  1.00  0.00    -0.332 N 
ATOM      9  N   UNL     1       1.443  -1.524  -4.649  1.00  0.00    -0.336 N 
ATOM     10  C   UNL     1       0.619  -0.714  -5.364  1.00  0.00     0.315 C 
ATOM     11  H   UNL     1       1.495  -2.289  -5.266  1.00  0.00     0.165 HD
ATOM     12  O   UNL     1       0.511  -0.997  -6.573  1.00  0.00    -0.249 OA
ATOM     13  H   UNL     1      -0.528   0.630  -6.037  1.00  0.00     0.165 HD
BRANCH   9  14
ATOM     14  C   UNL     1       2.444  -2.099  -3.400  1.00  0.00     0.081 C 
ATOM     15  C   UNL     1       3.308  -3.223  -4.041  1.00  0.00     0.031 C 
BRANCH  14  16
ATOM     16  C   UNL     1       1.867  -2.806  -2.015  1.00  0.00     0.028 C 
BRANCH  16  17
ATOM     17  C   UNL     1       2.072  -2.286  -0.488  1.00  0.00    -0.013 C 
ATOM     18  C   UNL     1       1.364  -3.295   0.447  1.00  0.00     0.008 C 
BRANCH  17  19
ATOM     19  C   UNL     1       1.540  -0.881  -0.090  1.00  0.00    -0.000 C 
ATOM     20  C   UNL     1       1.554  -0.364   1.333  1.00  0.00     0.004 C 
ENDBRANCH  17  19
ENDBRANCH  16  17
ENDBRANCH  14  16
ENDBRANCH   9  14
ENDBRANCH   4   8
ENDBRANCH   3   4
ENDBRANCH   1   3
BRANCH   1  21
ATOM     21  O   UNL     1      -0.884  -1.272  -3.094  1.00  0.00    -0.462 OA
BRANCH  21  22
ATOM     22  C   UNL     1      -1.073  -2.710  -3.526  1.00  0.00     0.274 C 
BRANCH  22  23
ATOM     23  C   UNL     1      -0.944  -3.308  -5.020  1.00  0.00     0.275 C 
BRANCH  23  24
ATOM     24  O   UNL     1       0.352  -3.511  -5.701  1.00  0.00    -0.458 OA
BRANCH  24  25
ATOM     25  C   UNL     1       0.275  -3.966  -7.012  1.00  0.00     0.338 C 
ATOM     26  O   UNL     1      -0.659  -4.647  -7.420  1.00  0.00    -0.246 OA
BRANCH  25  27
ATOM     27  C   UNL     1       1.336  -3.442  -7.988  1.00  0.00     0.060 A 
ATOM     28  C   UNL     1       2.342  -2.545  -7.633  1.00  0.00     0.016 A 
ATOM     29  C   UNL     1       1.210  -3.698  -9.364  1.00  0.00     0.016 A 
ATOM     30  C   UNL     1       2.984  -1.730  -8.573  1.00  0.00     0.010 A 
ATOM     31  C   UNL     1       1.989  -3.001 -10.321  1.00  0.00     0.010 A 
ATOM     32  C   UNL     1       2.853  -1.964  -9.937  1.00  0.00    -0.014 A 
BRANCH  32  33
ATOM     33  C   UNL     1       3.651  -1.179 -10.927  1.00  0.00     0.031 A 
ATOM     34  C   UNL     1       2.975  -0.446 -12.056  1.00  0.00     0.074 A 
ATOM     35  C   UNL     1       4.998  -1.143 -10.837  1.00  0.00     0.049 A 
ATOM     36  N   UNL     1       3.478  -0.017 -13.188  1.00  0.00    -0.248 NA
ATOM     37  C   UNL     1       1.543  -0.153 -11.887  1.00  0.00     0.031 C 
ATOM     38  C   UNL     1       5.798  -1.688  -9.735  1.00  0.00     0.029 A 
ATOM     39  N   UNL     1       5.943  -0.657 -11.712  1.00  0.00    -0.354 N 
ATOM     40  C   UNL     1       2.414   0.537 -13.894  1.00  0.00     0.074 A 
ATOM     41  C   UNL     1       1.242   0.413 -13.050  1.00  0.00     0.031 C 
ATOM     42  C   UNL     1       7.100  -1.539 -10.011  1.00  0.00     0.029 A 
ATOM     43  C   UNL     1       7.229  -0.991 -11.352  1.00  0.00     0.049 A 
ATOM     44  H   UNL     1       5.722  -0.128 -12.511  1.00  0.00     0.167 HD
ATOM     45  C   UNL     1       2.418   1.072 -15.140  1.00  0.00     0.031 A 
ATOM     46  C   UNL     1       8.379  -0.958 -12.049  1.00  0.00     0.031 A 
ATOM     47  C   UNL     1       3.601   1.191 -15.957  1.00  0.00     0.049 A 
ATOM     48  C   UNL     1       8.350  -0.479 -13.468  1.00  0.00     0.074 A 
ATOM     49  C   UNL     1       3.723   1.690 -17.244  1.00  0.00     0.029 A 
ATOM     50  N   UNL     1       4.873   0.810 -15.556  1.00  0.00    -0.354 N 
ATOM     51  N   UNL     1       7.330  -0.050 -14.170  1.00  0.00    -0.248 NA
ATOM     52  C   UNL     1       9.625  -0.492 -14.195  1.00  0.00     0.031 C 
ATOM     53  C   UNL     1       5.061   1.565 -17.636  1.00  0.00     0.029 A 
ATOM     54  C   UNL     1       5.782   1.043 -16.574  1.00  0.00     0.049 A 
ATOM     55  H   UNL     1       5.097   0.430 -14.675  1.00  0.00     0.167 HD
ATOM     56  C   UNL     1       7.843   0.284 -15.414  1.00  0.00     0.074 A 
ATOM     57  C   UNL     1       9.266   0.015 -15.366  1.00  0.00     0.031 C 
ATOM     58  C   UNL     1       7.194   0.772 -16.499  1.00  0.00     0.031 A 
BRANCH  45  59
ATOM     59  C   UNL     1       1.099   1.497 -15.731  1.00  0.00    -0.014 A 
ATOM     60  C   UNL     1       0.422   2.645 -15.293  1.00  0.00     0.009 A 
ATOM     61  C   UNL     1       0.540   0.745 -16.780  1.00  0.00     0.009 A 
ATOM     62  C   UNL     1      -0.800   3.010 -15.867  1.00  0.00     0.001 A 
ATOM     63  C   UNL     1      -0.667   1.126 -17.369  1.00  0.00     0.001 A 
ATOM     64  C   UNL     1      -1.342   2.253 -16.905  1.00  0.00     0.000 A 
ENDBRANCH  45  59
BRANCH  46  65
ATOM     65  C   UNL     1       9.629  -1.484 -11.436  1.00  0.00    -0.014 A 
ATOM     66  C   UNL     1      10.670  -0.617 -11.079  1.00  0.00     0.009 A 
ATOM     67  C   UNL     1       9.772  -2.859 -11.177  1.00  0.00     0.009 A 
ATOM     68  C   UNL     1      11.833  -1.115 -10.486  1.00  0.00     0.001 A 
ATOM     69  C   UNL     1      10.922  -3.350 -10.555  1.00  0.00     0.001 A 
ATOM     70  C   UNL     1      11.954  -2.478 -10.216  1.00  0.00     0.000 A 
ENDBRANCH  46  65
BRANCH  58  71
ATOM     71  C   UNL     1       8.036   1.097 -17.698  1.00  0.00    -0.014 A 
ATOM     72  C   UNL     1       8.546   0.088 -18.527  1.00  0.00     0.009 A 
ATOM     73  C   UNL     1       8.298   2.440 -18.011  1.00  0.00     0.009 A 
ATOM     74  C   UNL     1       9.329   0.418 -19.634  1.00  0.00     0.001 A 
ATOM     75  C   UNL     1       9.059   2.768 -19.132  1.00  0.00     0.001 A 
ATOM     76  C   UNL     1       9.581   1.756 -19.938  1.00  0.00     0.000 A 
ENDBRANCH  58  71
ENDBRANCH  32  33
ENDBRANCH  25  27
ENDBRANCH  24  25
ENDBRANCH  23  24
ENDBRANCH  22  23
ENDBRANCH  21  22
ENDBRANCH   1  21
TORSDOF 17
