REMARK SMILES C[C@H](C(=O)OCCOC(=O)c1ccc(-c2c3nc(c(-c4ccccc4)c4ccc([nH]4)c(-c4ccccc4)c4nc(c(-c5ccccc5)c5ccc2[nH]5)C=C4)C=C3)cc1)[C@H](C)[NH+]1CCN(S(C)(=O)=O)CC1
REMARK SMILES IDX 6 1 5 2 3 3 4 4 2 5 1 6 59 7 60 8 61 9 62 10 70 11 63 13
REMARK SMILES IDX 69 14 64 15 65 16 66 17 67 18 68 19 7 20 8 21 9 22 10 23
REMARK SMILES IDX 11 24 12 25 58 26 13 27 57 28 14 29 15 30 16 31 51 32 17 33
REMARK SMILES IDX 56 34 50 35 52 36 18 37 55 38 49 39 48 40 19 42 41 43 26 44
REMARK SMILES IDX 40 45 27 46 30 47 39 48 53 49 28 50 29 51 38 53 54 54 31 55
REMARK SMILES IDX 20 56 21 57 25 58 22 59 24 60 23 61 42 62 43 63 47 64 44 65
REMARK SMILES IDX 46 66 45 67 32 68 33 69 37 70 34 71 36 72 35 73
REMARK H PARENT 61 12 52 41 30 52
REMARK Flexibility Score: inf
ROOT
ATOM      1  C   UNL     1      -4.894   0.397  -1.368  1.00  0.00     0.274 C 
ENDROOT
BRANCH   1   2
ATOM      2  O   UNL     1      -3.471   0.170  -1.192  1.00  0.00    -0.462 OA
BRANCH   2   3
ATOM      3  C   UNL     1      -2.650   0.791  -2.077  1.00  0.00     0.314 C 
ATOM      4  O   UNL     1      -3.034   1.652  -2.862  1.00  0.00    -0.252 OA
BRANCH   3   5
ATOM      5  C   UNL     1      -1.180   0.374  -1.981  1.00  0.00     0.154 C 
ATOM      6  C   UNL     1      -0.476   1.502  -1.206  1.00  0.00     0.026 C 
BRANCH   5   7
ATOM      7  C   UNL     1      -0.831  -1.060  -1.428  1.00  0.00     0.195 C 
ATOM      8  C   UNL     1       0.708  -1.152  -1.231  1.00  0.00     0.076 C 
BRANCH   7   9
ATOM      9  N   UNL     1      -1.244  -2.181  -2.334  1.00  0.00    -0.330 N 
ATOM     10  C   UNL     1      -0.746  -3.531  -1.939  1.00  0.00     0.279 C 
ATOM     11  C   UNL     1      -2.704  -2.317  -2.518  1.00  0.00     0.279 C 
ATOM     12  H   UNL     1      -0.801  -1.889  -3.205  1.00  0.00     0.348 HD
ATOM     13  C   UNL     1      -1.457  -4.187  -0.736  1.00  0.00     0.163 C 
ATOM     14  C   UNL     1      -3.459  -2.855  -1.280  1.00  0.00     0.163 C 
ATOM     15  N   UNL     1      -2.932  -4.184  -0.902  1.00  0.00    -0.191 NA
BRANCH  15  16
ATOM     16  S   UNL     1      -3.754  -5.558  -1.400  1.00  0.00     0.211 S 
ATOM     17  C   UNL     1      -3.643  -5.511  -3.179  1.00  0.00     0.176 C 
ATOM     18  O   UNL     1      -3.015  -6.719  -0.944  1.00  0.00    -0.212 OA
ATOM     19  O   UNL     1      -5.147  -5.380  -1.065  1.00  0.00    -0.212 OA
ENDBRANCH  15  16
ENDBRANCH   7   9
ENDBRANCH   5   7
ENDBRANCH   3   5
ENDBRANCH   2   3
ENDBRANCH   1   2
BRANCH   1  20
ATOM     20  C   UNL     1      -5.627   0.238  -0.035  1.00  0.00     0.275 C 
BRANCH  20  21
ATOM     21  O   UNL     1      -5.210   1.299   0.837  1.00  0.00    -0.458 OA
BRANCH  21  22
ATOM     22  C   UNL     1      -4.130   0.995   1.588  1.00  0.00     0.338 C 
ATOM     23  O   UNL     1      -3.619  -0.096   1.774  1.00  0.00    -0.246 OA
BRANCH  22  24
ATOM     24  C   UNL     1      -3.485   2.244   1.989  1.00  0.00     0.060 A 
ATOM     25  C   UNL     1      -2.623   2.837   1.071  1.00  0.00     0.016 A 
ATOM     26  C   UNL     1      -3.586   2.722   3.288  1.00  0.00     0.016 A 
ATOM     27  C   UNL     1      -1.744   3.825   1.487  1.00  0.00     0.010 A 
ATOM     28  C   UNL     1      -2.791   3.806   3.667  1.00  0.00     0.010 A 
ATOM     29  C   UNL     1      -1.828   4.339   2.786  1.00  0.00    -0.014 A 
BRANCH  29  30
ATOM     30  C   UNL     1      -0.902   5.411   3.239  1.00  0.00     0.031 A 
ATOM     31  C   UNL     1      -0.061   5.207   4.472  1.00  0.00     0.074 A 
ATOM     32  C   UNL     1      -0.826   6.573   2.559  1.00  0.00     0.049 A 
ATOM     33  N   UNL     1       0.619   6.085   5.165  1.00  0.00    -0.248 NA
ATOM     34  C   UNL     1       0.005   3.838   5.011  1.00  0.00     0.031 C 
ATOM     35  C   UNL     1      -1.535   6.882   1.314  1.00  0.00     0.029 A 
ATOM     36  N   UNL     1      -0.117   7.717   2.824  1.00  0.00    -0.354 N 
ATOM     37  C   UNL     1       1.130   5.392   6.257  1.00  0.00     0.074 A 
ATOM     38  C   UNL     1       0.682   4.022   6.136  1.00  0.00     0.031 C 
ATOM     39  C   UNL     1      -1.197   8.112   0.905  1.00  0.00     0.029 A 
ATOM     40  C   UNL     1      -0.343   8.722   1.914  1.00  0.00     0.049 A 
ATOM     41  H   UNL     1       0.493   7.810   3.591  1.00  0.00     0.167 HD
ATOM     42  C   UNL     1       1.895   5.863   7.271  1.00  0.00     0.031 A 
ATOM     43  C   UNL     1       0.040  10.012   1.917  1.00  0.00     0.031 A 
ATOM     44  C   UNL     1       2.361   7.223   7.358  1.00  0.00     0.049 A 
ATOM     45  C   UNL     1       0.835  10.525   3.081  1.00  0.00     0.074 A 
ATOM     46  C   UNL     1       3.159   7.802   8.329  1.00  0.00     0.029 A 
ATOM     47  N   UNL     1       2.079   8.214   6.429  1.00  0.00    -0.354 N 
ATOM     48  N   UNL     1       1.273   9.874   4.131  1.00  0.00    -0.248 NA
ATOM     49  C   UNL     1       1.174  11.953   3.067  1.00  0.00     0.031 C 
ATOM     50  C   UNL     1       3.311   9.157   8.018  1.00  0.00     0.029 A 
ATOM     51  C   UNL     1       2.665   9.406   6.817  1.00  0.00     0.049 A 
ATOM     52  H   UNL     1       1.541   8.087   5.614  1.00  0.00     0.167 HD
ATOM     53  C   UNL     1       1.960  10.809   4.893  1.00  0.00     0.074 A 
ATOM     54  C   UNL     1       1.895  12.065   4.173  1.00  0.00     0.031 C 
ATOM     55  C   UNL     1       2.587  10.644   6.083  1.00  0.00     0.031 A 
BRANCH  42  56
ATOM     56  C   UNL     1       2.226   4.919   8.397  1.00  0.00    -0.014 A 
ATOM     57  C   UNL     1       3.106   3.839   8.228  1.00  0.00     0.009 A 
ATOM     58  C   UNL     1       1.663   5.139   9.666  1.00  0.00     0.009 A 
ATOM     59  C   UNL     1       3.383   2.978   9.295  1.00  0.00     0.001 A 
ATOM     60  C   UNL     1       1.967   4.298  10.738  1.00  0.00     0.001 A 
ATOM     61  C   UNL     1       2.818   3.211  10.548  1.00  0.00     0.000 A 
ENDBRANCH  42  56
BRANCH  43  62
ATOM     62  C   UNL     1      -0.376  10.914   0.810  1.00  0.00    -0.014 A 
ATOM     63  C   UNL     1       0.575  11.432  -0.081  1.00  0.00     0.009 A 
ATOM     64  C   UNL     1      -1.728  11.251   0.629  1.00  0.00     0.009 A 
ATOM     65  C   UNL     1       0.183  12.282  -1.119  1.00  0.00     0.001 A 
ATOM     66  C   UNL     1      -2.121  12.070  -0.431  1.00  0.00     0.001 A 
ATOM     67  C   UNL     1      -1.165  12.593  -1.298  1.00  0.00     0.000 A 
ENDBRANCH  43  62
BRANCH  55  68
ATOM     68  C   UNL     1       3.293  11.842   6.650  1.00  0.00    -0.014 A 
ATOM     69  C   UNL     1       2.581  12.930   7.178  1.00  0.00     0.009 A 
ATOM     70  C   UNL     1       4.697  11.868   6.675  1.00  0.00     0.009 A 
ATOM     71  C   UNL     1       3.263  14.038   7.685  1.00  0.00     0.001 A 
ATOM     72  C   UNL     1       5.375  12.961   7.213  1.00  0.00     0.001 A 
ATOM     73  C   UNL     1       4.658  14.050   7.707  1.00  0.00     0.000 A 
ENDBRANCH  55  68
ENDBRANCH  29  30
ENDBRANCH  22  24
ENDBRANCH  21  22
ENDBRANCH  20  21
ENDBRANCH   1  20
TORSDOF 14
