REMARK SMILES Cc1ccc(S(=O)(=O)Nc2ccc(C(=O)CCC(=O)OCCOC(=O)c3ccc(-c4c5nc(c(-c6ccccc6)c6ccc([nH]6)c(-c6ccccc6)c6nc(c(-c7ccccc7)c7ccc4[nH]7)C=C6)C=C5)cc3)cc2)c(C)c1
REMARK SMILES IDX 18 1 19 2 17 3 16 4 14 5 15 6 13 7 10 8 11 9 75 10 12 11
REMARK SMILES IDX 74 12 9 13 6 15 7 16 8 17 5 18 1 19 2 20 3 21 78 22 4 23
REMARK SMILES IDX 76 24 77 25 20 26 21 27 22 28 23 29 24 30 25 31 26 32 27 33
REMARK SMILES IDX 73 34 28 35 72 36 29 37 30 38 31 39 66 40 32 41 71 42 65 43
REMARK SMILES IDX 67 44 33 45 70 46 64 47 63 48 34 50 56 51 41 52 55 53 42 54
REMARK SMILES IDX 45 55 54 56 68 57 43 58 44 59 53 61 69 62 46 63 35 64 36 65
REMARK SMILES IDX 40 66 37 67 39 68 38 69 57 70 58 71 62 72 59 73 61 74 60 75
REMARK SMILES IDX 47 76 48 77 52 78 49 79 51 80 50 81
REMARK H PARENT 9 14 67 49 45 60
REMARK Flexibility Score: inf
ROOT
ATOM      1  C   UNL     1       3.304  -3.165   0.297  1.00  0.00     0.306 C 
ATOM      2  O   UNL     1       3.658  -2.151  -0.291  1.00  0.00    -0.252 OA
ENDROOT
BRANCH   1   3
ATOM      3  C   UNL     1       4.095  -4.456   0.274  1.00  0.00     0.131 C 
BRANCH   3   4
ATOM      4  C   UNL     1       3.412  -5.667   0.917  1.00  0.00     0.093 C 
BRANCH   4   5
ATOM      5  C   UNL     1       2.477  -6.361  -0.060  1.00  0.00     0.163 C 
ATOM      6  O   UNL     1       2.890  -7.231  -0.825  1.00  0.00    -0.294 OA
BRANCH   5   7
ATOM      7  C   UNL     1       1.081  -5.866  -0.221  1.00  0.00     0.018 A 
ATOM      8  C   UNL     1      -1.304  -4.461  -0.697  1.00  0.00     0.049 A 
ATOM      9  C   UNL     1      -0.582  -5.010  -1.758  1.00  0.00     0.027 A 
ATOM     10  C   UNL     1      -0.936  -4.794   0.605  1.00  0.00     0.027 A 
ATOM     11  C   UNL     1       0.609  -5.702  -1.526  1.00  0.00     0.014 A 
ATOM     12  C   UNL     1       0.270  -5.482   0.849  1.00  0.00     0.014 A 
BRANCH   8  13
ATOM     13  N   UNL     1      -2.421  -3.652  -1.036  1.00  0.00    -0.280 N 
ATOM     14  H   UNL     1      -3.010  -3.987  -1.750  1.00  0.00     0.180 HD
BRANCH  13  15
ATOM     15  S   UNL     1      -2.838  -2.182  -0.343  1.00  0.00     0.262 S 
ATOM     16  O   UNL     1      -2.733  -2.316   1.096  1.00  0.00    -0.201 OA
ATOM     17  O   UNL     1      -4.086  -1.812  -0.975  1.00  0.00    -0.201 OA
BRANCH  15  18
ATOM     18  C   UNL     1      -1.642  -0.926  -0.823  1.00  0.00     0.090 A 
ATOM     19  C   UNL     1       1.929   1.468  -0.687  1.00  0.00     0.044 C 
ATOM     20  C   UNL     1       0.639   0.716  -0.864  1.00  0.00    -0.051 A 
ATOM     21  C   UNL     1       0.575  -0.424  -1.671  1.00  0.00     0.005 A 
ATOM     22  C   UNL     1      -0.516   1.132  -0.199  1.00  0.00     0.008 A 
ATOM     23  C   UNL     1      -0.564  -1.246  -1.654  1.00  0.00     0.023 A 
ATOM     24  C   UNL     1      -1.672   0.329  -0.176  1.00  0.00    -0.030 A 
ATOM     25  C   UNL     1      -2.901   0.917   0.465  1.00  0.00     0.046 C 
ENDBRANCH  15  18
ENDBRANCH  13  15
ENDBRANCH   8  13
ENDBRANCH   5   7
ENDBRANCH   4   5
ENDBRANCH   3   4
ENDBRANCH   1   3
BRANCH   1  26
ATOM     26  O   UNL     1       2.188  -3.272   1.049  1.00  0.00    -0.462 OA
BRANCH  26  27
ATOM     27  C   UNL     1       1.263  -2.177   1.017  1.00  0.00     0.274 C 
BRANCH  27  28
ATOM     28  C   UNL     1       0.391  -2.137   2.269  1.00  0.00     0.275 C 
BRANCH  28  29
ATOM     29  O   UNL     1       1.198  -1.743   3.372  1.00  0.00    -0.458 OA
BRANCH  29  30
ATOM     30  C   UNL     1       1.984  -2.731   3.848  1.00  0.00     0.338 C 
ATOM     31  O   UNL     1       1.915  -3.936   3.675  1.00  0.00    -0.246 OA
BRANCH  30  32
ATOM     32  C   UNL     1       3.110  -2.037   4.444  1.00  0.00     0.060 A 
ATOM     33  C   UNL     1       4.370  -2.158   3.850  1.00  0.00     0.016 A 
ATOM     34  C   UNL     1       2.873  -1.230   5.554  1.00  0.00     0.016 A 
ATOM     35  C   UNL     1       5.442  -1.502   4.426  1.00  0.00     0.010 A 
ATOM     36  C   UNL     1       3.940  -0.562   6.118  1.00  0.00     0.010 A 
ATOM     37  C   UNL     1       5.225  -0.739   5.580  1.00  0.00    -0.014 A 
BRANCH  37  38
ATOM     38  C   UNL     1       6.364  -0.236   6.351  1.00  0.00     0.031 A 
ATOM     39  C   UNL     1       6.723  -0.962   7.608  1.00  0.00     0.074 A 
ATOM     40  C   UNL     1       6.990   0.875   5.941  1.00  0.00     0.049 A 
ATOM     41  N   UNL     1       7.589  -0.640   8.529  1.00  0.00    -0.248 NA
ATOM     42  C   UNL     1       5.983  -2.209   7.879  1.00  0.00     0.031 C 
ATOM     43  C   UNL     1       6.679   1.617   4.718  1.00  0.00     0.029 A 
ATOM     44  N   UNL     1       8.000   1.581   6.525  1.00  0.00    -0.354 N 
ATOM     45  C   UNL     1       7.481  -1.629   9.497  1.00  0.00     0.074 A 
ATOM     46  C   UNL     1       6.441  -2.539   9.075  1.00  0.00     0.031 C 
ATOM     47  C   UNL     1       7.482   2.691   4.649  1.00  0.00     0.029 A 
ATOM     48  C   UNL     1       8.325   2.723   5.840  1.00  0.00     0.049 A 
ATOM     49  H   UNL     1       8.450   1.300   7.354  1.00  0.00     0.167 HD
ATOM     50  C   UNL     1       8.197  -1.758  10.637  1.00  0.00     0.031 A 
ATOM     51  C   UNL     1       9.193   3.694   6.167  1.00  0.00     0.031 A 
ATOM     52  C   UNL     1       9.206  -0.812  11.031  1.00  0.00     0.049 A 
ATOM     53  C   UNL     1       9.968   3.541   7.444  1.00  0.00     0.074 A 
ATOM     54  C   UNL     1      10.013  -0.818  12.151  1.00  0.00     0.029 A 
ATOM     55  N   UNL     1       9.536   0.322  10.298  1.00  0.00    -0.354 N 
ATOM     56  N   UNL     1       9.883   2.594   8.350  1.00  0.00    -0.248 NA
ATOM     57  C   UNL     1      10.965   4.574   7.736  1.00  0.00     0.031 C 
ATOM     58  C   UNL     1      10.801   0.339  12.117  1.00  0.00     0.029 A 
ATOM     59  C   UNL     1      10.527   1.034  10.947  1.00  0.00     0.049 A 
ATOM     60  H   UNL     1       9.124   0.581   9.442  1.00  0.00     0.167 HD
ATOM     61  C   UNL     1      10.831   2.902   9.314  1.00  0.00     0.074 A 
ATOM     62  C   UNL     1      11.489   4.117   8.866  1.00  0.00     0.031 C 
ATOM     63  C   UNL     1      11.137   2.249  10.463  1.00  0.00     0.031 A 
BRANCH  50  64
ATOM     64  C   UNL     1       7.868  -2.928  11.523  1.00  0.00    -0.014 A 
ATOM     65  C   UNL     1       8.121  -4.250  11.117  1.00  0.00     0.009 A 
ATOM     66  C   UNL     1       7.255  -2.711  12.766  1.00  0.00     0.009 A 
ATOM     67  C   UNL     1       7.720  -5.327  11.911  1.00  0.00     0.001 A 
ATOM     68  C   UNL     1       6.885  -3.790  13.574  1.00  0.00     0.001 A 
ATOM     69  C   UNL     1       7.104  -5.096  13.139  1.00  0.00     0.000 A 
ENDBRANCH  50  64
BRANCH  51  70
ATOM     70  C   UNL     1       9.359   4.859   5.263  1.00  0.00    -0.014 A 
ATOM     71  C   UNL     1      10.514   4.997   4.481  1.00  0.00     0.009 A 
ATOM     72  C   UNL     1       8.327   5.801   5.121  1.00  0.00     0.009 A 
ATOM     73  C   UNL     1      10.637   6.060   3.582  1.00  0.00     0.001 A 
ATOM     74  C   UNL     1       8.441   6.848   4.203  1.00  0.00     0.001 A 
ATOM     75  C   UNL     1       9.598   6.979   3.438  1.00  0.00     0.000 A 
ENDBRANCH  51  70
BRANCH  63  76
ATOM     76  C   UNL     1      12.246   2.834  11.287  1.00  0.00    -0.014 A 
ATOM     77  C   UNL     1      12.064   4.017  12.017  1.00  0.00     0.009 A 
ATOM     78  C   UNL     1      13.480   2.167  11.355  1.00  0.00     0.009 A 
ATOM     79  C   UNL     1      13.114   4.545  12.770  1.00  0.00     0.001 A 
ATOM     80  C   UNL     1      14.515   2.680  12.134  1.00  0.00     0.001 A 
ATOM     81  C   UNL     1      14.335   3.874  12.831  1.00  0.00     0.000 A 
ENDBRANCH  63  76
ENDBRANCH  37  38
ENDBRANCH  30  32
ENDBRANCH  29  30
ENDBRANCH  28  29
ENDBRANCH  27  28
ENDBRANCH  26  27
ENDBRANCH   1  26
TORSDOF 17
