REMARK SMILES CCC([NH3+])(CC)C(=O)N1CCC[C@]1(C)C(=O)OCCOC(=O)c1ccc(-c2c3nc(c(-c4ccccc4)c4ccc([nH]4)c(-c4ccccc4)c4nc(c(-c5ccccc5)c5ccc2[nH]5)C=C4)C=C3)cc1
REMARK SMILES IDX 18 1 17 2 15 3 16 4 13 5 9 6 10 7 11 8 12 9 14 10 7 11 8 12
REMARK SMILES IDX 3 13 2 14 1 15 4 16 5 20 6 21 19 22 20 23 21 24 22 25 23 26
REMARK SMILES IDX 24 27 70 28 25 29 69 30 26 31 27 32 28 33 63 34 29 35 68 36
REMARK SMILES IDX 62 37 64 38 30 39 67 40 61 41 60 42 31 44 53 45 38 46 52 47
REMARK SMILES IDX 39 48 42 49 51 50 65 51 40 52 41 53 50 55 66 56 43 57 32 58
REMARK SMILES IDX 33 59 37 60 34 61 36 62 35 63 54 64 55 65 59 66 56 67 58 68
REMARK SMILES IDX 57 69 44 70 45 71 49 72 46 73 48 74 47 75
REMARK H PARENT 4 17 4 18 4 19 64 43 42 54
REMARK Flexibility Score: inf
ROOT
ATOM      1  C   UNL     1       1.415   6.286  -1.986  1.00  0.00     0.274 C 
ENDROOT
BRANCH   1   2
ATOM      2  O   UNL     1       2.010   5.000  -2.286  1.00  0.00    -0.460 OA
BRANCH   2   3
ATOM      3  C   UNL     1       2.067   4.694  -3.606  1.00  0.00     0.331 C 
ATOM      4  O   UNL     1       1.776   5.492  -4.495  1.00  0.00    -0.249 OA
BRANCH   3   5
ATOM      5  C   UNL     1       2.482   3.228  -3.919  1.00  0.00     0.138 C 
ATOM      6  N   UNL     1       2.903   2.299  -2.807  1.00  0.00    -0.321 N 
ATOM      7  C   UNL     1       4.270   1.837  -3.045  1.00  0.00     0.121 C 
ATOM      8  C   UNL     1       4.923   2.899  -3.880  1.00  0.00     0.025 C 
ATOM      9  C   UNL     1       3.791   3.347  -4.782  1.00  0.00     0.042 C 
ATOM     10  C   UNL     1       1.406   2.667  -4.858  1.00  0.00     0.047 C 
BRANCH   6  11
ATOM     11  C   UNL     1       2.315   1.764  -1.666  1.00  0.00     0.284 C 
ATOM     12  O   UNL     1       3.073   1.357  -0.770  1.00  0.00    -0.268 OA
BRANCH  11  13
ATOM     13  C   UNL     1       0.773   1.501  -1.478  1.00  0.00     0.173 C 
BRANCH  13  14
ATOM     14  C   UNL     1       0.523   0.719  -0.138  1.00  0.00     0.075 C 
ATOM     15  C   UNL     1       1.017  -0.729  -0.067  1.00  0.00     0.011 C 
ENDBRANCH  13  14
BRANCH  13  16
ATOM     16  N   UNL     1       0.293   0.618  -2.569  1.00  0.00    -0.345 N 
ATOM     17  H   UNL     1      -0.705   0.444  -2.451  1.00  0.00     0.345 HD
ATOM     18  H   UNL     1       0.798  -0.268  -2.536  1.00  0.00     0.345 HD
ATOM     19  H   UNL     1       0.457   1.069  -3.469  1.00  0.00     0.345 HD
ENDBRANCH  13  16
BRANCH  13  20
ATOM     20  C   UNL     1      -0.080   2.786  -1.447  1.00  0.00     0.075 C 
ATOM     21  C   UNL     1       0.123   3.643  -0.199  1.00  0.00     0.011 C 
ENDBRANCH  13  20
ENDBRANCH  11  13
ENDBRANCH   6  11
ENDBRANCH   3   5
ENDBRANCH   2   3
ENDBRANCH   1   2
BRANCH   1  22
ATOM     22  C   UNL     1       1.995   6.859  -0.695  1.00  0.00     0.275 C 
BRANCH  22  23
ATOM     23  O   UNL     1       3.345   7.255  -0.969  1.00  0.00    -0.458 OA
BRANCH  23  24
ATOM     24  C   UNL     1       4.278   6.325  -0.672  1.00  0.00     0.338 C 
ATOM     25  O   UNL     1       4.169   5.331   0.018  1.00  0.00    -0.246 OA
BRANCH  24  26
ATOM     26  C   UNL     1       5.458   6.638  -1.479  1.00  0.00     0.060 A 
ATOM     27  C   UNL     1       5.437   6.303  -2.834  1.00  0.00     0.016 A 
ATOM     28  C   UNL     1       6.588   7.195  -0.895  1.00  0.00     0.016 A 
ATOM     29  C   UNL     1       6.585   6.450  -3.601  1.00  0.00     0.010 A 
ATOM     30  C   UNL     1       7.709   7.430  -1.691  1.00  0.00     0.010 A 
ATOM     31  C   UNL     1       7.728   7.037  -3.044  1.00  0.00    -0.014 A 
BRANCH  31  32
ATOM     32  C   UNL     1       8.956   7.225  -3.855  1.00  0.00     0.031 A 
ATOM     33  C   UNL     1      10.242   6.582  -3.419  1.00  0.00     0.074 A 
ATOM     34  C   UNL     1       8.928   7.984  -4.967  1.00  0.00     0.049 A 
ATOM     35  N   UNL     1      11.463   6.811  -3.831  1.00  0.00    -0.248 NA
ATOM     36  C   UNL     1      10.142   5.561  -2.364  1.00  0.00     0.031 C 
ATOM     37  C   UNL     1       7.737   8.611  -5.543  1.00  0.00     0.029 A 
ATOM     38  N   UNL     1       9.940   8.355  -5.815  1.00  0.00    -0.354 N 
ATOM     39  C   UNL     1      12.281   6.017  -3.037  1.00  0.00     0.074 A 
ATOM     40  C   UNL     1      11.418   5.296  -2.126  1.00  0.00     0.031 C 
ATOM     41  C   UNL     1       8.078   9.251  -6.671  1.00  0.00     0.029 A 
ATOM     42  C   UNL     1       9.523   9.164  -6.844  1.00  0.00     0.049 A 
ATOM     43  H   UNL     1      10.875   8.070  -5.699  1.00  0.00     0.167 HD
ATOM     44  C   UNL     1      13.632   5.913  -3.059  1.00  0.00     0.031 A 
ATOM     45  C   UNL     1      10.228   9.805  -7.793  1.00  0.00     0.031 A 
ATOM     46  C   UNL     1      14.477   6.609  -3.993  1.00  0.00     0.049 A 
ATOM     47  C   UNL     1      11.725   9.709  -7.776  1.00  0.00     0.074 A 
ATOM     48  C   UNL     1      15.856   6.580  -4.102  1.00  0.00     0.029 A 
ATOM     49  N   UNL     1      14.014   7.450  -4.994  1.00  0.00    -0.354 N 
ATOM     50  N   UNL     1      12.498   9.026  -6.967  1.00  0.00    -0.248 NA
ATOM     51  C   UNL     1      12.447  10.495  -8.785  1.00  0.00     0.031 C 
ATOM     52  C   UNL     1      16.230   7.429  -5.150  1.00  0.00     0.029 A 
ATOM     53  C   UNL     1      15.080   7.952  -5.721  1.00  0.00     0.049 A 
ATOM     54  H   UNL     1      13.067   7.660  -5.163  1.00  0.00     0.167 HD
ATOM     55  C   UNL     1      13.798   9.292  -7.372  1.00  0.00     0.074 A 
ATOM     56  C   UNL     1      13.706  10.184  -8.512  1.00  0.00     0.031 C 
ATOM     57  C   UNL     1      14.963   8.843  -6.846  1.00  0.00     0.031 A 
BRANCH  44  58
ATOM     58  C   UNL     1      14.271   5.059  -2.000  1.00  0.00    -0.014 A 
ATOM     59  C   UNL     1      14.177   3.659  -2.023  1.00  0.00     0.009 A 
ATOM     60  C   UNL     1      14.976   5.674  -0.953  1.00  0.00     0.009 A 
ATOM     61  C   UNL     1      14.736   2.896  -0.994  1.00  0.00     0.001 A 
ATOM     62  C   UNL     1      15.559   4.908   0.058  1.00  0.00     0.001 A 
ATOM     63  C   UNL     1      15.428   3.521   0.043  1.00  0.00     0.000 A 
ENDBRANCH  44  58
BRANCH  45  64
ATOM     64  C   UNL     1       9.520  10.623  -8.811  1.00  0.00    -0.014 A 
ATOM     65  C   UNL     1       9.441  10.182 -10.140  1.00  0.00     0.009 A 
ATOM     66  C   UNL     1       8.890  11.826  -8.455  1.00  0.00     0.009 A 
ATOM     67  C   UNL     1       8.746  10.931 -11.092  1.00  0.00     0.001 A 
ATOM     68  C   UNL     1       8.173  12.558  -9.403  1.00  0.00     0.001 A 
ATOM     69  C   UNL     1       8.105  12.113 -10.721  1.00  0.00     0.000 A 
ENDBRANCH  45  64
BRANCH  57  70
ATOM     70  C   UNL     1      16.226   9.290  -7.522  1.00  0.00    -0.014 A 
ATOM     71  C   UNL     1      16.724  10.590  -7.342  1.00  0.00     0.009 A 
ATOM     72  C   UNL     1      16.936   8.390  -8.330  1.00  0.00     0.009 A 
ATOM     73  C   UNL     1      17.897  10.988  -7.984  1.00  0.00     0.001 A 
ATOM     74  C   UNL     1      18.121   8.784  -8.953  1.00  0.00     0.001 A 
ATOM     75  C   UNL     1      18.596  10.085  -8.786  1.00  0.00     0.000 A 
ENDBRANCH  57  70
ENDBRANCH  31  32
ENDBRANCH  24  26
ENDBRANCH  23  24
ENDBRANCH  22  23
ENDBRANCH   1  22
TORSDOF 16
