REMARK SMILES O=C(OCCOC(=O)c1ccc(-c2c3nc(c(-c4ccccc4)c4ccc([nH]4)c(-c4ccccc4)c4nc(c(-c5ccccc5)c5ccc2[nH]5)C=C4)C=C3)cc1)C1=Cc2c(ccc(Cl)c2Oc2ccccc2)O[C@H]1C(F)(F)F
REMARK SMILES IDX 4 1 3 2 2 3 1 4 57 5 58 6 74 7 59 8 73 9 60 10 65 11 61 12
REMARK SMILES IDX 63 13 62 14 64 15 75 16 76 17 77 18 78 19 66 20 67 21 68 22
REMARK SMILES IDX 72 23 69 24 71 25 70 26 5 27 6 28 7 29 8 30 9 31 10 32 56 33
REMARK SMILES IDX 11 34 55 35 12 36 13 37 14 38 49 39 15 40 54 41 48 42 50 43
REMARK SMILES IDX 16 44 53 45 47 46 46 47 17 49 39 50 24 51 38 52 25 53 28 54
REMARK SMILES IDX 37 55 51 56 26 57 27 58 36 60 52 61 29 62 18 63 19 64 23 65
REMARK SMILES IDX 20 66 22 67 21 68 40 69 41 70 45 71 42 72 44 73 43 74 30 75
REMARK SMILES IDX 31 76 35 77 32 78 34 79 33 80
REMARK H PARENT 50 48 28 59
REMARK Flexibility Score: inf
ROOT
ATOM      1  C   UNL     1       3.137   0.914  -1.753  1.00  0.00     0.275 C 
ENDROOT
BRANCH   1   2
ATOM      2  O   UNL     1       3.157  -0.487  -2.110  1.00  0.00    -0.459 OA
BRANCH   2   3
ATOM      3  C   UNL     1       3.012  -1.535  -1.276  1.00  0.00     0.338 C 
ATOM      4  O   UNL     1       2.274  -2.479  -1.535  1.00  0.00    -0.246 OA
BRANCH   3   5
ATOM      5  C   UNL     1       4.036  -1.731  -0.257  1.00  0.00     0.088 C 
ATOM      6  C   UNL     1       4.346  -0.957   0.783  1.00  0.00     0.031 C 
ATOM      7  C   UNL     1       5.146  -2.665  -0.572  1.00  0.00     0.316 C 
ATOM      8  C   UNL     1       5.392   0.043   0.558  1.00  0.00     0.062 A 
ATOM      9  O   UNL     1       6.391  -1.846  -0.693  1.00  0.00    -0.475 OA
ATOM     10  C   UNL     1       6.315  -0.478  -0.393  1.00  0.00     0.131 A 
ATOM     11  C   UNL     1       5.365   1.394   1.033  1.00  0.00     0.156 A 
ATOM     12  C   UNL     1       7.081   0.416  -1.109  1.00  0.00     0.049 A 
ATOM     13  C   UNL     1       6.124   2.267   0.228  1.00  0.00     0.084 A 
ATOM     14  C   UNL     1       6.932   1.787  -0.842  1.00  0.00     0.028 A 
ATOM     15  Cl  UNL     1       5.949   3.985   0.358  1.00  0.00    -0.080 Cl
BRANCH   7  16
ATOM     16  C   UNL     1       5.171  -3.837   0.475  1.00  0.00     0.430 C 
ATOM     17  F   UNL     1       4.447  -3.588   1.602  1.00  0.00    -0.167 F 
ATOM     18  F   UNL     1       4.645  -4.973  -0.044  1.00  0.00    -0.167 F 
ATOM     19  F   UNL     1       6.423  -4.123   0.897  1.00  0.00    -0.167 F 
ENDBRANCH   7  16
BRANCH  11  20
ATOM     20  O   UNL     1       4.537   2.018   2.026  1.00  0.00    -0.455 OA
BRANCH  20  21
ATOM     21  C   UNL     1       3.609   1.331   2.860  1.00  0.00     0.127 A 
ATOM     22  C   UNL     1       2.025   2.068   3.237  1.00  0.00     0.047 A 
ATOM     23  C   UNL     1       3.933  -0.312   3.123  1.00  0.00     0.047 A 
ATOM     24  C   UNL     1       0.583   1.118   3.773  1.00  0.00     0.004 A 
ATOM     25  C   UNL     1       2.595  -1.433   3.446  1.00  0.00     0.004 A 
ATOM     26  C   UNL     1       0.759  -0.689   3.850  1.00  0.00     0.000 A 
ENDBRANCH  20  21
ENDBRANCH  11  20
ENDBRANCH   3   5
ENDBRANCH   2   3
ENDBRANCH   1   2
BRANCH   1  27
ATOM     27  C   UNL     1       2.511   1.314  -0.435  1.00  0.00     0.275 C 
BRANCH  27  28
ATOM     28  O   UNL     1       1.479   0.465  -0.004  1.00  0.00    -0.458 OA
BRANCH  28  29
ATOM     29  C   UNL     1       1.087   0.891   1.229  1.00  0.00     0.338 C 
ATOM     30  O   UNL     1       0.166   1.690   1.314  1.00  0.00    -0.246 OA
BRANCH  29  31
ATOM     31  C   UNL     1       1.803  -0.020   2.412  1.00  0.00     0.060 A 
ATOM     32  C   UNL     1       1.115  -1.591   1.895  1.00  0.00     0.016 A 
ATOM     33  C   UNL     1       2.333   0.183   4.366  1.00  0.00     0.016 A 
ATOM     34  C   UNL     1       0.870  -2.836   3.065  1.00  0.00     0.010 A 
ATOM     35  C   UNL     1       2.085  -1.252   5.454  1.00  0.00     0.010 A 
ATOM     36  C   UNL     1       1.319  -2.722   4.777  1.00  0.00    -0.014 A 
BRANCH  36  37
ATOM     37  C   UNL     1       0.777  -3.856   5.628  1.00  0.00     0.031 A 
ATOM     38  C   UNL     1       0.192  -3.520   6.973  1.00  0.00     0.074 A 
ATOM     39  C   UNL     1       0.654  -5.140   5.193  1.00  0.00     0.049 A 
ATOM     40  N   UNL     1      -0.217  -4.313   7.930  1.00  0.00    -0.248 NA
ATOM     41  C   UNL     1       0.124  -2.100   7.331  1.00  0.00     0.031 C 
ATOM     42  C   UNL     1       1.145  -5.702   3.929  1.00  0.00     0.029 A 
ATOM     43  N   UNL     1      -0.014  -6.215   5.756  1.00  0.00    -0.354 N 
ATOM     44  C   UNL     1      -0.449  -3.472   9.010  1.00  0.00     0.074 A 
ATOM     45  C   UNL     1       0.023  -2.163   8.643  1.00  0.00     0.031 C 
ATOM     46  C   UNL     1       0.624  -6.928   3.741  1.00  0.00     0.029 A 
ATOM     47  C   UNL     1      -0.118  -7.320   4.931  1.00  0.00     0.049 A 
ATOM     48  H   UNL     1      -0.384  -6.194   6.668  1.00  0.00     0.167 HD
ATOM     49  C   UNL     1      -1.103  -3.707  10.168  1.00  0.00     0.031 A 
ATOM     50  C   UNL     1      -0.720  -8.518   5.114  1.00  0.00     0.031 A 
ATOM     51  C   UNL     1      -1.722  -4.953  10.490  1.00  0.00     0.049 A 
ATOM     52  C   UNL     1      -1.381  -8.798   6.443  1.00  0.00     0.074 A 
ATOM     53  C   UNL     1      -2.413  -5.300  11.634  1.00  0.00     0.029 A 
ATOM     54  N   UNL     1      -1.752  -6.048   9.643  1.00  0.00    -0.354 N 
ATOM     55  N   UNL     1      -1.556  -7.998   7.468  1.00  0.00    -0.248 NA
ATOM     56  C   UNL     1      -1.913 -10.155   6.648  1.00  0.00     0.031 C 
ATOM     57  C   UNL     1      -2.782  -6.642  11.517  1.00  0.00     0.029 A 
ATOM     58  C   UNL     1      -2.418  -7.090  10.257  1.00  0.00     0.049 A 
ATOM     59  H   UNL     1      -1.358  -6.079   8.741  1.00  0.00     0.167 HD
ATOM     60  C   UNL     1      -2.252  -8.740   8.416  1.00  0.00     0.074 A 
ATOM     61  C   UNL     1      -2.484 -10.046   7.839  1.00  0.00     0.031 C 
ATOM     62  C   UNL     1      -2.663  -8.373   9.655  1.00  0.00     0.031 A 
BRANCH  49  63
ATOM     63  C   UNL     1      -1.138  -2.579  11.162  1.00  0.00    -0.014 A 
ATOM     64  C   UNL     1      -1.824  -1.376  10.911  1.00  0.00     0.009 A 
ATOM     65  C   UNL     1      -0.383  -2.698  12.336  1.00  0.00     0.009 A 
ATOM     66  C   UNL     1      -1.673  -0.287  11.772  1.00  0.00     0.001 A 
ATOM     67  C   UNL     1      -0.278  -1.627  13.220  1.00  0.00     0.001 A 
ATOM     68  C   UNL     1      -0.902  -0.415  12.926  1.00  0.00     0.000 A 
ENDBRANCH  49  63
BRANCH  50  69
ATOM     69  C   UNL     1      -0.705  -9.588   4.060  1.00  0.00    -0.014 A 
ATOM     70  C   UNL     1      -1.903 -10.101   3.525  1.00  0.00     0.009 A 
ATOM     71  C   UNL     1       0.502 -10.176   3.649  1.00  0.00     0.009 A 
ATOM     72  C   UNL     1      -1.891 -11.193   2.646  1.00  0.00     0.001 A 
ATOM     73  C   UNL     1       0.515 -11.238   2.738  1.00  0.00     0.001 A 
ATOM     74  C   UNL     1      -0.682 -11.757   2.249  1.00  0.00     0.000 A 
ENDBRANCH  50  69
BRANCH  62  75
ATOM     75  C   UNL     1      -3.491  -9.353  10.437  1.00  0.00    -0.014 A 
ATOM     76  C   UNL     1      -2.958 -10.549  10.938  1.00  0.00     0.009 A 
ATOM     77  C   UNL     1      -4.828  -9.030  10.723  1.00  0.00     0.009 A 
ATOM     78  C   UNL     1      -3.763 -11.425  11.668  1.00  0.00     0.001 A 
ATOM     79  C   UNL     1      -5.616  -9.884  11.491  1.00  0.00     0.001 A 
ATOM     80  C   UNL     1      -5.088 -11.088  11.950  1.00  0.00     0.000 A 
ENDBRANCH  62  75
ENDBRANCH  36  37
ENDBRANCH  29  31
ENDBRANCH  28  29
ENDBRANCH  27  28
ENDBRANCH   1  27
TORSDOF 14
