REMARK SMILES CC[N@H+](CC(C)(C)C(=O)OCCOC(=O)c1ccc(-c2c3nc(c(-c4ccccc4)c4ccc([nH]4)c(-c4ccccc4)c4nc(c(-c5ccccc5)c5ccc2[nH]5)C=C4)C=C3)cc1)[C@H]1CCC[NH2+]C1
REMARK SMILES IDX 11 1 10 2 8 3 9 4 5 5 6 6 7 7 4 8 3 9 2 11 1 12 64 13 65 14
REMARK SMILES IDX 69 15 66 16 68 17 67 18 12 21 13 22 14 23 15 24 16 25 17 26
REMARK SMILES IDX 63 27 18 28 62 29 19 30 20 31 21 32 56 33 22 34 61 35 55 36
REMARK SMILES IDX 57 37 23 38 60 39 54 40 53 41 24 43 46 44 31 45 45 46 32 47
REMARK SMILES IDX 35 48 44 49 58 50 33 51 34 52 43 54 59 55 36 56 25 57 26 58
REMARK SMILES IDX 30 59 27 60 29 61 28 62 47 63 48 64 52 65 49 66 51 67 50 68
REMARK SMILES IDX 37 69 38 70 42 71 39 72 41 73 40 74
REMARK H PARENT 3 10 68 19 68 20 57 42 35 53
REMARK Flexibility Score: inf
ROOT
ATOM      1  C   UNL     1       6.472   4.364  -5.913  1.00  0.00     0.274 C 
ENDROOT
BRANCH   1   2
ATOM      2  O   UNL     1       5.025   4.334  -5.994  1.00  0.00    -0.461 OA
BRANCH   2   3
ATOM      3  C   UNL     1       4.423   3.783  -4.909  1.00  0.00     0.317 C 
ATOM      4  O   UNL     1       5.048   3.547  -3.885  1.00  0.00    -0.251 OA
BRANCH   3   5
ATOM      5  C   UNL     1       2.924   3.506  -5.063  1.00  0.00     0.111 C 
ATOM      6  C   UNL     1       2.599   2.684  -6.311  1.00  0.00     0.029 C 
ATOM      7  C   UNL     1       2.265   4.901  -5.192  1.00  0.00     0.029 C 
BRANCH   5   8
ATOM      8  C   UNL     1       2.335   2.809  -3.769  1.00  0.00     0.280 C 
BRANCH   8   9
ATOM      9  N   UNL     1       2.631   1.383  -3.341  1.00  0.00    -0.327 N 
ATOM     10  H   UNL     1       2.306   0.709  -4.035  1.00  0.00     0.348 HD
BRANCH   9  11
ATOM     11  C   UNL     1       4.092   1.174  -3.260  1.00  0.00     0.259 C 
ATOM     12  C   UNL     1       4.744  -0.183  -3.025  1.00  0.00     0.071 C 
ENDBRANCH   9  11
BRANCH   9  13
ATOM     13  C   UNL     1       1.860   1.067  -2.074  1.00  0.00     0.239 C 
ATOM     14  C   UNL     1       2.118  -0.338  -1.482  1.00  0.00     0.077 C 
ATOM     15  C   UNL     1       1.993   2.119  -0.934  1.00  0.00     0.326 C 
ATOM     16  C   UNL     1       1.408  -0.584  -0.149  1.00  0.00     0.068 C 
ATOM     17  N   UNL     1       1.268   1.809   0.303  1.00  0.00    -0.341 N 
ATOM     18  C   UNL     1       1.713   0.530   0.843  1.00  0.00     0.260 C 
ATOM     19  H   UNL     1       1.443   2.543   0.989  1.00  0.00     0.346 HD
ATOM     20  H   UNL     1       0.270   1.754   0.099  1.00  0.00     0.346 HD
ENDBRANCH   9  13
ENDBRANCH   8   9
ENDBRANCH   5   8
ENDBRANCH   3   5
ENDBRANCH   2   3
ENDBRANCH   1   2
BRANCH   1  21
ATOM     21  C   UNL     1       7.082   5.495  -5.055  1.00  0.00     0.275 C 
BRANCH  21  22
ATOM     22  O   UNL     1       7.008   5.260  -3.628  1.00  0.00    -0.458 OA
BRANCH  22  23
ATOM     23  C   UNL     1       6.000   5.908  -2.980  1.00  0.00     0.338 C 
ATOM     24  O   UNL     1       5.259   6.743  -3.465  1.00  0.00    -0.246 OA
BRANCH  23  25
ATOM     25  C   UNL     1       5.761   5.325  -1.628  1.00  0.00     0.060 A 
ATOM     26  C   UNL     1       4.427   5.119  -1.265  1.00  0.00     0.016 A 
ATOM     27  C   UNL     1       6.772   4.987  -0.724  1.00  0.00     0.016 A 
ATOM     28  C   UNL     1       4.105   4.549  -0.032  1.00  0.00     0.010 A 
ATOM     29  C   UNL     1       6.441   4.438   0.534  1.00  0.00     0.010 A 
ATOM     30  C   UNL     1       5.102   4.200   0.888  1.00  0.00    -0.014 A 
BRANCH  30  31
ATOM     31  C   UNL     1       4.699   3.701   2.238  1.00  0.00     0.031 A 
ATOM     32  C   UNL     1       4.012   4.651   3.188  1.00  0.00     0.074 A 
ATOM     33  C   UNL     1       4.839   2.408   2.600  1.00  0.00     0.049 A 
ATOM     34  N   UNL     1       3.592   4.444   4.412  1.00  0.00    -0.248 NA
ATOM     35  C   UNL     1       3.743   6.008   2.684  1.00  0.00     0.031 C 
ATOM     36  C   UNL     1       5.342   1.337   1.742  1.00  0.00     0.029 A 
ATOM     37  N   UNL     1       4.519   1.764   3.776  1.00  0.00    -0.354 N 
ATOM     38  C   UNL     1       3.036   5.648   4.827  1.00  0.00     0.074 A 
ATOM     39  C   UNL     1       3.119   6.562   3.711  1.00  0.00     0.031 C 
ATOM     40  C   UNL     1       5.249   0.165   2.401  1.00  0.00     0.029 A 
ATOM     41  C   UNL     1       4.747   0.404   3.755  1.00  0.00     0.049 A 
ATOM     42  H   UNL     1       4.160   2.233   4.563  1.00  0.00     0.167 HD
ATOM     43  C   UNL     1       2.556   5.993   6.045  1.00  0.00     0.031 A 
ATOM     44  C   UNL     1       4.585  -0.529   4.719  1.00  0.00     0.031 A 
ATOM     45  C   UNL     1       2.556   5.128   7.191  1.00  0.00     0.049 A 
ATOM     46  C   UNL     1       4.168  -0.089   6.107  1.00  0.00     0.074 A 
ATOM     47  C   UNL     1       2.239   5.434   8.502  1.00  0.00     0.029 A 
ATOM     48  N   UNL     1       2.904   3.789   7.162  1.00  0.00    -0.354 N 
ATOM     49  N   UNL     1       3.745   1.083   6.516  1.00  0.00    -0.248 NA
ATOM     50  C   UNL     1       4.250  -1.097   7.180  1.00  0.00     0.031 C 
ATOM     51  C   UNL     1       2.452   4.293   9.279  1.00  0.00     0.029 A 
ATOM     52  C   UNL     1       2.825   3.258   8.437  1.00  0.00     0.049 A 
ATOM     53  H   UNL     1       3.167   3.289   6.356  1.00  0.00     0.167 HD
ATOM     54  C   UNL     1       3.500   0.947   7.880  1.00  0.00     0.074 A 
ATOM     55  C   UNL     1       3.789  -0.427   8.227  1.00  0.00     0.031 C 
ATOM     56  C   UNL     1       3.090   1.883   8.769  1.00  0.00     0.031 A 
BRANCH  43  57
ATOM     57  C   UNL     1       2.133   7.422   6.223  1.00  0.00    -0.014 A 
ATOM     58  C   UNL     1       0.936   7.912   5.682  1.00  0.00     0.009 A 
ATOM     59  C   UNL     1       2.974   8.298   6.929  1.00  0.00     0.009 A 
ATOM     60  C   UNL     1       0.608   9.263   5.813  1.00  0.00     0.001 A 
ATOM     61  C   UNL     1       2.630   9.640   7.083  1.00  0.00     0.001 A 
ATOM     62  C   UNL     1       1.453  10.124   6.515  1.00  0.00     0.000 A 
ENDBRANCH  43  57
BRANCH  44  63
ATOM     63  C   UNL     1       4.877  -1.977   4.475  1.00  0.00    -0.014 A 
ATOM     64  C   UNL     1       3.883  -2.951   4.682  1.00  0.00     0.009 A 
ATOM     65  C   UNL     1       6.169  -2.410   4.139  1.00  0.00     0.009 A 
ATOM     66  C   UNL     1       4.186  -4.315   4.599  1.00  0.00     0.001 A 
ATOM     67  C   UNL     1       6.460  -3.772   4.014  1.00  0.00     0.001 A 
ATOM     68  C   UNL     1       5.474  -4.724   4.261  1.00  0.00     0.000 A 
ENDBRANCH  44  63
BRANCH  56  69
ATOM     69  C   UNL     1       2.878   1.468  10.200  1.00  0.00    -0.014 A 
ATOM     70  C   UNL     1       3.958   1.192  11.052  1.00  0.00     0.009 A 
ATOM     71  C   UNL     1       1.577   1.460  10.728  1.00  0.00     0.009 A 
ATOM     72  C   UNL     1       3.736   0.901  12.401  1.00  0.00     0.001 A 
ATOM     73  C   UNL     1       1.361   1.197  12.082  1.00  0.00     0.001 A 
ATOM     74  C   UNL     1       2.440   0.914  12.916  1.00  0.00     0.000 A 
ENDBRANCH  56  69
ENDBRANCH  30  31
ENDBRANCH  23  25
ENDBRANCH  22  23
ENDBRANCH  21  22
ENDBRANCH   1  21
TORSDOF 15
