REMARK SMILES O=C(CCCCCN1C(=O)/C(=C2\C(=O)Nc3ccccc32)SC1=S)OCCOC(=O)c1ccc(-c2c3nc(c(-c4ccccc4)c4ccc([nH]4)c(-c4ccccc4)c4nc(c(-c5ccccc5)c5ccc2[nH]5)C=C4)C=C3)cc1
REMARK SMILES IDX 25 1 2 2 1 3 3 4 4 5 5 6 6 7 7 8 8 9 9 10 23 11 10 12 11 13
REMARK SMILES IDX 22 14 24 15 12 16 13 17 21 18 14 19 15 20 16 21 20 22 17 24
REMARK SMILES IDX 19 25 18 26 26 27 27 28 28 29 29 30 30 31 31 32 32 33 78 34
REMARK SMILES IDX 33 35 77 36 34 37 35 38 36 39 71 40 37 41 76 42 70 43 72 44
REMARK SMILES IDX 38 45 75 46 69 47 68 48 39 50 61 51 46 52 60 53 47 54 50 55
REMARK SMILES IDX 59 56 73 57 48 58 49 59 58 61 74 62 51 63 40 64 41 65 45 66
REMARK SMILES IDX 42 67 44 68 43 69 62 70 63 71 67 72 64 73 66 74 65 75 52 76
REMARK SMILES IDX 53 77 57 78 54 79 56 80 55 81
REMARK H PARENT 15 23 72 49 50 60
REMARK Flexibility Score: inf
ROOT
ATOM      1  O   UNL     1       2.170   0.808  -0.487  1.00  0.00    -0.462 OA
ENDROOT
BRANCH   1   2
ATOM      2  C   UNL     1       2.279  -0.496  -0.856  1.00  0.00     0.305 C 
ATOM      3  O   UNL     1       1.648  -0.949  -1.805  1.00  0.00    -0.252 OA
BRANCH   2   4
ATOM      4  C   UNL     1       3.065  -1.385   0.087  1.00  0.00     0.123 C 
BRANCH   4   5
ATOM      5  C   UNL     1       4.110  -2.260  -0.592  1.00  0.00     0.012 C 
BRANCH   5   6
ATOM      6  C   UNL     1       5.307  -1.486  -1.143  1.00  0.00     0.002 C 
BRANCH   6   7
ATOM      7  C   UNL     1       6.182  -0.733  -0.119  1.00  0.00     0.022 C 
BRANCH   7   8
ATOM      8  C   UNL     1       7.065  -1.581   0.809  1.00  0.00     0.127 C 
BRANCH   8   9
ATOM      9  N   UNL     1       7.783  -2.631   0.105  1.00  0.00    -0.293 N 
ATOM     10  C   UNL     1       8.518  -2.307  -1.026  1.00  0.00     0.267 C 
ATOM     11  C   UNL     1       7.855  -3.949   0.490  1.00  0.00     0.148 C 
ATOM     12  O   UNL     1       9.065  -1.241  -1.248  1.00  0.00    -0.268 OA
ATOM     13  C   UNL     1       8.578  -3.526  -1.870  1.00  0.00     0.093 C 
ATOM     14  S   UNL     1       8.658  -4.867  -0.779  1.00  0.00    -0.053 SA
ATOM     15  S   UNL     1       7.274  -4.661   1.879  1.00  0.00    -0.052 S 
ATOM     16  C   UNL     1       8.257  -3.558  -3.173  1.00  0.00     0.069 C 
ATOM     17  C   UNL     1       7.982  -2.332  -4.015  1.00  0.00     0.257 C 
ATOM     18  C   UNL     1       7.941  -4.720  -4.029  1.00  0.00     0.012 A 
ATOM     19  O   UNL     1       7.977  -1.159  -3.689  1.00  0.00    -0.269 OA
ATOM     20  N   UNL     1       7.632  -2.811  -5.262  1.00  0.00    -0.321 N 
ATOM     21  C   UNL     1       7.576  -4.198  -5.275  1.00  0.00     0.049 A 
ATOM     22  C   UNL     1       7.841  -6.085  -3.814  1.00  0.00     0.011 A 
ATOM     23  H   UNL     1       7.446  -2.241  -6.043  1.00  0.00     0.170 HD
ATOM     24  C   UNL     1       7.145  -4.982  -6.327  1.00  0.00     0.027 A 
ATOM     25  C   UNL     1       7.386  -6.901  -4.857  1.00  0.00     0.001 A 
ATOM     26  C   UNL     1       7.047  -6.355  -6.105  1.00  0.00     0.002 A 
ENDBRANCH   8   9
ENDBRANCH   7   8
ENDBRANCH   6   7
ENDBRANCH   5   6
ENDBRANCH   4   5
ENDBRANCH   2   4
ENDBRANCH   1   2
BRANCH   1  27
ATOM     27  C   UNL     1       3.370   1.595  -0.383  1.00  0.00     0.274 C 
BRANCH  27  28
ATOM     28  C   UNL     1       3.574   2.192   1.014  1.00  0.00     0.275 C 
BRANCH  28  29
ATOM     29  O   UNL     1       3.492   1.182   2.035  1.00  0.00    -0.458 OA
BRANCH  29  30
ATOM     30  C   UNL     1       2.249   1.004   2.556  1.00  0.00     0.338 C 
ATOM     31  O   UNL     1       1.276   1.714   2.367  1.00  0.00    -0.246 OA
BRANCH  30  32
ATOM     32  C   UNL     1       2.176  -0.294   3.270  1.00  0.00     0.060 A 
ATOM     33  C   UNL     1       3.272  -0.848   3.941  1.00  0.00     0.016 A 
ATOM     34  C   UNL     1       0.955  -0.981   3.244  1.00  0.00     0.016 A 
ATOM     35  C   UNL     1       3.129  -2.067   4.614  1.00  0.00     0.010 A 
ATOM     36  C   UNL     1       0.811  -2.193   3.923  1.00  0.00     0.010 A 
ATOM     37  C   UNL     1       1.891  -2.735   4.634  1.00  0.00    -0.014 A 
BRANCH  37  38
ATOM     38  C   UNL     1       1.678  -3.892   5.539  1.00  0.00     0.031 A 
ATOM     39  C   UNL     1       1.609  -5.303   5.035  1.00  0.00     0.074 A 
ATOM     40  C   UNL     1       1.506  -3.644   6.852  1.00  0.00     0.049 A 
ATOM     41  N   UNL     1       1.514  -6.411   5.727  1.00  0.00    -0.248 NA
ATOM     42  C   UNL     1       1.644  -5.501   3.580  1.00  0.00     0.031 C 
ATOM     43  C   UNL     1       1.508  -2.312   7.460  1.00  0.00     0.029 A 
ATOM     44  N   UNL     1       1.305  -4.495   7.909  1.00  0.00    -0.354 N 
ATOM     45  C   UNL     1       1.496  -7.441   4.797  1.00  0.00     0.074 A 
ATOM     46  C   UNL     1       1.549  -6.823   3.487  1.00  0.00     0.031 C 
ATOM     47  C   UNL     1       1.352  -2.437   8.786  1.00  0.00     0.029 A 
ATOM     48  C   UNL     1       1.215  -3.852   9.120  1.00  0.00     0.049 A 
ATOM     49  H   UNL     1       1.233  -5.472   7.810  1.00  0.00     0.167 HD
ATOM     50  C   UNL     1       1.453  -8.776   5.019  1.00  0.00     0.031 A 
ATOM     51  C   UNL     1       1.055  -4.340  10.364  1.00  0.00     0.031 A 
ATOM     52  C   UNL     1       1.381  -9.389   6.322  1.00  0.00     0.049 A 
ATOM     53  C   UNL     1       0.977  -5.823  10.578  1.00  0.00     0.074 A 
ATOM     54  C   UNL     1       1.399 -10.739   6.635  1.00  0.00     0.029 A 
ATOM     55  N   UNL     1       1.259  -8.704   7.519  1.00  0.00    -0.354 N 
ATOM     56  N   UNL     1       1.064  -6.787   9.694  1.00  0.00    -0.248 NA
ATOM     57  C   UNL     1       0.798  -6.287  11.961  1.00  0.00     0.031 C 
ATOM     58  C   UNL     1       1.227 -10.872   8.015  1.00  0.00     0.029 A 
ATOM     59  C   UNL     1       1.167  -9.604   8.569  1.00  0.00     0.049 A 
ATOM     60  H   UNL     1       1.242  -7.724   7.611  1.00  0.00     0.167 HD
ATOM     61  C   UNL     1       0.983  -7.970  10.416  1.00  0.00     0.074 A 
ATOM     62  C   UNL     1       0.845  -7.605  11.810  1.00  0.00     0.031 C 
ATOM     63  C   UNL     1       1.028  -9.243   9.956  1.00  0.00     0.031 A 
BRANCH  50  64
ATOM     64  C   UNL     1       1.495  -9.697   3.832  1.00  0.00    -0.014 A 
ATOM     65  C   UNL     1       0.368 -10.466   3.499  1.00  0.00     0.009 A 
ATOM     66  C   UNL     1       2.692  -9.906   3.130  1.00  0.00     0.009 A 
ATOM     67  C   UNL     1       0.443 -11.438   2.500  1.00  0.00     0.001 A 
ATOM     68  C   UNL     1       2.758 -10.864   2.116  1.00  0.00     0.001 A 
ATOM     69  C   UNL     1       1.637 -11.636   1.809  1.00  0.00     0.000 A 
ENDBRANCH  50  64
BRANCH  51  70
ATOM     70  C   UNL     1       1.021  -3.400  11.512  1.00  0.00    -0.014 A 
ATOM     71  C   UNL     1      -0.085  -2.560  11.720  1.00  0.00     0.009 A 
ATOM     72  C   UNL     1       2.121  -3.304  12.377  1.00  0.00     0.009 A 
ATOM     73  C   UNL     1      -0.081  -1.631  12.761  1.00  0.00     0.001 A 
ATOM     74  C   UNL     1       2.111  -2.391  13.433  1.00  0.00     0.001 A 
ATOM     75  C   UNL     1       1.015  -1.550  13.619  1.00  0.00     0.000 A 
ENDBRANCH  51  70
BRANCH  63  76
ATOM     76  C   UNL     1       0.952 -10.357  10.962  1.00  0.00    -0.014 A 
ATOM     77  C   UNL     1       2.083 -11.154  11.204  1.00  0.00     0.009 A 
ATOM     78  C   UNL     1      -0.255 -10.679  11.602  1.00  0.00     0.009 A 
ATOM     79  C   UNL     1       2.006 -12.257  12.055  1.00  0.00     0.001 A 
ATOM     80  C   UNL     1      -0.322 -11.768  12.475  1.00  0.00     0.001 A 
ATOM     81  C   UNL     1       0.805 -12.560  12.694  1.00  0.00     0.000 A 
ENDBRANCH  63  76
ENDBRANCH  37  38
ENDBRANCH  30  32
ENDBRANCH  29  30
ENDBRANCH  28  29
ENDBRANCH  27  28
ENDBRANCH   1  27
TORSDOF 16
