REMARK SMILES O=C(Cc1ccc(-c2ccn(C(F)F)c(=O)c2)cc1)OCCOC(=O)c1ccc(-c2c3nc(c(-c4ccccc4)c4ccc([nH]4)c(-c4ccccc4)c4nc(c(-c5ccccc5)c5ccc2[nH]5)C=C4)C=C3)cc1
REMARK SMILES IDX 21 1 20 2 2 3 1 4 3 5 4 6 5 7 19 8 6 9 18 10 7 11 8 12 9 13
REMARK SMILES IDX 17 14 10 15 15 16 11 17 16 18 12 19 13 20 14 21 22 22 23 23
REMARK SMILES IDX 24 24 25 25 26 26 27 27 73 28 28 29 72 30 29 31 30 32 31 33
REMARK SMILES IDX 66 34 32 35 71 36 65 37 67 38 33 39 70 40 64 41 63 42 34 44
REMARK SMILES IDX 56 45 41 46 55 47 42 48 45 49 54 50 68 51 43 52 44 53 53 55
REMARK SMILES IDX 69 56 46 57 35 58 36 59 40 60 37 61 39 62 38 63 57 64 58 65
REMARK SMILES IDX 62 66 59 67 61 68 60 69 47 70 48 71 52 72 49 73 51 74 50 75
REMARK H PARENT 67 43 45 54
REMARK Flexibility Score: inf
ROOT
ATOM      1  C   UNL     1       3.969  -1.515  -0.112  1.00  0.00     0.274 C 
ENDROOT
BRANCH   1   2
ATOM      2  O   UNL     1       2.666  -1.054   0.301  1.00  0.00    -0.462 OA
BRANCH   2   3
ATOM      3  C   UNL     1       2.366   0.245   0.550  1.00  0.00     0.310 C 
ATOM      4  O   UNL     1       1.434   0.531   1.299  1.00  0.00    -0.252 OA
BRANCH   3   5
ATOM      5  C   UNL     1       3.131   1.314  -0.198  1.00  0.00     0.158 C 
BRANCH   5   6
ATOM      6  C   UNL     1       3.869   2.295   0.674  1.00  0.00    -0.037 A 
ATOM      7  C   UNL     1       4.888   1.867   1.533  1.00  0.00     0.005 A 
ATOM      8  C   UNL     1       3.587   3.664   0.582  1.00  0.00     0.005 A 
ATOM      9  C   UNL     1       5.605   2.789   2.294  1.00  0.00     0.009 A 
ATOM     10  C   UNL     1       4.307   4.587   1.341  1.00  0.00     0.009 A 
ATOM     11  C   UNL     1       5.321   4.157   2.205  1.00  0.00    -0.018 A 
BRANCH  11  12
ATOM     12  C   UNL     1       6.035   5.129   3.053  1.00  0.00    -0.011 A 
ATOM     13  C   UNL     1       5.336   6.009   3.969  1.00  0.00     0.027 A 
ATOM     14  C   UNL     1       7.377   5.187   2.988  1.00  0.00     0.080 A 
ATOM     15  C   UNL     1       6.013   6.860   4.746  1.00  0.00     0.095 A 
ATOM     16  C   UNL     1       8.146   6.124   3.853  1.00  0.00     0.255 A 
ATOM     17  N   UNL     1       7.392   6.923   4.697  1.00  0.00    -0.258 N 
ATOM     18  O   UNL     1       9.370   6.124   3.769  1.00  0.00    -0.269 OA
BRANCH  17  19
ATOM     19  C   UNL     1       8.111   7.832   5.551  1.00  0.00     0.451 C 
ATOM     20  F   UNL     1       8.940   7.161   6.387  1.00  0.00    -0.185 F 
ATOM     21  F   UNL     1       8.856   8.699   4.824  1.00  0.00    -0.185 F 
ENDBRANCH  17  19
ENDBRANCH  11  12
ENDBRANCH   5   6
ENDBRANCH   3   5
ENDBRANCH   2   3
ENDBRANCH   1   2
BRANCH   1  22
ATOM     22  C   UNL     1       3.974  -2.015  -1.558  1.00  0.00     0.275 C 
BRANCH  22  23
ATOM     23  O   UNL     1       3.647  -0.946  -2.462  1.00  0.00    -0.458 OA
BRANCH  23  24
ATOM     24  C   UNL     1       2.345  -0.887  -2.843  1.00  0.00     0.338 C 
ATOM     25  O   UNL     1       1.479  -1.706  -2.612  1.00  0.00    -0.246 OA
BRANCH  24  26
ATOM     26  C   UNL     1       2.075   0.445  -3.435  1.00  0.00     0.060 A 
ATOM     27  C   UNL     1       0.858   1.063  -3.120  1.00  0.00     0.016 A 
ATOM     28  C   UNL     1       3.005   1.099  -4.249  1.00  0.00     0.016 A 
ATOM     29  C   UNL     1       0.566   2.333  -3.621  1.00  0.00     0.010 A 
ATOM     30  C   UNL     1       2.704   2.364  -4.763  1.00  0.00     0.010 A 
ATOM     31  C   UNL     1       1.479   2.982  -4.462  1.00  0.00    -0.014 A 
BRANCH  31  32
ATOM     32  C   UNL     1       1.117   4.261  -5.115  1.00  0.00     0.031 A 
ATOM     33  C   UNL     1       0.472   4.232  -6.471  1.00  0.00     0.074 A 
ATOM     34  C   UNL     1       1.384   5.439  -4.523  1.00  0.00     0.049 A 
ATOM     35  N   UNL     1       0.118   5.231  -7.239  1.00  0.00    -0.248 NA
ATOM     36  C   UNL     1       0.190   2.903  -7.038  1.00  0.00     0.031 C 
ATOM     37  C   UNL     1       1.987   5.609  -3.202  1.00  0.00     0.029 A 
ATOM     38  N   UNL     1       1.195   6.722  -4.974  1.00  0.00    -0.354 N 
ATOM     39  C   UNL     1      -0.430   4.654  -8.376  1.00  0.00     0.074 A 
ATOM     40  C   UNL     1      -0.345   3.219  -8.209  1.00  0.00     0.031 C 
ATOM     41  C   UNL     1       2.139   6.923  -2.958  1.00  0.00     0.029 A 
ATOM     42  C   UNL     1       1.670   7.683  -4.116  1.00  0.00     0.049 A 
ATOM     43  H   UNL     1       0.760   6.933  -5.832  1.00  0.00     0.167 HD
ATOM     44  C   UNL     1      -0.958   5.263  -9.463  1.00  0.00     0.031 A 
ATOM     45  C   UNL     1       1.744   9.021  -4.261  1.00  0.00     0.031 A 
ATOM     46  C   UNL     1      -1.028   6.686  -9.648  1.00  0.00     0.049 A 
ATOM     47  C   UNL     1       1.238   9.665  -5.525  1.00  0.00     0.074 A 
ATOM     48  C   UNL     1      -1.592   7.389 -10.699  1.00  0.00     0.029 A 
ATOM     49  N   UNL     1      -0.501   7.621  -8.776  1.00  0.00    -0.354 N 
ATOM     50  N   UNL     1       0.654   9.111  -6.560  1.00  0.00    -0.248 NA
ATOM     51  C   UNL     1       1.408  11.122  -5.641  1.00  0.00     0.031 C 
ATOM     52  C   UNL     1      -1.353   8.751 -10.491  1.00  0.00     0.029 A 
ATOM     53  C   UNL     1      -0.682   8.894  -9.287  1.00  0.00     0.049 A 
ATOM     54  H   UNL     1      -0.062   7.412  -7.919  1.00  0.00     0.167 HD
ATOM     55  C   UNL     1       0.371  10.152  -7.437  1.00  0.00     0.074 A 
ATOM     56  C   UNL     1       0.831  11.371  -6.809  1.00  0.00     0.031 C 
ATOM     57  C   UNL     1      -0.217  10.100  -8.656  1.00  0.00     0.031 A 
BRANCH  44  58
ATOM     58  C   UNL     1      -1.480   4.386 -10.561  1.00  0.00    -0.014 A 
ATOM     59  C   UNL     1      -2.719   3.740 -10.442  1.00  0.00     0.009 A 
ATOM     60  C   UNL     1      -0.751   4.258 -11.753  1.00  0.00     0.009 A 
ATOM     61  C   UNL     1      -3.212   2.965 -11.493  1.00  0.00     0.001 A 
ATOM     62  C   UNL     1      -1.255   3.497 -12.809  1.00  0.00     0.001 A 
ATOM     63  C   UNL     1      -2.482   2.849 -12.677  1.00  0.00     0.000 A 
ENDBRANCH  44  58
BRANCH  45  64
ATOM     64  C   UNL     1       2.370   9.858  -3.205  1.00  0.00    -0.014 A 
ATOM     65  C   UNL     1       1.594  10.739  -2.436  1.00  0.00     0.009 A 
ATOM     66  C   UNL     1       3.759   9.828  -3.010  1.00  0.00     0.009 A 
ATOM     67  C   UNL     1       2.203  11.596  -1.517  1.00  0.00     0.001 A 
ATOM     68  C   UNL     1       4.362  10.668  -2.072  1.00  0.00     0.001 A 
ATOM     69  C   UNL     1       3.585  11.560  -1.335  1.00  0.00     0.000 A 
ENDBRANCH  45  64
BRANCH  57  70
ATOM     70  C   UNL     1      -0.412  11.396  -9.388  1.00  0.00    -0.014 A 
ATOM     71  C   UNL     1       0.668  12.047 -10.005  1.00  0.00     0.009 A 
ATOM     72  C   UNL     1      -1.698  11.945  -9.510  1.00  0.00     0.009 A 
ATOM     73  C   UNL     1       0.465  13.234 -10.711  1.00  0.00     0.001 A 
ATOM     74  C   UNL     1      -1.901  13.118 -10.238  1.00  0.00     0.001 A 
ATOM     75  C   UNL     1      -0.819  13.765 -10.832  1.00  0.00     0.000 A 
ENDBRANCH  57  70
ENDBRANCH  31  32
ENDBRANCH  24  26
ENDBRANCH  23  24
ENDBRANCH  22  23
ENDBRANCH   1  22
TORSDOF 14
