REMARK SMILES Nn1c(S[C@@H](C(=O)OCCOC(=O)c2ccc(-c3c4nc(c(-c5ccccc5)c5ccc([nH]5)c(-c5ccccc5)c5nc(c(-c6ccccc6)c6ccc3[nH]6)C=C5)C=C4)cc2)c2ccccc2)nc2ccc(Br)cc2c1=O
REMARK SMILES IDX 9 1 8 2 6 3 7 4 5 5 4 6 3 7 2 8 76 9 68 10 75 11 77 12 69 13
REMARK SMILES IDX 74 14 70 15 72 16 71 17 73 18 1 19 62 22 63 23 67 24 64 25
REMARK SMILES IDX 66 26 65 27 10 28 11 29 12 30 13 31 14 32 15 33 61 34 16 35
REMARK SMILES IDX 60 36 17 37 18 38 19 39 54 40 20 41 59 42 53 43 55 44 21 45
REMARK SMILES IDX 58 46 52 47 51 48 22 50 44 51 29 52 43 53 30 54 33 55 42 56
REMARK SMILES IDX 56 57 31 58 32 59 41 61 57 62 34 63 23 64 24 65 28 66 25 67
REMARK SMILES IDX 27 68 26 69 45 70 46 71 50 72 47 73 49 74 48 75 35 76 36 77
REMARK SMILES IDX 40 78 37 79 39 80 38 81
REMARK H PARENT 1 20 1 21 55 49 33 60
REMARK Flexibility Score: inf
ROOT
ATOM      1  C   UNL     1       4.384  -0.775  -1.608  1.00  0.00     0.274 C 
ENDROOT
BRANCH   1   2
ATOM      2  O   UNL     1       3.511  -1.342  -0.602  1.00  0.00    -0.461 OA
BRANCH   2   3
ATOM      3  C   UNL     1       3.369  -0.606   0.542  1.00  0.00     0.324 C 
ATOM      4  O   UNL     1       3.883   0.506   0.655  1.00  0.00    -0.251 OA
BRANCH   3   5
ATOM      5  C   UNL     1       2.686  -1.361   1.709  1.00  0.00     0.194 C 
BRANCH   5   6
ATOM      6  S   UNL     1       1.878  -2.917   1.221  1.00  0.00    -0.066 SA
BRANCH   6   7
ATOM      7  C   UNL     1       0.488  -2.668   0.181  1.00  0.00     0.191 A 
ATOM      8  N   UNL     1      -0.124  -1.442  -0.056  1.00  0.00    -0.202 N 
ATOM      9  C   UNL     1      -1.275  -1.310  -0.843  1.00  0.00     0.280 A 
ATOM     10  N   UNL     1       0.018  -3.769  -0.326  1.00  0.00    -0.222 NA
ATOM     11  C   UNL     1      -1.810  -2.547  -1.414  1.00  0.00     0.069 A 
ATOM     12  O   UNL     1      -1.837  -0.234  -1.048  1.00  0.00    -0.267 OA
ATOM     13  C   UNL     1      -1.135  -3.729  -1.121  1.00  0.00     0.079 A 
ATOM     14  C   UNL     1      -2.970  -2.530  -2.197  1.00  0.00     0.031 A 
ATOM     15  C   UNL     1      -1.651  -4.926  -1.623  1.00  0.00     0.030 A 
ATOM     16  C   UNL     1      -3.469  -3.732  -2.683  1.00  0.00     0.018 A 
ATOM     17  C   UNL     1      -2.817  -4.931  -2.398  1.00  0.00     0.018 A 
ATOM     18  Br  UNL     1      -5.047  -3.741  -3.723  1.00  0.00    -0.051 Br
BRANCH   8  19
ATOM     19  N   UNL     1       0.358  -0.239   0.463  1.00  0.00    -0.334 N 
ATOM     20  H   UNL     1       1.164  -0.235   1.029  1.00  0.00     0.178 HD
ATOM     21  H   UNL     1      -0.107   0.606   0.264  1.00  0.00     0.178 HD
ENDBRANCH   8  19
ENDBRANCH   6   7
ENDBRANCH   5   6
BRANCH   5  22
ATOM     22  C   UNL     1       1.991  -0.500   2.793  1.00  0.00    -0.023 A 
ATOM     23  C   UNL     1       0.835  -0.927   3.477  1.00  0.00     0.005 A 
ATOM     24  C   UNL     1       2.511   0.757   3.169  1.00  0.00     0.005 A 
ATOM     25  C   UNL     1       0.177  -0.098   4.393  1.00  0.00     0.000 A 
ATOM     26  C   UNL     1       1.853   1.589   4.081  1.00  0.00     0.000 A 
ATOM     27  C   UNL     1       0.674   1.168   4.680  1.00  0.00     0.000 A 
ENDBRANCH   5  22
ENDBRANCH   3   5
ENDBRANCH   2   3
ENDBRANCH   1   2
BRANCH   1  28
ATOM     28  C   UNL     1       3.598  -0.025  -2.681  1.00  0.00     0.275 C 
BRANCH  28  29
ATOM     29  O   UNL     1       2.912   1.090  -2.087  1.00  0.00    -0.458 OA
BRANCH  29  30
ATOM     30  C   UNL     1       1.699   1.380  -2.602  1.00  0.00     0.338 C 
ATOM     31  O   UNL     1       1.186   0.851  -3.584  1.00  0.00    -0.246 OA
BRANCH  30  32
ATOM     32  C   UNL     1       0.987   2.369  -1.752  1.00  0.00     0.060 A 
ATOM     33  C   UNL     1      -0.171   2.971  -2.245  1.00  0.00     0.016 A 
ATOM     34  C   UNL     1       1.336   2.563  -0.410  1.00  0.00     0.016 A 
ATOM     35  C   UNL     1      -0.969   3.753  -1.401  1.00  0.00     0.010 A 
ATOM     36  C   UNL     1       0.461   3.222   0.457  1.00  0.00     0.010 A 
ATOM     37  C   UNL     1      -0.687   3.859  -0.027  1.00  0.00    -0.014 A 
BRANCH  37  38
ATOM     38  C   UNL     1      -1.591   4.636   0.872  1.00  0.00     0.031 A 
ATOM     39  C   UNL     1      -1.076   5.790   1.698  1.00  0.00     0.074 A 
ATOM     40  C   UNL     1      -2.901   4.316   0.956  1.00  0.00     0.049 A 
ATOM     41  N   UNL     1      -1.757   6.679   2.382  1.00  0.00    -0.248 NA
ATOM     42  C   UNL     1       0.383   5.952   1.811  1.00  0.00     0.031 C 
ATOM     43  C   UNL     1      -3.537   3.153   0.332  1.00  0.00     0.029 A 
ATOM     44  N   UNL     1      -3.941   4.967   1.578  1.00  0.00    -0.354 N 
ATOM     45  C   UNL     1      -0.812   7.482   3.009  1.00  0.00     0.074 A 
ATOM     46  C   UNL     1       0.485   6.935   2.692  1.00  0.00     0.031 C 
ATOM     47  C   UNL     1      -4.864   3.219   0.531  1.00  0.00     0.029 A 
ATOM     48  C   UNL     1      -5.173   4.420   1.301  1.00  0.00     0.049 A 
ATOM     49  H   UNL     1      -3.817   5.748   2.164  1.00  0.00     0.167 HD
ATOM     50  C   UNL     1      -0.994   8.604   3.744  1.00  0.00     0.031 A 
ATOM     51  C   UNL     1      -6.415   4.858   1.587  1.00  0.00     0.031 A 
ATOM     52  C   UNL     1      -2.272   9.197   4.018  1.00  0.00     0.049 A 
ATOM     53  C   UNL     1      -6.605   6.163   2.307  1.00  0.00     0.074 A 
ATOM     54  C   UNL     1      -2.546  10.401   4.643  1.00  0.00     0.029 A 
ATOM     55  N   UNL     1      -3.488   8.631   3.678  1.00  0.00    -0.354 N 
ATOM     56  N   UNL     1      -5.699   6.993   2.760  1.00  0.00    -0.248 NA
ATOM     57  C   UNL     1      -7.991   6.606   2.528  1.00  0.00     0.031 C 
ATOM     58  C   UNL     1      -3.934  10.550   4.709  1.00  0.00     0.029 A 
ATOM     59  C   UNL     1      -4.519   9.456   4.093  1.00  0.00     0.049 A 
ATOM     60  H   UNL     1      -3.603   7.772   3.212  1.00  0.00     0.167 HD
ATOM     61  C   UNL     1      -6.401   8.063   3.299  1.00  0.00     0.074 A 
ATOM     62  C   UNL     1      -7.809   7.785   3.108  1.00  0.00     0.031 C 
ATOM     63  C   UNL     1      -5.916   9.178   3.896  1.00  0.00     0.031 A 
BRANCH  50  64
ATOM     64  C   UNL     1       0.233   9.295   4.269  1.00  0.00    -0.014 A 
ATOM     65  C   UNL     1       0.504   9.300   5.645  1.00  0.00     0.009 A 
ATOM     66  C   UNL     1       1.098   9.982   3.401  1.00  0.00     0.009 A 
ATOM     67  C   UNL     1       1.624   9.970   6.141  1.00  0.00     0.001 A 
ATOM     68  C   UNL     1       2.231  10.627   3.896  1.00  0.00     0.001 A 
ATOM     69  C   UNL     1       2.491  10.624   5.266  1.00  0.00     0.000 A 
ENDBRANCH  50  64
BRANCH  51  70
ATOM     70  C   UNL     1      -7.590   4.095   1.093  1.00  0.00    -0.014 A 
ATOM     71  C   UNL     1      -8.003   2.917   1.733  1.00  0.00     0.009 A 
ATOM     72  C   UNL     1      -8.291   4.538  -0.039  1.00  0.00     0.009 A 
ATOM     73  C   UNL     1      -9.095   2.196   1.245  1.00  0.00     0.001 A 
ATOM     74  C   UNL     1      -9.393   3.824  -0.514  1.00  0.00     0.001 A 
ATOM     75  C   UNL     1      -9.791   2.652   0.126  1.00  0.00     0.000 A 
ENDBRANCH  51  70
BRANCH  63  76
ATOM     76  C   UNL     1      -6.899  10.202   4.383  1.00  0.00    -0.014 A 
ATOM     77  C   UNL     1      -7.022  11.425   3.706  1.00  0.00     0.009 A 
ATOM     78  C   UNL     1      -7.624   9.999   5.566  1.00  0.00     0.009 A 
ATOM     79  C   UNL     1      -7.846  12.432   4.211  1.00  0.00     0.001 A 
ATOM     80  C   UNL     1      -8.463  11.001   6.057  1.00  0.00     0.001 A 
ATOM     81  C   UNL     1      -8.567  12.218   5.384  1.00  0.00     0.000 A 
ENDBRANCH  63  76
ENDBRANCH  37  38
ENDBRANCH  30  32
ENDBRANCH  29  30
ENDBRANCH  28  29
ENDBRANCH   1  28
TORSDOF 15
