REMARK SMILES CC(C)[C@@H](NC(=O)/C(=C\c1ccccc1F)NC(=O)c1ccccc1)C(=O)OCCOC(=O)c1ccc(-c2c3nc(c(-c4ccccc4)c4ccc([nH]4)c(-c4ccccc4)c4nc(c(-c5ccccc5)c5ccc2[nH]5)C=C4)C=C3)cc1
REMARK SMILES IDX 29 1 28 2 26 3 27 4 4 5 2 6 1 7 3 8 5 9 6 10 7 12 8 13 9 14
REMARK SMILES IDX 17 15 18 16 19 18 20 19 21 20 25 21 22 22 24 23 23 24 10 25
REMARK SMILES IDX 11 26 15 27 12 28 14 29 16 30 13 31 30 32 31 33 32 34 33 35
REMARK SMILES IDX 34 36 35 37 81 38 36 39 80 40 37 41 38 42 39 43 74 44 40 45
REMARK SMILES IDX 79 46 73 47 75 48 41 49 78 50 72 51 71 52 42 54 64 55 49 56
REMARK SMILES IDX 63 57 50 58 53 59 62 60 76 61 51 62 52 63 61 65 77 66 54 67
REMARK SMILES IDX 43 68 44 69 48 70 45 71 47 72 46 73 65 74 66 75 70 76 67 77
REMARK SMILES IDX 69 78 68 79 55 80 56 81 60 82 57 83 59 84 58 85
REMARK H PARENT 5 11 17 17 75 53 53 64
REMARK Flexibility Score: inf
ROOT
ATOM      1  C   UNL     1      -0.619   5.840   0.384  1.00  0.00     0.274 C 
ENDROOT
BRANCH   1   2
ATOM      2  O   UNL     1      -0.077   4.506   0.449  1.00  0.00    -0.461 OA
BRANCH   2   3
ATOM      3  C   UNL     1      -0.576   3.704   1.439  1.00  0.00     0.329 C 
ATOM      4  O   UNL     1      -1.358   4.084   2.289  1.00  0.00    -0.250 OA
BRANCH   3   5
ATOM      5  C   UNL     1      -0.137   2.232   1.237  1.00  0.00     0.195 C 
BRANCH   5   6
ATOM      6  C   UNL     1       1.380   1.913   1.271  1.00  0.00     0.017 C 
ATOM      7  C   UNL     1       1.616   0.393   1.114  1.00  0.00     0.010 C 
ATOM      8  C   UNL     1       2.162   2.583   0.130  1.00  0.00     0.010 C 
ENDBRANCH   5   6
BRANCH   5   9
ATOM      9  N   UNL     1      -0.904   1.296   2.074  1.00  0.00    -0.337 N 
ATOM     10  C   UNL     1      -2.170   0.819   1.863  1.00  0.00     0.268 C 
ATOM     11  H   UNL     1      -0.450   0.972   2.885  1.00  0.00     0.164 HD
ATOM     12  O   UNL     1      -2.480  -0.298   2.267  1.00  0.00    -0.268 OA
BRANCH  10  13
ATOM     13  C   UNL     1      -3.177   1.714   1.217  1.00  0.00     0.107 C 
ATOM     14  C   UNL     1      -3.295   1.726  -0.126  1.00  0.00     0.043 C 
BRANCH  13  15
ATOM     15  N   UNL     1      -3.931   2.600   1.973  1.00  0.00    -0.317 N 
ATOM     16  C   UNL     1      -4.067   2.797   3.335  1.00  0.00     0.255 C 
ATOM     17  H   UNL     1      -4.480   3.211   1.431  1.00  0.00     0.170 HD
ATOM     18  O   UNL     1      -4.636   3.803   3.758  1.00  0.00    -0.269 OA
BRANCH  16  19
ATOM     19  C   UNL     1      -3.694   1.750   4.296  1.00  0.00     0.040 A 
ATOM     20  C   UNL     1      -4.681   0.832   4.666  1.00  0.00     0.014 A 
ATOM     21  C   UNL     1      -2.402   1.663   4.817  1.00  0.00     0.014 A 
ATOM     22  C   UNL     1      -4.343  -0.247   5.479  1.00  0.00     0.001 A 
ATOM     23  C   UNL     1      -2.061   0.560   5.603  1.00  0.00     0.001 A 
ATOM     24  C   UNL     1      -3.027  -0.400   5.918  1.00  0.00     0.000 A 
ENDBRANCH  16  19
ENDBRANCH  13  15
BRANCH  14  25
ATOM     25  C   UNL     1      -2.443   1.014  -1.094  1.00  0.00     0.012 A 
ATOM     26  C   UNL     1      -1.443   1.743  -1.760  1.00  0.00     0.011 A 
ATOM     27  C   UNL     1      -2.556  -0.343  -1.381  1.00  0.00     0.130 A 
ATOM     28  C   UNL     1      -0.561   1.142  -2.655  1.00  0.00     0.001 A 
ATOM     29  C   UNL     1      -1.683  -0.956  -2.283  1.00  0.00     0.040 A 
ATOM     30  F   UNL     1      -3.517  -1.079  -0.806  1.00  0.00    -0.206 F 
ATOM     31  C   UNL     1      -0.680  -0.215  -2.915  1.00  0.00     0.003 A 
ENDBRANCH  14  25
ENDBRANCH  10  13
ENDBRANCH   5   9
ENDBRANCH   3   5
ENDBRANCH   2   3
ENDBRANCH   1   2
BRANCH   1  32
ATOM     32  C   UNL     1      -0.813   6.245  -1.079  1.00  0.00     0.275 C 
BRANCH  32  33
ATOM     33  O   UNL     1      -1.637   5.310  -1.816  1.00  0.00    -0.458 OA
BRANCH  33  34
ATOM     34  C   UNL     1      -1.724   5.644  -3.139  1.00  0.00     0.338 C 
ATOM     35  O   UNL     1      -1.263   6.665  -3.628  1.00  0.00    -0.246 OA
BRANCH  34  36
ATOM     36  C   UNL     1      -2.315   4.570  -3.991  1.00  0.00     0.060 A 
ATOM     37  C   UNL     1      -3.110   3.542  -3.498  1.00  0.00     0.016 A 
ATOM     38  C   UNL     1      -2.017   4.571  -5.356  1.00  0.00     0.016 A 
ATOM     39  C   UNL     1      -3.460   2.450  -4.319  1.00  0.00     0.010 A 
ATOM     40  C   UNL     1      -2.484   3.548  -6.198  1.00  0.00     0.010 A 
ATOM     41  C   UNL     1      -3.193   2.445  -5.696  1.00  0.00    -0.014 A 
BRANCH  41  42
ATOM     42  C   UNL     1      -3.676   1.379  -6.645  1.00  0.00     0.031 A 
ATOM     43  C   UNL     1      -2.769   0.846  -7.739  1.00  0.00     0.074 A 
ATOM     44  C   UNL     1      -4.958   0.947  -6.639  1.00  0.00     0.049 A 
ATOM     45  N   UNL     1      -3.079   0.311  -8.896  1.00  0.00    -0.248 NA
ATOM     46  C   UNL     1      -1.320   0.941  -7.497  1.00  0.00     0.031 C 
ATOM     47  C   UNL     1      -5.970   1.244  -5.625  1.00  0.00     0.029 A 
ATOM     48  N   UNL     1      -5.644   0.189  -7.567  1.00  0.00    -0.354 N 
ATOM     49  C   UNL     1      -1.872   0.079  -9.551  1.00  0.00     0.074 A 
ATOM     50  C   UNL     1      -0.822   0.512  -8.652  1.00  0.00     0.031 C 
ATOM     51  C   UNL     1      -7.136   0.690  -5.983  1.00  0.00     0.029 A 
ATOM     52  C   UNL     1      -6.995   0.116  -7.312  1.00  0.00     0.049 A 
ATOM     53  H   UNL     1      -5.212  -0.254  -8.333  1.00  0.00     0.167 HD
ATOM     54  C   UNL     1      -1.661  -0.427 -10.794  1.00  0.00     0.031 A 
ATOM     55  C   UNL     1      -8.037  -0.263  -8.077  1.00  0.00     0.031 A 
ATOM     56  C   UNL     1      -2.704  -0.899 -11.673  1.00  0.00     0.049 A 
ATOM     57  C   UNL     1      -7.808  -0.710  -9.489  1.00  0.00     0.074 A 
ATOM     58  C   UNL     1      -2.584  -1.434 -12.946  1.00  0.00     0.029 A 
ATOM     59  N   UNL     1      -4.054  -0.908 -11.366  1.00  0.00    -0.354 N 
ATOM     60  N   UNL     1      -6.679  -0.827 -10.142  1.00  0.00    -0.248 NA
ATOM     61  C   UNL     1      -9.000  -1.058 -10.275  1.00  0.00     0.031 C 
ATOM     62  C   UNL     1      -3.866  -1.715 -13.430  1.00  0.00     0.029 A 
ATOM     63  C   UNL     1      -4.779  -1.414 -12.433  1.00  0.00     0.049 A 
ATOM     64  H   UNL     1      -4.442  -0.600 -10.515  1.00  0.00     0.167 HD
ATOM     65  C   UNL     1      -7.022  -1.288 -11.406  1.00  0.00     0.074 A 
ATOM     66  C   UNL     1      -8.462  -1.435 -11.427  1.00  0.00     0.031 C 
ATOM     67  C   UNL     1      -6.209  -1.567 -12.453  1.00  0.00     0.031 A 
BRANCH  54  68
ATOM     68  C   UNL     1      -0.250  -0.447 -11.325  1.00  0.00    -0.014 A 
ATOM     69  C   UNL     1       0.709  -1.359 -10.859  1.00  0.00     0.009 A 
ATOM     70  C   UNL     1       0.098   0.417 -12.378  1.00  0.00     0.009 A 
ATOM     71  C   UNL     1       1.992  -1.383 -11.416  1.00  0.00     0.001 A 
ATOM     72  C   UNL     1       1.370   0.372 -12.952  1.00  0.00     0.001 A 
ATOM     73  C   UNL     1       2.320  -0.522 -12.465  1.00  0.00     0.000 A 
ENDBRANCH  54  68
BRANCH  55  74
ATOM     74  C   UNL     1      -9.420  -0.135  -7.540  1.00  0.00    -0.014 A 
ATOM     75  C   UNL     1     -10.173  -1.274  -7.223  1.00  0.00     0.009 A 
ATOM     76  C   UNL     1      -9.979   1.135  -7.312  1.00  0.00     0.009 A 
ATOM     77  C   UNL     1     -11.458  -1.143  -6.691  1.00  0.00     0.001 A 
ATOM     78  C   UNL     1     -11.249   1.262  -6.747  1.00  0.00     0.001 A 
ATOM     79  C   UNL     1     -11.990   0.122  -6.443  1.00  0.00     0.000 A 
ENDBRANCH  55  74
BRANCH  67  80
ATOM     80  C   UNL     1      -6.849  -2.120 -13.693  1.00  0.00    -0.014 A 
ATOM     81  C   UNL     1      -7.590  -1.304 -14.562  1.00  0.00     0.009 A 
ATOM     82  C   UNL     1      -6.678  -3.477 -14.013  1.00  0.00     0.009 A 
ATOM     83  C   UNL     1      -8.169  -1.844 -15.713  1.00  0.00     0.001 A 
ATOM     84  C   UNL     1      -7.237  -4.007 -15.176  1.00  0.00     0.001 A 
ATOM     85  C   UNL     1      -7.988  -3.192 -16.021  1.00  0.00     0.000 A 
ENDBRANCH  67  80
ENDBRANCH  41  42
ENDBRANCH  34  36
ENDBRANCH  33  34
ENDBRANCH  32  33
ENDBRANCH   1  32
TORSDOF 17
