REMARK SMILES Cc1c(CC(=O)N[C@@H](C)C(=O)OCCOC(=O)c2ccc(-c3c4nc(c(-c5ccccc5)c5ccc([nH]5)c(-c5ccccc5)c5nc(c(-c6ccccc6)c6ccc3[nH]6)C=C5)C=C4)cc2)c(=O)oc2cc3oc4c(c3cc12)CCCC4
REMARK SMILES IDX 13 1 12 2 10 3 11 4 8 5 9 6 7 7 5 8 6 9 4 11 3 12 1 13 2 14
REMARK SMILES IDX 77 15 66 16 69 17 76 18 67 19 68 20 70 21 75 22 71 23 74 24
REMARK SMILES IDX 72 25 73 26 78 27 81 28 79 29 80 30 14 31 15 32 16 33 17 34
REMARK SMILES IDX 18 35 19 36 65 37 20 38 64 39 21 40 22 41 23 42 58 43 24 44
REMARK SMILES IDX 63 45 57 46 59 47 25 48 62 49 56 50 55 51 26 53 48 54 33 55
REMARK SMILES IDX 47 56 34 57 37 58 46 59 60 60 35 61 36 62 45 64 61 65 38 66
REMARK SMILES IDX 27 67 28 68 32 69 29 70 31 71 30 72 49 73 50 74 54 75 51 76
REMARK SMILES IDX 53 77 52 78 39 79 40 80 44 81 41 82 43 83 42 84
REMARK H PARENT 7 10 59 52 37 63
REMARK Flexibility Score: inf
ROOT
ATOM      1  C   UNL     1       6.984   5.165  -0.380  1.00  0.00     0.274 C 
ENDROOT
BRANCH   1   2
ATOM      2  O   UNL     1       6.000   4.168  -0.056  1.00  0.00    -0.461 OA
BRANCH   2   3
ATOM      3  C   UNL     1       4.949   4.583   0.699  1.00  0.00     0.328 C 
ATOM      4  O   UNL     1       4.888   5.655   1.290  1.00  0.00    -0.250 OA
BRANCH   3   5
ATOM      5  C   UNL     1       3.830   3.537   0.748  1.00  0.00     0.189 C 
ATOM      6  C   UNL     1       3.706   3.035   2.180  1.00  0.00     0.043 C 
BRANCH   5   7
ATOM      7  N   UNL     1       4.023   2.420  -0.179  1.00  0.00    -0.343 N 
ATOM      8  C   UNL     1       3.224   1.996  -1.204  1.00  0.00     0.225 C 
ATOM      9  O   UNL     1       3.635   1.078  -1.920  1.00  0.00    -0.275 OA
ATOM     10  H   UNL     1       4.847   1.898  -0.044  1.00  0.00     0.164 HD
BRANCH   8  11
ATOM     11  C   UNL     1       1.832   2.599  -1.420  1.00  0.00     0.143 C 
BRANCH  11  12
ATOM     12  C   UNL     1       0.971   2.451  -0.189  1.00  0.00     0.051 A 
ATOM     13  C   UNL     1       1.233  -0.049  -0.079  1.00  0.00     0.046 C 
ATOM     14  C   UNL     1       0.838   1.295   0.490  1.00  0.00    -0.029 A 
ATOM     15  C   UNL     1       0.232   1.331   1.825  1.00  0.00     0.022 A 
ATOM     16  C   UNL     1       0.320   3.705   0.279  1.00  0.00     0.340 A 
ATOM     17  C   UNL     1      -0.414   2.493   2.255  1.00  0.00     0.142 A 
ATOM     18  C   UNL     1       0.203   0.193   2.636  1.00  0.00     0.024 A 
ATOM     19  O   UNL     1       0.362   4.735  -0.384  1.00  0.00    -0.246 OA
ATOM     20  O   UNL     1      -0.343   3.671   1.491  1.00  0.00    -0.422 OA
ATOM     21  C   UNL     1      -1.247   2.545   3.376  1.00  0.00     0.095 A 
ATOM     22  C   UNL     1      -0.789   0.145   3.622  1.00  0.00     0.025 A 
ATOM     23  C   UNL     1      -1.512   1.296   3.918  1.00  0.00     0.138 A 
ATOM     24  C   UNL     1      -1.514  -0.945   4.169  1.00  0.00     0.001 A 
ATOM     25  O   UNL     1      -2.646   0.973   4.604  1.00  0.00    -0.461 OA
ATOM     26  C   UNL     1      -2.726  -0.379   4.518  1.00  0.00     0.108 A 
ATOM     27  C   UNL     1      -1.462  -2.372   3.744  1.00  0.00     0.040 C 
ATOM     28  C   UNL     1      -4.013  -0.984   4.057  1.00  0.00     0.076 C 
ATOM     29  C   UNL     1      -2.530  -2.602   2.648  1.00  0.00     0.005 C 
ATOM     30  C   UNL     1      -3.703  -1.577   2.651  1.00  0.00     0.008 C 
ENDBRANCH  11  12
ENDBRANCH   8  11
ENDBRANCH   5   7
ENDBRANCH   3   5
ENDBRANCH   2   3
ENDBRANCH   1   2
BRANCH   1  31
ATOM     31  C   UNL     1       6.836   5.557  -1.850  1.00  0.00     0.275 C 
BRANCH  31  32
ATOM     32  O   UNL     1       5.729   6.457  -2.023  1.00  0.00    -0.458 OA
BRANCH  32  33
ATOM     33  C   UNL     1       4.523   5.894  -2.253  1.00  0.00     0.338 C 
ATOM     34  O   UNL     1       4.253   4.716  -2.413  1.00  0.00    -0.246 OA
BRANCH  33  35
ATOM     35  C   UNL     1       3.534   6.959  -2.095  1.00  0.00     0.060 A 
ATOM     36  C   UNL     1       3.459   7.986  -3.035  1.00  0.00     0.016 A 
ATOM     37  C   UNL     1       2.735   6.960  -0.954  1.00  0.00     0.016 A 
ATOM     38  C   UNL     1       2.579   9.037  -2.812  1.00  0.00     0.010 A 
ATOM     39  C   UNL     1       1.868   8.015  -0.725  1.00  0.00     0.010 A 
ATOM     40  C   UNL     1       1.782   9.052  -1.659  1.00  0.00    -0.014 A 
BRANCH  40  41
ATOM     41  C   UNL     1       0.807  10.142  -1.507  1.00  0.00     0.031 A 
ATOM     42  C   UNL     1      -0.583   9.673  -1.211  1.00  0.00     0.074 A 
ATOM     43  C   UNL     1       1.210  11.345  -1.041  1.00  0.00     0.049 A 
ATOM     44  N   UNL     1      -0.939   9.346  -0.005  1.00  0.00    -0.248 NA
ATOM     45  C   UNL     1      -1.545   9.251  -2.225  1.00  0.00     0.031 C 
ATOM     46  C   UNL     1       2.366  11.540  -0.148  1.00  0.00     0.029 A 
ATOM     47  N   UNL     1       0.610  12.580  -1.087  1.00  0.00    -0.354 N 
ATOM     48  C   UNL     1      -2.130   8.638  -0.082  1.00  0.00     0.074 A 
ATOM     49  C   UNL     1      -2.481   8.630  -1.483  1.00  0.00     0.031 C 
ATOM     50  C   UNL     1       2.289  12.770   0.399  1.00  0.00     0.029 A 
ATOM     51  C   UNL     1       1.173  13.490  -0.200  1.00  0.00     0.049 A 
ATOM     52  H   UNL     1      -0.141  12.797  -1.686  1.00  0.00     0.167 HD
ATOM     53  C   UNL     1      -2.741   8.153   1.039  1.00  0.00     0.031 A 
ATOM     54  C   UNL     1       0.504  14.522   0.376  1.00  0.00     0.031 A 
ATOM     55  C   UNL     1      -2.073   8.428   2.293  1.00  0.00     0.049 A 
ATOM     56  C   UNL     1      -0.281  13.795   1.442  1.00  0.00     0.074 A 
ATOM     57  C   UNL     1      -1.740   7.802   3.476  1.00  0.00     0.029 A 
ATOM     58  N   UNL     1      -1.564   9.688   2.392  1.00  0.00    -0.354 N 
ATOM     59  N   UNL     1       0.181  13.350   2.581  1.00  0.00    -0.248 NA
ATOM     60  C   UNL     1      -1.631  13.310   1.108  1.00  0.00     0.031 C 
ATOM     61  C   UNL     1      -1.031   8.765   4.278  1.00  0.00     0.029 A 
ATOM     62  C   UNL     1      -0.982   9.967   3.585  1.00  0.00     0.049 A 
ATOM     63  H   UNL     1      -1.614  10.342   1.657  1.00  0.00     0.167 HD
ATOM     64  C   UNL     1      -0.683  12.321   2.943  1.00  0.00     0.074 A 
ATOM     65  C   UNL     1      -1.861  12.469   2.110  1.00  0.00     0.031 C 
ATOM     66  C   UNL     1      -0.318  11.246   3.706  1.00  0.00     0.031 A 
BRANCH  53  67
ATOM     67  C   UNL     1      -4.152   7.691   1.072  1.00  0.00    -0.014 A 
ATOM     68  C   UNL     1      -4.565   6.391   0.772  1.00  0.00     0.009 A 
ATOM     69  C   UNL     1      -5.099   8.597   1.591  1.00  0.00     0.009 A 
ATOM     70  C   UNL     1      -5.897   6.011   0.999  1.00  0.00     0.001 A 
ATOM     71  C   UNL     1      -6.421   8.217   1.819  1.00  0.00     0.001 A 
ATOM     72  C   UNL     1      -6.820   6.919   1.525  1.00  0.00     0.000 A 
ENDBRANCH  53  67
BRANCH  54  73
ATOM     73  C   UNL     1      -0.121  15.511  -0.562  1.00  0.00    -0.014 A 
ATOM     74  C   UNL     1      -1.420  16.017  -0.426  1.00  0.00     0.009 A 
ATOM     75  C   UNL     1       0.638  15.981  -1.655  1.00  0.00     0.009 A 
ATOM     76  C   UNL     1      -2.003  16.793  -1.435  1.00  0.00     0.001 A 
ATOM     77  C   UNL     1       0.070  16.787  -2.647  1.00  0.00     0.001 A 
ATOM     78  C   UNL     1      -1.266  17.156  -2.558  1.00  0.00     0.000 A 
ENDBRANCH  54  73
BRANCH  66  79
ATOM     79  C   UNL     1       0.904  11.376   4.543  1.00  0.00    -0.014 A 
ATOM     80  C   UNL     1       1.931  10.422   4.490  1.00  0.00     0.009 A 
ATOM     81  C   UNL     1       0.985  12.413   5.482  1.00  0.00     0.009 A 
ATOM     82  C   UNL     1       2.999  10.488   5.386  1.00  0.00     0.001 A 
ATOM     83  C   UNL     1       2.055  12.483   6.370  1.00  0.00     0.001 A 
ATOM     84  C   UNL     1       3.054  11.512   6.331  1.00  0.00     0.000 A 
ENDBRANCH  66  79
ENDBRANCH  40  41
ENDBRANCH  33  35
ENDBRANCH  32  33
ENDBRANCH  31  32
ENDBRANCH   1  31
TORSDOF 14
