REMARK SMILES Cc1nn(C(C)C)c(C)c1S(=O)(=O)Nc1cccc(C(=O)OCCOC(=O)c2ccc(-c3c4nc(c(-c5ccccc5)c5ccc([nH]5)c(-c5ccccc5)c5nc(c(-c6ccccc6)c6ccc3[nH]6)C=C5)C=C4)cc2)c1C
REMARK SMILES IDX 23 1 22 2 20 3 21 4 19 5 15 6 16 7 76 8 17 9 77 10 18 11
REMARK SMILES IDX 14 12 11 14 12 15 13 16 10 17 1 18 2 19 3 20 4 21 8 22 9 23
REMARK SMILES IDX 5 24 6 25 7 26 24 27 25 28 26 29 27 30 28 31 29 32 75 33
REMARK SMILES IDX 30 34 74 35 31 36 32 37 33 38 68 39 34 40 73 41 67 42 69 43
REMARK SMILES IDX 35 44 72 45 66 46 65 47 36 49 58 50 43 51 57 52 44 53 47 54
REMARK SMILES IDX 56 55 70 56 45 57 46 58 55 60 71 61 48 62 37 63 38 64 42 65
REMARK SMILES IDX 39 66 41 67 40 68 59 69 60 70 64 71 61 72 63 73 62 74 49 75
REMARK SMILES IDX 50 76 54 77 51 78 53 79 52 80
REMARK H PARENT 14 13 69 48 47 59
REMARK Flexibility Score: inf
ROOT
ATOM      1  C   UNL     1      -0.821  -6.237   3.182  1.00  0.00     0.275 C 
ENDROOT
BRANCH   1   2
ATOM      2  O   UNL     1      -0.779  -5.191   2.194  1.00  0.00    -0.458 OA
BRANCH   2   3
ATOM      3  C   UNL     1      -0.091  -3.910   2.576  1.00  0.00     0.338 C 
ATOM      4  O   UNL     1      -0.275  -3.969   3.835  1.00  0.00    -0.246 OA
BRANCH   3   5
ATOM      5  C   UNL     1       0.906  -2.489   1.301  1.00  0.00     0.065 A 
ATOM      6  C   UNL     1       2.345  -0.198   0.590  1.00  0.00     0.053 A 
ATOM      7  C   UNL     1       2.429  -0.551  -0.740  1.00  0.00     0.027 A 
ATOM      8  C   UNL     1       1.719  -1.081   1.606  1.00  0.00    -0.012 A 
ATOM      9  C   UNL     1       1.780  -1.677  -1.157  1.00  0.00     0.003 A 
ATOM     10  C   UNL     1       2.020  -0.374   2.975  1.00  0.00     0.047 C 
ATOM     11  C   UNL     1       1.069  -2.507  -0.243  1.00  0.00     0.016 A 
BRANCH   6  12
ATOM     12  N   UNL     1       2.979   1.069   0.848  1.00  0.00    -0.279 N 
ATOM     13  H   UNL     1       3.952   1.059   0.997  1.00  0.00     0.180 HD
BRANCH  12  14
ATOM     14  S   UNL     1       2.206   2.576   0.921  1.00  0.00     0.265 S 
ATOM     15  O   UNL     1       3.243   3.511   0.525  1.00  0.00    -0.201 OA
ATOM     16  O   UNL     1       1.588   2.711   2.221  1.00  0.00    -0.201 OA
BRANCH  14  17
ATOM     17  C   UNL     1       0.915   2.911  -0.174  1.00  0.00     0.131 A 
ATOM     18  C   UNL     1      -0.645   0.798   0.028  1.00  0.00     0.070 C 
ATOM     19  C   UNL     1      -0.176   2.082  -0.510  1.00  0.00     0.080 A 
ATOM     20  N   UNL     1      -0.947   2.643  -1.442  1.00  0.00    -0.176 NA
ATOM     21  N   UNL     1      -0.537   3.915  -1.498  1.00  0.00    -0.266 N 
ATOM     22  C   UNL     1       0.552   4.159  -0.695  1.00  0.00     0.056 A 
ATOM     23  C   UNL     1       1.060   5.535  -0.440  1.00  0.00     0.068 C 
BRANCH  21  24
ATOM     24  C   UNL     1      -1.329   4.838  -2.311  1.00  0.00     0.101 C 
ATOM     25  C   UNL     1      -1.115   4.546  -3.796  1.00  0.00     0.033 C 
ATOM     26  C   UNL     1      -2.818   4.753  -1.950  1.00  0.00     0.033 C 
ENDBRANCH  21  24
ENDBRANCH  14  17
ENDBRANCH  12  14
ENDBRANCH   6  12
ENDBRANCH   3   5
ENDBRANCH   2   3
ENDBRANCH   1   2
BRANCH   1  27
ATOM     27  C   UNL     1       0.572  -6.874   3.297  1.00  0.00     0.275 C 
BRANCH  27  28
ATOM     28  O   UNL     1       1.640  -5.980   3.719  1.00  0.00    -0.458 OA
BRANCH  28  29
ATOM     29  C   UNL     1       2.488  -5.461   2.784  1.00  0.00     0.338 C 
ATOM     30  O   UNL     1       3.657  -5.760   2.637  1.00  0.00    -0.246 OA
BRANCH  29  31
ATOM     31  C   UNL     1       1.891  -4.265   2.155  1.00  0.00     0.060 A 
ATOM     32  C   UNL     1       1.520  -2.922   3.300  1.00  0.00     0.016 A 
ATOM     33  C   UNL     1       0.767  -4.632   0.811  1.00  0.00     0.016 A 
ATOM     34  C   UNL     1      -0.063  -1.954   3.116  1.00  0.00     0.010 A 
ATOM     35  C   UNL     1      -0.806  -3.697   0.648  1.00  0.00     0.010 A 
ATOM     36  C   UNL     1      -1.223  -2.386   1.812  1.00  0.00    -0.014 A 
BRANCH  36  37
ATOM     37  C   UNL     1      -2.677  -2.310   2.012  1.00  0.00     0.031 A 
ATOM     38  C   UNL     1      -3.496  -1.942   0.846  1.00  0.00     0.074 A 
ATOM     39  C   UNL     1      -3.238  -2.781   3.156  1.00  0.00     0.049 A 
ATOM     40  N   UNL     1      -4.731  -1.611   0.920  1.00  0.00    -0.248 NA
ATOM     41  C   UNL     1      -2.973  -1.833  -0.516  1.00  0.00     0.031 C 
ATOM     42  C   UNL     1      -4.625  -3.176   3.419  1.00  0.00     0.029 A 
ATOM     43  N   UNL     1      -2.657  -2.888   4.409  1.00  0.00    -0.354 N 
ATOM     44  C   UNL     1      -5.225  -1.516  -0.359  1.00  0.00     0.074 A 
ATOM     45  C   UNL     1      -4.077  -1.569  -1.219  1.00  0.00     0.031 C 
ATOM     46  C   UNL     1      -4.832  -3.235   4.750  1.00  0.00     0.029 A 
ATOM     47  C   UNL     1      -3.623  -2.773   5.408  1.00  0.00     0.049 A 
ATOM     48  H   UNL     1      -1.696  -3.026   4.572  1.00  0.00     0.167 HD
ATOM     49  C   UNL     1      -6.573  -1.520  -0.521  1.00  0.00     0.031 A 
ATOM     50  C   UNL     1      -3.566  -1.724   6.285  1.00  0.00     0.031 A 
ATOM     51  C   UNL     1      -7.224  -1.400   0.783  1.00  0.00     0.049 A 
ATOM     52  C   UNL     1      -4.623  -0.681   5.968  1.00  0.00     0.074 A 
ATOM     53  C   UNL     1      -7.750  -2.334   1.657  1.00  0.00     0.029 A 
ATOM     54  N   UNL     1      -6.979  -0.252   1.529  1.00  0.00    -0.354 N 
ATOM     55  N   UNL     1      -5.295  -0.644   4.847  1.00  0.00    -0.248 NA
ATOM     56  C   UNL     1      -5.030   0.380   6.885  1.00  0.00     0.031 C 
ATOM     57  C   UNL     1      -7.728  -1.759   2.962  1.00  0.00     0.029 A 
ATOM     58  C   UNL     1      -7.245  -0.463   2.868  1.00  0.00     0.049 A 
ATOM     59  H   UNL     1      -6.658   0.599   1.152  1.00  0.00     0.167 HD
ATOM     60  C   UNL     1      -6.208   0.372   4.876  1.00  0.00     0.074 A 
ATOM     61  C   UNL     1      -6.004   0.983   6.178  1.00  0.00     0.031 C 
ATOM     62  C   UNL     1      -7.057   0.622   3.831  1.00  0.00     0.031 A 
BRANCH  49  63
ATOM     63  C   UNL     1      -7.296  -1.859  -1.798  1.00  0.00    -0.014 A 
ATOM     64  C   UNL     1      -8.668  -2.163  -1.730  1.00  0.00     0.009 A 
ATOM     65  C   UNL     1      -6.701  -1.991  -3.066  1.00  0.00     0.009 A 
ATOM     66  C   UNL     1      -9.391  -2.607  -2.846  1.00  0.00     0.001 A 
ATOM     67  C   UNL     1      -7.418  -2.433  -4.188  1.00  0.00     0.001 A 
ATOM     68  C   UNL     1      -8.764  -2.748  -4.076  1.00  0.00     0.000 A 
ENDBRANCH  49  63
BRANCH  50  69
ATOM     69  C   UNL     1      -2.174  -1.473   6.773  1.00  0.00    -0.014 A 
ATOM     70  C   UNL     1      -1.526  -2.567   7.394  1.00  0.00     0.009 A 
ATOM     71  C   UNL     1      -1.385  -0.428   6.281  1.00  0.00     0.009 A 
ATOM     72  C   UNL     1      -0.143  -2.729   7.298  1.00  0.00     0.001 A 
ATOM     73  C   UNL     1       0.014  -0.558   6.266  1.00  0.00     0.001 A 
ATOM     74  C   UNL     1       0.624  -1.736   6.704  1.00  0.00     0.000 A 
ENDBRANCH  50  69
BRANCH  62  75
ATOM     75  C   UNL     1      -7.859   1.893   3.635  1.00  0.00    -0.014 A 
ATOM     76  C   UNL     1      -7.685   3.064   4.379  1.00  0.00     0.009 A 
ATOM     77  C   UNL     1      -8.783   1.971   2.565  1.00  0.00     0.009 A 
ATOM     78  C   UNL     1      -8.446   4.213   4.128  1.00  0.00     0.001 A 
ATOM     79  C   UNL     1      -9.482   3.138   2.256  1.00  0.00     0.001 A 
ATOM     80  C   UNL     1      -9.335   4.254   3.061  1.00  0.00     0.000 A 
ENDBRANCH  62  75
ENDBRANCH  36  37
ENDBRANCH  29  31
ENDBRANCH  28  29
ENDBRANCH  27  28
ENDBRANCH   1  27
TORSDOF 15
