REMARK SMILES O=C(OCCOC(=O)[C@H]1CC[C@@H](CNc2cc(C(F)(F)F)ccn2)O1)c1ccc(-c2c3nc(c(-c4ccccc4)c4ccc([nH]4)c(-c4ccccc4)c4nc(c(-c5ccccc5)c5ccc2[nH]5)C=C4)C=C3)cc1
REMARK SMILES IDX 5 1 4 2 3 3 2 4 1 5 26 6 27 7 73 8 28 9 72 10 29 11 30 12
REMARK SMILES IDX 31 13 66 14 32 15 71 16 65 17 67 18 33 19 70 20 64 21 63 22
REMARK SMILES IDX 34 24 56 25 41 26 55 27 42 28 45 29 54 30 68 31 43 32 44 33
REMARK SMILES IDX 53 35 69 36 46 37 35 38 36 39 40 40 37 41 39 42 38 43 57 44
REMARK SMILES IDX 58 45 62 46 59 47 61 48 60 49 47 50 48 51 52 52 49 53 51 54
REMARK SMILES IDX 50 55 6 56 7 57 8 58 9 59 10 60 25 61 11 62 12 63 13 64
REMARK SMILES IDX 14 65 15 67 16 68 24 69 17 70 23 71 22 72 18 73 19 74 20 75
REMARK SMILES IDX 21 76
REMARK H PARENT 67 23 45 34 14 66
REMARK Flexibility Score: inf
ROOT
ATOM      1  C   UNL     1       3.045  -2.244   5.885  1.00  0.00     0.274 C 
ENDROOT
BRANCH   1   2
ATOM      2  C   UNL     1       1.970  -1.386   6.573  1.00  0.00     0.275 C 
BRANCH   2   3
ATOM      3  O   UNL     1       0.612  -1.418   6.098  1.00  0.00    -0.458 OA
BRANCH   3   4
ATOM      4  C   UNL     1       0.361  -1.701   4.805  1.00  0.00     0.338 C 
ATOM      5  O   UNL     1      -0.076  -2.797   4.459  1.00  0.00    -0.246 OA
BRANCH   4   6
ATOM      6  C   UNL     1       0.632  -0.584   3.844  1.00  0.00     0.060 A 
ATOM      7  C   UNL     1       1.289   0.606   4.161  1.00  0.00     0.016 A 
ATOM      8  C   UNL     1       0.300  -0.810   2.510  1.00  0.00     0.016 A 
ATOM      9  C   UNL     1       1.680   1.486   3.146  1.00  0.00     0.010 A 
ATOM     10  C   UNL     1       0.694   0.035   1.489  1.00  0.00     0.010 A 
ATOM     11  C   UNL     1       1.389   1.192   1.809  1.00  0.00    -0.014 A 
BRANCH  11  12
ATOM     12  C   UNL     1       1.709   2.134   0.732  1.00  0.00     0.031 A 
ATOM     13  C   UNL     1       0.624   3.040   0.246  1.00  0.00     0.074 A 
ATOM     14  C   UNL     1       2.932   2.121   0.178  1.00  0.00     0.049 A 
ATOM     15  N   UNL     1       0.704   4.051  -0.574  1.00  0.00    -0.248 NA
ATOM     16  C   UNL     1      -0.738   2.765   0.742  1.00  0.00     0.031 C 
ATOM     17  C   UNL     1       4.010   1.190   0.521  1.00  0.00     0.029 A 
ATOM     18  N   UNL     1       3.472   2.916  -0.796  1.00  0.00    -0.354 N 
ATOM     19  C   UNL     1      -0.585   4.559  -0.656  1.00  0.00     0.074 A 
ATOM     20  C   UNL     1      -1.443   3.701   0.127  1.00  0.00     0.031 C 
ATOM     21  C   UNL     1       5.093   1.484  -0.219  1.00  0.00     0.029 A 
ATOM     22  C   UNL     1       4.785   2.626  -1.073  1.00  0.00     0.049 A 
ATOM     23  H   UNL     1       2.967   3.626  -1.254  1.00  0.00     0.167 HD
ATOM     24  C   UNL     1      -1.002   5.669  -1.303  1.00  0.00     0.031 A 
ATOM     25  C   UNL     1       5.639   3.250  -1.904  1.00  0.00     0.031 A 
ATOM     26  C   UNL     1      -0.136   6.469  -2.121  1.00  0.00     0.049 A 
ATOM     27  C   UNL     1       5.155   4.483  -2.618  1.00  0.00     0.074 A 
ATOM     28  C   UNL     1      -0.420   7.627  -2.817  1.00  0.00     0.029 A 
ATOM     29  N   UNL     1       1.198   6.165  -2.362  1.00  0.00    -0.354 N 
ATOM     30  N   UNL     1       3.969   5.048  -2.580  1.00  0.00    -0.248 NA
ATOM     31  C   UNL     1       6.132   5.187  -3.458  1.00  0.00     0.031 C 
ATOM     32  C   UNL     1       0.736   8.004  -3.512  1.00  0.00     0.029 A 
ATOM     33  C   UNL     1       1.750   7.104  -3.211  1.00  0.00     0.049 A 
ATOM     34  H   UNL     1       1.679   5.393  -1.984  1.00  0.00     0.167 HD
ATOM     35  C   UNL     1       4.064   6.187  -3.367  1.00  0.00     0.074 A 
ATOM     36  C   UNL     1       5.431   6.241  -3.853  1.00  0.00     0.031 C 
ATOM     37  C   UNL     1       3.116   7.109  -3.667  1.00  0.00     0.031 A 
BRANCH  24  38
ATOM     38  C   UNL     1      -2.442   6.055  -1.127  1.00  0.00    -0.014 A 
ATOM     39  C   UNL     1      -2.907   6.532   0.111  1.00  0.00     0.009 A 
ATOM     40  C   UNL     1      -3.350   5.917  -2.186  1.00  0.00     0.009 A 
ATOM     41  C   UNL     1      -4.259   6.824   0.297  1.00  0.00     0.001 A 
ATOM     42  C   UNL     1      -4.698   6.233  -2.004  1.00  0.00     0.001 A 
ATOM     43  C   UNL     1      -5.154   6.676  -0.762  1.00  0.00     0.000 A 
ENDBRANCH  24  38
BRANCH  25  44
ATOM     44  C   UNL     1       7.038   2.770  -2.046  1.00  0.00    -0.014 A 
ATOM     45  C   UNL     1       8.105   3.505  -1.506  1.00  0.00     0.009 A 
ATOM     46  C   UNL     1       7.318   1.573  -2.723  1.00  0.00     0.009 A 
ATOM     47  C   UNL     1       9.423   3.071  -1.670  1.00  0.00     0.001 A 
ATOM     48  C   UNL     1       8.636   1.127  -2.864  1.00  0.00     0.001 A 
ATOM     49  C   UNL     1       9.687   1.881  -2.346  1.00  0.00     0.000 A 
ENDBRANCH  25  44
BRANCH  37  50
ATOM     50  C   UNL     1       3.541   8.249  -4.543  1.00  0.00    -0.014 A 
ATOM     51  C   UNL     1       3.749   8.065  -5.917  1.00  0.00     0.009 A 
ATOM     52  C   UNL     1       3.688   9.530  -3.990  1.00  0.00     0.009 A 
ATOM     53  C   UNL     1       4.129   9.140  -6.719  1.00  0.00     0.001 A 
ATOM     54  C   UNL     1       4.042  10.609  -4.800  1.00  0.00     0.001 A 
ATOM     55  C   UNL     1       4.270  10.411  -6.161  1.00  0.00     0.000 A 
ENDBRANCH  37  50
ENDBRANCH  11  12
ENDBRANCH   4   6
ENDBRANCH   3   4
ENDBRANCH   2   3
ENDBRANCH   1   2
BRANCH   1  56
ATOM     56  O   UNL     1       2.984  -2.246   4.448  1.00  0.00    -0.460 OA
BRANCH  56  57
ATOM     57  C   UNL     1       3.036  -3.485   3.862  1.00  0.00     0.335 C 
ATOM     58  O   UNL     1       3.205  -4.531   4.479  1.00  0.00    -0.249 OA
BRANCH  57  59
ATOM     59  C   UNL     1       2.950  -3.394   2.322  1.00  0.00     0.228 C 
ATOM     60  C   UNL     1       3.341  -4.721   1.673  1.00  0.00     0.047 C 
ATOM     61  O   UNL     1       1.657  -3.075   1.787  1.00  0.00    -0.361 OA
ATOM     62  C   UNL     1       1.993  -5.324   1.318  1.00  0.00     0.037 C 
ATOM     63  C   UNL     1       1.269  -4.084   0.842  1.00  0.00     0.138 C 
BRANCH  63  64
ATOM     64  C   UNL     1      -0.252  -4.199   0.560  1.00  0.00     0.146 C 
BRANCH  64  65
ATOM     65  N   UNL     1      -1.140  -3.947   1.690  1.00  0.00    -0.367 N 
ATOM     66  H   UNL     1      -0.942  -4.358   2.562  1.00  0.00     0.162 HD
BRANCH  65  67
ATOM     67  C   UNL     1      -2.259  -3.140   1.555  1.00  0.00     0.126 A 
ATOM     68  C   UNL     1      -3.050  -3.086   0.415  1.00  0.00     0.059 A 
ATOM     69  N   UNL     1      -2.504  -2.314   2.591  1.00  0.00    -0.240 NA
ATOM     70  C   UNL     1      -4.062  -2.113   0.311  1.00  0.00     0.061 A 
ATOM     71  C   UNL     1      -3.445  -1.356   2.473  1.00  0.00     0.114 A 
ATOM     72  C   UNL     1      -4.231  -1.202   1.354  1.00  0.00     0.033 A 
BRANCH  70  73
ATOM     73  C   UNL     1      -4.937  -2.011  -0.907  1.00  0.00     0.416 C 
ATOM     74  F   UNL     1      -6.240  -1.763  -0.596  1.00  0.00    -0.166 F 
ATOM     75  F   UNL     1      -4.556  -1.000  -1.735  1.00  0.00    -0.166 F 
ATOM     76  F   UNL     1      -4.944  -3.139  -1.670  1.00  0.00    -0.166 F 
ENDBRANCH  70  73
ENDBRANCH  65  67
ENDBRANCH  64  65
ENDBRANCH  63  64
ENDBRANCH  57  59
ENDBRANCH  56  57
ENDBRANCH   1  56
TORSDOF 15
