REMARK SMILES COc1ccc(CCN2/C(=[NH+]/C(=O)CCC(=O)OCCOC(=O)c3ccc(-c4c5nc(c(-c6ccccc6)c6ccc([nH]6)c(-c6ccccc6)c6nc(c(-c7ccccc7)c7ccc4[nH]7)C=C6)C=C5)cc3)S[C@@H]3CS(=O)(=O)C[C@@H]32)cc1
REMARK SMILES IDX 16 1 17 2 15 3 14 4 12 5 9 6 10 7 79 8 11 9 72 10 73 11
REMARK SMILES IDX 78 12 74 14 75 15 13 16 76 17 77 18 8 19 7 20 6 21 3 22 4 23
REMARK SMILES IDX 81 24 5 25 80 26 2 27 1 28 18 29 19 30 20 31 21 32 22 33
REMARK SMILES IDX 23 34 24 35 25 36 71 37 26 38 70 39 27 40 28 41 29 42 64 43
REMARK SMILES IDX 30 44 69 45 63 46 65 47 31 48 68 49 62 50 61 51 32 53 54 54
REMARK SMILES IDX 39 55 53 56 40 57 43 58 52 59 66 60 41 61 42 62 51 64 67 65
REMARK SMILES IDX 44 66 33 67 34 68 38 69 35 70 37 71 36 72 55 73 56 74 60 75
REMARK SMILES IDX 57 76 59 77 58 78 45 79 46 80 50 81 47 82 49 83 48 84
REMARK H PARENT 11 13 65 52 43 63
REMARK Flexibility Score: inf
ROOT
ATOM      1  C   UNL     1       2.401   0.601  10.777  1.00  0.00     0.306 C 
ATOM      2  O   UNL     1       3.321   0.871  11.539  1.00  0.00    -0.252 OA
ENDROOT
BRANCH   1   3
ATOM      3  C   UNL     1       1.099   1.362  10.755  1.00  0.00     0.135 C 
BRANCH   3   4
ATOM      4  C   UNL     1       0.789   1.968   9.394  1.00  0.00     0.139 C 
BRANCH   4   5
ATOM      5  C   UNL     1      -0.255   1.162   8.648  1.00  0.00     0.308 C 
ATOM      6  N   UNL     1       0.065  -2.175   7.235  1.00  0.00    -0.251 N 
ATOM      7  C   UNL     1      -0.465  -0.972   7.690  1.00  0.00     0.314 C 
ATOM      8  C   UNL     1      -0.888  -3.286   7.079  1.00  0.00     0.206 C 
ATOM      9  N   UNL     1       0.254   0.021   8.085  1.00  0.00    -0.205 N 
ATOM     10  S   UNL     1      -2.224  -1.091   7.715  1.00  0.00    -0.030 SA
ATOM     11  C   UNL     1      -2.157  -2.889   7.853  1.00  0.00     0.120 C 
ATOM     12  C   UNL     1      -0.413  -4.631   7.617  1.00  0.00     0.187 C 
ATOM     13  H   UNL     1       1.230  -0.043   7.976  1.00  0.00     0.316 HD
ATOM     14  C   UNL     1      -1.962  -3.274   9.309  1.00  0.00     0.156 C 
ATOM     15  S   UNL     1      -1.158  -4.846   9.215  1.00  0.00     0.155 S 
ATOM     16  O   UNL     1      -1.417   1.557   8.620  1.00  0.00    -0.247 OA
ATOM     17  O   UNL     1      -0.115  -4.908  10.215  1.00  0.00    -0.229 OA
ATOM     18  O   UNL     1      -2.180  -5.866   9.097  1.00  0.00    -0.229 OA
BRANCH   6  19
ATOM     19  C   UNL     1       1.472  -2.290   6.836  1.00  0.00     0.242 C 
BRANCH  19  20
ATOM     20  C   UNL     1       1.720  -2.951   5.468  1.00  0.00     0.081 C 
BRANCH  20  21
ATOM     21  C   UNL     1       1.478  -2.078   4.258  1.00  0.00    -0.044 A 
ATOM     22  C   UNL     1       1.032  -0.524   1.945  1.00  0.00     0.118 A 
ATOM     23  C   UNL     1       0.048  -0.636   2.923  1.00  0.00     0.046 A 
ATOM     24  C   UNL     1       2.251  -1.175   2.126  1.00  0.00     0.046 A 
ATOM     25  C   UNL     1       0.262  -1.416   4.060  1.00  0.00     0.007 A 
ATOM     26  C   UNL     1       2.469  -1.951   3.272  1.00  0.00     0.007 A 
BRANCH  22  27
ATOM     27  O   UNL     1       0.705   0.273   0.885  1.00  0.00    -0.497 OA
ATOM     28  C   UNL     1       1.347  -0.044  -0.343  1.00  0.00     0.278 C 
ENDBRANCH  22  27
ENDBRANCH  20  21
ENDBRANCH  19  20
ENDBRANCH   6  19
ENDBRANCH   4   5
ENDBRANCH   3   4
ENDBRANCH   1   3
BRANCH   1  29
ATOM     29  O   UNL     1       2.404  -0.418   9.883  1.00  0.00    -0.462 OA
BRANCH  29  30
ATOM     30  C   UNL     1       3.610  -1.194   9.776  1.00  0.00     0.274 C 
BRANCH  30  31
ATOM     31  C   UNL     1       4.478  -0.693   8.622  1.00  0.00     0.275 C 
BRANCH  31  32
ATOM     32  O   UNL     1       5.159   0.512   9.001  1.00  0.00    -0.458 OA
BRANCH  32  33
ATOM     33  C   UNL     1       4.669   1.655   8.473  1.00  0.00     0.338 C 
ATOM     34  O   UNL     1       3.783   1.787   7.651  1.00  0.00    -0.246 OA
BRANCH  33  35
ATOM     35  C   UNL     1       5.348   2.780   9.122  1.00  0.00     0.060 A 
ATOM     36  C   UNL     1       4.659   3.531  10.078  1.00  0.00     0.016 A 
ATOM     37  C   UNL     1       6.650   3.108   8.745  1.00  0.00     0.016 A 
ATOM     38  C   UNL     1       5.279   4.629  10.668  1.00  0.00     0.010 A 
ATOM     39  C   UNL     1       7.271   4.204   9.340  1.00  0.00     0.010 A 
ATOM     40  C   UNL     1       6.584   4.976  10.293  1.00  0.00    -0.014 A 
BRANCH  40  41
ATOM     41  C   UNL     1       7.218   6.196  10.836  1.00  0.00     0.031 A 
ATOM     42  C   UNL     1       7.336   7.410   9.962  1.00  0.00     0.074 A 
ATOM     43  C   UNL     1       7.699   6.204  12.092  1.00  0.00     0.049 A 
ATOM     44  N   UNL     1       7.953   8.539  10.193  1.00  0.00    -0.248 NA
ATOM     45  C   UNL     1       6.676   7.339   8.647  1.00  0.00     0.031 C 
ATOM     46  C   UNL     1       7.608   5.093  13.042  1.00  0.00     0.029 A 
ATOM     47  N   UNL     1       8.372   7.180  12.780  1.00  0.00    -0.354 N 
ATOM     48  C   UNL     1       7.768   9.308   9.052  1.00  0.00     0.074 A 
ATOM     49  C   UNL     1       7.004   8.509   8.118  1.00  0.00     0.031 C 
ATOM     50  C   UNL     1       8.212   5.449  14.188  1.00  0.00     0.029 A 
ATOM     51  C   UNL     1       8.764   6.793  14.038  1.00  0.00     0.049 A 
ATOM     52  H   UNL     1       8.555   8.073  12.409  1.00  0.00     0.167 HD
ATOM     53  C   UNL     1       8.193  10.569   8.807  1.00  0.00     0.031 A 
ATOM     54  C   UNL     1       9.509   7.442  14.952  1.00  0.00     0.031 A 
ATOM     55  C   UNL     1       8.961  11.354   9.736  1.00  0.00     0.049 A 
ATOM     56  C   UNL     1      10.015   8.822  14.632  1.00  0.00     0.074 A 
ATOM     57  C   UNL     1       9.456  12.637   9.582  1.00  0.00     0.029 A 
ATOM     58  N   UNL     1       9.339  10.926  11.000  1.00  0.00    -0.354 N 
ATOM     59  N   UNL     1       9.839   9.538  13.547  1.00  0.00    -0.248 NA
ATOM     60  C   UNL     1      10.817   9.488  15.669  1.00  0.00     0.031 C 
ATOM     61  C   UNL     1      10.164  12.973  10.741  1.00  0.00     0.029 A 
ATOM     62  C   UNL     1      10.065  11.918  11.635  1.00  0.00     0.049 A 
ATOM     63  H   UNL     1       9.122  10.048  11.388  1.00  0.00     0.167 HD
ATOM     64  C   UNL     1      10.478  10.748  13.783  1.00  0.00     0.074 A 
ATOM     65  C   UNL     1      11.035  10.674  15.118  1.00  0.00     0.031 C 
ATOM     66  C   UNL     1      10.596  11.825  12.969  1.00  0.00     0.031 A 
BRANCH  53  67
ATOM     67  C   UNL     1       7.854  11.168   7.473  1.00  0.00    -0.014 A 
ATOM     68  C   UNL     1       6.544  11.578   7.174  1.00  0.00     0.009 A 
ATOM     69  C   UNL     1       8.861  11.358   6.514  1.00  0.00     0.009 A 
ATOM     70  C   UNL     1       6.247  12.142   5.932  1.00  0.00     0.001 A 
ATOM     71  C   UNL     1       8.565  11.945   5.283  1.00  0.00     0.001 A 
ATOM     72  C   UNL     1       7.257  12.330   4.990  1.00  0.00     0.000 A 
ENDBRANCH  53  67
BRANCH  54  73
ATOM     73  C   UNL     1       9.844   6.793  16.246  1.00  0.00    -0.014 A 
ATOM     74  C   UNL     1       9.302   7.270  17.449  1.00  0.00     0.009 A 
ATOM     75  C   UNL     1      10.733   5.707  16.287  1.00  0.00     0.009 A 
ATOM     76  C   UNL     1       9.670   6.696  18.668  1.00  0.00     0.001 A 
ATOM     77  C   UNL     1      11.075   5.115  17.505  1.00  0.00     0.001 A 
ATOM     78  C   UNL     1      10.553   5.618  18.695  1.00  0.00     0.000 A 
ENDBRANCH  54  73
BRANCH  66  79
ATOM     79  C   UNL     1      11.304  13.027  13.524  1.00  0.00    -0.014 A 
ATOM     80  C   UNL     1      12.698  13.044  13.685  1.00  0.00     0.009 A 
ATOM     81  C   UNL     1      10.563  14.172  13.857  1.00  0.00     0.009 A 
ATOM     82  C   UNL     1      13.332  14.176  14.201  1.00  0.00     0.001 A 
ATOM     83  C   UNL     1      11.203  15.310  14.347  1.00  0.00     0.001 A 
ATOM     84  C   UNL     1      12.585  15.308  14.528  1.00  0.00     0.000 A 
ENDBRANCH  66  79
ENDBRANCH  40  41
ENDBRANCH  33  35
ENDBRANCH  32  33
ENDBRANCH  31  32
ENDBRANCH  30  31
ENDBRANCH  29  30
ENDBRANCH   1  29
TORSDOF 17
