REMARK SMILES CCc1c(C(=O)OCCOC(=O)c2ccc(-c3c4nc(c(-c5ccccc5)c5ccc([nH]5)c(-c5ccccc5)c5nc(c(-c6ccccc6)c6ccc3[nH]6)C=C5)C=C4)cc2)nnn1C[C@H]1C[C@H]2CC[C@@H]1C2
REMARK SMILES IDX 8 1 7 2 5 3 6 4 4 5 3 6 63 7 61 8 62 9 2 10 1 11 64 12 65 13
REMARK SMILES IDX 66 14 70 15 67 16 69 17 71 18 68 19 9 20 10 21 11 22 12 23
REMARK SMILES IDX 13 24 14 25 60 26 15 27 59 28 16 29 17 30 18 31 53 32 19 33
REMARK SMILES IDX 58 34 52 35 54 36 20 37 57 38 51 39 50 40 21 42 43 43 28 44
REMARK SMILES IDX 42 45 29 46 32 47 41 48 55 49 30 50 31 51 40 53 56 54 33 55
REMARK SMILES IDX 22 56 23 57 27 58 24 59 26 60 25 61 44 62 45 63 49 64 46 65
REMARK SMILES IDX 48 66 47 67 34 68 35 69 39 70 36 71 38 72 37 73
REMARK H PARENT 54 41 32 52
REMARK Flexibility Score: inf
ROOT
ATOM      1  C   UNL     1       1.986  -5.533   5.397  1.00  0.00     0.275 C 
ENDROOT
BRANCH   1   2
ATOM      2  O   UNL     1       1.257  -5.077   4.247  1.00  0.00    -0.457 OA
BRANCH   2   3
ATOM      3  C   UNL     1       1.522  -5.750   3.086  1.00  0.00     0.360 C 
ATOM      4  O   UNL     1       2.444  -6.555   2.968  1.00  0.00    -0.244 OA
BRANCH   3   5
ATOM      5  C   UNL     1       0.566  -5.484   2.021  1.00  0.00     0.193 A 
ATOM      6  C   UNL     1      -0.301  -4.413   1.810  1.00  0.00     0.073 A 
ATOM      7  N   UNL     1      -0.890  -4.730   0.607  1.00  0.00    -0.248 N 
ATOM      8  N   UNL     1       0.410  -6.395   1.003  1.00  0.00    -0.123 NA
ATOM      9  N   UNL     1      -0.514  -5.945   0.179  1.00  0.00    -0.066 NA
BRANCH   6  10
ATOM     10  C   UNL     1      -0.548  -3.154   2.570  1.00  0.00     0.055 C 
ATOM     11  C   UNL     1      -1.959  -3.037   3.132  1.00  0.00     0.011 C 
ENDBRANCH   6  10
BRANCH   7  12
ATOM     12  C   UNL     1      -1.820  -3.971  -0.205  1.00  0.00     0.150 C 
BRANCH  12  13
ATOM     13  C   UNL     1      -1.276  -3.604  -1.591  1.00  0.00     0.014 C 
ATOM     14  C   UNL     1      -1.197  -4.787  -2.585  1.00  0.00     0.009 C 
ATOM     15  C   UNL     1      -2.161  -2.585  -2.361  1.00  0.00    -0.006 C 
ATOM     16  C   UNL     1      -2.063  -4.311  -3.760  1.00  0.00    -0.011 C 
ATOM     17  C   UNL     1      -3.624  -3.052  -2.429  1.00  0.00     0.004 C 
ATOM     18  C   UNL     1      -1.724  -2.824  -3.808  1.00  0.00     0.007 C 
ATOM     19  C   UNL     1      -3.537  -4.307  -3.307  1.00  0.00     0.004 C 
ENDBRANCH  12  13
ENDBRANCH   7  12
ENDBRANCH   3   5
ENDBRANCH   2   3
ENDBRANCH   1   2
BRANCH   1  20
ATOM     20  C   UNL     1       1.247  -6.653   6.118  1.00  0.00     0.275 C 
BRANCH  20  21
ATOM     21  O   UNL     1       1.227  -7.864   5.360  1.00  0.00    -0.458 OA
BRANCH  21  22
ATOM     22  C   UNL     1       0.113  -8.049   4.614  1.00  0.00     0.338 C 
ATOM     23  O   UNL     1      -0.692  -7.198   4.274  1.00  0.00    -0.246 OA
BRANCH  22  24
ATOM     24  C   UNL     1      -0.141  -9.487   4.473  1.00  0.00     0.060 A 
ATOM     25  C   UNL     1      -1.103  -9.901   3.546  1.00  0.00     0.016 A 
ATOM     26  C   UNL     1       0.367 -10.361   5.445  1.00  0.00     0.016 A 
ATOM     27  C   UNL     1      -1.653 -11.163   3.677  1.00  0.00     0.010 A 
ATOM     28  C   UNL     1      -0.196 -11.608   5.587  1.00  0.00     0.010 A 
ATOM     29  C   UNL     1      -1.240 -11.974   4.739  1.00  0.00    -0.014 A 
BRANCH  29  30
ATOM     30  C   UNL     1      -1.855 -13.277   4.908  1.00  0.00     0.031 A 
ATOM     31  C   UNL     1      -1.403 -14.296   3.932  1.00  0.00     0.074 A 
ATOM     32  C   UNL     1      -2.624 -13.575   5.972  1.00  0.00     0.049 A 
ATOM     33  N   UNL     1      -2.130 -14.975   3.108  1.00  0.00    -0.248 NA
ATOM     34  C   UNL     1       0.045 -14.516   3.782  1.00  0.00     0.031 C 
ATOM     35  C   UNL     1      -2.894 -12.746   7.150  1.00  0.00     0.029 A 
ATOM     36  N   UNL     1      -3.218 -14.759   6.286  1.00  0.00    -0.354 N 
ATOM     37  C   UNL     1      -1.255 -15.822   2.437  1.00  0.00     0.074 A 
ATOM     38  C   UNL     1       0.077 -15.402   2.788  1.00  0.00     0.031 C 
ATOM     39  C   UNL     1      -3.380 -13.530   8.139  1.00  0.00     0.029 A 
ATOM     40  C   UNL     1      -3.563 -14.878   7.626  1.00  0.00     0.049 A 
ATOM     41  H   UNL     1      -3.388 -15.466   5.623  1.00  0.00     0.167 HD
ATOM     42  C   UNL     1      -1.691 -16.950   1.815  1.00  0.00     0.031 A 
ATOM     43  C   UNL     1      -3.889 -16.023   8.275  1.00  0.00     0.031 A 
ATOM     44  C   UNL     1      -3.114 -16.933   1.604  1.00  0.00     0.049 A 
ATOM     45  C   UNL     1      -4.257 -17.033   7.256  1.00  0.00     0.074 A 
ATOM     46  C   UNL     1      -3.982 -16.110   0.915  1.00  0.00     0.029 A 
ATOM     47  N   UNL     1      -3.890 -17.660   2.474  1.00  0.00    -0.354 N 
ATOM     48  N   UNL     1      -5.339 -16.965   6.537  1.00  0.00    -0.248 NA
ATOM     49  C   UNL     1      -3.211 -17.893   6.723  1.00  0.00     0.031 C 
ATOM     50  C   UNL     1      -5.145 -16.036   1.734  1.00  0.00     0.029 A 
ATOM     51  C   UNL     1      -4.944 -16.864   2.840  1.00  0.00     0.049 A 
ATOM     52  H   UNL     1      -3.721 -18.581   2.777  1.00  0.00     0.167 HD
ATOM     53  C   UNL     1      -4.946 -17.378   5.273  1.00  0.00     0.074 A 
ATOM     54  C   UNL     1      -3.663 -18.048   5.475  1.00  0.00     0.031 C 
ATOM     55  C   UNL     1      -5.549 -16.881   4.152  1.00  0.00     0.031 A 
BRANCH  42  56
ATOM     56  C   UNL     1      -0.890 -18.224   1.768  1.00  0.00    -0.014 A 
ATOM     57  C   UNL     1      -1.405 -19.318   1.051  1.00  0.00     0.009 A 
ATOM     58  C   UNL     1       0.192 -18.483   2.631  1.00  0.00     0.009 A 
ATOM     59  C   UNL     1      -0.911 -20.613   1.249  1.00  0.00     0.001 A 
ATOM     60  C   UNL     1       0.715 -19.766   2.799  1.00  0.00     0.001 A 
ATOM     61  C   UNL     1       0.142 -20.837   2.130  1.00  0.00     0.000 A 
ENDBRANCH  42  56
BRANCH  43  62
ATOM     62  C   UNL     1      -3.643 -16.390   9.687  1.00  0.00    -0.014 A 
ATOM     63  C   UNL     1      -4.274 -17.509  10.256  1.00  0.00     0.009 A 
ATOM     64  C   UNL     1      -2.581 -15.807  10.403  1.00  0.00     0.009 A 
ATOM     65  C   UNL     1      -3.827 -18.050  11.469  1.00  0.00     0.001 A 
ATOM     66  C   UNL     1      -2.140 -16.341  11.617  1.00  0.00     0.001 A 
ATOM     67  C   UNL     1      -2.751 -17.475  12.141  1.00  0.00     0.000 A 
ENDBRANCH  43  62
BRANCH  55  68
ATOM     68  C   UNL     1      -6.796 -16.051   4.333  1.00  0.00    -0.014 A 
ATOM     69  C   UNL     1      -6.827 -14.869   5.096  1.00  0.00     0.009 A 
ATOM     70  C   UNL     1      -7.940 -16.393   3.598  1.00  0.00     0.009 A 
ATOM     71  C   UNL     1      -7.980 -14.081   5.156  1.00  0.00     0.001 A 
ATOM     72  C   UNL     1      -9.084 -15.594   3.638  1.00  0.00     0.001 A 
ATOM     73  C   UNL     1      -9.108 -14.443   4.424  1.00  0.00     0.000 A 
ENDBRANCH  55  68
ENDBRANCH  29  30
ENDBRANCH  22  24
ENDBRANCH  21  22
ENDBRANCH  20  21
ENDBRANCH   1  20
TORSDOF 14
