REMARK SMILES C[C@@H](C(=O)OCCOC(=O)c1ccc(-c2c3nc(c(-c4ccccc4)c4ccc([nH]4)c(-c4ccccc4)c4nc(c(-c5ccccc5)c5ccc2[nH]5)C=C4)C=C3)cc1)c1ccc(-c2cccc(OC(=O)Nc3ccccc3)c2)c(F)c1
REMARK SMILES IDX 5 1 3 2 4 3 2 4 1 5 59 6 60 7 81 8 61 9 79 10 62 11 80 12
REMARK SMILES IDX 63 13 64 14 78 15 65 16 67 17 66 18 68 19 69 20 70 21 71 22
REMARK SMILES IDX 72 24 73 25 77 26 74 27 76 28 75 29 6 30 7 31 8 32 9 33
REMARK SMILES IDX 10 34 11 35 12 36 58 37 13 38 57 39 14 40 15 41 16 42 51 43
REMARK SMILES IDX 17 44 56 45 50 46 52 47 18 48 55 49 49 50 48 51 19 53 41 54
REMARK SMILES IDX 26 55 40 56 27 57 30 58 39 59 53 60 28 61 29 62 38 64 54 65
REMARK SMILES IDX 31 66 20 67 21 68 25 69 22 70 24 71 23 72 42 73 43 74 47 75
REMARK SMILES IDX 44 76 46 77 45 78 32 79 33 80 37 81 34 82 36 83 35 84
REMARK H PARENT 71 23 52 52 30 63
REMARK Flexibility Score: inf
ROOT
ATOM      1  O   UNL     1       2.362  -0.338  -2.223  1.00  0.00    -0.462 OA
ENDROOT
BRANCH   1   2
ATOM      2  C   UNL     1       1.330   0.551  -2.229  1.00  0.00     0.313 C 
ATOM      3  O   UNL     1       0.791   0.972  -3.247  1.00  0.00    -0.252 OA
BRANCH   2   4
ATOM      4  C   UNL     1       0.942   1.010  -0.818  1.00  0.00     0.126 C 
ATOM      5  C   UNL     1       1.676   0.256   0.297  1.00  0.00     0.025 C 
BRANCH   4   6
ATOM      6  C   UNL     1      -0.574   1.007  -0.633  1.00  0.00    -0.031 A 
ATOM      7  C   UNL     1      -1.332   2.120  -1.029  1.00  0.00     0.005 A 
ATOM      8  C   UNL     1      -1.262  -0.104  -0.136  1.00  0.00     0.044 A 
ATOM      9  C   UNL     1      -2.734   2.116  -0.939  1.00  0.00     0.012 A 
ATOM     10  C   UNL     1      -2.657  -0.101  -0.055  1.00  0.00     0.131 A 
ATOM     11  C   UNL     1      -3.436   0.996  -0.463  1.00  0.00     0.018 A 
ATOM     12  F   UNL     1      -3.243  -1.235   0.362  1.00  0.00    -0.206 F 
BRANCH  11  13
ATOM     13  C   UNL     1      -4.918   0.950  -0.447  1.00  0.00    -0.012 A 
ATOM     14  C   UNL     1      -5.690   1.507  -1.484  1.00  0.00     0.009 A 
ATOM     15  C   UNL     1      -5.609   0.307   0.596  1.00  0.00     0.056 A 
ATOM     16  C   UNL     1      -7.086   1.402  -1.490  1.00  0.00     0.004 A 
ATOM     17  C   UNL     1      -6.998   0.175   0.574  1.00  0.00     0.133 A 
ATOM     18  C   UNL     1      -7.741   0.724  -0.467  1.00  0.00     0.047 A 
BRANCH  17  19
ATOM     19  O   UNL     1      -7.755  -0.458   1.591  1.00  0.00    -0.410 OA
BRANCH  19  20
ATOM     20  C   UNL     1      -7.233  -1.201   2.646  1.00  0.00     0.417 C 
ATOM     21  O   UNL     1      -6.055  -1.514   2.796  1.00  0.00    -0.224 OA
ATOM     22  N   UNL     1      -8.131  -1.515   3.632  1.00  0.00    -0.291 N 
ATOM     23  H   UNL     1      -7.721  -1.798   4.482  1.00  0.00     0.173 HD
BRANCH  22  24
ATOM     24  C   UNL     1      -9.532  -1.504   3.640  1.00  0.00     0.044 A 
ATOM     25  C   UNL     1     -10.156  -1.599   4.890  1.00  0.00     0.026 A 
ATOM     26  C   UNL     1     -10.319  -1.485   2.488  1.00  0.00     0.026 A 
ATOM     27  C   UNL     1     -11.548  -1.643   4.990  1.00  0.00     0.002 A 
ATOM     28  C   UNL     1     -11.713  -1.548   2.588  1.00  0.00     0.002 A 
ATOM     29  C   UNL     1     -12.327  -1.621   3.837  1.00  0.00     0.000 A 
ENDBRANCH  22  24
ENDBRANCH  19  20
ENDBRANCH  17  19
ENDBRANCH  11  13
ENDBRANCH   4   6
ENDBRANCH   2   4
ENDBRANCH   1   2
BRANCH   1  30
ATOM     30  C   UNL     1       2.794  -0.847  -3.502  1.00  0.00     0.274 C 
BRANCH  30  31
ATOM     31  C   UNL     1       2.306  -2.280  -3.690  1.00  0.00     0.275 C 
BRANCH  31  32
ATOM     32  O   UNL     1       0.874  -2.280  -3.814  1.00  0.00    -0.458 OA
BRANCH  32  33
ATOM     33  C   UNL     1       0.196  -2.969  -2.868  1.00  0.00     0.338 C 
ATOM     34  O   UNL     1       0.659  -3.634  -1.958  1.00  0.00    -0.246 OA
BRANCH  33  35
ATOM     35  C   UNL     1      -1.253  -2.799  -3.082  1.00  0.00     0.060 A 
ATOM     36  C   UNL     1      -1.797  -1.521  -3.179  1.00  0.00     0.016 A 
ATOM     37  C   UNL     1      -2.089  -3.916  -3.054  1.00  0.00     0.016 A 
ATOM     38  C   UNL     1      -3.181  -1.358  -3.142  1.00  0.00     0.010 A 
ATOM     39  C   UNL     1      -3.479  -3.747  -3.107  1.00  0.00     0.010 A 
ATOM     40  C   UNL     1      -4.048  -2.462  -3.098  1.00  0.00    -0.014 A 
BRANCH  40  41
ATOM     41  C   UNL     1      -5.526  -2.271  -2.970  1.00  0.00     0.031 A 
ATOM     42  C   UNL     1      -6.292  -2.937  -1.849  1.00  0.00     0.074 A 
ATOM     43  C   UNL     1      -6.200  -1.477  -3.827  1.00  0.00     0.049 A 
ATOM     44  N   UNL     1      -7.587  -3.092  -1.706  1.00  0.00    -0.248 NA
ATOM     45  C   UNL     1      -5.499  -3.541  -0.767  1.00  0.00     0.031 C 
ATOM     46  C   UNL     1      -5.613  -0.712  -4.928  1.00  0.00     0.029 A 
ATOM     47  N   UNL     1      -7.534  -1.149  -3.876  1.00  0.00    -0.354 N 
ATOM     48  C   UNL     1      -7.752  -3.895  -0.582  1.00  0.00     0.074 A 
ATOM     49  C   UNL     1      -6.430  -4.174  -0.067  1.00  0.00     0.031 C 
ATOM     50  C   UNL     1      -6.557   0.070  -5.474  1.00  0.00     0.029 A 
ATOM     51  C   UNL     1      -7.837  -0.216  -4.837  1.00  0.00     0.049 A 
ATOM     52  H   UNL     1      -8.209  -1.545  -3.278  1.00  0.00     0.167 HD
ATOM     53  C   UNL     1      -8.903  -4.368  -0.042  1.00  0.00     0.031 A 
ATOM     54  C   UNL     1      -9.013   0.338  -5.187  1.00  0.00     0.031 A 
ATOM     55  C   UNL     1     -10.220  -3.992  -0.491  1.00  0.00     0.049 A 
ATOM     56  C   UNL     1     -10.273  -0.122  -4.515  1.00  0.00     0.074 A 
ATOM     57  C   UNL     1     -11.451  -4.426  -0.029  1.00  0.00     0.029 A 
ATOM     58  N   UNL     1     -10.474  -3.041  -1.467  1.00  0.00    -0.354 N 
ATOM     59  N   UNL     1     -10.420  -0.991  -3.546  1.00  0.00    -0.248 NA
ATOM     60  C   UNL     1     -11.533   0.453  -5.009  1.00  0.00     0.031 C 
ATOM     61  C   UNL     1     -12.451  -3.745  -0.732  1.00  0.00     0.029 A 
ATOM     62  C   UNL     1     -11.840  -2.860  -1.603  1.00  0.00     0.049 A 
ATOM     63  H   UNL     1      -9.786  -2.565  -1.985  1.00  0.00     0.167 HD
ATOM     64  C   UNL     1     -11.787  -1.092  -3.335  1.00  0.00     0.074 A 
ATOM     65  C   UNL     1     -12.424  -0.152  -4.235  1.00  0.00     0.031 C 
ATOM     66  C   UNL     1     -12.457  -1.915  -2.495  1.00  0.00     0.031 A 
BRANCH  53  67
ATOM     67  C   UNL     1      -8.801  -5.375   1.074  1.00  0.00    -0.014 A 
ATOM     68  C   UNL     1      -8.395  -5.013   2.365  1.00  0.00     0.009 A 
ATOM     69  C   UNL     1      -9.183  -6.706   0.840  1.00  0.00     0.009 A 
ATOM     70  C   UNL     1      -8.356  -5.957   3.393  1.00  0.00     0.001 A 
ATOM     71  C   UNL     1      -9.167  -7.646   1.874  1.00  0.00     0.001 A 
ATOM     72  C   UNL     1      -8.749  -7.271   3.149  1.00  0.00     0.000 A 
ENDBRANCH  53  67
BRANCH  54  73
ATOM     73  C   UNL     1      -9.056   1.364  -6.260  1.00  0.00    -0.014 A 
ATOM     74  C   UNL     1      -9.332   2.704  -5.950  1.00  0.00     0.009 A 
ATOM     75  C   UNL     1      -8.803   1.012  -7.595  1.00  0.00     0.009 A 
ATOM     76  C   UNL     1      -9.359   3.670  -6.958  1.00  0.00     0.001 A 
ATOM     77  C   UNL     1      -8.800   1.985  -8.596  1.00  0.00     0.001 A 
ATOM     78  C   UNL     1      -9.084   3.312  -8.277  1.00  0.00     0.000 A 
ENDBRANCH  54  73
BRANCH  66  79
ATOM     79  C   UNL     1     -13.954  -1.826  -2.508  1.00  0.00    -0.014 A 
ATOM     80  C   UNL     1     -14.697  -2.419  -3.540  1.00  0.00     0.009 A 
ATOM     81  C   UNL     1     -14.627  -1.164  -1.471  1.00  0.00     0.009 A 
ATOM     82  C   UNL     1     -16.089  -2.326  -3.548  1.00  0.00     0.001 A 
ATOM     83  C   UNL     1     -16.021  -1.087  -1.474  1.00  0.00     0.001 A 
ATOM     84  C   UNL     1     -16.750  -1.662  -2.515  1.00  0.00     0.000 A 
ENDBRANCH  66  79
ENDBRANCH  40  41
ENDBRANCH  33  35
ENDBRANCH  32  33
ENDBRANCH  31  32
ENDBRANCH  30  31
ENDBRANCH   1  30
TORSDOF 16
