REMARK SMILES Cc1ccc(O[C@H](C)C(=O)Nc2ccsc2C(=O)OCCOC(=O)c2ccc(-c3c4nc(c(-c5ccccc5)c5ccc([nH]5)c(-c5ccccc5)c5nc(c(-c6ccccc6)c6ccc3[nH]6)C=C5)C=C4)cc2)cc1
REMARK SMILES IDX 20 1 19 2 17 3 18 4 16 5 12 6 13 7 14 8 15 9 11 10 9 11
REMARK SMILES IDX 10 12 7 14 8 15 6 16 5 17 1 18 2 19 3 20 74 21 4 22 73 23
REMARK SMILES IDX 21 24 22 25 23 26 24 27 25 28 26 29 72 30 27 31 71 32 28 33
REMARK SMILES IDX 29 34 30 35 65 36 31 37 70 38 64 39 66 40 32 41 69 42 63 43
REMARK SMILES IDX 62 44 33 46 55 47 40 48 54 49 41 50 44 51 53 52 67 53 42 54
REMARK SMILES IDX 43 55 52 57 68 58 45 59 34 60 35 61 39 62 36 63 38 64 37 65
REMARK SMILES IDX 56 66 57 67 61 68 58 69 60 70 59 71 46 72 47 73 51 74 48 75
REMARK SMILES IDX 50 76 49 77
REMARK H PARENT 11 13 66 45 44 56
REMARK Flexibility Score: inf
ROOT
ATOM      1  C   UNL     1      -2.718   5.989  -0.414  1.00  0.00     0.275 C 
ENDROOT
BRANCH   1   2
ATOM      2  O   UNL     1      -2.302   4.751   0.175  1.00  0.00    -0.458 OA
BRANCH   2   3
ATOM      3  C   UNL     1      -2.108   3.773  -0.758  1.00  0.00     0.350 C 
ATOM      4  O   UNL     1      -2.329   3.927  -1.958  1.00  0.00    -0.245 OA
BRANCH   3   5
ATOM      5  C   UNL     1      -1.646   2.515  -0.206  1.00  0.00     0.136 A 
ATOM      6  C   UNL     1      -1.907   1.280  -0.769  1.00  0.00     0.066 A 
ATOM      7  C   UNL     1      -1.119   0.241  -0.207  1.00  0.00     0.039 A 
ATOM      8  C   UNL     1      -0.432   0.680   0.903  1.00  0.00     0.068 A 
ATOM      9  S   UNL     1      -0.748   2.329   1.229  1.00  0.00    -0.135 S 
BRANCH   6  10
ATOM     10  N   UNL     1      -2.881   1.137  -1.750  1.00  0.00    -0.321 N 
ATOM     11  C   UNL     1      -4.214   1.252  -1.377  1.00  0.00     0.265 C 
ATOM     12  O   UNL     1      -4.995   1.847  -2.124  1.00  0.00    -0.270 OA
ATOM     13  H   UNL     1      -2.632   0.959  -2.686  1.00  0.00     0.170 HD
BRANCH  11  14
ATOM     14  C   UNL     1      -4.693   0.563  -0.071  1.00  0.00     0.259 C 
ATOM     15  C   UNL     1      -4.446  -0.926  -0.271  1.00  0.00     0.064 C 
BRANCH  14  16
ATOM     16  O   UNL     1      -4.211   1.262   1.077  1.00  0.00    -0.481 OA
BRANCH  16  17
ATOM     17  C   UNL     1      -3.829   0.769   2.287  1.00  0.00     0.120 A 
ATOM     18  C   UNL     1      -2.013  -0.286   6.085  1.00  0.00     0.044 C 
ATOM     19  C   UNL     1      -2.697   0.099   4.807  1.00  0.00    -0.051 A 
ATOM     20  C   UNL     1      -3.053  -0.887   3.887  1.00  0.00     0.007 A 
ATOM     21  C   UNL     1      -2.948   1.431   4.478  1.00  0.00     0.007 A 
ATOM     22  C   UNL     1      -3.626  -0.554   2.650  1.00  0.00     0.047 A 
ATOM     23  C   UNL     1      -3.515   1.756   3.236  1.00  0.00     0.047 A 
ENDBRANCH  16  17
ENDBRANCH  14  16
ENDBRANCH  11  14
ENDBRANCH   6  10
ENDBRANCH   3   5
ENDBRANCH   2   3
ENDBRANCH   1   2
BRANCH   1  24
ATOM     24  C   UNL     1      -2.393   7.211   0.453  1.00  0.00     0.275 C 
BRANCH  24  25
ATOM     25  O   UNL     1      -1.417   7.074   1.525  1.00  0.00    -0.458 OA
BRANCH  25  26
ATOM     26  C   UNL     1      -0.226   6.429   1.547  1.00  0.00     0.338 C 
ATOM     27  O   UNL     1       0.340   6.155   2.602  1.00  0.00    -0.246 OA
BRANCH  26  28
ATOM     28  C   UNL     1       0.365   6.011   0.268  1.00  0.00     0.060 A 
ATOM     29  C   UNL     1       1.029   4.778   0.195  1.00  0.00     0.016 A 
ATOM     30  C   UNL     1       0.187   6.785  -0.870  1.00  0.00     0.016 A 
ATOM     31  C   UNL     1       1.402   4.250  -1.032  1.00  0.00     0.010 A 
ATOM     32  C   UNL     1       0.426   6.221  -2.097  1.00  0.00     0.010 A 
ATOM     33  C   UNL     1       1.088   4.986  -2.167  1.00  0.00    -0.014 A 
BRANCH  33  34
ATOM     34  C   UNL     1       1.787   4.792  -3.421  1.00  0.00     0.031 A 
ATOM     35  C   UNL     1       1.384   3.770  -4.386  1.00  0.00     0.074 A 
ATOM     36  C   UNL     1       2.771   5.706  -3.572  1.00  0.00     0.049 A 
ATOM     37  N   UNL     1       2.201   3.206  -5.202  1.00  0.00    -0.248 NA
ATOM     38  C   UNL     1       0.023   3.241  -4.485  1.00  0.00     0.031 C 
ATOM     39  C   UNL     1       3.574   6.106  -4.707  1.00  0.00     0.029 A 
ATOM     40  N   UNL     1       3.346   6.402  -2.498  1.00  0.00    -0.354 N 
ATOM     41  C   UNL     1       1.426   2.588  -6.159  1.00  0.00     0.074 A 
ATOM     42  C   UNL     1       0.111   2.473  -5.579  1.00  0.00     0.031 C 
ATOM     43  C   UNL     1       4.685   6.716  -4.238  1.00  0.00     0.029 A 
ATOM     44  C   UNL     1       4.695   6.563  -2.782  1.00  0.00     0.049 A 
ATOM     45  H   UNL     1       2.879   6.719  -1.691  1.00  0.00     0.167 HD
ATOM     46  C   UNL     1       1.919   2.474  -7.423  1.00  0.00     0.031 A 
ATOM     47  C   UNL     1       5.568   5.801  -2.053  1.00  0.00     0.031 A 
ATOM     48  C   UNL     1       3.261   3.049  -7.497  1.00  0.00     0.049 A 
ATOM     49  C   UNL     1       6.247   4.750  -2.908  1.00  0.00     0.074 A 
ATOM     50  C   UNL     1       3.729   4.291  -7.895  1.00  0.00     0.029 A 
ATOM     51  N   UNL     1       4.266   2.484  -6.733  1.00  0.00    -0.354 N 
ATOM     52  N   UNL     1       5.809   4.351  -4.071  1.00  0.00    -0.248 NA
ATOM     53  C   UNL     1       7.435   4.019  -2.483  1.00  0.00     0.031 C 
ATOM     54  C   UNL     1       5.029   4.471  -7.338  1.00  0.00     0.029 A 
ATOM     55  C   UNL     1       5.346   3.337  -6.615  1.00  0.00     0.049 A 
ATOM     56  H   UNL     1       4.218   1.589  -6.326  1.00  0.00     0.167 HD
ATOM     57  C   UNL     1       6.651   3.407  -4.585  1.00  0.00     0.074 A 
ATOM     58  C   UNL     1       7.617   3.185  -3.522  1.00  0.00     0.031 C 
ATOM     59  C   UNL     1       6.490   2.886  -5.838  1.00  0.00     0.031 A 
BRANCH  46  60
ATOM     60  C   UNL     1       1.085   2.162  -8.637  1.00  0.00    -0.014 A 
ATOM     61  C   UNL     1       1.457   2.714  -9.879  1.00  0.00     0.009 A 
ATOM     62  C   UNL     1      -0.064   1.354  -8.635  1.00  0.00     0.009 A 
ATOM     63  C   UNL     1       0.696   2.530 -11.038  1.00  0.00     0.001 A 
ATOM     64  C   UNL     1      -0.844   1.181  -9.792  1.00  0.00     0.001 A 
ATOM     65  C   UNL     1      -0.467   1.775 -10.991  1.00  0.00     0.000 A 
ENDBRANCH  46  60
BRANCH  47  66
ATOM     66  C   UNL     1       5.185   5.591  -0.606  1.00  0.00    -0.014 A 
ATOM     67  C   UNL     1       4.813   6.707   0.182  1.00  0.00     0.009 A 
ATOM     68  C   UNL     1       4.951   4.318  -0.065  1.00  0.00     0.009 A 
ATOM     69  C   UNL     1       4.143   6.556   1.403  1.00  0.00     0.001 A 
ATOM     70  C   UNL     1       4.312   4.168   1.177  1.00  0.00     0.001 A 
ATOM     71  C   UNL     1       3.884   5.284   1.897  1.00  0.00     0.000 A 
ENDBRANCH  47  66
BRANCH  59  72
ATOM     72  C   UNL     1       7.388   1.848  -6.455  1.00  0.00    -0.014 A 
ATOM     73  C   UNL     1       8.746   1.720  -6.151  1.00  0.00     0.009 A 
ATOM     74  C   UNL     1       6.883   0.993  -7.460  1.00  0.00     0.009 A 
ATOM     75  C   UNL     1       9.521   0.705  -6.721  1.00  0.00     0.001 A 
ATOM     76  C   UNL     1       7.655  -0.003  -8.052  1.00  0.00     0.001 A 
ATOM     77  C   UNL     1       8.972  -0.165  -7.659  1.00  0.00     0.000 A 
ENDBRANCH  59  72
ENDBRANCH  33  34
ENDBRANCH  26  28
ENDBRANCH  25  26
ENDBRANCH  24  25
ENDBRANCH   1  24
TORSDOF 15
