REMARK SMILES O=C(OCCOC(=O)[C@@H]1CCCC[C@@H]1C(=O)Nc1cc(C(F)(F)F)cc(C(F)(F)F)c1)c1ccc(-c2c3nc(c(-c4ccccc4)c4ccc([nH]4)c(-c4ccccc4)c4nc(c(-c5ccccc5)c5ccc2[nH]5)C=C4)C=C3)cc1
REMARK SMILES IDX 5 1 4 2 3 3 2 4 1 5 32 6 33 7 79 8 34 9 78 10 35 11 36 12
REMARK SMILES IDX 37 13 72 14 38 15 77 16 71 17 73 18 39 19 76 20 70 21 69 22
REMARK SMILES IDX 40 24 62 25 47 26 61 27 48 28 51 29 60 30 74 31 49 32 50 33
REMARK SMILES IDX 59 35 75 36 52 37 41 38 42 39 46 40 43 41 45 42 44 43 63 44
REMARK SMILES IDX 64 45 68 46 65 47 67 48 66 49 53 50 54 51 58 52 55 53 57 54
REMARK SMILES IDX 56 55 6 56 7 57 8 58 9 59 10 60 14 61 11 62 13 63 12 64
REMARK SMILES IDX 15 65 16 66 17 67 18 69 19 70 31 71 20 72 26 73 25 74 21 75
REMARK SMILES IDX 22 76 23 77 24 78 27 79 28 80 29 81 30 82
REMARK H PARENT 73 23 51 34 17 68
REMARK Flexibility Score: inf
ROOT
ATOM      1  C   UNL     1       4.097  -1.968   0.619  1.00  0.00     0.274 C 
ENDROOT
BRANCH   1   2
ATOM      2  C   UNL     1       4.406  -0.739   1.477  1.00  0.00     0.275 C 
BRANCH   2   3
ATOM      3  O   UNL     1       3.430   0.308   1.344  1.00  0.00    -0.458 OA
BRANCH   3   4
ATOM      4  C   UNL     1       3.472   1.408   0.552  1.00  0.00     0.338 C 
ATOM      5  O   UNL     1       2.749   2.362   0.837  1.00  0.00    -0.246 OA
BRANCH   4   6
ATOM      6  C   UNL     1       4.200   1.458  -0.762  1.00  0.00     0.060 A 
ATOM      7  C   UNL     1       5.279   0.655  -1.152  1.00  0.00     0.016 A 
ATOM      8  C   UNL     1       3.637   2.305  -1.738  1.00  0.00     0.016 A 
ATOM      9  C   UNL     1       5.678   0.563  -2.491  1.00  0.00     0.010 A 
ATOM     10  C   UNL     1       4.013   2.196  -3.085  1.00  0.00     0.010 A 
ATOM     11  C   UNL     1       5.024   1.300  -3.476  1.00  0.00    -0.014 A 
BRANCH  11  12
ATOM     12  C   UNL     1       5.545   1.302  -4.865  1.00  0.00     0.031 A 
ATOM     13  C   UNL     1       6.200   2.571  -5.321  1.00  0.00     0.074 A 
ATOM     14  C   UNL     1       5.483   0.229  -5.681  1.00  0.00     0.049 A 
ATOM     15  N   UNL     1       6.707   2.877  -6.484  1.00  0.00    -0.248 NA
ATOM     16  C   UNL     1       6.256   3.661  -4.330  1.00  0.00     0.031 C 
ATOM     17  C   UNL     1       4.889  -1.069  -5.355  1.00  0.00     0.029 A 
ATOM     18  N   UNL     1       5.943   0.059  -6.967  1.00  0.00    -0.354 N 
ATOM     19  C   UNL     1       7.103   4.201  -6.362  1.00  0.00     0.074 A 
ATOM     20  C   UNL     1       6.678   4.668  -5.067  1.00  0.00     0.031 C 
ATOM     21  C   UNL     1       5.032  -1.902  -6.404  1.00  0.00     0.029 A 
ATOM     22  C   UNL     1       5.719  -1.199  -7.484  1.00  0.00     0.049 A 
ATOM     23  H   UNL     1       6.393   0.773  -7.473  1.00  0.00     0.167 HD
ATOM     24  C   UNL     1       7.819   4.955  -7.224  1.00  0.00     0.031 A 
ATOM     25  C   UNL     1       6.046  -1.715  -8.687  1.00  0.00     0.031 A 
ATOM     26  C   UNL     1       8.274   4.478  -8.492  1.00  0.00     0.049 A 
ATOM     27  C   UNL     1       6.806  -0.843  -9.661  1.00  0.00     0.074 A 
ATOM     28  C   UNL     1       9.018   5.140  -9.447  1.00  0.00     0.029 A 
ATOM     29  N   UNL     1       8.025   3.202  -8.976  1.00  0.00    -0.354 N 
ATOM     30  N   UNL     1       7.227   0.391  -9.512  1.00  0.00    -0.248 NA
ATOM     31  C   UNL     1       7.153  -1.440 -10.960  1.00  0.00     0.031 C 
ATOM     32  C   UNL     1       9.178   4.277 -10.535  1.00  0.00     0.029 A 
ATOM     33  C   UNL     1       8.585   3.060 -10.229  1.00  0.00     0.049 A 
ATOM     34  H   UNL     1       7.523   2.503  -8.497  1.00  0.00     0.167 HD
ATOM     35  C   UNL     1       7.917   0.705 -10.678  1.00  0.00     0.074 A 
ATOM     36  C   UNL     1       7.870  -0.474 -11.519  1.00  0.00     0.031 C 
ATOM     37  C   UNL     1       8.534   1.861 -11.026  1.00  0.00     0.031 A 
BRANCH  24  38
ATOM     38  C   UNL     1       8.104   6.361  -6.785  1.00  0.00    -0.014 A 
ATOM     39  C   UNL     1       8.942   6.624  -5.685  1.00  0.00     0.009 A 
ATOM     40  C   UNL     1       7.426   7.424  -7.394  1.00  0.00     0.009 A 
ATOM     41  C   UNL     1       9.025   7.912  -5.154  1.00  0.00     0.001 A 
ATOM     42  C   UNL     1       7.545   8.718  -6.885  1.00  0.00     0.001 A 
ATOM     43  C   UNL     1       8.325   8.956  -5.753  1.00  0.00     0.000 A 
ENDBRANCH  24  38
BRANCH  25  44
ATOM     44  C   UNL     1       5.687  -3.117  -9.056  1.00  0.00    -0.014 A 
ATOM     45  C   UNL     1       6.682  -4.091  -9.248  1.00  0.00     0.009 A 
ATOM     46  C   UNL     1       4.349  -3.478  -9.281  1.00  0.00     0.009 A 
ATOM     47  C   UNL     1       6.350  -5.377  -9.692  1.00  0.00     0.001 A 
ATOM     48  C   UNL     1       4.016  -4.772  -9.697  1.00  0.00     0.001 A 
ATOM     49  C   UNL     1       5.017  -5.716  -9.915  1.00  0.00     0.000 A 
ENDBRANCH  25  44
BRANCH  37  50
ATOM     50  C   UNL     1       9.247   1.900 -12.348  1.00  0.00    -0.014 A 
ATOM     51  C   UNL     1       8.539   1.958 -13.557  1.00  0.00     0.009 A 
ATOM     52  C   UNL     1      10.648   1.989 -12.370  1.00  0.00     0.009 A 
ATOM     53  C   UNL     1       9.225   2.087 -14.766  1.00  0.00     0.001 A 
ATOM     54  C   UNL     1      11.328   2.152 -13.576  1.00  0.00     0.001 A 
ATOM     55  C   UNL     1      10.616   2.195 -14.773  1.00  0.00     0.000 A 
ENDBRANCH  37  50
ENDBRANCH  11  12
ENDBRANCH   4   6
ENDBRANCH   3   4
ENDBRANCH   2   3
ENDBRANCH   1   2
BRANCH   1  56
ATOM     56  O   UNL     1       3.565  -1.603  -0.666  1.00  0.00    -0.462 OA
BRANCH  56  57
ATOM     57  C   UNL     1       2.326  -2.080  -0.976  1.00  0.00     0.309 C 
ATOM     58  O   UNL     1       1.693  -2.866  -0.276  1.00  0.00    -0.252 OA
BRANCH  57  59
ATOM     59  C   UNL     1       1.917  -1.646  -2.381  1.00  0.00     0.111 C 
ATOM     60  C   UNL     1       1.747  -0.150  -2.553  1.00  0.00     0.016 C 
ATOM     61  C   UNL     1       0.683  -2.389  -2.873  1.00  0.00     0.093 C 
ATOM     62  C   UNL     1       1.310   0.304  -3.944  1.00  0.00     0.001 C 
ATOM     63  C   UNL     1       0.405  -1.988  -4.337  1.00  0.00     0.014 C 
ATOM     64  C   UNL     1       0.141  -0.496  -4.484  1.00  0.00     0.001 C 
BRANCH  61  65
ATOM     65  C   UNL     1      -0.545  -2.174  -1.960  1.00  0.00     0.228 C 
ATOM     66  O   UNL     1      -0.618  -1.233  -1.167  1.00  0.00    -0.274 OA
ATOM     67  N   UNL     1      -1.660  -2.958  -2.110  1.00  0.00    -0.326 N 
ATOM     68  H   UNL     1      -2.408  -2.787  -1.493  1.00  0.00     0.169 HD
BRANCH  67  69
ATOM     69  C   UNL     1      -1.843  -3.974  -3.049  1.00  0.00     0.042 A 
ATOM     70  C   UNL     1      -2.958  -3.888  -3.873  1.00  0.00     0.039 A 
ATOM     71  C   UNL     1      -0.857  -4.925  -3.297  1.00  0.00     0.039 A 
ATOM     72  C   UNL     1      -3.006  -4.639  -5.055  1.00  0.00     0.058 A 
ATOM     73  C   UNL     1      -0.829  -5.612  -4.513  1.00  0.00     0.058 A 
ATOM     74  C   UNL     1      -1.917  -5.469  -5.386  1.00  0.00     0.026 A 
BRANCH  72  75
ATOM     75  C   UNL     1      -4.174  -4.453  -5.989  1.00  0.00     0.416 C 
ATOM     76  F   UNL     1      -5.370  -4.607  -5.358  1.00  0.00    -0.166 F 
ATOM     77  F   UNL     1      -4.197  -3.209  -6.541  1.00  0.00    -0.166 F 
ATOM     78  F   UNL     1      -4.178  -5.329  -7.029  1.00  0.00    -0.166 F 
ENDBRANCH  72  75
BRANCH  73  79
ATOM     79  C   UNL     1       0.400  -6.399  -4.901  1.00  0.00     0.416 C 
ATOM     80  F   UNL     1       0.205  -7.742  -4.857  1.00  0.00    -0.166 F 
ATOM     81  F   UNL     1       0.814  -6.113  -6.167  1.00  0.00    -0.166 F 
ATOM     82  F   UNL     1       1.476  -6.143  -4.103  1.00  0.00    -0.166 F 
ENDBRANCH  73  79
ENDBRANCH  67  69
ENDBRANCH  61  65
ENDBRANCH  57  59
ENDBRANCH  56  57
ENDBRANCH   1  56
TORSDOF 15
