REMARK SMILES NC(=O)c1ccc(NC(=O)Cc2ccccc2C(=O)OCCOC(=O)c2ccc(-c3c4nc(c(-c5ccccc5)c5ccc([nH]5)c(-c5ccccc5)c5nc(c(-c6ccccc6)c6ccc3[nH]6)C=C5)C=C4)cc2)cc1
REMARK SMILES IDX 21 1 20 2 18 3 19 4 17 5 12 6 13 7 14 8 16 9 15 10 11 11
REMARK SMILES IDX 9 12 8 13 10 15 7 16 4 17 5 18 75 19 6 20 74 21 2 22 1 23
REMARK SMILES IDX 3 26 22 27 23 28 24 29 25 30 26 31 27 32 73 33 28 34 72 35
REMARK SMILES IDX 29 36 30 37 31 38 66 39 32 40 71 41 65 42 67 43 33 44 70 45
REMARK SMILES IDX 64 46 63 47 34 49 56 50 41 51 55 52 42 53 45 54 54 55 68 56
REMARK SMILES IDX 43 57 44 58 53 60 69 61 46 62 35 63 36 64 40 65 37 66 39 67
REMARK SMILES IDX 38 68 57 69 58 70 62 71 59 72 61 73 60 74 47 75 48 76 52 77
REMARK SMILES IDX 49 78 51 79 50 80
REMARK H PARENT 8 14 1 24 1 25 67 48 45 59
REMARK Flexibility Score: inf
ROOT
ATOM      1  C   UNL     1       0.058  -2.216   7.234  1.00  0.00     0.275 C 
ENDROOT
BRANCH   1   2
ATOM      2  O   UNL     1      -0.091  -0.793   7.437  1.00  0.00    -0.458 OA
BRANCH   2   3
ATOM      3  C   UNL     1      -0.566  -0.107   6.366  1.00  0.00     0.338 C 
ATOM      4  O   UNL     1      -0.964  -0.609   5.332  1.00  0.00    -0.246 OA
BRANCH   3   5
ATOM      5  C   UNL     1      -0.548   1.368   6.572  1.00  0.00     0.063 A 
ATOM      6  C   UNL     1       0.546   2.083   7.094  1.00  0.00    -0.024 A 
ATOM      7  C   UNL     1       0.430   3.487   7.208  1.00  0.00     0.005 A 
ATOM      8  C   UNL     1      -0.701   4.167   6.752  1.00  0.00     0.000 A 
ATOM      9  C   UNL     1      -1.663   2.075   6.082  1.00  0.00     0.016 A 
ATOM     10  C   UNL     1      -1.745   3.461   6.176  1.00  0.00     0.001 A 
BRANCH   6  11
ATOM     11  C   UNL     1       1.851   1.436   7.511  1.00  0.00     0.136 C 
BRANCH  11  12
ATOM     12  C   UNL     1       3.094   2.107   6.946  1.00  0.00     0.228 C 
ATOM     13  N   UNL     1       3.360   2.194   5.608  1.00  0.00    -0.326 N 
ATOM     14  H   UNL     1       4.152   2.742   5.402  1.00  0.00     0.169 HD
ATOM     15  O   UNL     1       3.894   2.656   7.715  1.00  0.00    -0.274 OA
BRANCH  13  16
ATOM     16  C   UNL     1       2.740   1.664   4.465  1.00  0.00     0.041 A 
ATOM     17  C   UNL     1       1.405   0.853   2.129  1.00  0.00     0.039 A 
ATOM     18  C   UNL     1       1.266   0.125   3.306  1.00  0.00     0.016 A 
ATOM     19  C   UNL     1       2.272   1.945   2.087  1.00  0.00     0.016 A 
ATOM     20  C   UNL     1       1.963   0.511   4.456  1.00  0.00     0.027 A 
ATOM     21  C   UNL     1       2.938   2.343   3.254  1.00  0.00     0.027 A 
BRANCH  17  22
ATOM     22  C   UNL     1       0.607   0.451   0.955  1.00  0.00     0.248 C 
ATOM     23  N   UNL     1       1.308   0.214  -0.191  1.00  0.00    -0.366 N 
ATOM     24  H   UNL     1       0.835  -0.057  -1.010  1.00  0.00     0.159 HD
ATOM     25  H   UNL     1       2.287   0.315  -0.198  1.00  0.00     0.159 HD
ATOM     26  O   UNL     1      -0.604   0.302   1.020  1.00  0.00    -0.270 OA
ENDBRANCH  17  22
ENDBRANCH  13  16
ENDBRANCH  11  12
ENDBRANCH   6  11
ENDBRANCH   3   5
ENDBRANCH   2   3
ENDBRANCH   1   2
BRANCH   1  27
ATOM     27  C   UNL     1      -1.073  -3.015   7.878  1.00  0.00     0.275 C 
BRANCH  27  28
ATOM     28  O   UNL     1      -2.329  -2.717   7.246  1.00  0.00    -0.458 OA
BRANCH  28  29
ATOM     29  C   UNL     1      -3.125  -1.874   7.938  1.00  0.00     0.338 C 
ATOM     30  O   UNL     1      -2.927  -1.400   9.046  1.00  0.00    -0.246 OA
BRANCH  29  31
ATOM     31  C   UNL     1      -4.302  -1.521   7.137  1.00  0.00     0.060 A 
ATOM     32  C   UNL     1      -4.140  -0.643   6.072  1.00  0.00     0.016 A 
ATOM     33  C   UNL     1      -5.578  -1.893   7.547  1.00  0.00     0.016 A 
ATOM     34  C   UNL     1      -5.239  -0.024   5.495  1.00  0.00     0.010 A 
ATOM     35  C   UNL     1      -6.689  -1.371   6.876  1.00  0.00     0.010 A 
ATOM     36  C   UNL     1      -6.532  -0.394   5.873  1.00  0.00    -0.014 A 
BRANCH  36  37
ATOM     37  C   UNL     1      -7.710   0.266   5.250  1.00  0.00     0.031 A 
ATOM     38  C   UNL     1      -8.728   0.959   6.114  1.00  0.00     0.074 A 
ATOM     39  C   UNL     1      -7.864   0.261   3.910  1.00  0.00     0.049 A 
ATOM     40  N   UNL     1      -9.918   1.404   5.798  1.00  0.00    -0.248 NA
ATOM     41  C   UNL     1      -8.367   1.162   7.527  1.00  0.00     0.031 C 
ATOM     42  C   UNL     1      -6.918  -0.301   2.943  1.00  0.00     0.029 A 
ATOM     43  N   UNL     1      -8.877   0.757   3.127  1.00  0.00    -0.354 N 
ATOM     44  C   UNL     1     -10.473   1.873   6.984  1.00  0.00     0.074 A 
ATOM     45  C   UNL     1      -9.492   1.656   8.025  1.00  0.00     0.031 C 
ATOM     46  C   UNL     1      -7.370  -0.079   1.701  1.00  0.00     0.029 A 
ATOM     47  C   UNL     1      -8.688   0.536   1.785  1.00  0.00     0.049 A 
ATOM     48  H   UNL     1      -9.662   1.226   3.492  1.00  0.00     0.167 HD
ATOM     49  C   UNL     1     -11.694   2.424   7.184  1.00  0.00     0.031 A 
ATOM     50  C   UNL     1      -9.504   0.747   0.736  1.00  0.00     0.031 A 
ATOM     51  C   UNL     1     -12.646   2.669   6.132  1.00  0.00     0.049 A 
ATOM     52  C   UNL     1     -10.876   1.297   0.988  1.00  0.00     0.074 A 
ATOM     53  C   UNL     1     -13.908   3.231   6.222  1.00  0.00     0.029 A 
ATOM     54  N   UNL     1     -12.433   2.377   4.793  1.00  0.00    -0.354 N 
ATOM     55  N   UNL     1     -11.420   1.672   2.120  1.00  0.00    -0.248 NA
ATOM     56  C   UNL     1     -11.755   1.431  -0.181  1.00  0.00     0.031 C 
ATOM     57  C   UNL     1     -14.477   3.232   4.944  1.00  0.00     0.029 A 
ATOM     58  C   UNL     1     -13.548   2.726   4.049  1.00  0.00     0.049 A 
ATOM     59  H   UNL     1     -11.610   1.980   4.425  1.00  0.00     0.167 HD
ATOM     60  C   UNL     1     -12.700   2.101   1.800  1.00  0.00     0.074 A 
ATOM     61  C   UNL     1     -12.842   1.959   0.365  1.00  0.00     0.031 C 
ATOM     62  C   UNL     1     -13.671   2.569   2.622  1.00  0.00     0.031 A 
BRANCH  49  63
ATOM     63  C   UNL     1     -12.088   2.739   8.601  1.00  0.00    -0.014 A 
ATOM     64  C   UNL     1     -11.491   3.783   9.325  1.00  0.00     0.009 A 
ATOM     65  C   UNL     1     -13.089   1.973   9.222  1.00  0.00     0.009 A 
ATOM     66  C   UNL     1     -11.856   4.022  10.654  1.00  0.00     0.001 A 
ATOM     67  C   UNL     1     -13.474   2.234  10.538  1.00  0.00     0.001 A 
ATOM     68  C   UNL     1     -12.848   3.250  11.257  1.00  0.00     0.000 A 
ENDBRANCH  49  63
BRANCH  50  69
ATOM     69  C   UNL     1      -9.060   0.377  -0.633  1.00  0.00    -0.014 A 
ATOM     70  C   UNL     1      -8.799   1.368  -1.591  1.00  0.00     0.009 A 
ATOM     71  C   UNL     1      -8.867  -0.970  -0.982  1.00  0.00     0.009 A 
ATOM     72  C   UNL     1      -8.363   1.016  -2.871  1.00  0.00     0.001 A 
ATOM     73  C   UNL     1      -8.399  -1.317  -2.251  1.00  0.00     0.001 A 
ATOM     74  C   UNL     1      -8.154  -0.324  -3.197  1.00  0.00     0.000 A 
ENDBRANCH  50  69
BRANCH  62  75
ATOM     75  C   UNL     1     -14.959   2.993   1.976  1.00  0.00    -0.014 A 
ATOM     76  C   UNL     1     -15.867   2.049   1.471  1.00  0.00     0.009 A 
ATOM     77  C   UNL     1     -15.276   4.357   1.895  1.00  0.00     0.009 A 
ATOM     78  C   UNL     1     -17.054   2.468   0.867  1.00  0.00     0.001 A 
ATOM     79  C   UNL     1     -16.477   4.771   1.318  1.00  0.00     0.001 A 
ATOM     80  C   UNL     1     -17.360   3.827   0.796  1.00  0.00     0.000 A 
ENDBRANCH  62  75
ENDBRANCH  36  37
ENDBRANCH  29  31
ENDBRANCH  28  29
ENDBRANCH  27  28
ENDBRANCH   1  27
TORSDOF 15
