REMARK SMILES CCOC(=O)C1=NN(c2ccc(OC(F)(F)F)cc2)[C@@](C)(C(=O)OCCOC(=O)c2ccc(-c3c4nc(c(-c5ccccc5)c5ccc([nH]5)c(-c5ccccc5)c5nc(c(-c6ccccc6)c6ccc3[nH]6)C=C5)C=C4)cc2)C1
REMARK SMILES IDX 25 1 24 2 22 3 23 4 20 5 6 6 7 7 78 8 8 9 21 10 4 11 5 12
REMARK SMILES IDX 3 13 2 14 1 15 9 16 10 17 19 18 11 19 18 20 12 21 13 22
REMARK SMILES IDX 14 23 15 24 16 25 17 26 26 27 27 28 28 29 29 30 30 31 31 32
REMARK SMILES IDX 77 33 32 34 76 35 33 36 34 37 35 38 70 39 36 40 75 41 69 42
REMARK SMILES IDX 71 43 37 44 74 45 68 46 67 47 38 49 60 50 45 51 59 52 46 53
REMARK SMILES IDX 49 54 58 55 72 56 47 57 48 58 57 60 73 61 50 62 39 63 40 64
REMARK SMILES IDX 44 65 41 66 43 67 42 68 61 69 62 70 66 71 63 72 65 73 64 74
REMARK SMILES IDX 51 75 52 76 56 77 53 78 55 79 54 80
REMARK H PARENT 71 48 49 59
REMARK Flexibility Score: inf
ROOT
ATOM      1  C   UNL     1       6.350  -6.902   2.938  1.00  0.00     0.274 C 
ENDROOT
BRANCH   1   2
ATOM      2  O   UNL     1       5.077  -6.387   3.387  1.00  0.00    -0.460 OA
BRANCH   2   3
ATOM      3  C   UNL     1       5.026  -5.073   3.736  1.00  0.00     0.334 C 
ATOM      4  O   UNL     1       6.009  -4.334   3.776  1.00  0.00    -0.249 OA
BRANCH   3   5
ATOM      5  C   UNL     1       3.616  -4.580   4.121  1.00  0.00     0.163 C 
ATOM      6  C   UNL     1       2.407  -3.864   2.281  1.00  0.00     0.149 C 
ATOM      7  N   UNL     1       1.989  -5.074   2.469  1.00  0.00    -0.169 NA
ATOM      8  C   UNL     1       3.294  -3.292   3.332  1.00  0.00     0.108 C 
ATOM      9  N   UNL     1       2.541  -5.486   3.655  1.00  0.00    -0.248 N 
ATOM     10  C   UNL     1       3.637  -4.273   5.614  1.00  0.00     0.050 C 
BRANCH   6  11
ATOM     11  C   UNL     1       1.945  -3.018   1.127  1.00  0.00     0.354 C 
ATOM     12  O   UNL     1       2.412  -3.113   0.010  1.00  0.00    -0.245 OA
BRANCH  11  13
ATOM     13  O   UNL     1       0.971  -2.198   1.568  1.00  0.00    -0.461 OA
BRANCH  13  14
ATOM     14  C   UNL     1       0.340  -1.385   0.568  1.00  0.00     0.230 C 
ATOM     15  C   UNL     1       0.905   0.019   0.627  1.00  0.00     0.049 C 
ENDBRANCH  13  14
ENDBRANCH  11  13
ENDBRANCH   6  11
BRANCH   9  16
ATOM     16  C   UNL     1       2.041  -6.648   4.218  1.00  0.00     0.061 A 
ATOM     17  C   UNL     1       1.764  -7.760   3.408  1.00  0.00     0.032 A 
ATOM     18  C   UNL     1       1.678  -6.749   5.564  1.00  0.00     0.032 A 
ATOM     19  C   UNL     1       1.165  -8.916   3.921  1.00  0.00     0.049 A 
ATOM     20  C   UNL     1       1.064  -7.898   6.085  1.00  0.00     0.049 A 
ATOM     21  C   UNL     1       0.795  -8.987   5.263  1.00  0.00     0.129 A 
BRANCH  21  22
ATOM     22  O   UNL     1       0.180 -10.147   5.631  1.00  0.00    -0.406 OA
BRANCH  22  23
ATOM     23  C   UNL     1      -0.362 -10.212   6.939  1.00  0.00     0.573 C 
ATOM     24  F   UNL     1       0.612 -10.131   7.872  1.00  0.00    -0.132 F 
ATOM     25  F   UNL     1      -1.266  -9.231   7.147  1.00  0.00    -0.132 F 
ATOM     26  F   UNL     1      -0.989 -11.399   7.092  1.00  0.00    -0.132 F 
ENDBRANCH  22  23
ENDBRANCH  21  22
ENDBRANCH   9  16
ENDBRANCH   3   5
ENDBRANCH   2   3
ENDBRANCH   1   2
BRANCH   1  27
ATOM     27  C   UNL     1       6.404  -6.912   1.411  1.00  0.00     0.275 C 
BRANCH  27  28
ATOM     28  O   UNL     1       6.337  -5.553   0.960  1.00  0.00    -0.458 OA
BRANCH  28  29
ATOM     29  C   UNL     1       6.127  -5.366  -0.364  1.00  0.00     0.338 C 
ATOM     30  O   UNL     1       6.112  -6.230  -1.221  1.00  0.00    -0.246 OA
BRANCH  29  31
ATOM     31  C   UNL     1       5.888  -3.917  -0.611  1.00  0.00     0.060 A 
ATOM     32  C   UNL     1       5.703  -3.024   0.450  1.00  0.00     0.016 A 
ATOM     33  C   UNL     1       5.810  -3.439  -1.922  1.00  0.00     0.016 A 
ATOM     34  C   UNL     1       5.378  -1.691   0.212  1.00  0.00     0.010 A 
ATOM     35  C   UNL     1       5.564  -2.080  -2.160  1.00  0.00     0.010 A 
ATOM     36  C   UNL     1       5.330  -1.193  -1.095  1.00  0.00    -0.014 A 
BRANCH  36  37
ATOM     37  C   UNL     1       5.040   0.245  -1.340  1.00  0.00     0.031 A 
ATOM     38  C   UNL     1       3.852   0.656  -2.166  1.00  0.00     0.074 A 
ATOM     39  C   UNL     1       5.832   1.199  -0.808  1.00  0.00     0.049 A 
ATOM     40  N   UNL     1       3.549   1.841  -2.637  1.00  0.00    -0.248 NA
ATOM     41  C   UNL     1       2.880  -0.394  -2.507  1.00  0.00     0.031 C 
ATOM     42  C   UNL     1       6.985   0.964   0.064  1.00  0.00     0.029 A 
ATOM     43  N   UNL     1       5.778   2.567  -0.919  1.00  0.00    -0.354 N 
ATOM     44  C   UNL     1       2.387   1.667  -3.377  1.00  0.00     0.074 A 
ATOM     45  C   UNL     1       2.025   0.268  -3.275  1.00  0.00     0.031 C 
ATOM     46  C   UNL     1       7.497   2.143   0.446  1.00  0.00     0.029 A 
ATOM     47  C   UNL     1       6.773   3.214  -0.227  1.00  0.00     0.049 A 
ATOM     48  H   UNL     1       5.091   3.040  -1.443  1.00  0.00     0.167 HD
ATOM     49  C   UNL     1       1.691   2.586  -4.087  1.00  0.00     0.031 A 
ATOM     50  C   UNL     1       7.106   4.517  -0.175  1.00  0.00     0.031 A 
ATOM     51  C   UNL     1       2.024   3.983  -4.170  1.00  0.00     0.049 A 
ATOM     52  C   UNL     1       6.362   5.505  -1.022  1.00  0.00     0.074 A 
ATOM     53  C   UNL     1       1.379   4.984  -4.876  1.00  0.00     0.029 A 
ATOM     54  N   UNL     1       3.090   4.578  -3.516  1.00  0.00    -0.354 N 
ATOM     55  N   UNL     1       5.322   5.309  -1.793  1.00  0.00    -0.248 NA
ATOM     56  C   UNL     1       6.867   6.885  -1.022  1.00  0.00     0.031 C 
ATOM     57  C   UNL     1       2.070   6.184  -4.667  1.00  0.00     0.029 A 
ATOM     58  C   UNL     1       3.128   5.930  -3.810  1.00  0.00     0.049 A 
ATOM     59  H   UNL     1       3.726   4.108  -2.929  1.00  0.00     0.167 HD
ATOM     60  C   UNL     1       5.061   6.534  -2.389  1.00  0.00     0.074 A 
ATOM     61  C   UNL     1       6.030   7.475  -1.864  1.00  0.00     0.031 C 
ATOM     62  C   UNL     1       4.111   6.847  -3.301  1.00  0.00     0.031 A 
BRANCH  49  63
ATOM     63  C   UNL     1       0.514   2.095  -4.875  1.00  0.00    -0.014 A 
ATOM     64  C   UNL     1      -0.728   1.870  -4.264  1.00  0.00     0.009 A 
ATOM     65  C   UNL     1       0.645   1.891  -6.257  1.00  0.00     0.009 A 
ATOM     66  C   UNL     1      -1.814   1.428  -5.024  1.00  0.00     0.001 A 
ATOM     67  C   UNL     1      -0.445   1.464  -7.015  1.00  0.00     0.001 A 
ATOM     68  C   UNL     1      -1.672   1.228  -6.397  1.00  0.00     0.000 A 
ENDBRANCH  49  63
BRANCH  50  69
ATOM     69  C   UNL     1       8.260   4.949   0.650  1.00  0.00    -0.014 A 
ATOM     70  C   UNL     1       8.054   5.634   1.856  1.00  0.00     0.009 A 
ATOM     71  C   UNL     1       9.573   4.667   0.240  1.00  0.00     0.009 A 
ATOM     72  C   UNL     1       9.143   6.032   2.634  1.00  0.00     0.001 A 
ATOM     73  C   UNL     1      10.658   5.047   1.031  1.00  0.00     0.001 A 
ATOM     74  C   UNL     1      10.442   5.733   2.224  1.00  0.00     0.000 A 
ENDBRANCH  50  69
BRANCH  62  75
ATOM     75  C   UNL     1       4.089   8.261  -3.795  1.00  0.00    -0.014 A 
ATOM     76  C   UNL     1       4.987   8.682  -4.788  1.00  0.00     0.009 A 
ATOM     77  C   UNL     1       3.157   9.174  -3.281  1.00  0.00     0.009 A 
ATOM     78  C   UNL     1       4.966  10.002  -5.241  1.00  0.00     0.001 A 
ATOM     79  C   UNL     1       3.130  10.489  -3.746  1.00  0.00     0.001 A 
ATOM     80  C   UNL     1       4.038  10.903  -4.721  1.00  0.00     0.000 A 
ENDBRANCH  62  75
ENDBRANCH  36  37
ENDBRANCH  29  31
ENDBRANCH  28  29
ENDBRANCH  27  28
ENDBRANCH   1  27
TORSDOF 17
