REMARK SMILES CC(C)Cc1cc2c(cc1Cl)C=C(C(=O)OCCOC(=O)c1ccc(-c3c4nc(c(-c5ccccc5)c5ccc([nH]5)c(-c5ccccc5)c5nc(c(-c6ccccc6)c6ccc3[nH]6)C=C5)C=C4)cc1)[C@@H](C(F)(F)F)O2
REMARK SMILES IDX 17 1 16 2 14 3 15 4 13 5 5 6 6 7 10 8 7 9 9 10 11 11 8 12
REMARK SMILES IDX 75 13 12 14 70 15 4 16 2 17 1 18 3 19 71 20 72 21 73 22
REMARK SMILES IDX 74 23 18 24 19 25 20 26 21 27 22 28 23 29 69 30 24 31 68 32
REMARK SMILES IDX 25 33 26 34 27 35 62 36 28 37 67 38 61 39 63 40 29 41 66 42
REMARK SMILES IDX 60 43 59 44 30 46 52 47 37 48 51 49 38 50 41 51 50 52 64 53
REMARK SMILES IDX 39 54 40 55 49 57 65 58 42 59 31 60 32 61 36 62 33 63 35 64
REMARK SMILES IDX 34 65 53 66 54 67 58 68 55 69 57 70 56 71 43 72 44 73 48 74
REMARK SMILES IDX 45 75 47 76 46 77
REMARK H PARENT 63 45 41 56
REMARK Flexibility Score: inf
ROOT
ATOM      1  C   UNL     1      -4.024   5.503   6.683  1.00  0.00     0.275 C 
ENDROOT
BRANCH   1   2
ATOM      2  O   UNL     1      -3.640   4.505   5.711  1.00  0.00    -0.459 OA
BRANCH   2   3
ATOM      3  C   UNL     1      -3.926   4.808   4.423  1.00  0.00     0.338 C 
ATOM      4  O   UNL     1      -4.472   5.823   4.019  1.00  0.00    -0.246 OA
BRANCH   3   5
ATOM      5  C   UNL     1      -3.416   3.759   3.519  1.00  0.00     0.087 C 
ATOM      6  C   UNL     1      -1.409   1.266  -0.369  1.00  0.00    -0.025 A 
ATOM      7  C   UNL     1      -2.024   0.874   0.840  1.00  0.00     0.052 A 
ATOM      8  C   UNL     1      -1.289   2.636  -0.649  1.00  0.00     0.045 A 
ATOM      9  C   UNL     1      -2.493   1.824   1.750  1.00  0.00     0.128 A 
ATOM     10  C   UNL     1      -1.739   3.583   0.268  1.00  0.00     0.032 A 
ATOM     11  Cl  UNL     1      -0.612   3.230  -2.123  1.00  0.00    -0.084 Cl
ATOM     12  C   UNL     1      -2.343   3.175   1.461  1.00  0.00     0.019 A 
ATOM     13  O   UNL     1      -3.057   1.360   2.906  1.00  0.00    -0.475 OA
ATOM     14  C   UNL     1      -2.811   4.169   2.399  1.00  0.00     0.027 C 
ATOM     15  C   UNL     1      -3.699   2.312   3.809  1.00  0.00     0.316 C 
BRANCH   6  16
ATOM     16  C   UNL     1      -0.878   0.202  -1.304  1.00  0.00     0.040 C 
BRANCH  16  17
ATOM     17  C   UNL     1       0.662   0.097  -1.321  1.00  0.00    -0.013 C 
ATOM     18  C   UNL     1       1.230  -0.302   0.043  1.00  0.00     0.008 C 
ATOM     19  C   UNL     1       1.101  -0.907  -2.388  1.00  0.00     0.008 C 
ENDBRANCH  16  17
ENDBRANCH   6  16
BRANCH  15  20
ATOM     20  C   UNL     1      -5.216   2.057   3.817  1.00  0.00     0.430 C 
ATOM     21  F   UNL     1      -5.501   0.754   4.050  1.00  0.00    -0.167 F 
ATOM     22  F   UNL     1      -5.832   2.770   4.791  1.00  0.00    -0.167 F 
ATOM     23  F   UNL     1      -5.796   2.397   2.643  1.00  0.00    -0.167 F 
ENDBRANCH  15  20
ENDBRANCH   3   5
ENDBRANCH   2   3
ENDBRANCH   1   2
BRANCH   1  24
ATOM     24  C   UNL     1      -2.821   6.326   7.143  1.00  0.00     0.275 C 
BRANCH  24  25
ATOM     25  O   UNL     1      -2.320   7.125   6.056  1.00  0.00    -0.458 OA
BRANCH  25  26
ATOM     26  C   UNL     1      -1.082   6.808   5.610  1.00  0.00     0.338 C 
ATOM     27  O   UNL     1      -0.332   5.949   6.035  1.00  0.00    -0.246 OA
BRANCH  26  28
ATOM     28  C   UNL     1      -0.763   7.646   4.444  1.00  0.00     0.060 A 
ATOM     29  C   UNL     1       0.298   8.546   4.469  1.00  0.00     0.016 A 
ATOM     30  C   UNL     1      -1.474   7.442   3.267  1.00  0.00     0.016 A 
ATOM     31  C   UNL     1       0.616   9.261   3.306  1.00  0.00     0.010 A 
ATOM     32  C   UNL     1      -1.069   8.046   2.081  1.00  0.00     0.010 A 
ATOM     33  C   UNL     1      -0.045   9.001   2.089  1.00  0.00    -0.014 A 
BRANCH  33  34
ATOM     34  C   UNL     1       0.286   9.734   0.832  1.00  0.00     0.031 A 
ATOM     35  C   UNL     1      -0.792  10.477   0.075  1.00  0.00     0.074 A 
ATOM     36  C   UNL     1       1.538   9.697   0.331  1.00  0.00     0.049 A 
ATOM     37  N   UNL     1      -0.714  11.101  -1.075  1.00  0.00    -0.248 NA
ATOM     38  C   UNL     1      -2.143  10.487   0.661  1.00  0.00     0.031 C 
ATOM     39  C   UNL     1       2.666   8.971   0.917  1.00  0.00     0.029 A 
ATOM     40  N   UNL     1       2.075  10.293  -0.785  1.00  0.00    -0.354 N 
ATOM     41  C   UNL     1      -2.006  11.528  -1.364  1.00  0.00     0.074 A 
ATOM     42  C   UNL     1      -2.858  11.048  -0.302  1.00  0.00     0.031 C 
ATOM     43  C   UNL     1       3.771   9.218   0.197  1.00  0.00     0.029 A 
ATOM     44  C   UNL     1       3.424  10.074  -0.933  1.00  0.00     0.049 A 
ATOM     45  H   UNL     1       1.543  10.826  -1.419  1.00  0.00     0.167 HD
ATOM     46  C   UNL     1      -2.443  12.284  -2.399  1.00  0.00     0.031 A 
ATOM     47  C   UNL     1       4.291  10.513  -1.867  1.00  0.00     0.031 A 
ATOM     48  C   UNL     1      -1.586  12.833  -3.413  1.00  0.00     0.049 A 
ATOM     49  C   UNL     1       3.796  11.391  -2.982  1.00  0.00     0.074 A 
ATOM     50  C   UNL     1      -1.922  13.691  -4.446  1.00  0.00     0.029 A 
ATOM     51  N   UNL     1      -0.226  12.596  -3.510  1.00  0.00    -0.354 N 
ATOM     52  N   UNL     1       2.581  11.829  -3.205  1.00  0.00    -0.248 NA
ATOM     53  C   UNL     1       4.787  11.838  -3.973  1.00  0.00     0.031 C 
ATOM     54  C   UNL     1      -0.770  13.943  -5.192  1.00  0.00     0.029 A 
ATOM     55  C   UNL     1       0.291  13.282  -4.594  1.00  0.00     0.049 A 
ATOM     56  H   UNL     1       0.295  12.025  -2.900  1.00  0.00     0.167 HD
ATOM     57  C   UNL     1       2.663  12.612  -4.349  1.00  0.00     0.074 A 
ATOM     58  C   UNL     1       4.049  12.604  -4.767  1.00  0.00     0.031 C 
ATOM     59  C   UNL     1       1.674  13.273  -4.994  1.00  0.00     0.031 A 
BRANCH  46  60
ATOM     60  C   UNL     1      -3.912  12.600  -2.476  1.00  0.00    -0.014 A 
ATOM     61  C   UNL     1      -4.685  12.082  -3.528  1.00  0.00     0.009 A 
ATOM     62  C   UNL     1      -4.516  13.473  -1.558  1.00  0.00     0.009 A 
ATOM     63  C   UNL     1      -6.030  12.434  -3.660  1.00  0.00     0.001 A 
ATOM     64  C   UNL     1      -5.869  13.797  -1.673  1.00  0.00     0.001 A 
ATOM     65  C   UNL     1      -6.623  13.284  -2.728  1.00  0.00     0.000 A 
ENDBRANCH  46  60
BRANCH  47  66
ATOM     66  C   UNL     1       5.731  10.161  -1.749  1.00  0.00    -0.014 A 
ATOM     67  C   UNL     1       6.175   8.850  -1.980  1.00  0.00     0.009 A 
ATOM     68  C   UNL     1       6.662  11.130  -1.344  1.00  0.00     0.009 A 
ATOM     69  C   UNL     1       7.516   8.510  -1.785  1.00  0.00     0.001 A 
ATOM     70  C   UNL     1       8.007  10.794  -1.175  1.00  0.00     0.001 A 
ATOM     71  C   UNL     1       8.431   9.483  -1.385  1.00  0.00     0.000 A 
ENDBRANCH  47  66
BRANCH  59  72
ATOM     72  C   UNL     1       2.028  14.064  -6.219  1.00  0.00    -0.014 A 
ATOM     73  C   UNL     1       1.999  15.467  -6.174  1.00  0.00     0.009 A 
ATOM     74  C   UNL     1       2.242  13.424  -7.448  1.00  0.00     0.009 A 
ATOM     75  C   UNL     1       2.151  16.215  -7.342  1.00  0.00     0.001 A 
ATOM     76  C   UNL     1       2.417  14.176  -8.611  1.00  0.00     0.001 A 
ATOM     77  C   UNL     1       2.359  15.569  -8.559  1.00  0.00     0.000 A 
ENDBRANCH  59  72
ENDBRANCH  33  34
ENDBRANCH  26  28
ENDBRANCH  25  26
ENDBRANCH  24  25
ENDBRANCH   1  24
TORSDOF 14
