REMARK SMILES CCN1C(=O)[C@@H](CC(=O)Nc2cccc(C(=O)OCCOC(=O)c3ccc(-c4c5nc(c(-c6ccccc6)c6ccc([nH]6)c(-c6ccccc6)c6nc(c(-c7ccccc7)c7ccc4[nH]7)C=C6)C=C5)cc3)c2)S/C1=[NH+]\c1cc(Cl)c(O)c(Cl)c1
REMARK SMILES IDX 18 1 16 2 17 3 15 4 11 5 12 6 72 7 13 8 14 9 10 10 8 11 9 12
REMARK SMILES IDX 7 14 6 15 3 16 4 17 74 18 5 19 73 20 75 21 2 23 1 24 76 25
REMARK SMILES IDX 77 26 84 27 78 28 82 29 79 30 80 31 83 32 81 33 19 35 20 36
REMARK SMILES IDX 21 37 22 38 23 39 24 40 25 41 71 42 26 43 70 44 27 45 28 46
REMARK SMILES IDX 29 47 64 48 30 49 69 50 63 51 65 52 31 53 68 54 62 55 61 56
REMARK SMILES IDX 32 58 54 59 39 60 53 61 40 62 43 63 52 64 66 65 41 66 42 67
REMARK SMILES IDX 51 69 67 70 44 71 33 72 34 73 38 74 35 75 37 76 36 77 55 78
REMARK SMILES IDX 56 79 60 80 57 81 59 82 58 83 45 84 46 85 50 86 47 87 49 88
REMARK SMILES IDX 48 89
REMARK H PARENT 10 13 75 22 81 34 65 57 43 68
REMARK Flexibility Score: inf
ROOT
ATOM      1  O   UNL     1      -1.011   2.664   5.029  1.00  0.00    -0.458 OA
ENDROOT
BRANCH   1   2
ATOM      2  C   UNL     1      -0.371   3.509   4.194  1.00  0.00     0.338 C 
ATOM      3  O   UNL     1      -0.406   3.419   2.978  1.00  0.00    -0.246 OA
BRANCH   2   4
ATOM      4  C   UNL     1       0.556   4.483   4.787  1.00  0.00     0.062 A 
ATOM      5  C   UNL     1       2.922   4.497   5.073  1.00  0.00     0.042 A 
ATOM      6  C   UNL     1       3.008   5.781   4.538  1.00  0.00     0.026 A 
ATOM      7  C   UNL     1       1.689   3.917   5.344  1.00  0.00     0.041 A 
ATOM      8  C   UNL     1       1.842   6.437   4.158  1.00  0.00     0.003 A 
ATOM      9  C   UNL     1       0.619   5.768   4.234  1.00  0.00     0.016 A 
BRANCH   5  10
ATOM     10  N   UNL     1       4.093   3.775   5.291  1.00  0.00    -0.326 N 
ATOM     11  C   UNL     1       4.226   2.415   5.295  1.00  0.00     0.226 C 
ATOM     12  O   UNL     1       4.899   1.909   6.199  1.00  0.00    -0.275 OA
ATOM     13  H   UNL     1       4.909   4.299   5.458  1.00  0.00     0.169 HD
BRANCH  11  14
ATOM     14  C   UNL     1       3.834   1.568   4.061  1.00  0.00     0.128 C 
BRANCH  14  15
ATOM     15  C   UNL     1       2.494   1.680   3.325  1.00  0.00     0.183 C 
ATOM     16  N   UNL     1       1.232   0.661   1.545  1.00  0.00    -0.190 N 
ATOM     17  C   UNL     1       2.016   0.396   2.677  1.00  0.00     0.324 C 
ATOM     18  C   UNL     1       1.141   1.978   1.076  1.00  0.00     0.319 C 
ATOM     19  O   UNL     1       2.199  -0.711   3.176  1.00  0.00    -0.245 OA
ATOM     20  S   UNL     1       2.398   2.872   1.938  1.00  0.00    -0.022 SA
ATOM     21  N   UNL     1       0.285   2.372   0.159  1.00  0.00    -0.235 N 
ATOM     22  H   UNL     1      -0.151   1.649  -0.349  1.00  0.00     0.313 HD
BRANCH  16  23
ATOM     23  C   UNL     1       0.511  -0.455   0.948  1.00  0.00     0.243 C 
ATOM     24  C   UNL     1       1.056  -0.786  -0.428  1.00  0.00     0.054 C 
ENDBRANCH  16  23
BRANCH  21  25
ATOM     25  C   UNL     1      -0.115   3.742  -0.220  1.00  0.00     0.128 A 
ATOM     26  C   UNL     1      -1.935   3.942  -0.384  1.00  0.00     0.076 A 
ATOM     27  C   UNL     1       0.873   5.161   0.340  1.00  0.00     0.076 A 
ATOM     28  C   UNL     1      -2.895   5.438   0.225  1.00  0.00     0.088 A 
ATOM     29  C   UNL     1       0.096   6.674   0.976  1.00  0.00     0.088 A 
ATOM     30  Cl  UNL     1      -4.630   5.001  -0.163  1.00  0.00    -0.080 Cl
ATOM     31  C   UNL     1      -1.751   6.927   1.072  1.00  0.00     0.153 A 
ATOM     32  Cl  UNL     1       1.115   8.059   1.184  1.00  0.00    -0.080 Cl
BRANCH  31  33
ATOM     33  O   UNL     1      -1.938   8.111   1.768  1.00  0.00    -0.505 OA
ATOM     34  H   UNL     1      -2.805   8.427   1.929  1.00  0.00     0.293 HD
ENDBRANCH  31  33
ENDBRANCH  21  25
ENDBRANCH  14  15
ENDBRANCH  11  14
ENDBRANCH   5  10
ENDBRANCH   2   4
ENDBRANCH   1   2
BRANCH   1  35
ATOM     35  C   UNL     1      -1.869   1.738   4.313  1.00  0.00     0.275 C 
BRANCH  35  36
ATOM     36  C   UNL     1      -3.247   2.347   4.027  1.00  0.00     0.275 C 
BRANCH  36  37
ATOM     37  O   UNL     1      -3.159   3.380   3.037  1.00  0.00    -0.458 OA
BRANCH  37  38
ATOM     38  C   UNL     1      -2.928   4.624   3.509  1.00  0.00     0.338 C 
ATOM     39  O   UNL     1      -2.899   5.021   4.657  1.00  0.00    -0.246 OA
BRANCH  38  40
ATOM     40  C   UNL     1      -2.690   5.470   2.357  1.00  0.00     0.060 A 
ATOM     41  C   UNL     1      -1.409   5.149   1.258  1.00  0.00     0.016 A 
ATOM     42  C   UNL     1      -3.878   6.614   1.975  1.00  0.00     0.016 A 
ATOM     43  C   UNL     1      -1.376   6.134  -0.536  1.00  0.00     0.010 A 
ATOM     44  C   UNL     1      -3.898   7.506   0.487  1.00  0.00     0.010 A 
ATOM     45  C   UNL     1      -2.682   7.400  -0.760  1.00  0.00    -0.014 A 
BRANCH  45  46
ATOM     46  C   UNL     1      -2.573   8.694  -1.554  1.00  0.00     0.031 A 
ATOM     47  C   UNL     1      -2.889  10.120  -0.976  1.00  0.00     0.074 A 
ATOM     48  C   UNL     1      -2.163   8.604  -2.826  1.00  0.00     0.049 A 
ATOM     49  N   UNL     1      -2.923  11.289  -1.598  1.00  0.00    -0.248 NA
ATOM     50  C   UNL     1      -3.197  10.288   0.456  1.00  0.00     0.031 C 
ATOM     51  C   UNL     1      -1.828   7.357  -3.501  1.00  0.00     0.029 A 
ATOM     52  N   UNL     1      -1.966   9.572  -3.775  1.00  0.00    -0.354 N 
ATOM     53  C   UNL     1      -3.272  12.260  -0.640  1.00  0.00     0.074 A 
ATOM     54  C   UNL     1      -3.437  11.578   0.604  1.00  0.00     0.031 C 
ATOM     55  C   UNL     1      -1.393   7.634  -4.735  1.00  0.00     0.029 A 
ATOM     56  C   UNL     1      -1.582   9.058  -4.986  1.00  0.00     0.049 A 
ATOM     57  H   UNL     1      -2.087  10.535  -3.605  1.00  0.00     0.167 HD
ATOM     58  C   UNL     1      -3.477  13.597  -0.756  1.00  0.00     0.031 A 
ATOM     59  C   UNL     1      -1.485   9.635  -6.197  1.00  0.00     0.031 A 
ATOM     60  C   UNL     1      -3.365  14.300  -2.000  1.00  0.00     0.049 A 
ATOM     61  C   UNL     1      -1.825  11.086  -6.340  1.00  0.00     0.074 A 
ATOM     62  C   UNL     1      -3.561  15.645  -2.260  1.00  0.00     0.029 A 
ATOM     63  N   UNL     1      -3.041  13.694  -3.201  1.00  0.00    -0.354 N 
ATOM     64  N   UNL     1      -2.188  11.947  -5.420  1.00  0.00    -0.248 NA
ATOM     65  C   UNL     1      -1.755  11.639  -7.696  1.00  0.00     0.031 C 
ATOM     66  C   UNL     1      -3.433  15.836  -3.637  1.00  0.00     0.029 A 
ATOM     67  C   UNL     1      -3.063  14.631  -4.214  1.00  0.00     0.049 A 
ATOM     68  H   UNL     1      -2.828  12.740  -3.315  1.00  0.00     0.167 HD
ATOM     69  C   UNL     1      -2.369  13.152  -6.084  1.00  0.00     0.074 A 
ATOM     70  C   UNL     1      -2.058  12.910  -7.478  1.00  0.00     0.031 C 
ATOM     71  C   UNL     1      -2.753  14.354  -5.590  1.00  0.00     0.031 A 
BRANCH  58  72
ATOM     72  C   UNL     1      -3.921  14.386   0.465  1.00  0.00    -0.014 A 
ATOM     73  C   UNL     1      -3.069  14.629   1.556  1.00  0.00     0.009 A 
ATOM     74  C   UNL     1      -5.212  14.946   0.498  1.00  0.00     0.009 A 
ATOM     75  C   UNL     1      -3.506  15.382   2.655  1.00  0.00     0.001 A 
ATOM     76  C   UNL     1      -5.636  15.725   1.580  1.00  0.00     0.001 A 
ATOM     77  C   UNL     1      -4.786  15.936   2.663  1.00  0.00     0.000 A 
ENDBRANCH  58  72
BRANCH  59  78
ATOM     78  C   UNL     1      -1.145   8.785  -7.367  1.00  0.00    -0.014 A 
ATOM     79  C   UNL     1       0.075   8.936  -8.039  1.00  0.00     0.009 A 
ATOM     80  C   UNL     1      -2.019   7.757  -7.767  1.00  0.00     0.009 A 
ATOM     81  C   UNL     1       0.412   8.073  -9.084  1.00  0.00     0.001 A 
ATOM     82  C   UNL     1      -1.657   6.868  -8.777  1.00  0.00     0.001 A 
ATOM     83  C   UNL     1      -0.445   7.031  -9.440  1.00  0.00     0.000 A 
ENDBRANCH  59  78
BRANCH  71  84
ATOM     84  C   UNL     1      -2.790  15.505  -6.549  1.00  0.00    -0.014 A 
ATOM     85  C   UNL     1      -3.767  15.596  -7.550  1.00  0.00     0.009 A 
ATOM     86  C   UNL     1      -1.838  16.529  -6.421  1.00  0.00     0.009 A 
ATOM     87  C   UNL     1      -3.758  16.671  -8.439  1.00  0.00     0.001 A 
ATOM     88  C   UNL     1      -1.857  17.621  -7.285  1.00  0.00     0.001 A 
ATOM     89  C   UNL     1      -2.808  17.683  -8.302  1.00  0.00     0.000 A 
ENDBRANCH  71  84
ENDBRANCH  45  46
ENDBRANCH  38  40
ENDBRANCH  37  38
ENDBRANCH  36  37
ENDBRANCH  35  36
ENDBRANCH   1  35
TORSDOF 17
