REMARK SMILES COC[C@@H](C)CC(=O)N1CC(CC(=O)OCCOC(=O)c2ccc(-c3c4nc(c(-c5ccccc5)c5ccc([nH]5)c(-c5ccccc5)c5nc(c(-c6ccccc6)c6ccc3[nH]6)C=C5)C=C4)cc2)C1
REMARK SMILES IDX 15 1 13 2 14 3 12 4 11 5 7 6 8 7 9 8 10 9 69 10 6 11 4 12
REMARK SMILES IDX 5 13 3 14 2 15 1 16 16 17 17 18 18 19 19 20 20 21 21 22
REMARK SMILES IDX 22 23 68 24 23 25 67 26 24 27 25 28 26 29 61 30 27 31 66 32
REMARK SMILES IDX 60 33 62 34 28 35 65 36 59 37 58 38 29 40 51 41 36 42 50 43
REMARK SMILES IDX 37 44 40 45 49 46 63 47 38 48 39 49 48 51 64 52 41 53 30 54
REMARK SMILES IDX 31 55 35 56 32 57 34 58 33 59 52 60 53 61 57 62 54 63 56 64
REMARK SMILES IDX 55 65 42 66 43 67 47 68 44 69 46 70 45 71
REMARK H PARENT 62 39 40 50
REMARK Flexibility Score: inf
ROOT
ATOM      1  O   UNL     1       0.692   3.851  -3.993  1.00  0.00    -0.462 OA
ENDROOT
BRANCH   1   2
ATOM      2  C   UNL     1       1.338   4.995  -4.337  1.00  0.00     0.306 C 
ATOM      3  O   UNL     1       1.486   5.406  -5.480  1.00  0.00    -0.252 OA
BRANCH   2   4
ATOM      4  C   UNL     1       1.901   5.708  -3.123  1.00  0.00     0.130 C 
BRANCH   4   5
ATOM      5  C   UNL     1       0.967   5.731  -1.919  1.00  0.00     0.039 C 
ATOM      6  C   UNL     1       0.760   4.763   1.255  1.00  0.00     0.222 C 
ATOM      7  O   UNL     1       0.032   5.551   1.852  1.00  0.00    -0.275 OA
ATOM      8  N   UNL     1       1.304   5.017   0.015  1.00  0.00    -0.342 N 
ATOM      9  C   UNL     1       1.463   6.333  -0.604  1.00  0.00     0.125 C 
ATOM     10  C   UNL     1       0.824   4.391  -1.210  1.00  0.00     0.125 C 
BRANCH   6  11
ATOM     11  C   UNL     1       1.278   3.489   1.901  1.00  0.00     0.106 C 
BRANCH  11  12
ATOM     12  C   UNL     1       0.453   2.206   1.717  1.00  0.00     0.021 C 
ATOM     13  C   UNL     1       0.853   1.213   2.820  1.00  0.00     0.010 C 
BRANCH  12  14
ATOM     14  C   UNL     1       0.644   1.563   0.330  1.00  0.00     0.163 C 
BRANCH  14  15
ATOM     15  O   UNL     1       0.164   0.220   0.330  1.00  0.00    -0.384 OA
ATOM     16  C   UNL     1       1.129  -0.740  -0.074  1.00  0.00     0.194 C 
ENDBRANCH  14  15
ENDBRANCH  12  14
ENDBRANCH  11  12
ENDBRANCH   6  11
ENDBRANCH   4   5
ENDBRANCH   2   4
ENDBRANCH   1   2
BRANCH   1  17
ATOM     17  C   UNL     1       0.073   3.091  -5.050  1.00  0.00     0.274 C 
BRANCH  17  18
ATOM     18  C   UNL     1      -1.450   3.234  -5.005  1.00  0.00     0.275 C 
BRANCH  18  19
ATOM     19  O   UNL     1      -1.843   4.576  -5.341  1.00  0.00    -0.458 OA
BRANCH  19  20
ATOM     20  C   UNL     1      -2.090   5.386  -4.290  1.00  0.00     0.338 C 
ATOM     21  O   UNL     1      -2.080   5.090  -3.102  1.00  0.00    -0.246 OA
BRANCH  20  22
ATOM     22  C   UNL     1      -2.238   6.763  -4.772  1.00  0.00     0.060 A 
ATOM     23  C   UNL     1      -1.199   7.666  -4.531  1.00  0.00     0.016 A 
ATOM     24  C   UNL     1      -3.407   7.176  -5.412  1.00  0.00     0.016 A 
ATOM     25  C   UNL     1      -1.324   8.994  -4.921  1.00  0.00     0.010 A 
ATOM     26  C   UNL     1      -3.525   8.508  -5.819  1.00  0.00     0.010 A 
ATOM     27  C   UNL     1      -2.487   9.423  -5.571  1.00  0.00    -0.014 A 
BRANCH  27  28
ATOM     28  C   UNL     1      -2.610  10.837  -5.987  1.00  0.00     0.031 A 
ATOM     29  C   UNL     1      -3.502  11.771  -5.228  1.00  0.00     0.074 A 
ATOM     30  C   UNL     1      -1.900  11.279  -7.041  1.00  0.00     0.049 A 
ATOM     31  N   UNL     1      -3.795  13.020  -5.484  1.00  0.00    -0.248 NA
ATOM     32  C   UNL     1      -4.147  11.232  -4.021  1.00  0.00     0.031 C 
ATOM     33  C   UNL     1      -0.959  10.477  -7.824  1.00  0.00     0.029 A 
ATOM     34  N   UNL     1      -1.863  12.515  -7.635  1.00  0.00    -0.354 N 
ATOM     35  C   UNL     1      -4.671  13.413  -4.481  1.00  0.00     0.074 A 
ATOM     36  C   UNL     1      -4.873  12.267  -3.621  1.00  0.00     0.031 C 
ATOM     37  C   UNL     1      -0.435  11.243  -8.795  1.00  0.00     0.029 A 
ATOM     38  C   UNL     1      -1.040  12.570  -8.731  1.00  0.00     0.049 A 
ATOM     39  H   UNL     1      -2.378  13.287  -7.306  1.00  0.00     0.167 HD
ATOM     40  C   UNL     1      -5.255  14.622  -4.298  1.00  0.00     0.031 A 
ATOM     41  C   UNL     1      -0.822  13.568  -9.607  1.00  0.00     0.031 A 
ATOM     42  C   UNL     1      -5.056  15.757  -5.159  1.00  0.00     0.049 A 
ATOM     43  C   UNL     1      -1.553  14.868  -9.433  1.00  0.00     0.074 A 
ATOM     44  C   UNL     1      -5.591  17.029  -5.047  1.00  0.00     0.029 A 
ATOM     45  N   UNL     1      -4.264  15.754  -6.296  1.00  0.00    -0.354 N 
ATOM     46  N   UNL     1      -2.382  15.227  -8.484  1.00  0.00    -0.248 NA
ATOM     47  C   UNL     1      -1.326  15.895 -10.459  1.00  0.00     0.031 C 
ATOM     48  C   UNL     1      -5.161  17.782  -6.146  1.00  0.00     0.029 A 
ATOM     49  C   UNL     1      -4.322  16.992  -6.915  1.00  0.00     0.049 A 
ATOM     50  H   UNL     1      -3.738  14.986  -6.617  1.00  0.00     0.167 HD
ATOM     51  C   UNL     1      -2.770  16.524  -8.792  1.00  0.00     0.074 A 
ATOM     52  C   UNL     1      -2.070  16.895 -10.005  1.00  0.00     0.031 C 
ATOM     53  C   UNL     1      -3.632  17.334  -8.131  1.00  0.00     0.031 A 
BRANCH  40  54
ATOM     54  C   UNL     1      -6.199  14.760  -3.140  1.00  0.00    -0.014 A 
ATOM     55  C   UNL     1      -5.728  14.848  -1.821  1.00  0.00     0.009 A 
ATOM     56  C   UNL     1      -7.581  14.830  -3.376  1.00  0.00     0.009 A 
ATOM     57  C   UNL     1      -6.626  14.975  -0.758  1.00  0.00     0.001 A 
ATOM     58  C   UNL     1      -8.474  14.977  -2.314  1.00  0.00     0.001 A 
ATOM     59  C   UNL     1      -7.997  15.042  -1.006  1.00  0.00     0.000 A 
ENDBRANCH  40  54
BRANCH  41  60
ATOM     60  C   UNL     1       0.095  13.357 -10.755  1.00  0.00    -0.014 A 
ATOM     61  C   UNL     1       1.342  13.995 -10.799  1.00  0.00     0.009 A 
ATOM     62  C   UNL     1      -0.276  12.511 -11.813  1.00  0.00     0.009 A 
ATOM     63  C   UNL     1       2.195  13.801 -11.888  1.00  0.00     0.001 A 
ATOM     64  C   UNL     1       0.589  12.301 -12.887  1.00  0.00     0.001 A 
ATOM     65  C   UNL     1       1.821  12.951 -12.928  1.00  0.00     0.000 A 
ENDBRANCH  41  60
BRANCH  53  66
ATOM     66  C   UNL     1      -3.856  18.702  -8.708  1.00  0.00    -0.014 A 
ATOM     67  C   UNL     1      -4.653  18.881  -9.849  1.00  0.00     0.009 A 
ATOM     68  C   UNL     1      -3.289  19.825  -8.087  1.00  0.00     0.009 A 
ATOM     69  C   UNL     1      -4.856  20.158 -10.373  1.00  0.00     0.001 A 
ATOM     70  C   UNL     1      -3.512  21.103  -8.600  1.00  0.00     0.001 A 
ATOM     71  C   UNL     1      -4.288  21.268  -9.746  1.00  0.00     0.000 A 
ENDBRANCH  53  66
ENDBRANCH  27  28
ENDBRANCH  20  22
ENDBRANCH  19  20
ENDBRANCH  18  19
ENDBRANCH  17  18
ENDBRANCH   1  17
TORSDOF 16
