REMARK SMILES Cn1cc(SCC[C@H]2CCC[C@]2([NH2+]C2CC2)C(=O)OCCOC(=O)c2ccc(-c3c4nc(c(-c5ccccc5)c5ccc([nH]5)c(-c5ccccc5)c5nc(c(-c6ccccc6)c6ccc3[nH]6)C=C5)C=C4)cc2)cn1
REMARK SMILES IDX 20 1 19 2 17 3 18 4 12 5 8 6 9 7 10 8 11 9 7 10 6 11 5 12
REMARK SMILES IDX 4 13 1 14 2 15 3 16 74 17 73 18 13 19 14 22 15 23 16 24
REMARK SMILES IDX 21 25 22 26 23 27 24 28 25 29 26 30 72 31 27 32 71 33 28 34
REMARK SMILES IDX 29 35 30 36 65 37 31 38 70 39 64 40 66 41 32 42 69 43 63 44
REMARK SMILES IDX 62 45 33 47 55 48 40 49 54 50 41 51 44 52 53 53 67 54 42 55
REMARK SMILES IDX 43 56 52 58 68 59 45 60 34 61 35 62 39 63 36 64 38 65 37 66
REMARK SMILES IDX 56 67 57 68 61 69 58 70 60 71 59 72 46 73 47 74 51 75 48 76
REMARK SMILES IDX 50 77 49 78
REMARK H PARENT 13 20 13 21 66 46 44 57
REMARK Flexibility Score: inf
ROOT
ATOM      1  C   UNL     1       3.589  -1.568  -1.369  1.00  0.00     0.274 C 
ENDROOT
BRANCH   1   2
ATOM      2  O   UNL     1       2.705  -1.740  -0.243  1.00  0.00    -0.457 OA
BRANCH   2   3
ATOM      3  C   UNL     1       1.740  -0.783  -0.101  1.00  0.00     0.368 C 
ATOM      4  O   UNL     1       1.630   0.169  -0.868  1.00  0.00    -0.245 OA
BRANCH   3   5
ATOM      5  C   UNL     1       0.803  -1.036   1.144  1.00  0.00     0.197 C 
ATOM      6  C   UNL     1       0.613  -2.599   1.351  1.00  0.00     0.063 C 
ATOM      7  C   UNL     1      -0.364  -2.863   0.207  1.00  0.00     0.011 C 
ATOM      8  C   UNL     1      -1.435  -1.820   0.414  1.00  0.00     0.008 C 
ATOM      9  C   UNL     1      -0.663  -0.582   0.853  1.00  0.00     0.081 C 
BRANCH   6  10
ATOM     10  C   UNL     1       0.038  -3.052   2.726  1.00  0.00     0.022 C 
BRANCH  10  11
ATOM     11  C   UNL     1      -0.872  -4.309   2.772  1.00  0.00     0.075 C 
BRANCH  11  12
ATOM     12  S   UNL     1      -0.070  -5.926   2.572  1.00  0.00    -0.123 SA
BRANCH  12  13
ATOM     13  C   UNL     1      -0.328  -6.442   0.926  1.00  0.00     0.045 A 
ATOM     14  C   UNL     1      -1.134  -6.162  -2.533  1.00  0.00     0.173 C 
ATOM     15  N   UNL     1      -0.801  -6.609  -1.200  1.00  0.00    -0.275 N 
ATOM     16  C   UNL     1      -1.276  -6.109  -0.015  1.00  0.00     0.123 A 
ATOM     17  N   UNL     1       0.187  -7.506  -1.030  1.00  0.00    -0.181 NA
ATOM     18  C   UNL     1       0.486  -7.387   0.267  1.00  0.00     0.150 A 
ENDBRANCH  12  13
ENDBRANCH  11  12
ENDBRANCH  10  11
ENDBRANCH   6  10
BRANCH   5  19
ATOM     19  N   UNL     1       1.356  -0.296   2.295  1.00  0.00    -0.329 N 
ATOM     20  H   UNL     1       2.214  -0.775   2.571  1.00  0.00     0.347 HD
ATOM     21  H   UNL     1       0.591  -0.295   2.969  1.00  0.00     0.347 HD
BRANCH  19  22
ATOM     22  C   UNL     1       1.692   1.140   2.147  1.00  0.00     0.183 C 
ATOM     23  C   UNL     1       1.165   2.116   1.126  1.00  0.00     0.071 C 
ATOM     24  C   UNL     1       0.650   2.171   2.524  1.00  0.00     0.071 C 
ENDBRANCH  19  22
ENDBRANCH   5  19
ENDBRANCH   3   5
ENDBRANCH   2   3
ENDBRANCH   1   2
BRANCH   1  25
ATOM     25  C   UNL     1       3.046  -2.251  -2.629  1.00  0.00     0.275 C 
BRANCH  25  26
ATOM     26  O   UNL     1       1.772  -1.690  -2.995  1.00  0.00    -0.458 OA
BRANCH  26  27
ATOM     27  C   UNL     1       0.910  -2.527  -3.619  1.00  0.00     0.338 C 
ATOM     28  O   UNL     1       1.140  -3.668  -3.984  1.00  0.00    -0.246 OA
BRANCH  27  29
ATOM     29  C   UNL     1      -0.432  -1.903  -3.753  1.00  0.00     0.060 A 
ATOM     30  C   UNL     1      -0.875  -0.938  -2.853  1.00  0.00     0.016 A 
ATOM     31  C   UNL     1      -1.319  -2.383  -4.719  1.00  0.00     0.016 A 
ATOM     32  C   UNL     1      -2.212  -0.538  -2.840  1.00  0.00     0.010 A 
ATOM     33  C   UNL     1      -2.638  -1.906  -4.767  1.00  0.00     0.010 A 
ATOM     34  C   UNL     1      -3.114  -1.004  -3.803  1.00  0.00    -0.014 A 
BRANCH  34  35
ATOM     35  C   UNL     1      -4.538  -0.556  -3.796  1.00  0.00     0.031 A 
ATOM     36  C   UNL     1      -5.663  -1.560  -3.760  1.00  0.00     0.074 A 
ATOM     37  C   UNL     1      -4.840   0.759  -3.816  1.00  0.00     0.049 A 
ATOM     38  N   UNL     1      -6.942  -1.377  -3.980  1.00  0.00    -0.248 NA
ATOM     39  C   UNL     1      -5.307  -2.951  -3.437  1.00  0.00     0.031 C 
ATOM     40  C   UNL     1      -3.873   1.859  -3.777  1.00  0.00     0.029 A 
ATOM     41  N   UNL     1      -6.057   1.395  -3.871  1.00  0.00    -0.354 N 
ATOM     42  C   UNL     1      -7.531  -2.632  -3.885  1.00  0.00     0.074 A 
ATOM     43  C   UNL     1      -6.473  -3.570  -3.573  1.00  0.00     0.031 C 
ATOM     44  C   UNL     1      -4.531   3.026  -3.766  1.00  0.00     0.029 A 
ATOM     45  C   UNL     1      -5.956   2.764  -3.917  1.00  0.00     0.049 A 
ATOM     46  H   UNL     1      -6.917   0.916  -3.878  1.00  0.00     0.167 HD
ATOM     47  C   UNL     1      -8.832  -2.973  -4.054  1.00  0.00     0.031 A 
ATOM     48  C   UNL     1      -6.887   3.714  -4.125  1.00  0.00     0.031 A 
ATOM     49  C   UNL     1      -9.891  -2.037  -4.331  1.00  0.00     0.049 A 
ATOM     50  C   UNL     1      -8.304   3.309  -4.391  1.00  0.00     0.074 A 
ATOM     51  C   UNL     1     -11.239  -2.291  -4.526  1.00  0.00     0.029 A 
ATOM     52  N   UNL     1      -9.726  -0.666  -4.437  1.00  0.00    -0.354 N 
ATOM     53  N   UNL     1      -8.830   2.110  -4.399  1.00  0.00    -0.248 NA
ATOM     54  C   UNL     1      -9.249   4.389  -4.709  1.00  0.00     0.031 C 
ATOM     55  C   UNL     1     -11.882  -1.076  -4.788  1.00  0.00     0.029 A 
ATOM     56  C   UNL     1     -10.943  -0.062  -4.710  1.00  0.00     0.049 A 
ATOM     57  H   UNL     1      -8.870  -0.191  -4.333  1.00  0.00     0.167 HD
ATOM     58  C   UNL     1     -10.168   2.288  -4.721  1.00  0.00     0.074 A 
ATOM     59  C   UNL     1     -10.377   3.714  -4.877  1.00  0.00     0.031 C 
ATOM     60  C   UNL     1     -11.134   1.353  -4.878  1.00  0.00     0.031 A 
BRANCH  47  61
ATOM     61  C   UNL     1      -9.187  -4.433  -3.998  1.00  0.00    -0.014 A 
ATOM     62  C   UNL     1      -9.268  -5.125  -2.780  1.00  0.00     0.009 A 
ATOM     63  C   UNL     1      -9.510  -5.109  -5.186  1.00  0.00     0.009 A 
ATOM     64  C   UNL     1      -9.647  -6.470  -2.758  1.00  0.00     0.001 A 
ATOM     65  C   UNL     1      -9.909  -6.446  -5.158  1.00  0.00     0.001 A 
ATOM     66  C   UNL     1      -9.972  -7.127  -3.945  1.00  0.00     0.000 A 
ENDBRANCH  47  61
BRANCH  48  67
ATOM     67  C   UNL     1      -6.477   5.141  -4.175  1.00  0.00    -0.014 A 
ATOM     68  C   UNL     1      -6.830   6.022  -3.144  1.00  0.00     0.009 A 
ATOM     69  C   UNL     1      -5.696   5.617  -5.242  1.00  0.00     0.009 A 
ATOM     70  C   UNL     1      -6.411   7.353  -3.182  1.00  0.00     0.001 A 
ATOM     71  C   UNL     1      -5.253   6.940  -5.261  1.00  0.00     0.001 A 
ATOM     72  C   UNL     1      -5.615   7.808  -4.233  1.00  0.00     0.000 A 
ENDBRANCH  48  67
BRANCH  60  73
ATOM     73  C   UNL     1     -12.508   1.852  -5.218  1.00  0.00    -0.014 A 
ATOM     74  C   UNL     1     -12.816   2.297  -6.512  1.00  0.00     0.009 A 
ATOM     75  C   UNL     1     -13.505   1.871  -4.231  1.00  0.00     0.009 A 
ATOM     76  C   UNL     1     -14.091   2.784  -6.804  1.00  0.00     0.001 A 
ATOM     77  C   UNL     1     -14.785   2.339  -4.532  1.00  0.00     0.001 A 
ATOM     78  C   UNL     1     -15.074   2.804  -5.814  1.00  0.00     0.000 A 
ENDBRANCH  60  73
ENDBRANCH  34  35
ENDBRANCH  27  29
ENDBRANCH  26  27
ENDBRANCH  25  26
ENDBRANCH   1  25
TORSDOF 17
