REMARK SMILES Cc1ccc(NC(=O)c2ccccc2NC(=O)[C@H]2CCCC[C@H]2C(=O)OCCOC(=O)c2ccc(-c3c4nc(c(-c5ccccc5)c5ccc([nH]5)c(-c5ccccc5)c5nc(c(-c6ccccc6)c6ccc3[nH]6)C=C5)C=C4)cc2)cc1
REMARK SMILES IDX 27 1 26 2 24 3 25 4 23 5 18 6 19 7 20 8 22 9 21 10 16 11
REMARK SMILES IDX 15 12 17 14 14 15 9 16 10 17 11 18 13 19 12 20 7 21 6 22
REMARK SMILES IDX 8 24 5 25 1 26 2 27 3 28 81 29 4 30 80 31 28 32 29 33 30 34
REMARK SMILES IDX 31 35 32 36 33 37 79 38 34 39 78 40 35 41 36 42 37 43 72 44
REMARK SMILES IDX 38 45 77 46 71 47 73 48 39 49 76 50 70 51 69 52 40 54 62 55
REMARK SMILES IDX 47 56 61 57 48 58 51 59 60 60 74 61 49 62 50 63 59 65 75 66
REMARK SMILES IDX 52 67 41 68 42 69 46 70 43 71 45 72 44 73 63 74 64 75 68 76
REMARK SMILES IDX 65 77 67 78 66 79 53 80 54 81 58 82 55 83 57 84 56 85
REMARK H PARENT 15 13 6 23 73 53 51 64
REMARK Flexibility Score: inf
ROOT
ATOM      1  C   UNL     1      -0.792   2.302   7.131  1.00  0.00     0.274 C 
ENDROOT
BRANCH   1   2
ATOM      2  O   UNL     1      -0.690   0.872   7.047  1.00  0.00    -0.462 OA
BRANCH   2   3
ATOM      3  C   UNL     1      -1.724   0.171   6.284  1.00  0.00     0.309 C 
ATOM      4  O   UNL     1      -2.757   0.873   6.476  1.00  0.00    -0.252 OA
BRANCH   3   5
ATOM      5  C   UNL     1      -1.377  -1.659   5.107  1.00  0.00     0.111 C 
ATOM      6  C   UNL     1      -0.286  -2.002   3.743  1.00  0.00     0.093 C 
ATOM      7  C   UNL     1      -0.363  -3.363   3.023  1.00  0.00     0.014 C 
ATOM      8  C   UNL     1      -0.226  -4.554   3.939  1.00  0.00     0.001 C 
ATOM      9  C   UNL     1      -1.640  -3.391   5.653  1.00  0.00     0.016 C 
ATOM     10  C   UNL     1      -1.480  -4.608   4.750  1.00  0.00     0.001 C 
BRANCH   6  11
ATOM     11  C   UNL     1       1.198  -1.786   3.941  1.00  0.00     0.228 C 
ATOM     12  N   UNL     1       1.848  -0.772   3.303  1.00  0.00    -0.325 N 
ATOM     13  H   UNL     1       2.754  -0.658   3.672  1.00  0.00     0.169 HD
ATOM     14  O   UNL     1       1.813  -2.417   4.807  1.00  0.00    -0.274 OA
BRANCH  12  15
ATOM     15  C   UNL     1       1.612   0.163   2.272  1.00  0.00     0.054 A 
ATOM     16  C   UNL     1       2.495   1.264   2.133  1.00  0.00     0.063 A 
ATOM     17  C   UNL     1       2.143   2.316   1.256  1.00  0.00     0.016 A 
ATOM     18  C   UNL     1       0.975   2.274   0.499  1.00  0.00     0.001 A 
ATOM     19  C   UNL     1       0.515   0.087   1.401  1.00  0.00     0.027 A 
ATOM     20  C   UNL     1       0.173   1.149   0.558  1.00  0.00     0.002 A 
BRANCH  16  21
ATOM     21  C   UNL     1       3.708   1.542   2.971  1.00  0.00     0.257 C 
ATOM     22  N   UNL     1       4.561   0.599   3.510  1.00  0.00    -0.322 N 
ATOM     23  H   UNL     1       5.166   0.975   4.189  1.00  0.00     0.170 HD
ATOM     24  O   UNL     1       3.909   2.716   3.300  1.00  0.00    -0.269 OA
BRANCH  22  25
ATOM     25  C   UNL     1       4.757  -0.778   3.306  1.00  0.00     0.041 A 
ATOM     26  C   UNL     1       3.981  -4.996   3.408  1.00  0.00     0.044 C 
ATOM     27  C   UNL     1       4.413  -3.560   3.330  1.00  0.00    -0.051 A 
ATOM     28  C   UNL     1       4.215  -2.828   2.152  1.00  0.00     0.005 A 
ATOM     29  C   UNL     1       4.902  -2.902   4.464  1.00  0.00     0.005 A 
ATOM     30  C   UNL     1       4.405  -1.441   2.132  1.00  0.00     0.026 A 
ATOM     31  C   UNL     1       5.096  -1.519   4.447  1.00  0.00     0.026 A 
ENDBRANCH  22  25
ENDBRANCH  16  21
ENDBRANCH  12  15
ENDBRANCH   6  11
ENDBRANCH   3   5
ENDBRANCH   2   3
ENDBRANCH   1   2
BRANCH   1  32
ATOM     32  C   UNL     1      -0.411   2.929   5.781  1.00  0.00     0.275 C 
BRANCH  32  33
ATOM     33  O   UNL     1      -1.387   2.813   4.693  1.00  0.00    -0.458 OA
BRANCH  33  34
ATOM     34  C   UNL     1      -1.592   1.810   3.792  1.00  0.00     0.338 C 
ATOM     35  O   UNL     1      -2.097   2.001   2.694  1.00  0.00    -0.246 OA
BRANCH  34  36
ATOM     36  C   UNL     1      -1.486   0.412   4.272  1.00  0.00     0.060 A 
ATOM     37  C   UNL     1      -3.058  -0.318   4.732  1.00  0.00     0.016 A 
ATOM     38  C   UNL     1      -0.002  -0.007   5.167  1.00  0.00     0.016 A 
ATOM     39  C   UNL     1      -3.142  -1.329   6.238  1.00  0.00     0.010 A 
ATOM     40  C   UNL     1      -0.050  -1.094   6.598  1.00  0.00     0.010 A 
ATOM     41  C   UNL     1      -1.646  -1.617   7.219  1.00  0.00    -0.014 A 
BRANCH  41  42
ATOM     42  C   UNL     1      -1.629  -1.781   8.659  1.00  0.00     0.031 A 
ATOM     43  C   UNL     1      -0.862  -2.914   9.206  1.00  0.00     0.074 A 
ATOM     44  C   UNL     1      -2.171  -0.779   9.391  1.00  0.00     0.049 A 
ATOM     45  N   UNL     1      -1.236  -3.583  10.239  1.00  0.00    -0.248 NA
ATOM     46  C   UNL     1       0.321  -3.507   8.562  1.00  0.00     0.031 C 
ATOM     47  C   UNL     1      -2.078  -0.544  10.825  1.00  0.00     0.029 A 
ATOM     48  N   UNL     1      -3.056   0.220   8.985  1.00  0.00    -0.354 N 
ATOM     49  C   UNL     1      -0.175  -4.394  10.579  1.00  0.00     0.074 A 
ATOM     50  C   UNL     1       0.622  -4.503   9.395  1.00  0.00     0.031 C 
ATOM     51  C   UNL     1      -3.099   0.258  11.194  1.00  0.00     0.029 A 
ATOM     52  C   UNL     1      -3.934   0.488  10.022  1.00  0.00     0.049 A 
ATOM     53  H   UNL     1      -3.056   0.662   8.105  1.00  0.00     0.167 HD
ATOM     54  C   UNL     1       0.053  -4.666  11.892  1.00  0.00     0.031 A 
ATOM     55  C   UNL     1      -5.266   0.208   9.895  1.00  0.00     0.031 A 
ATOM     56  C   UNL     1      -0.992  -4.047  12.709  1.00  0.00     0.049 A 
ATOM     57  C   UNL     1      -5.613  -0.965  10.788  1.00  0.00     0.074 A 
ATOM     58  C   UNL     1      -1.029  -2.862  13.426  1.00  0.00     0.029 A 
ATOM     59  N   UNL     1      -2.315  -4.413  12.488  1.00  0.00    -0.354 N 
ATOM     60  N   UNL     1      -4.729  -1.816  11.242  1.00  0.00    -0.248 NA
ATOM     61  C   UNL     1      -6.958  -1.249  11.273  1.00  0.00     0.031 C 
ATOM     62  C   UNL     1      -2.395  -2.475  13.553  1.00  0.00     0.029 A 
ATOM     63  C   UNL     1      -3.184  -3.437  12.941  1.00  0.00     0.049 A 
ATOM     64  H   UNL     1      -2.597  -5.256  12.065  1.00  0.00     0.167 HD
ATOM     65  C   UNL     1      -5.325  -2.681  12.114  1.00  0.00     0.074 A 
ATOM     66  C   UNL     1      -6.728  -2.299  12.083  1.00  0.00     0.031 C 
ATOM     67  C   UNL     1      -4.626  -3.629  12.808  1.00  0.00     0.031 A 
BRANCH  54  68
ATOM     68  C   UNL     1       1.366  -5.181  12.440  1.00  0.00    -0.014 A 
ATOM     69  C   UNL     1       1.644  -5.020  13.808  1.00  0.00     0.009 A 
ATOM     70  C   UNL     1       2.382  -5.795  11.682  1.00  0.00     0.009 A 
ATOM     71  C   UNL     1       2.871  -5.402  14.372  1.00  0.00     0.001 A 
ATOM     72  C   UNL     1       3.620  -6.160  12.232  1.00  0.00     0.001 A 
ATOM     73  C   UNL     1       3.865  -5.962  13.581  1.00  0.00     0.000 A 
ENDBRANCH  54  68
BRANCH  55  74
ATOM     74  C   UNL     1      -5.869   0.520   8.555  1.00  0.00    -0.014 A 
ATOM     75  C   UNL     1      -5.789   1.859   8.106  1.00  0.00     0.009 A 
ATOM     76  C   UNL     1      -6.215  -0.456   7.611  1.00  0.00     0.009 A 
ATOM     77  C   UNL     1      -5.886   2.187   6.748  1.00  0.00     0.001 A 
ATOM     78  C   UNL     1      -6.332  -0.120   6.246  1.00  0.00     0.001 A 
ATOM     79  C   UNL     1      -6.125   1.190   5.812  1.00  0.00     0.000 A 
ENDBRANCH  55  74
BRANCH  67  80
ATOM     80  C   UNL     1      -5.239  -4.827  13.492  1.00  0.00    -0.014 A 
ATOM     81  C   UNL     1      -6.533  -5.296  13.240  1.00  0.00     0.009 A 
ATOM     82  C   UNL     1      -4.431  -5.632  14.329  1.00  0.00     0.009 A 
ATOM     83  C   UNL     1      -7.014  -6.465  13.840  1.00  0.00     0.001 A 
ATOM     84  C   UNL     1      -4.877  -6.838  14.865  1.00  0.00     0.001 A 
ATOM     85  C   UNL     1      -6.182  -7.243  14.639  1.00  0.00     0.000 A 
ENDBRANCH  67  80
ENDBRANCH  41  42
ENDBRANCH  34  36
ENDBRANCH  33  34
ENDBRANCH  32  33
ENDBRANCH   1  32
TORSDOF 15
