REMARK SMILES Cc1ccc(-c2nc(C)cc(N3CCCC[C@H]3C(=O)OCCOC(=O)c3ccc(-c4c5nc(c(-c6ccccc6)c6ccc([nH]6)c(-c6ccccc6)c6nc(c(-c7ccccc7)c7ccc4[nH]7)C=C6)C=C5)cc3)n2)cc1
REMARK SMILES IDX 21 1 20 2 18 3 19 4 17 5 12 6 13 7 14 8 16 9 15 10 11 11
REMARK SMILES IDX 6 12 7 13 74 14 8 15 9 16 10 17 5 18 1 19 2 20 3 21 76 22
REMARK SMILES IDX 4 23 75 24 22 25 23 26 24 27 25 28 26 29 27 30 73 31 28 32
REMARK SMILES IDX 72 33 29 34 30 35 31 36 66 37 32 38 71 39 65 40 67 41 33 42
REMARK SMILES IDX 70 43 64 44 63 45 34 47 56 48 41 49 55 50 42 51 45 52 54 53
REMARK SMILES IDX 68 54 43 55 44 56 53 58 69 59 46 60 35 61 36 62 40 63 37 64
REMARK SMILES IDX 39 65 38 66 57 67 58 68 62 69 59 70 61 71 60 72 47 73 48 74
REMARK SMILES IDX 52 75 49 76 51 77 50 78
REMARK H PARENT 67 46 45 57
REMARK Flexibility Score: inf
ROOT
ATOM      1  C   UNL     1     -11.223   1.632  -4.303  1.00  0.00     0.274 C 
ENDROOT
BRANCH   1   2
ATOM      2  O   UNL     1     -10.208   2.492  -3.760  1.00  0.00    -0.461 OA
BRANCH   2   3
ATOM      3  C   UNL     1      -9.283   1.889  -2.799  1.00  0.00     0.328 C 
ATOM      4  O   UNL     1      -9.992   1.003  -2.239  1.00  0.00    -0.250 OA
BRANCH   3   5
ATOM      5  C   UNL     1      -7.168   2.470  -2.562  1.00  0.00     0.193 C 
ATOM      6  N   UNL     1      -5.790   1.399  -2.331  1.00  0.00    -0.343 N 
ATOM      7  C   UNL     1      -5.036   0.992  -3.544  1.00  0.00     0.119 C 
ATOM      8  C   UNL     1      -4.518   2.120  -4.418  1.00  0.00     0.022 C 
ATOM      9  C   UNL     1      -6.159   3.706  -3.334  1.00  0.00     0.037 C 
ATOM     10  C   UNL     1      -5.428   3.310  -4.611  1.00  0.00     0.005 C 
BRANCH   6  11
ATOM     11  C   UNL     1      -5.101   1.045  -1.137  1.00  0.00     0.133 A 
ATOM     12  C   UNL     1      -3.111   0.248  -0.208  1.00  0.00     0.161 A 
ATOM     13  N   UNL     1      -3.694  -0.398   0.804  1.00  0.00    -0.233 NA
ATOM     14  N   UNL     1      -3.750   0.961  -1.169  1.00  0.00    -0.211 NA
ATOM     15  C   UNL     1      -5.010  -0.244   0.904  1.00  0.00     0.043 A 
ATOM     16  C   UNL     1      -5.634  -1.008   2.031  1.00  0.00     0.067 C 
ATOM     17  C   UNL     1      -5.730   0.528  -0.005  1.00  0.00     0.070 A 
BRANCH  12  18
ATOM     18  C   UNL     1      -1.652   0.168  -0.209  1.00  0.00     0.019 A 
ATOM     19  C   UNL     1       2.662  -0.032   0.008  1.00  0.00     0.044 C 
ATOM     20  C   UNL     1       1.166   0.039  -0.042  1.00  0.00    -0.051 A 
ATOM     21  C   UNL     1       0.407  -1.135  -0.038  1.00  0.00     0.004 A 
ATOM     22  C   UNL     1       0.511   1.274  -0.107  1.00  0.00     0.004 A 
ATOM     23  C   UNL     1      -0.987  -1.069  -0.110  1.00  0.00     0.012 A 
ATOM     24  C   UNL     1      -0.881   1.336  -0.197  1.00  0.00     0.012 A 
ENDBRANCH  12  18
ENDBRANCH   6  11
ENDBRANCH   3   5
ENDBRANCH   2   3
ENDBRANCH   1   2
BRANCH   1  25
ATOM     25  C   UNL     1     -10.565   0.641  -5.274  1.00  0.00     0.275 C 
BRANCH  25  26
ATOM     26  O   UNL     1      -9.721  -0.372  -4.660  1.00  0.00    -0.458 OA
BRANCH  26  27
ATOM     27  C   UNL     1      -8.359  -0.284  -4.635  1.00  0.00     0.338 C 
ATOM     28  O   UNL     1      -7.605  -1.186  -4.955  1.00  0.00    -0.246 OA
BRANCH  27  29
ATOM     29  C   UNL     1      -7.873   0.848  -3.819  1.00  0.00     0.060 A 
ATOM     30  C   UNL     1      -7.929   0.544  -2.040  1.00  0.00     0.016 A 
ATOM     31  C   UNL     1      -8.133   2.497  -4.445  1.00  0.00     0.016 A 
ATOM     32  C   UNL     1      -8.409   1.886  -0.912  1.00  0.00     0.010 A 
ATOM     33  C   UNL     1      -8.617   3.824  -3.313  1.00  0.00     0.010 A 
ATOM     34  C   UNL     1      -8.831   3.486  -1.572  1.00  0.00    -0.014 A 
BRANCH  34  35
ATOM     35  C   UNL     1      -9.883   4.298  -0.985  1.00  0.00     0.031 A 
ATOM     36  C   UNL     1      -9.604   5.736  -0.907  1.00  0.00     0.074 A 
ATOM     37  C   UNL     1     -11.101   3.723  -0.794  1.00  0.00     0.049 A 
ATOM     38  N   UNL     1     -10.292   6.544  -0.197  1.00  0.00    -0.248 NA
ATOM     39  C   UNL     1      -8.462   6.401  -1.548  1.00  0.00     0.031 C 
ATOM     40  C   UNL     1     -12.428   4.328  -0.683  1.00  0.00     0.029 A 
ATOM     41  N   UNL     1     -11.392   2.387  -0.573  1.00  0.00    -0.354 N 
ATOM     42  C   UNL     1      -9.961   7.815  -0.600  1.00  0.00     0.074 A 
ATOM     43  C   UNL     1      -8.719   7.690  -1.305  1.00  0.00     0.031 C 
ATOM     44  C   UNL     1     -13.296   3.429  -0.168  1.00  0.00     0.029 A 
ATOM     45  C   UNL     1     -12.555   2.227   0.168  1.00  0.00     0.049 A 
ATOM     46  H   UNL     1     -10.840   1.641  -0.901  1.00  0.00     0.167 HD
ATOM     47  C   UNL     1     -10.900   8.780  -0.432  1.00  0.00     0.031 A 
ATOM     48  C   UNL     1     -12.488   1.668   1.414  1.00  0.00     0.031 A 
ATOM     49  C   UNL     1     -12.011   8.246   0.359  1.00  0.00     0.049 A 
ATOM     50  C   UNL     1     -12.530   2.759   2.471  1.00  0.00     0.074 A 
ATOM     51  C   UNL     1     -13.262   7.765   0.015  1.00  0.00     0.029 A 
ATOM     52  N   UNL     1     -11.720   7.715   1.613  1.00  0.00    -0.354 N 
ATOM     53  N   UNL     1     -12.348   4.028   2.211  1.00  0.00    -0.248 NA
ATOM     54  C   UNL     1     -12.842   2.524   3.876  1.00  0.00     0.031 C 
ATOM     55  C   UNL     1     -13.671   6.859   1.043  1.00  0.00     0.029 A 
ATOM     56  C   UNL     1     -12.690   6.820   2.023  1.00  0.00     0.049 A 
ATOM     57  H   UNL     1     -10.922   7.948   2.141  1.00  0.00     0.167 HD
ATOM     58  C   UNL     1     -12.589   4.778   3.325  1.00  0.00     0.074 A 
ATOM     59  C   UNL     1     -12.885   3.784   4.347  1.00  0.00     0.031 C 
ATOM     60  C   UNL     1     -12.553   6.146   3.319  1.00  0.00     0.031 A 
BRANCH  47  61
ATOM     61  C   UNL     1     -10.933  10.096  -1.161  1.00  0.00    -0.014 A 
ATOM     62  C   UNL     1     -12.017  10.960  -0.927  1.00  0.00     0.009 A 
ATOM     63  C   UNL     1     -10.012  10.512  -2.143  1.00  0.00     0.009 A 
ATOM     64  C   UNL     1     -12.174  12.163  -1.627  1.00  0.00     0.001 A 
ATOM     65  C   UNL     1     -10.152  11.725  -2.834  1.00  0.00     0.001 A 
ATOM     66  C   UNL     1     -11.238  12.549  -2.578  1.00  0.00     0.000 A 
ENDBRANCH  47  61
BRANCH  48  67
ATOM     67  C   UNL     1     -11.645   0.433   1.430  1.00  0.00    -0.014 A 
ATOM     68  C   UNL     1     -12.046  -0.631   0.584  1.00  0.00     0.009 A 
ATOM     69  C   UNL     1     -10.320   0.468   1.857  1.00  0.00     0.009 A 
ATOM     70  C   UNL     1     -11.109  -1.490   0.002  1.00  0.00     0.001 A 
ATOM     71  C   UNL     1      -9.400  -0.427   1.299  1.00  0.00     0.001 A 
ATOM     72  C   UNL     1      -9.771  -1.364   0.335  1.00  0.00     0.000 A 
ENDBRANCH  48  67
BRANCH  60  73
ATOM     73  C   UNL     1     -12.443   7.011   4.558  1.00  0.00    -0.014 A 
ATOM     74  C   UNL     1     -12.194   6.524   5.844  1.00  0.00     0.009 A 
ATOM     75  C   UNL     1     -12.476   8.420   4.428  1.00  0.00     0.009 A 
ATOM     76  C   UNL     1     -12.081   7.380   6.945  1.00  0.00     0.001 A 
ATOM     77  C   UNL     1     -12.269   9.282   5.503  1.00  0.00     0.001 A 
ATOM     78  C   UNL     1     -12.105   8.759   6.773  1.00  0.00     0.000 A 
ENDBRANCH  60  73
ENDBRANCH  34  35
ENDBRANCH  27  29
ENDBRANCH  26  27
ENDBRANCH  25  26
ENDBRANCH   1  25
TORSDOF 13
