REMARK SMILES NS(=O)(=O)c1ccc(-n2ccnc2-c2ccc(O)c(C(=O)OCCOC(=O)c3ccc(-c4c5nc(c(-c6ccccc6)c6ccc([nH]6)c(-c6ccccc6)c6nc(c(-c7ccccc7)c7ccc4[nH]7)C=C6)C=C5)cc3)c2)cc1
REMARK SMILES IDX 23 1 22 2 20 3 21 4 19 5 14 6 15 7 76 8 16 9 17 10 13 11
REMARK SMILES IDX 9 12 10 13 11 14 12 15 8 16 5 17 6 18 78 19 7 20 77 21 2 22
REMARK SMILES IDX 3 23 4 24 1 25 18 28 24 30 25 31 26 32 27 33 28 34 29 35
REMARK SMILES IDX 75 36 30 37 74 38 31 39 32 40 33 41 68 42 34 43 73 44 67 45
REMARK SMILES IDX 69 46 35 47 72 48 66 49 65 50 36 52 58 53 43 54 57 55 44 56
REMARK SMILES IDX 47 57 56 58 70 59 45 60 46 61 55 63 71 64 48 65 37 66 38 67
REMARK SMILES IDX 42 68 39 69 41 70 40 71 59 72 60 73 64 74 61 75 63 76 62 77
REMARK SMILES IDX 49 78 50 79 54 80 51 81 53 82 52 83
REMARK H PARENT 1 26 1 27 18 29 69 51 47 62
REMARK Flexibility Score: inf
ROOT
ATOM      1  C   UNL     1       7.159   0.261   3.079  1.00  0.00     0.275 C 
ENDROOT
BRANCH   1   2
ATOM      2  O   UNL     1       6.114  -0.540   3.656  1.00  0.00    -0.458 OA
BRANCH   2   3
ATOM      3  C   UNL     1       5.855  -1.717   3.034  1.00  0.00     0.342 C 
ATOM      4  O   UNL     1       6.290  -2.078   1.948  1.00  0.00    -0.246 OA
BRANCH   3   5
ATOM      5  C   UNL     1       5.055  -2.622   3.895  1.00  0.00     0.102 A 
ATOM      6  C   UNL     1       3.557  -2.981   5.781  1.00  0.00     0.019 A 
ATOM      7  C   UNL     1       3.544  -4.352   5.507  1.00  0.00     0.016 A 
ATOM      8  C   UNL     1       4.360  -2.130   5.004  1.00  0.00     0.031 A 
ATOM      9  C   UNL     1       4.263  -4.856   4.421  1.00  0.00     0.048 A 
ATOM     10  C   UNL     1       4.995  -3.992   3.607  1.00  0.00     0.130 A 
BRANCH   6  11
ATOM     11  C   UNL     1       2.680  -2.418   6.812  1.00  0.00     0.144 A 
ATOM     12  N   UNL     1       1.822  -1.339   6.597  1.00  0.00    -0.300 N 
ATOM     13  C   UNL     1       1.389  -0.929   7.836  1.00  0.00     0.113 A 
ATOM     14  C   UNL     1       1.863  -1.869   8.719  1.00  0.00     0.132 A 
ATOM     15  N   UNL     1       2.646  -2.791   8.079  1.00  0.00    -0.236 NA
BRANCH  12  16
ATOM     16  C   UNL     1       1.459  -0.756   5.354  1.00  0.00     0.047 A 
ATOM     17  C   UNL     1       0.886   0.375   2.877  1.00  0.00     0.082 A 
ATOM     18  C   UNL     1       0.900  -1.015   3.009  1.00  0.00     0.024 A 
ATOM     19  C   UNL     1       1.146   1.202   3.976  1.00  0.00     0.024 A 
ATOM     20  C   UNL     1       1.195  -1.581   4.249  1.00  0.00     0.028 A 
ATOM     21  C   UNL     1       1.410   0.636   5.226  1.00  0.00     0.028 A 
BRANCH  17  22
ATOM     22  S   UNL     1       0.567   1.108   1.299  1.00  0.00     0.238 S 
ATOM     23  O   UNL     1       1.319   2.344   1.204  1.00  0.00    -0.207 OA
ATOM     24  O   UNL     1      -0.843   1.028   1.036  1.00  0.00    -0.207 OA
BRANCH  22  25
ATOM     25  N   UNL     1       1.315   0.063   0.215  1.00  0.00    -0.225 NA
ATOM     26  H   UNL     1       1.183   0.408  -0.735  1.00  0.00     0.137 HD
ATOM     27  H   UNL     1       0.904  -0.866   0.300  1.00  0.00     0.137 HD
ENDBRANCH  22  25
ENDBRANCH  17  22
ENDBRANCH  12  16
ENDBRANCH   6  11
BRANCH  10  28
ATOM     28  O   UNL     1       5.638  -4.564   2.540  1.00  0.00    -0.507 OA
ATOM     29  H   UNL     1       5.567  -5.486   2.391  1.00  0.00     0.293 HD
ENDBRANCH  10  28
ENDBRANCH   3   5
ENDBRANCH   2   3
ENDBRANCH   1   2
BRANCH   1  30
ATOM     30  C   UNL     1       8.518  -0.110   3.658  1.00  0.00     0.275 C 
BRANCH  30  31
ATOM     31  O   UNL     1       8.922  -1.420   3.257  1.00  0.00    -0.458 OA
BRANCH  31  32
ATOM     32  C   UNL     1       8.640  -2.405   4.140  1.00  0.00     0.338 C 
ATOM     33  O   UNL     1       7.853  -2.358   5.070  1.00  0.00    -0.246 OA
BRANCH  32  34
ATOM     34  C   UNL     1       9.600  -3.498   3.958  1.00  0.00     0.060 A 
ATOM     35  C   UNL     1       9.400  -4.678   4.682  1.00  0.00     0.016 A 
ATOM     36  C   UNL     1      10.806  -3.236   3.295  1.00  0.00     0.016 A 
ATOM     37  C   UNL     1      10.476  -5.525   4.873  1.00  0.00     0.010 A 
ATOM     38  C   UNL     1      11.880  -4.064   3.508  1.00  0.00     0.010 A 
ATOM     39  C   UNL     1      11.722  -5.163   4.348  1.00  0.00    -0.014 A 
BRANCH  39  40
ATOM     40  C   UNL     1      12.855  -6.044   4.544  1.00  0.00     0.031 A 
ATOM     41  C   UNL     1      12.786  -7.243   3.676  1.00  0.00     0.074 A 
ATOM     42  C   UNL     1      13.912  -5.713   5.313  1.00  0.00     0.049 A 
ATOM     43  N   UNL     1      12.601  -8.464   4.050  1.00  0.00    -0.248 NA
ATOM     44  C   UNL     1      12.722  -7.047   2.215  1.00  0.00     0.031 C 
ATOM     45  C   UNL     1      14.184  -4.440   5.984  1.00  0.00     0.029 A 
ATOM     46  N   UNL     1      15.040  -6.429   5.568  1.00  0.00    -0.354 N 
ATOM     47  C   UNL     1      12.614  -9.218   2.883  1.00  0.00     0.074 A 
ATOM     48  C   UNL     1      12.477  -8.288   1.794  1.00  0.00     0.031 C 
ATOM     49  C   UNL     1      15.489  -4.394   6.347  1.00  0.00     0.029 A 
ATOM     50  C   UNL     1      16.107  -5.677   6.050  1.00  0.00     0.049 A 
ATOM     51  H   UNL     1      15.097  -7.401   5.424  1.00  0.00     0.167 HD
ATOM     52  C   UNL     1      13.044 -10.508   2.893  1.00  0.00     0.031 A 
ATOM     53  C   UNL     1      17.406  -6.071   6.130  1.00  0.00     0.031 A 
ATOM     54  C   UNL     1      13.077 -11.040   4.232  1.00  0.00     0.049 A 
ATOM     55  C   UNL     1      17.424  -7.551   6.052  1.00  0.00     0.074 A 
ATOM     56  C   UNL     1      12.137 -11.239   5.224  1.00  0.00     0.029 A 
ATOM     57  N   UNL     1      14.302 -11.064   4.855  1.00  0.00    -0.354 N 
ATOM     58  N   UNL     1      16.952  -8.318   6.991  1.00  0.00    -0.248 NA
ATOM     59  C   UNL     1      17.515  -8.159   4.733  1.00  0.00     0.031 C 
ATOM     60  C   UNL     1      12.806 -10.901   6.436  1.00  0.00     0.029 A 
ATOM     61  C   UNL     1      14.136 -10.603   6.134  1.00  0.00     0.049 A 
ATOM     62  H   UNL     1      15.150 -11.361   4.453  1.00  0.00     0.167 HD
ATOM     63  C   UNL     1      16.256  -9.307   6.312  1.00  0.00     0.074 A 
ATOM     64  C   UNL     1      16.712  -9.210   4.925  1.00  0.00     0.031 C 
ATOM     65  C   UNL     1      15.160  -9.900   6.871  1.00  0.00     0.031 A 
BRANCH  52  66
ATOM     66  C   UNL     1      13.881 -11.099   1.784  1.00  0.00    -0.014 A 
ATOM     67  C   UNL     1      14.297 -12.436   1.905  1.00  0.00     0.009 A 
ATOM     68  C   UNL     1      14.521 -10.325   0.796  1.00  0.00     0.009 A 
ATOM     69  C   UNL     1      15.358 -12.939   1.143  1.00  0.00     0.001 A 
ATOM     70  C   UNL     1      15.553 -10.835   0.006  1.00  0.00     0.001 A 
ATOM     71  C   UNL     1      15.992 -12.135   0.202  1.00  0.00     0.000 A 
ENDBRANCH  52  66
BRANCH  53  72
ATOM     72  C   UNL     1      18.646  -5.277   5.947  1.00  0.00    -0.014 A 
ATOM     73  C   UNL     1      19.901  -5.807   6.300  1.00  0.00     0.009 A 
ATOM     74  C   UNL     1      18.635  -4.119   5.150  1.00  0.00     0.009 A 
ATOM     75  C   UNL     1      21.092  -5.227   5.833  1.00  0.00     0.001 A 
ATOM     76  C   UNL     1      19.822  -3.538   4.686  1.00  0.00     0.001 A 
ATOM     77  C   UNL     1      21.050  -4.103   5.013  1.00  0.00     0.000 A 
ENDBRANCH  53  72
BRANCH  65  78
ATOM     78  C   UNL     1      14.870  -9.622   8.326  1.00  0.00    -0.014 A 
ATOM     79  C   UNL     1      14.589  -8.340   8.835  1.00  0.00     0.009 A 
ATOM     80  C   UNL     1      14.729 -10.722   9.183  1.00  0.00     0.009 A 
ATOM     81  C   UNL     1      14.210  -8.168  10.171  1.00  0.00     0.001 A 
ATOM     82  C   UNL     1      14.330 -10.553  10.509  1.00  0.00     0.001 A 
ATOM     83  C   UNL     1      14.077  -9.277  11.006  1.00  0.00     0.000 A 
ENDBRANCH  65  78
ENDBRANCH  39  40
ENDBRANCH  32  34
ENDBRANCH  31  32
ENDBRANCH  30  31
ENDBRANCH   1  30
TORSDOF 16
