REMARK SMILES CCC[N@@H+]1CC2(CC[NH+](CCc3ccccc3)CC2)C[C@H]1C(=O)OCCOC(=O)c1ccc(-c2c3nc(c(-c4ccccc4)c4ccc([nH]4)c(-c4ccccc4)c4nc(c(-c5ccccc5)c5ccc2[nH]5)C=C4)C=C3)cc1
REMARK SMILES IDX 25 1 24 2 22 3 23 4 21 5 4 6 5 7 6 9 20 10 7 11 19 12 8 13
REMARK SMILES IDX 18 14 9 15 3 17 2 18 1 19 10 20 11 21 12 22 13 23 17 24
REMARK SMILES IDX 14 25 16 26 15 27 26 28 27 29 28 30 29 31 30 32 31 33 77 34
REMARK SMILES IDX 32 35 76 36 33 37 34 38 35 39 70 40 36 41 75 42 69 43 71 44
REMARK SMILES IDX 37 45 74 46 68 47 67 48 38 50 60 51 45 52 59 53 46 54 49 55
REMARK SMILES IDX 58 56 72 57 47 58 48 59 57 61 73 62 50 63 39 64 40 65 44 66
REMARK SMILES IDX 41 67 43 68 42 69 61 70 62 71 66 72 63 73 65 74 64 75 51 76
REMARK SMILES IDX 52 77 56 78 53 79 55 80 54 81
REMARK H PARENT 4 8 9 16 71 49 49 60
REMARK Flexibility Score: inf
ROOT
ATOM      1  C   UNL     1      -1.598   5.309  -2.121  1.00  0.00     0.274 C 
ENDROOT
BRANCH   1   2
ATOM      2  O   UNL     1      -0.726   4.571  -1.247  1.00  0.00    -0.458 OA
BRANCH   2   3
ATOM      3  C   UNL     1      -1.133   4.465   0.043  1.00  0.00     0.365 C 
ATOM      4  O   UNL     1      -2.136   5.016   0.495  1.00  0.00    -0.245 OA
BRANCH   3   5
ATOM      5  C   UNL     1      -0.246   3.584   0.929  1.00  0.00     0.295 C 
ATOM      6  N   UNL     1       0.900   2.915   0.260  1.00  0.00    -0.323 N 
ATOM      7  C   UNL     1       1.950   3.957   0.231  1.00  0.00     0.270 C 
ATOM      8  H   UNL     1       0.682   2.570  -0.675  1.00  0.00     0.348 HD
ATOM      9  C   UNL     1       1.794   4.802   1.518  1.00  0.00     0.036 C 
ATOM     10  C   UNL     1       0.376   4.432   2.022  1.00  0.00     0.091 C 
ATOM     11  C   UNL     1       1.823   6.319   1.211  1.00  0.00     0.075 C 
ATOM     12  C   UNL     1       2.845   4.354   2.564  1.00  0.00     0.075 C 
ATOM     13  C   UNL     1       3.194   6.968   1.312  1.00  0.00     0.263 C 
ATOM     14  C   UNL     1       4.121   5.182   2.626  1.00  0.00     0.263 C 
ATOM     15  N   UNL     1       3.918   6.615   2.521  1.00  0.00    -0.335 N 
ATOM     16  H   UNL     1       4.852   7.006   2.395  1.00  0.00     0.348 HD
BRANCH   6  17
ATOM     17  C   UNL     1       1.322   1.731   1.043  1.00  0.00     0.262 C 
BRANCH  17  18
ATOM     18  C   UNL     1       0.475   0.482   0.760  1.00  0.00     0.058 C 
ATOM     19  C   UNL     1       0.828  -0.166  -0.568  1.00  0.00     0.010 C 
ENDBRANCH  17  18
ENDBRANCH   6  17
BRANCH  15  20
ATOM     20  C   UNL     1       3.608   7.357   3.750  1.00  0.00     0.267 C 
BRANCH  20  21
ATOM     21  C   UNL     1       2.271   7.223   4.526  1.00  0.00     0.097 C 
BRANCH  21  22
ATOM     22  C   UNL     1       2.021   5.978   5.347  1.00  0.00    -0.042 A 
ATOM     23  C   UNL     1       3.031   5.368   6.103  1.00  0.00     0.004 A 
ATOM     24  C   UNL     1       0.738   5.402   5.364  1.00  0.00     0.004 A 
ATOM     25  C   UNL     1       2.791   4.165   6.774  1.00  0.00     0.000 A 
ATOM     26  C   UNL     1       0.501   4.196   6.029  1.00  0.00     0.000 A 
ATOM     27  C   UNL     1       1.532   3.569   6.721  1.00  0.00     0.000 A 
ENDBRANCH  21  22
ENDBRANCH  20  21
ENDBRANCH  15  20
ENDBRANCH   3   5
ENDBRANCH   2   3
ENDBRANCH   1   2
BRANCH   1  28
ATOM     28  C   UNL     1      -2.496   4.362  -2.915  1.00  0.00     0.275 C 
BRANCH  28  29
ATOM     29  O   UNL     1      -3.386   3.639  -2.043  1.00  0.00    -0.458 OA
BRANCH  29  30
ATOM     30  C   UNL     1      -3.004   2.380  -1.753  1.00  0.00     0.338 C 
ATOM     31  O   UNL     1      -2.021   1.776  -2.176  1.00  0.00    -0.246 OA
BRANCH  30  32
ATOM     32  C   UNL     1      -3.935   1.766  -0.805  1.00  0.00     0.060 A 
ATOM     33  C   UNL     1      -3.679   1.861   0.563  1.00  0.00     0.016 A 
ATOM     34  C   UNL     1      -4.950   0.936  -1.278  1.00  0.00     0.016 A 
ATOM     35  C   UNL     1      -4.376   1.061   1.463  1.00  0.00     0.010 A 
ATOM     36  C   UNL     1      -5.689   0.175  -0.370  1.00  0.00     0.010 A 
ATOM     37  C   UNL     1      -5.376   0.197   1.002  1.00  0.00    -0.014 A 
BRANCH  37  38
ATOM     38  C   UNL     1      -6.024  -0.761   1.930  1.00  0.00     0.031 A 
ATOM     39  C   UNL     1      -5.774  -2.235   1.762  1.00  0.00     0.074 A 
ATOM     40  C   UNL     1      -6.806  -0.323   2.934  1.00  0.00     0.049 A 
ATOM     41  N   UNL     1      -6.365  -3.247   2.344  1.00  0.00    -0.248 NA
ATOM     42  C   UNL     1      -4.719  -2.621   0.808  1.00  0.00     0.031 C 
ATOM     43  C   UNL     1      -7.066   1.079   3.262  1.00  0.00     0.029 A 
ATOM     44  N   UNL     1      -7.527  -1.024   3.867  1.00  0.00    -0.354 N 
ATOM     45  C   UNL     1      -5.786  -4.386   1.798  1.00  0.00     0.074 A 
ATOM     46  C   UNL     1      -4.800  -3.943   0.836  1.00  0.00     0.031 C 
ATOM     47  C   UNL     1      -7.877   1.135   4.331  1.00  0.00     0.029 A 
ATOM     48  C   UNL     1      -8.245  -0.222   4.720  1.00  0.00     0.049 A 
ATOM     49  H   UNL     1      -7.530  -2.007   3.920  1.00  0.00     0.167 HD
ATOM     50  C   UNL     1      -6.053  -5.685   2.072  1.00  0.00     0.031 A 
ATOM     51  C   UNL     1      -9.127  -0.546   5.683  1.00  0.00     0.031 A 
ATOM     52  C   UNL     1      -7.020  -6.126   3.042  1.00  0.00     0.049 A 
ATOM     53  C   UNL     1      -9.447  -1.993   5.930  1.00  0.00     0.074 A 
ATOM     54  C   UNL     1      -7.402  -7.418   3.359  1.00  0.00     0.029 A 
ATOM     55  N   UNL     1      -7.740  -5.279   3.869  1.00  0.00    -0.354 N 
ATOM     56  N   UNL     1      -8.957  -3.060   5.347  1.00  0.00    -0.248 NA
ATOM     57  C   UNL     1     -10.451  -2.279   6.966  1.00  0.00     0.031 C 
ATOM     58  C   UNL     1      -8.369  -7.352   4.369  1.00  0.00     0.029 A 
ATOM     59  C   UNL     1      -8.557  -6.021   4.704  1.00  0.00     0.049 A 
ATOM     60  H   UNL     1      -7.680  -4.297   3.863  1.00  0.00     0.167 HD
ATOM     61  C   UNL     1      -9.572  -4.142   5.963  1.00  0.00     0.074 A 
ATOM     62  C   UNL     1     -10.460  -3.604   6.972  1.00  0.00     0.031 C 
ATOM     63  C   UNL     1      -9.418  -5.465   5.714  1.00  0.00     0.031 A 
BRANCH  50  64
ATOM     64  C   UNL     1      -5.309  -6.723   1.284  1.00  0.00    -0.014 A 
ATOM     65  C   UNL     1      -3.963  -7.015   1.554  1.00  0.00     0.009 A 
ATOM     66  C   UNL     1      -5.971  -7.436   0.273  1.00  0.00     0.009 A 
ATOM     67  C   UNL     1      -3.288  -7.984   0.807  1.00  0.00     0.001 A 
ATOM     68  C   UNL     1      -5.300  -8.420  -0.456  1.00  0.00     0.001 A 
ATOM     69  C   UNL     1      -3.958  -8.687  -0.193  1.00  0.00     0.000 A 
ENDBRANCH  50  64
BRANCH  51  70
ATOM     70  C   UNL     1      -9.803   0.519   6.467  1.00  0.00    -0.014 A 
ATOM     71  C   UNL     1      -9.503   0.704   7.825  1.00  0.00     0.009 A 
ATOM     72  C   UNL     1     -10.773   1.338   5.867  1.00  0.00     0.009 A 
ATOM     73  C   UNL     1     -10.179   1.669   8.573  1.00  0.00     0.001 A 
ATOM     74  C   UNL     1     -11.428   2.321   6.611  1.00  0.00     0.001 A 
ATOM     75  C   UNL     1     -11.138   2.479   7.965  1.00  0.00     0.000 A 
ENDBRANCH  51  70
BRANCH  63  76
ATOM     76  C   UNL     1     -10.179  -6.415   6.590  1.00  0.00    -0.014 A 
ATOM     77  C   UNL     1     -11.557  -6.617   6.421  1.00  0.00     0.009 A 
ATOM     78  C   UNL     1      -9.499  -7.131   7.586  1.00  0.00     0.009 A 
ATOM     79  C   UNL     1     -12.246  -7.496   7.260  1.00  0.00     0.001 A 
ATOM     80  C   UNL     1     -10.186  -8.025   8.408  1.00  0.00     0.001 A 
ATOM     81  C   UNL     1     -11.560  -8.200   8.250  1.00  0.00     0.000 A 
ENDBRANCH  63  76
ENDBRANCH  37  38
ENDBRANCH  30  32
ENDBRANCH  29  30
ENDBRANCH  28  29
ENDBRANCH   1  28
TORSDOF 16
