REMARK SMILES COc1ccc([C@H](C(=O)OCCOC(=O)c2ccc(-c3c4nc(c(-c5ccccc5)c5ccc([nH]5)c(-c5ccccc5)c5nc(c(-c6ccccc6)c6ccc3[nH]6)C=C5)C=C4)cc2)[N@H+]2CCC[N@@H+](Cc3ccccn3)CC2)cn1
REMARK SMILES IDX 8 1 9 2 7 3 6 4 3 5 4 6 79 7 5 8 78 9 2 10 1 11 64 12 65 14
REMARK SMILES IDX 66 15 77 17 76 18 68 19 67 21 69 23 70 24 71 25 75 26 72 27
REMARK SMILES IDX 74 28 73 29 10 30 11 31 12 32 13 33 14 34 15 35 16 36 17 37
REMARK SMILES IDX 63 38 18 39 62 40 19 41 20 42 21 43 56 44 22 45 61 46 55 47
REMARK SMILES IDX 57 48 23 49 60 50 54 51 53 52 24 54 46 55 31 56 45 57 32 58
REMARK SMILES IDX 35 59 44 60 58 61 33 62 34 63 43 65 59 66 36 67 25 68 26 69
REMARK SMILES IDX 30 70 27 71 29 72 28 73 47 74 48 75 52 76 49 77 51 78 50 79
REMARK SMILES IDX 37 80 38 81 42 82 39 83 41 84 40 85
REMARK H PARENT 64 13 68 20 57 53 35 64
REMARK Flexibility Score: 80.00
ROOT
ATOM      1  C   UNL     1       1.862   3.282   4.439  1.00  0.00     0.370 C 
ATOM      2  O   UNL     1       0.836   3.679   3.886  1.00  0.00    -0.245 OA
ENDROOT
BRANCH   1   3
ATOM      3  C   UNL     1       2.071   3.311   6.026  1.00  0.00     0.328 C 
BRANCH   3   4
ATOM      4  C   UNL     1       1.678   4.691   6.598  1.00  0.00     0.039 A 
ATOM      5  C   UNL     1       0.019   6.524   7.741  1.00  0.00     0.212 A 
ATOM      6  C   UNL     1       0.874   5.822   8.565  1.00  0.00     0.069 A 
ATOM      7  N   UNL     1       0.055   6.488   6.403  1.00  0.00    -0.222 NA
ATOM      8  C   UNL     1       1.759   4.927   7.977  1.00  0.00     0.018 A 
ATOM      9  C   UNL     1       0.895   5.590   5.861  1.00  0.00     0.125 A 
BRANCH   5  10
ATOM     10  O   UNL     1      -1.014   7.222   8.302  1.00  0.00    -0.481 OA
ATOM     11  C   UNL     1      -0.734   8.606   8.158  1.00  0.00     0.280 C 
ENDBRANCH   5  10
ENDBRANCH   3   4
BRANCH   3  12
ATOM     12  N   UNL     1       1.239   2.210   6.718  1.00  0.00    -0.315 N 
ATOM     13  H   UNL     1       1.266   1.373   6.135  1.00  0.00     0.349 HD
BRANCH  12  14
ATOM     14  C   UNL     1       1.866   1.565   7.896  1.00  0.00     0.269 C 
BRANCH  14  15
ATOM     15  C   UNL     1       1.296   0.343   8.716  1.00  0.00     0.123 CG0
ATOM     16  G   UNL     1      -0.219   0.067   8.780  1.00  0.00     0.000 G0
ENDBRANCH  14  15
ENDBRANCH  12  14
BRANCH  12  17
ATOM     17  C   UNL     1      -0.220   2.525   6.708  1.00  0.00     0.325 C 
BRANCH  17  18
ATOM     18  C   UNL     1      -1.270   1.685   7.435  1.00  0.00     0.324 C 
BRANCH  18  19
ATOM     19  N   UNL     1      -0.865   0.306   7.498  1.00  0.00    -0.325 N 
ATOM     20  H   UNL     1      -0.131  -0.019   6.869  1.00  0.00     0.348 HD
BRANCH  19  21
ATOM     21  C   UNL     1      -0.219   0.067   8.780  1.00  0.00     0.268 CG0
ATOM     22  G   UNL     1       1.296   0.343   8.716  1.00  0.00     0.000 G0
ENDBRANCH  19  21
BRANCH  19  23
ATOM     23  C   UNL     1      -1.538  -0.714   6.589  1.00  0.00     0.319 C 
BRANCH  23  24
ATOM     24  C   UNL     1      -0.682  -1.527   5.171  1.00  0.00     0.095 A 
ATOM     25  C   UNL     1       0.944  -2.782   5.221  1.00  0.00     0.030 A 
ATOM     26  N   UNL     1      -0.466   0.040   4.563  1.00  0.00    -0.255 NA
ATOM     27  C   UNL     1       2.576  -2.043   4.951  1.00  0.00     0.004 A 
ATOM     28  C   UNL     1       1.093   0.577   4.385  1.00  0.00     0.111 A 
ATOM     29  C   UNL     1       2.614  -0.324   4.575  1.00  0.00     0.020 A 
ENDBRANCH  23  24
ENDBRANCH  19  23
ENDBRANCH  18  19
ENDBRANCH  17  18
ENDBRANCH  12  17
ENDBRANCH   3  12
ENDBRANCH   1   3
BRANCH   1  30
ATOM     30  O   UNL     1       2.846   2.630   3.704  1.00  0.00    -0.457 OA
BRANCH  30  31
ATOM     31  C   UNL     1       2.558   2.437   2.254  1.00  0.00     0.274 C 
BRANCH  31  32
ATOM     32  C   UNL     1       2.664   0.962   1.704  1.00  0.00     0.275 C 
BRANCH  32  33
ATOM     33  O   UNL     1       1.470   0.168   2.027  1.00  0.00    -0.458 OA
BRANCH  33  34
ATOM     34  C   UNL     1       1.634  -1.120   2.485  1.00  0.00     0.338 C 
ATOM     35  O   UNL     1       2.464  -1.892   2.017  1.00  0.00    -0.246 OA
BRANCH  34  36
ATOM     36  C   UNL     1       0.775  -1.482   3.850  1.00  0.00     0.060 A 
ATOM     37  C   UNL     1       0.988  -1.041   5.840  1.00  0.00     0.016 A 
ATOM     38  C   UNL     1      -0.269  -2.849   3.431  1.00  0.00     0.016 A 
ATOM     39  C   UNL     1       0.207  -2.197   7.024  1.00  0.00     0.010 A 
ATOM     40  C   UNL     1      -1.083  -3.729   4.683  1.00  0.00     0.010 A 
ATOM     41  C   UNL     1      -0.908  -3.411   6.387  1.00  0.00    -0.014 A 
BRANCH  41  42
ATOM     42  C   UNL     1      -1.759  -4.114   7.379  1.00  0.00     0.031 A 
ATOM     43  C   UNL     1      -1.066  -5.141   8.191  1.00  0.00     0.074 A 
ATOM     44  C   UNL     1      -3.029  -3.733   7.667  1.00  0.00     0.049 A 
ATOM     45  N   UNL     1      -1.536  -5.891   9.143  1.00  0.00    -0.248 NA
ATOM     46  C   UNL     1       0.343  -5.388   7.854  1.00  0.00     0.031 C 
ATOM     47  C   UNL     1      -3.818  -2.702   6.980  1.00  0.00     0.029 A 
ATOM     48  N   UNL     1      -3.855  -4.092   8.709  1.00  0.00    -0.354 N 
ATOM     49  C   UNL     1      -0.495  -6.742   9.468  1.00  0.00     0.074 A 
ATOM     50  C   UNL     1       0.635  -6.400   8.644  1.00  0.00     0.031 C 
ATOM     51  C   UNL     1      -4.865  -2.349   7.744  1.00  0.00     0.029 A 
ATOM     52  C   UNL     1      -4.999  -3.323   8.813  1.00  0.00     0.049 A 
ATOM     53  H   UNL     1      -3.649  -4.831   9.326  1.00  0.00     0.167 HD
ATOM     54  C   UNL     1      -0.508  -7.769  10.339  1.00  0.00     0.031 A 
ATOM     55  C   UNL     1      -6.081  -3.450   9.611  1.00  0.00     0.031 A 
ATOM     56  C   UNL     1      -1.677  -8.143  11.072  1.00  0.00     0.049 A 
ATOM     57  C   UNL     1      -6.117  -4.671  10.487  1.00  0.00     0.074 A 
ATOM     58  C   UNL     1      -1.860  -9.228  11.902  1.00  0.00     0.029 A 
ATOM     59  N   UNL     1      -2.875  -7.442  11.036  1.00  0.00    -0.354 N 
ATOM     60  N   UNL     1      -5.167  -5.547  10.713  1.00  0.00    -0.248 NA
ATOM     61  C   UNL     1      -7.385  -4.965  11.166  1.00  0.00     0.031 C 
ATOM     62  C   UNL     1      -3.195  -9.225  12.313  1.00  0.00     0.029 A 
ATOM     63  C   UNL     1      -3.811  -8.081  11.824  1.00  0.00     0.049 A 
ATOM     64  H   UNL     1      -3.034  -6.616  10.525  1.00  0.00     0.167 HD
ATOM     65  C   UNL     1      -5.713  -6.489  11.568  1.00  0.00     0.074 A 
ATOM     66  C   UNL     1      -7.071  -6.058  11.845  1.00  0.00     0.031 C 
ATOM     67  C   UNL     1      -5.149  -7.611  12.078  1.00  0.00     0.031 A 
BRANCH  54  68
ATOM     68  C   UNL     1       0.728  -8.613  10.373  1.00  0.00    -0.014 A 
ATOM     69  C   UNL     1       1.949  -8.121  10.864  1.00  0.00     0.009 A 
ATOM     70  C   UNL     1       0.688  -9.889   9.793  1.00  0.00     0.009 A 
ATOM     71  C   UNL     1       3.114  -8.878  10.732  1.00  0.00     0.001 A 
ATOM     72  C   UNL     1       1.845 -10.659   9.701  1.00  0.00     0.001 A 
ATOM     73  C   UNL     1       3.059 -10.148  10.158  1.00  0.00     0.000 A 
ENDBRANCH  54  68
BRANCH  55  74
ATOM     74  C   UNL     1      -7.274  -2.548   9.496  1.00  0.00    -0.014 A 
ATOM     75  C   UNL     1      -7.787  -1.854  10.606  1.00  0.00     0.009 A 
ATOM     76  C   UNL     1      -7.956  -2.420   8.273  1.00  0.00     0.009 A 
ATOM     77  C   UNL     1      -8.949  -1.076  10.494  1.00  0.00     0.001 A 
ATOM     78  C   UNL     1      -9.085  -1.605   8.149  1.00  0.00     0.001 A 
ATOM     79  C   UNL     1      -9.589  -0.943   9.264  1.00  0.00     0.000 A 
ENDBRANCH  55  74
BRANCH  67  80
ATOM     80  C   UNL     1      -5.964  -8.384  13.067  1.00  0.00    -0.014 A 
ATOM     81  C   UNL     1      -7.106  -9.105  12.693  1.00  0.00     0.009 A 
ATOM     82  C   UNL     1      -5.538  -8.412  14.405  1.00  0.00     0.009 A 
ATOM     83  C   UNL     1      -7.838  -9.798  13.658  1.00  0.00     0.001 A 
ATOM     84  C   UNL     1      -6.243  -9.143  15.354  1.00  0.00     0.001 A 
ATOM     85  C   UNL     1      -7.402  -9.822  14.983  1.00  0.00     0.000 A 
ENDBRANCH  67  80
ENDBRANCH  41  42
ENDBRANCH  34  36
ENDBRANCH  33  34
ENDBRANCH  32  33
ENDBRANCH  31  32
ENDBRANCH  30  31
ENDBRANCH   1  30
TORSDOF 16
