REMARK SMILES C[C@@H](C(=O)OCCOC(=O)c1ccc(-c2c3nc(c(-c4ccccc4)c4ccc([nH]4)c(-c4ccccc4)c4nc(c(-c5ccccc5)c5ccc2[nH]5)C=C4)C=C3)cc1)c1ccc(C[C@@H]2CCC[C@@H]2O)cc1F
REMARK SMILES IDX 6 1 5 2 3 3 4 4 2 5 1 6 59 7 60 8 71 9 61 10 70 11 72 12
REMARK SMILES IDX 62 13 63 14 64 15 65 16 68 17 66 18 67 19 69 20 7 22 8 23
REMARK SMILES IDX 9 24 10 25 11 26 12 27 58 28 13 29 57 30 14 31 15 32 16 33
REMARK SMILES IDX 51 34 17 35 56 36 50 37 52 38 18 39 55 40 49 41 48 42 19 44
REMARK SMILES IDX 41 45 26 46 40 47 27 48 30 49 39 50 53 51 28 52 29 53 38 55
REMARK SMILES IDX 54 56 31 57 20 58 21 59 25 60 22 61 24 62 23 63 42 64 43 65
REMARK SMILES IDX 47 66 44 67 46 68 45 69 32 70 33 71 37 72 34 73 36 74 35 75
REMARK H PARENT 69 21 52 43 30 54
REMARK Flexibility Score: inf
ROOT
ATOM      1  C   UNL     1      -8.873   2.683  10.814  1.00  0.00     0.274 C 
ENDROOT
BRANCH   1   2
ATOM      2  O   UNL     1      -9.718   2.982   9.683  1.00  0.00    -0.462 OA
BRANCH   2   3
ATOM      3  C   UNL     1      -9.187   3.751   8.693  1.00  0.00     0.313 C 
ATOM      4  O   UNL     1      -8.054   4.218   8.716  1.00  0.00    -0.252 OA
BRANCH   3   5
ATOM      5  C   UNL     1     -10.165   3.954   7.529  1.00  0.00     0.129 C 
ATOM      6  C   UNL     1     -11.546   3.333   7.757  1.00  0.00     0.025 C 
BRANCH   5   7
ATOM      7  C   UNL     1      -9.582   3.468   6.215  1.00  0.00     0.002 A 
ATOM      8  C   UNL     1      -9.001   2.200   6.099  1.00  0.00     0.008 A 
ATOM      9  C   UNL     1      -9.628   4.268   5.072  1.00  0.00     0.127 A 
ATOM     10  C   UNL     1      -8.425   1.781   4.896  1.00  0.00     0.004 A 
ATOM     11  C   UNL     1      -9.052   3.857   3.869  1.00  0.00     0.043 A 
ATOM     12  F   UNL     1     -10.249   5.456   5.116  1.00  0.00    -0.207 F 
ATOM     13  C   UNL     1      -8.412   2.615   3.775  1.00  0.00    -0.045 A 
BRANCH  13  14
ATOM     14  C   UNL     1      -7.760   2.173   2.488  1.00  0.00     0.041 C 
BRANCH  14  15
ATOM     15  C   UNL     1      -6.226   2.293   2.340  1.00  0.00     0.022 C 
ATOM     16  C   UNL     1      -5.407   1.396   3.271  1.00  0.00     0.007 C 
ATOM     17  C   UNL     1      -5.594   3.669   2.558  1.00  0.00     0.117 C 
ATOM     18  C   UNL     1      -4.893   2.282   4.407  1.00  0.00     0.003 C 
ATOM     19  C   UNL     1      -5.260   3.716   4.042  1.00  0.00     0.032 C 
BRANCH  17  20
ATOM     20  O   UNL     1      -6.418   4.747   2.167  1.00  0.00    -0.393 OA
ATOM     21  H   UNL     1      -7.242   4.726   2.680  1.00  0.00     0.210 HD
ENDBRANCH  17  20
ENDBRANCH  14  15
ENDBRANCH  13  14
ENDBRANCH   5   7
ENDBRANCH   3   5
ENDBRANCH   2   3
ENDBRANCH   1   2
BRANCH   1  22
ATOM     22  C   UNL     1      -8.957   1.186  11.100  1.00  0.00     0.275 C 
BRANCH  22  23
ATOM     23  O   UNL     1      -8.253   0.491  10.054  1.00  0.00    -0.458 OA
BRANCH  23  24
ATOM     24  C   UNL     1      -8.763  -0.696   9.659  1.00  0.00     0.338 C 
ATOM     25  O   UNL     1      -9.739  -1.264  10.134  1.00  0.00    -0.246 OA
BRANCH  24  26
ATOM     26  C   UNL     1      -7.980  -1.233   8.517  1.00  0.00     0.060 A 
ATOM     27  C   UNL     1      -7.173  -0.402   7.742  1.00  0.00     0.016 A 
ATOM     28  C   UNL     1      -8.115  -2.578   8.154  1.00  0.00     0.016 A 
ATOM     29  C   UNL     1      -6.611  -0.884   6.559  1.00  0.00     0.010 A 
ATOM     30  C   UNL     1      -7.474  -3.076   7.006  1.00  0.00     0.010 A 
ATOM     31  C   UNL     1      -6.759  -2.222   6.153  1.00  0.00    -0.014 A 
BRANCH  31  32
ATOM     32  C   UNL     1      -6.259  -2.662   4.807  1.00  0.00     0.031 A 
ATOM     33  C   UNL     1      -7.190  -3.330   3.814  1.00  0.00     0.074 A 
ATOM     34  C   UNL     1      -5.008  -2.363   4.392  1.00  0.00     0.049 A 
ATOM     35  N   UNL     1      -6.904  -3.867   2.651  1.00  0.00    -0.248 NA
ATOM     36  C   UNL     1      -8.614  -3.426   4.171  1.00  0.00     0.031 C 
ATOM     37  C   UNL     1      -3.997  -1.653   5.177  1.00  0.00     0.029 A 
ATOM     38  N   UNL     1      -4.408  -2.522   3.163  1.00  0.00    -0.354 N 
ATOM     39  C   UNL     1      -8.074  -4.479   2.214  1.00  0.00     0.074 A 
ATOM     40  C   UNL     1      -9.093  -4.187   3.196  1.00  0.00     0.031 C 
ATOM     41  C   UNL     1      -3.007  -1.258   4.361  1.00  0.00     0.029 A 
ATOM     42  C   UNL     1      -3.242  -1.803   3.028  1.00  0.00     0.049 A 
ATOM     43  H   UNL     1      -4.777  -3.093   2.451  1.00  0.00     0.167 HD
ATOM     44  C   UNL     1      -8.267  -5.250   1.116  1.00  0.00     0.031 A 
ATOM     45  C   UNL     1      -2.459  -1.594   1.951  1.00  0.00     0.031 A 
ATOM     46  C   UNL     1      -7.285  -5.462   0.087  1.00  0.00     0.049 A 
ATOM     47  C   UNL     1      -2.725  -2.371   0.693  1.00  0.00     0.074 A 
ATOM     48  C   UNL     1      -7.342  -6.305  -1.011  1.00  0.00     0.029 A 
ATOM     49  N   UNL     1      -6.087  -4.776  -0.000  1.00  0.00    -0.354 N 
ATOM     50  N   UNL     1      -3.755  -3.116   0.381  1.00  0.00    -0.248 NA
ATOM     51  C   UNL     1      -1.672  -2.332  -0.336  1.00  0.00     0.031 C 
ATOM     52  C   UNL     1      -6.166  -6.141  -1.752  1.00  0.00     0.029 A 
ATOM     53  C   UNL     1      -5.398  -5.169  -1.134  1.00  0.00     0.049 A 
ATOM     54  H   UNL     1      -5.771  -4.106   0.649  1.00  0.00     0.167 HD
ATOM     55  C   UNL     1      -3.447  -3.682  -0.849  1.00  0.00     0.074 A 
ATOM     56  C   UNL     1      -2.179  -3.125  -1.269  1.00  0.00     0.031 C 
ATOM     57  C   UNL     1      -4.131  -4.625  -1.540  1.00  0.00     0.031 A 
BRANCH  44  58
ATOM     58  C   UNL     1      -9.554  -6.019   1.029  1.00  0.00    -0.014 A 
ATOM     59  C   UNL     1     -10.758  -5.430   0.621  1.00  0.00     0.009 A 
ATOM     60  C   UNL     1      -9.534  -7.391   1.334  1.00  0.00     0.009 A 
ATOM     61  C   UNL     1     -11.924  -6.199   0.545  1.00  0.00     0.001 A 
ATOM     62  C   UNL     1     -10.694  -8.160   1.235  1.00  0.00     0.001 A 
ATOM     63  C   UNL     1     -11.890  -7.562   0.847  1.00  0.00     0.000 A 
ENDBRANCH  44  58
BRANCH  45  64
ATOM     64  C   UNL     1      -1.339  -0.615   1.991  1.00  0.00    -0.014 A 
ATOM     65  C   UNL     1      -1.392   0.524   1.169  1.00  0.00     0.009 A 
ATOM     66  C   UNL     1      -0.214  -0.807   2.805  1.00  0.00     0.009 A 
ATOM     67  C   UNL     1      -0.339   1.441   1.154  1.00  0.00     0.001 A 
ATOM     68  C   UNL     1       0.822   0.131   2.814  1.00  0.00     0.001 A 
ATOM     69  C   UNL     1       0.763   1.248   1.984  1.00  0.00     0.000 A 
ENDBRANCH  45  64
BRANCH  57  70
ATOM     70  C   UNL     1      -3.495  -5.154  -2.791  1.00  0.00    -0.014 A 
ATOM     71  C   UNL     1      -2.401  -6.032  -2.709  1.00  0.00     0.009 A 
ATOM     72  C   UNL     1      -4.005  -4.814  -4.051  1.00  0.00     0.009 A 
ATOM     73  C   UNL     1      -1.811  -6.537  -3.869  1.00  0.00     0.001 A 
ATOM     74  C   UNL     1      -3.425  -5.337  -5.209  1.00  0.00     0.001 A 
ATOM     75  C   UNL     1      -2.326  -6.191  -5.118  1.00  0.00     0.000 A 
ENDBRANCH  57  70
ENDBRANCH  31  32
ENDBRANCH  24  26
ENDBRANCH  23  24
ENDBRANCH  22  23
ENDBRANCH   1  22
TORSDOF 15
