REMARK SMILES COc1cccc([C@@H]2CN(C(=O)c3cnn(C)c3)C[C@H]2C(=O)OCCOC(=O)c2ccc(-c3c4nc(c(-c5ccccc5)c5ccc([nH]5)c(-c5ccccc5)c5nc(c(-c6ccccc6)c6ccc3[nH]6)C=C5)C=C4)cc2)c1OC
REMARK SMILES IDX 24 1 23 2 21 3 22 4 20 5 8 6 9 7 10 8 19 9 7 10 3 11 4 12
REMARK SMILES IDX 77 13 5 14 6 15 2 16 1 17 78 18 79 19 11 20 12 21 13 22
REMARK SMILES IDX 14 23 18 24 15 25 16 26 17 27 25 28 26 29 27 30 28 31 29 32
REMARK SMILES IDX 30 33 76 34 31 35 75 36 32 37 33 38 34 39 69 40 35 41 74 42
REMARK SMILES IDX 68 43 70 44 36 45 73 46 67 47 66 48 37 50 59 51 44 52 58 53
REMARK SMILES IDX 45 54 48 55 57 56 71 57 46 58 47 59 56 61 72 62 49 63 38 64
REMARK SMILES IDX 39 65 43 66 40 67 42 68 41 69 60 70 61 71 65 72 62 73 64 74
REMARK SMILES IDX 63 75 50 76 51 77 55 78 52 79 54 80 53 81
REMARK H PARENT 70 49 48 60
REMARK Flexibility Score: inf
ROOT
ATOM      1  C   UNL     1       4.636   5.513  -4.198  1.00  0.00     0.274 C 
ENDROOT
BRANCH   1   2
ATOM      2  O   UNL     1       4.685   4.074  -4.131  1.00  0.00    -0.462 OA
BRANCH   2   3
ATOM      3  C   UNL     1       5.006   3.554  -2.920  1.00  0.00     0.311 C 
ATOM      4  O   UNL     1       5.263   4.221  -1.922  1.00  0.00    -0.252 OA
BRANCH   3   5
ATOM      5  C   UNL     1       5.104   2.049  -2.909  1.00  0.00     0.128 C 
ATOM      6  C   UNL     1       4.301   1.277  -3.971  1.00  0.00     0.059 C 
ATOM      7  C   UNL     1       5.210   0.099  -4.339  1.00  0.00     0.129 C 
ATOM      8  N   UNL     1       6.561   0.549  -4.055  1.00  0.00    -0.337 N 
ATOM      9  C   UNL     1       6.563   1.688  -3.161  1.00  0.00     0.135 C 
BRANCH   6  10
ATOM     10  C   UNL     1       2.901   0.806  -3.591  1.00  0.00     0.004 A 
ATOM     11  C   UNL     1       1.322  -0.487  -2.254  1.00  0.00     0.161 A 
ATOM     12  C   UNL     1       0.286  -0.127  -3.123  1.00  0.00     0.050 A 
ATOM     13  C   UNL     1       2.635  -0.031  -2.478  1.00  0.00     0.164 A 
ATOM     14  C   UNL     1       0.541   0.706  -4.206  1.00  0.00     0.004 A 
ATOM     15  C   UNL     1       1.836   1.166  -4.438  1.00  0.00     0.008 A 
BRANCH  11  16
ATOM     16  O   UNL     1       1.048  -1.386  -1.256  1.00  0.00    -0.493 OA
ATOM     17  C   UNL     1       0.153  -0.847  -0.283  1.00  0.00     0.278 C 
ENDBRANCH  11  16
BRANCH  13  18
ATOM     18  O   UNL     1       3.737  -0.353  -1.729  1.00  0.00    -0.493 OA
ATOM     19  C   UNL     1       3.560  -0.865  -0.417  1.00  0.00     0.278 C 
ENDBRANCH  13  18
ENDBRANCH   6  10
BRANCH   8  20
ATOM     20  C   UNL     1       7.744  -0.129  -4.306  1.00  0.00     0.257 C 
ATOM     21  O   UNL     1       8.807   0.222  -3.798  1.00  0.00    -0.269 OA
BRANCH  20  22
ATOM     22  C   UNL     1       7.683  -1.301  -5.156  1.00  0.00     0.077 A 
ATOM     23  C   UNL     1       8.338  -2.535  -4.952  1.00  0.00     0.149 A 
ATOM     24  C   UNL     1       7.047  -1.465  -6.372  1.00  0.00     0.122 A 
ATOM     25  N   UNL     1       8.064  -3.432  -5.905  1.00  0.00    -0.181 NA
ATOM     26  N   UNL     1       7.263  -2.757  -6.747  1.00  0.00    -0.275 N 
ATOM     27  C   UNL     1       6.712  -3.424  -7.900  1.00  0.00     0.173 C 
ENDBRANCH  20  22
ENDBRANCH   8  20
ENDBRANCH   3   5
ENDBRANCH   2   3
ENDBRANCH   1   2
BRANCH   1  28
ATOM     28  C   UNL     1       3.209   6.027  -4.023  1.00  0.00     0.275 C 
BRANCH  28  29
ATOM     29  O   UNL     1       2.669   5.590  -2.762  1.00  0.00    -0.458 OA
BRANCH  29  30
ATOM     30  C   UNL     1       1.670   4.683  -2.845  1.00  0.00     0.338 C 
ATOM     31  O   UNL     1       1.135   4.257  -3.854  1.00  0.00    -0.246 OA
BRANCH  30  32
ATOM     32  C   UNL     1       1.276   4.254  -1.496  1.00  0.00     0.060 A 
ATOM     33  C   UNL     1       2.043   3.311  -0.814  1.00  0.00     0.016 A 
ATOM     34  C   UNL     1       0.059   4.685  -0.969  1.00  0.00     0.016 A 
ATOM     35  C   UNL     1       1.562   2.746   0.366  1.00  0.00     0.010 A 
ATOM     36  C   UNL     1      -0.396   4.155   0.244  1.00  0.00     0.010 A 
ATOM     37  C   UNL     1       0.327   3.144   0.900  1.00  0.00    -0.014 A 
BRANCH  37  38
ATOM     38  C   UNL     1      -0.234   2.440   2.087  1.00  0.00     0.031 A 
ATOM     39  C   UNL     1      -1.506   1.635   1.965  1.00  0.00     0.074 A 
ATOM     40  C   UNL     1       0.418   2.465   3.267  1.00  0.00     0.049 A 
ATOM     41  N   UNL     1      -2.139   0.946   2.883  1.00  0.00    -0.248 NA
ATOM     42  C   UNL     1      -2.138   1.574   0.636  1.00  0.00     0.031 C 
ATOM     43  C   UNL     1       1.680   3.160   3.525  1.00  0.00     0.029 A 
ATOM     44  N   UNL     1       0.109   1.879   4.471  1.00  0.00    -0.354 N 
ATOM     45  C   UNL     1      -3.239   0.382   2.249  1.00  0.00     0.074 A 
ATOM     46  C   UNL     1      -3.199   0.816   0.870  1.00  0.00     0.031 C 
ATOM     47  C   UNL     1       2.047   2.944   4.798  1.00  0.00     0.029 A 
ATOM     48  C   UNL     1       1.021   2.148   5.463  1.00  0.00     0.049 A 
ATOM     49  H   UNL     1      -0.689   1.320   4.610  1.00  0.00     0.167 HD
ATOM     50  C   UNL     1      -4.199  -0.426   2.760  1.00  0.00     0.031 A 
ATOM     51  C   UNL     1       1.021   1.822   6.770  1.00  0.00     0.031 A 
ATOM     52  C   UNL     1      -4.274  -0.843   4.134  1.00  0.00     0.049 A 
ATOM     53  C   UNL     1      -0.116   1.017   7.335  1.00  0.00     0.074 A 
ATOM     54  C   UNL     1      -5.228  -1.643   4.741  1.00  0.00     0.029 A 
ATOM     55  N   UNL     1      -3.369  -0.485   5.119  1.00  0.00    -0.354 N 
ATOM     56  N   UNL     1      -1.149   0.499   6.717  1.00  0.00    -0.248 NA
ATOM     57  C   UNL     1      -0.084   0.756   8.782  1.00  0.00     0.031 C 
ATOM     58  C   UNL     1      -4.928  -1.726   6.104  1.00  0.00     0.029 A 
ATOM     59  C   UNL     1      -3.756  -1.025   6.334  1.00  0.00     0.049 A 
ATOM     60  H   UNL     1      -2.568   0.071   4.976  1.00  0.00     0.167 HD
ATOM     61  C   UNL     1      -1.878  -0.165   7.695  1.00  0.00     0.074 A 
ATOM     62  C   UNL     1      -1.160  -0.001   8.942  1.00  0.00     0.031 C 
ATOM     63  C   UNL     1      -3.041  -0.851   7.570  1.00  0.00     0.031 A 
BRANCH  50  64
ATOM     64  C   UNL     1      -5.284  -0.882   1.826  1.00  0.00    -0.014 A 
ATOM     65  C   UNL     1      -5.052  -1.890   0.878  1.00  0.00     0.009 A 
ATOM     66  C   UNL     1      -6.568  -0.325   1.929  1.00  0.00     0.009 A 
ATOM     67  C   UNL     1      -6.081  -2.315   0.035  1.00  0.00     0.001 A 
ATOM     68  C   UNL     1      -7.600  -0.766   1.099  1.00  0.00     0.001 A 
ATOM     69  C   UNL     1      -7.354  -1.756   0.149  1.00  0.00     0.000 A 
ENDBRANCH  50  64
BRANCH  51  70
ATOM     70  C   UNL     1       2.116   2.300   7.654  1.00  0.00    -0.014 A 
ATOM     71  C   UNL     1       3.037   1.399   8.211  1.00  0.00     0.009 A 
ATOM     72  C   UNL     1       2.231   3.665   7.962  1.00  0.00     0.009 A 
ATOM     73  C   UNL     1       4.037   1.855   9.073  1.00  0.00     0.001 A 
ATOM     74  C   UNL     1       3.250   4.121   8.799  1.00  0.00     0.001 A 
ATOM     75  C   UNL     1       4.146   3.215   9.361  1.00  0.00     0.000 A 
ENDBRANCH  51  70
BRANCH  63  76
ATOM     76  C   UNL     1      -3.589  -1.502   8.808  1.00  0.00    -0.014 A 
ATOM     77  C   UNL     1      -4.168  -0.743   9.837  1.00  0.00     0.009 A 
ATOM     78  C   UNL     1      -3.540  -2.899   8.937  1.00  0.00     0.009 A 
ATOM     79  C   UNL     1      -4.651  -1.369  10.989  1.00  0.00     0.001 A 
ATOM     80  C   UNL     1      -4.049  -3.523  10.077  1.00  0.00     0.001 A 
ATOM     81  C   UNL     1      -4.594  -2.757  11.106  1.00  0.00     0.000 A 
ENDBRANCH  63  76
ENDBRANCH  37  38
ENDBRANCH  30  32
ENDBRANCH  29  30
ENDBRANCH  28  29
ENDBRANCH   1  28
TORSDOF 16
