REMARK SMILES COc1cc(/C=C/C(=O)OCCOC(=O)c2ccc(-c3c4nc(c(-c5ccccc5)c5ccc([nH]5)c(-c5ccccc5)c5nc(c(-c6ccccc6)c6ccc3[nH]6)C=C5)C=C4)cc2)cc(OC)c1O
REMARK SMILES IDX 11 1 10 2 8 3 9 4 7 5 6 6 5 7 3 8 4 9 68 10 65 11 64 12 2 13
REMARK SMILES IDX 1 14 69 15 66 17 67 18 12 19 13 20 14 21 15 22 16 23 17 24
REMARK SMILES IDX 63 25 18 26 62 27 19 28 20 29 21 30 56 31 22 32 61 33 55 34
REMARK SMILES IDX 57 35 23 36 60 37 54 38 53 39 24 41 46 42 31 43 45 44 32 45
REMARK SMILES IDX 35 46 44 47 58 48 33 49 34 50 43 52 59 53 36 54 25 55 26 56
REMARK SMILES IDX 30 57 27 58 29 59 28 60 47 61 48 62 52 63 49 64 51 65 50 66
REMARK SMILES IDX 37 67 38 68 42 69 39 70 41 71 40 72
REMARK H PARENT 69 16 57 40 35 51
REMARK Flexibility Score: inf
ROOT
ATOM      1  C   UNL     1      -2.138  -1.698  -9.347  1.00  0.00     0.275 C 
ENDROOT
BRANCH   1   2
ATOM      2  O   UNL     1      -1.595  -1.939  -8.035  1.00  0.00    -0.459 OA
BRANCH   2   3
ATOM      3  C   UNL     1      -0.602  -1.104  -7.651  1.00  0.00     0.330 C 
ATOM      4  O   UNL     1      -0.096  -0.222  -8.331  1.00  0.00    -0.247 OA
BRANCH   3   5
ATOM      5  C   UNL     1      -0.180  -1.314  -6.252  1.00  0.00     0.094 C 
ATOM      6  C   UNL     1      -0.745  -2.152  -5.368  1.00  0.00     0.016 C 
BRANCH   6   7
ATOM      7  C   UNL     1      -0.285  -2.228  -3.971  1.00  0.00    -0.018 A 
ATOM      8  C   UNL     1       0.499  -1.153  -1.923  1.00  0.00     0.165 A 
ATOM      9  C   UNL     1       0.020  -1.076  -3.236  1.00  0.00     0.058 A 
ATOM     10  C   UNL     1       0.681  -2.411  -1.331  1.00  0.00     0.200 A 
ATOM     11  C   UNL     1       0.317  -3.577  -2.023  1.00  0.00     0.165 A 
ATOM     12  C   UNL     1      -0.163  -3.469  -3.339  1.00  0.00     0.058 A 
BRANCH   8  13
ATOM     13  O   UNL     1       0.823   0.066  -1.387  1.00  0.00    -0.493 OA
ATOM     14  C   UNL     1       0.689   0.230   0.021  1.00  0.00     0.278 C 
ENDBRANCH   8  13
BRANCH  10  15
ATOM     15  O   UNL     1       1.301  -2.504  -0.116  1.00  0.00    -0.502 OA
ATOM     16  H   UNL     1       1.544  -1.726   0.347  1.00  0.00     0.293 HD
ENDBRANCH  10  15
BRANCH  11  17
ATOM     17  O   UNL     1       0.425  -4.878  -1.605  1.00  0.00    -0.493 OA
ATOM     18  C   UNL     1       0.757  -5.128  -0.246  1.00  0.00     0.278 C 
ENDBRANCH  11  17
ENDBRANCH   6   7
ENDBRANCH   3   5
ENDBRANCH   2   3
ENDBRANCH   1   2
BRANCH   1  19
ATOM     19  C   UNL     1      -3.476  -0.956  -9.275  1.00  0.00     0.275 C 
BRANCH  19  20
ATOM     20  O   UNL     1      -3.328   0.372  -8.737  1.00  0.00    -0.458 OA
BRANCH  20  21
ATOM     21  C   UNL     1      -3.478   0.460  -7.394  1.00  0.00     0.338 C 
ATOM     22  O   UNL     1      -3.758  -0.445  -6.625  1.00  0.00    -0.246 OA
BRANCH  21  23
ATOM     23  C   UNL     1      -3.142   1.818  -6.926  1.00  0.00     0.060 A 
ATOM     24  C   UNL     1      -2.285   1.929  -5.827  1.00  0.00     0.016 A 
ATOM     25  C   UNL     1      -3.718   2.959  -7.492  1.00  0.00     0.016 A 
ATOM     26  C   UNL     1      -2.013   3.179  -5.278  1.00  0.00     0.010 A 
ATOM     27  C   UNL     1      -3.447   4.216  -6.936  1.00  0.00     0.010 A 
ATOM     28  C   UNL     1      -2.609   4.330  -5.814  1.00  0.00    -0.014 A 
BRANCH  28  29
ATOM     29  C   UNL     1      -2.389   5.633  -5.141  1.00  0.00     0.031 A 
ATOM     30  C   UNL     1      -3.432   6.183  -4.209  1.00  0.00     0.074 A 
ATOM     31  C   UNL     1      -1.230   6.293  -5.315  1.00  0.00     0.049 A 
ATOM     32  N   UNL     1      -3.391   7.263  -3.469  1.00  0.00    -0.248 NA
ATOM     33  C   UNL     1      -4.683   5.418  -4.093  1.00  0.00     0.031 C 
ATOM     34  C   UNL     1      -0.129   5.856  -6.172  1.00  0.00     0.029 A 
ATOM     35  N   UNL     1      -0.782   7.466  -4.761  1.00  0.00    -0.354 N 
ATOM     36  C   UNL     1      -4.606   7.305  -2.796  1.00  0.00     0.074 A 
ATOM     37  C   UNL     1      -5.374   6.160  -3.240  1.00  0.00     0.031 C 
ATOM     38  C   UNL     1       0.877   6.741  -6.074  1.00  0.00     0.029 A 
ATOM     39  C   UNL     1       0.483   7.814  -5.164  1.00  0.00     0.049 A 
ATOM     40  H   UNL     1      -1.317   8.005  -4.134  1.00  0.00     0.167 HD
ATOM     41  C   UNL     1      -5.041   8.209  -1.886  1.00  0.00     0.031 A 
ATOM     42  C   UNL     1       1.240   8.878  -4.837  1.00  0.00     0.031 A 
ATOM     43  C   UNL     1      -4.289   9.356  -1.448  1.00  0.00     0.049 A 
ATOM     44  C   UNL     1       0.714   9.892  -3.860  1.00  0.00     0.074 A 
ATOM     45  C   UNL     1      -4.646  10.318  -0.519  1.00  0.00     0.029 A 
ATOM     46  N   UNL     1      -3.031   9.699  -1.916  1.00  0.00    -0.354 N 
ATOM     47  N   UNL     1      -0.422   9.900  -3.207  1.00  0.00    -0.248 NA
ATOM     48  C   UNL     1       1.585  11.041  -3.568  1.00  0.00     0.031 C 
ATOM     49  C   UNL     1      -3.619  11.267  -0.455  1.00  0.00     0.029 A 
ATOM     50  C   UNL     1      -2.606  10.870  -1.312  1.00  0.00     0.049 A 
ATOM     51  H   UNL     1      -2.516   9.186  -2.580  1.00  0.00     0.167 HD
ATOM     52  C   UNL     1      -0.396  11.042  -2.416  1.00  0.00     0.074 A 
ATOM     53  C   UNL     1       0.877  11.691  -2.655  1.00  0.00     0.031 C 
ATOM     54  C   UNL     1      -1.342  11.511  -1.567  1.00  0.00     0.031 A 
BRANCH  41  55
ATOM     55  C   UNL     1      -6.415   8.001  -1.317  1.00  0.00    -0.014 A 
ATOM     56  C   UNL     1      -6.662   6.998  -0.367  1.00  0.00     0.009 A 
ATOM     57  C   UNL     1      -7.469   8.838  -1.714  1.00  0.00     0.009 A 
ATOM     58  C   UNL     1      -7.946   6.817   0.151  1.00  0.00     0.001 A 
ATOM     59  C   UNL     1      -8.746   8.669  -1.179  1.00  0.00     0.001 A 
ATOM     60  C   UNL     1      -8.986   7.654  -0.253  1.00  0.00     0.000 A 
ENDBRANCH  41  55
BRANCH  42  61
ATOM     61  C   UNL     1       2.586   9.044  -5.440  1.00  0.00    -0.014 A 
ATOM     62  C   UNL     1       3.743   8.854  -4.670  1.00  0.00     0.009 A 
ATOM     63  C   UNL     1       2.717   9.409  -6.789  1.00  0.00     0.009 A 
ATOM     64  C   UNL     1       5.005   9.048  -5.234  1.00  0.00     0.001 A 
ATOM     65  C   UNL     1       3.981   9.579  -7.356  1.00  0.00     0.001 A 
ATOM     66  C   UNL     1       5.123   9.406  -6.577  1.00  0.00     0.000 A 
ENDBRANCH  42  61
BRANCH  54  67
ATOM     67  C   UNL     1      -1.025  12.777  -0.824  1.00  0.00    -0.014 A 
ATOM     68  C   UNL     1      -1.042  14.022  -1.473  1.00  0.00     0.009 A 
ATOM     69  C   UNL     1      -0.723  12.726   0.545  1.00  0.00     0.009 A 
ATOM     70  C   UNL     1      -0.728  15.187  -0.771  1.00  0.00     0.001 A 
ATOM     71  C   UNL     1      -0.433  13.896   1.249  1.00  0.00     0.001 A 
ATOM     72  C   UNL     1      -0.427  15.124   0.589  1.00  0.00     0.000 A 
ENDBRANCH  54  67
ENDBRANCH  28  29
ENDBRANCH  21  23
ENDBRANCH  20  21
ENDBRANCH  19  20
ENDBRANCH   1  19
TORSDOF 15
