REMARK SMILES Cc1nsc(NC(=O)[C@H]2Cc3[nH]cnc3C[NH2+]2)c1C(=O)OCCOC(=O)c1ccc(-c2c3nc(c(-c4ccccc4)c4ccc([nH]4)c(-c4ccccc4)c4nc(c(-c5ccccc5)c5ccc2[nH]5)C=C4)C=C3)cc1
REMARK SMILES IDX 22 1 21 2 19 3 20 4 18 5 1 6 2 7 3 8 4 9 5 10 6 11 7 12 8 14
REMARK SMILES IDX 9 15 10 16 17 17 11 18 16 19 12 22 15 23 13 24 14 26 23 27
REMARK SMILES IDX 24 28 25 29 26 30 27 31 28 32 74 33 29 34 73 35 30 36 31 37
REMARK SMILES IDX 32 38 67 39 33 40 72 41 66 42 68 43 34 44 71 45 65 46 64 47
REMARK SMILES IDX 35 49 57 50 42 51 56 52 43 53 46 54 55 55 69 56 44 57 45 58
REMARK SMILES IDX 54 60 70 61 47 62 36 63 37 64 41 65 38 66 40 67 39 68 58 69
REMARK SMILES IDX 59 70 63 71 60 72 62 73 61 74 48 75 49 76 53 77 50 78 52 79
REMARK SMILES IDX 51 80
REMARK H PARENT 6 13 17 20 17 21 12 25 68 48 46 59
REMARK Flexibility Score: inf
ROOT
ATOM      1  C   UNL     1       1.804   2.922   2.612  1.00  0.00     0.275 C 
ENDROOT
BRANCH   1   2
ATOM      2  O   UNL     1       1.211   2.215   1.510  1.00  0.00    -0.458 OA
BRANCH   2   3
ATOM      3  C   UNL     1       0.670   2.960   0.505  1.00  0.00     0.343 C 
ATOM      4  O   UNL     1       0.507   4.177   0.561  1.00  0.00    -0.246 OA
BRANCH   3   5
ATOM      5  C   UNL     1       0.393   2.182  -0.695  1.00  0.00     0.117 A 
ATOM      6  C   UNL     1       0.782  -0.261   0.222  1.00  0.00     0.069 C 
ATOM      7  C   UNL     1       0.431   0.738  -0.826  1.00  0.00     0.068 A 
ATOM      8  N   UNL     1       0.150   0.260  -2.036  1.00  0.00    -0.195 NA
ATOM      9  S   UNL     1      -0.098   1.517  -3.051  1.00  0.00    -0.017 S 
ATOM     10  C   UNL     1       0.145   2.760  -1.940  1.00  0.00     0.131 A 
BRANCH  10  11
ATOM     11  N   UNL     1       0.194   4.104  -2.273  1.00  0.00    -0.310 N 
ATOM     12  C   UNL     1      -0.008   4.838  -3.408  1.00  0.00     0.283 C 
ATOM     13  H   UNL     1       0.432   4.669  -1.503  1.00  0.00     0.171 HD
ATOM     14  O   UNL     1       0.448   5.993  -3.383  1.00  0.00    -0.268 OA
BRANCH  12  15
ATOM     15  C   UNL     1      -0.731   4.363  -4.686  1.00  0.00     0.279 C 
ATOM     16  C   UNL     1       0.248   3.610  -5.649  1.00  0.00     0.131 C 
ATOM     17  N   UNL     1      -2.058   3.757  -4.329  1.00  0.00    -0.331 N 
ATOM     18  C   UNL     1      -0.418   2.396  -6.181  1.00  0.00     0.050 A 
ATOM     19  C   UNL     1      -2.723   3.119  -5.490  1.00  0.00     0.320 C 
ATOM     20  H   UNL     1      -2.666   4.492  -3.966  1.00  0.00     0.347 HD
ATOM     21  H   UNL     1      -1.889   3.032  -3.631  1.00  0.00     0.347 HD
ATOM     22  N   UNL     1       0.142   1.242  -6.642  1.00  0.00    -0.348 N 
ATOM     23  C   UNL     1      -1.769   2.151  -6.097  1.00  0.00     0.116 A 
ATOM     24  C   UNL     1      -0.879   0.333  -6.754  1.00  0.00     0.197 A 
ATOM     25  H   UNL     1       1.092   1.091  -6.853  1.00  0.00     0.167 HD
ATOM     26  N   UNL     1      -2.048   0.861  -6.453  1.00  0.00    -0.236 NA
ENDBRANCH  12  15
ENDBRANCH  10  11
ENDBRANCH   3   5
ENDBRANCH   2   3
ENDBRANCH   1   2
BRANCH   1  27
ATOM     27  C   UNL     1       3.275   3.216   2.343  1.00  0.00     0.275 C 
BRANCH  27  28
ATOM     28  O   UNL     1       3.432   4.328   1.461  1.00  0.00    -0.458 OA
BRANCH  28  29
ATOM     29  C   UNL     1       3.543   4.011   0.153  1.00  0.00     0.338 C 
ATOM     30  O   UNL     1       3.301   2.939  -0.375  1.00  0.00    -0.246 OA
BRANCH  29  31
ATOM     31  C   UNL     1       4.157   5.125  -0.565  1.00  0.00     0.060 A 
ATOM     32  C   UNL     1       3.984   5.191  -1.949  1.00  0.00     0.016 A 
ATOM     33  C   UNL     1       5.079   5.936   0.109  1.00  0.00     0.016 A 
ATOM     34  C   UNL     1       4.839   5.989  -2.681  1.00  0.00     0.010 A 
ATOM     35  C   UNL     1       5.922   6.739  -0.623  1.00  0.00     0.010 A 
ATOM     36  C   UNL     1       5.844   6.701  -2.015  1.00  0.00    -0.014 A 
BRANCH  36  37
ATOM     37  C   UNL     1       6.776   7.476  -2.815  1.00  0.00     0.031 A 
ATOM     38  C   UNL     1       6.144   8.565  -3.599  1.00  0.00     0.074 A 
ATOM     39  C   UNL     1       8.108   7.292  -2.744  1.00  0.00     0.049 A 
ATOM     40  N   UNL     1       6.203   8.761  -4.874  1.00  0.00    -0.248 NA
ATOM     41  C   UNL     1       5.241   9.484  -2.884  1.00  0.00     0.031 C 
ATOM     42  C   UNL     1       8.840   6.417  -1.820  1.00  0.00     0.029 A 
ATOM     43  N   UNL     1       9.102   7.953  -3.399  1.00  0.00    -0.354 N 
ATOM     44  C   UNL     1       5.477   9.925  -5.108  1.00  0.00     0.074 A 
ATOM     45  C   UNL     1       4.803  10.252  -3.879  1.00  0.00     0.031 C 
ATOM     46  C   UNL     1      10.139   6.785  -1.797  1.00  0.00     0.029 A 
ATOM     47  C   UNL     1      10.348   7.810  -2.804  1.00  0.00     0.049 A 
ATOM     48  H   UNL     1       8.952   8.482  -4.215  1.00  0.00     0.167 HD
ATOM     49  C   UNL     1       5.678  10.676  -6.222  1.00  0.00     0.031 A 
ATOM     50  C   UNL     1      11.462   8.529  -3.071  1.00  0.00     0.031 A 
ATOM     51  C   UNL     1       6.344   9.938  -7.260  1.00  0.00     0.049 A 
ATOM     52  C   UNL     1      11.300   9.140  -4.406  1.00  0.00     0.074 A 
ATOM     53  C   UNL     1       6.020   8.887  -8.088  1.00  0.00     0.029 A 
ATOM     54  N   UNL     1       7.708  10.076  -7.300  1.00  0.00    -0.354 N 
ATOM     55  N   UNL     1      11.261   8.448  -5.508  1.00  0.00    -0.248 NA
ATOM     56  C   UNL     1      10.812  10.507  -4.515  1.00  0.00     0.031 C 
ATOM     57  C   UNL     1       7.247   8.202  -8.330  1.00  0.00     0.029 A 
ATOM     58  C   UNL     1       8.268   8.880  -7.660  1.00  0.00     0.049 A 
ATOM     59  H   UNL     1       8.204  10.902  -7.101  1.00  0.00     0.167 HD
ATOM     60  C   UNL     1      10.357   9.122  -6.312  1.00  0.00     0.074 A 
ATOM     61  C   UNL     1      10.256  10.454  -5.729  1.00  0.00     0.031 C 
ATOM     62  C   UNL     1       9.565   8.440  -7.190  1.00  0.00     0.031 A 
BRANCH  49  63
ATOM     63  C   UNL     1       5.713  12.184  -6.178  1.00  0.00    -0.014 A 
ATOM     64  C   UNL     1       5.896  12.892  -7.379  1.00  0.00     0.009 A 
ATOM     65  C   UNL     1       5.891  12.907  -4.982  1.00  0.00     0.009 A 
ATOM     66  C   UNL     1       6.303  14.232  -7.377  1.00  0.00     0.001 A 
ATOM     67  C   UNL     1       6.261  14.254  -4.977  1.00  0.00     0.001 A 
ATOM     68  C   UNL     1       6.494  14.909  -6.176  1.00  0.00     0.000 A 
ENDBRANCH  49  63
BRANCH  50  69
ATOM     69  C   UNL     1      12.540   8.905  -2.137  1.00  0.00    -0.014 A 
ATOM     70  C   UNL     1      13.812   9.266  -2.598  1.00  0.00     0.009 A 
ATOM     71  C   UNL     1      12.237   9.144  -0.782  1.00  0.00     0.009 A 
ATOM     72  C   UNL     1      14.740   9.870  -1.739  1.00  0.00     0.001 A 
ATOM     73  C   UNL     1      13.163   9.744   0.075  1.00  0.00     0.001 A 
ATOM     74  C   UNL     1      14.411  10.119  -0.407  1.00  0.00     0.000 A 
ENDBRANCH  50  69
BRANCH  62  75
ATOM     75  C   UNL     1       9.947   7.013  -7.489  1.00  0.00    -0.014 A 
ATOM     76  C   UNL     1       9.902   5.992  -6.523  1.00  0.00     0.009 A 
ATOM     77  C   UNL     1      10.253   6.667  -8.813  1.00  0.00     0.009 A 
ATOM     78  C   UNL     1      10.190   4.668  -6.867  1.00  0.00     0.001 A 
ATOM     79  C   UNL     1      10.519   5.341  -9.160  1.00  0.00     0.001 A 
ATOM     80  C   UNL     1      10.494   4.343  -8.187  1.00  0.00     0.000 A 
ENDBRANCH  62  75
ENDBRANCH  36  37
ENDBRANCH  29  31
ENDBRANCH  28  29
ENDBRANCH  27  28
ENDBRANCH   1  27
TORSDOF 13
