REMARK SMILES CC1=C(C)C[C@@H](C(=O)OCCOC(=O)c2ccc(-c3c4nc(c(-c5ccccc5)c5ccc([nH]5)c(-c5ccccc5)c5nc(c(-c6ccccc6)c6ccc3[nH]6)C=C5)C=C4)cc2)[C@@H](C(=O)N2CCN(c3cccc(C(F)(F)F)c3)CC2)C1
REMARK SMILES IDX 10 1 9 2 7 3 8 4 6 5 1 6 2 7 3 8 82 9 4 10 5 11 63 12 64 13
REMARK SMILES IDX 65 14 66 15 67 16 81 17 68 18 80 19 69 20 70 21 71 22 79 23
REMARK SMILES IDX 72 24 74 25 73 26 75 27 76 28 77 29 78 30 11 31 12 32 13 33
REMARK SMILES IDX 14 34 15 35 16 36 62 37 17 38 61 39 18 40 19 41 20 42 55 43
REMARK SMILES IDX 21 44 60 45 54 46 56 47 22 48 59 49 53 50 52 51 23 53 45 54
REMARK SMILES IDX 30 55 44 56 31 57 34 58 43 59 57 60 32 61 33 62 42 64 58 65
REMARK SMILES IDX 35 66 24 67 25 68 29 69 26 70 28 71 27 72 46 73 47 74 51 75
REMARK SMILES IDX 48 76 50 77 49 78 36 79 37 80 41 81 38 82 40 83 39 84
REMARK H PARENT 56 52 34 63
REMARK Flexibility Score: inf
ROOT
ATOM      1  C   UNL     1      -2.303  -4.005   2.756  1.00  0.00     0.274 C 
ENDROOT
BRANCH   1   2
ATOM      2  O   UNL     1      -1.648  -2.976   1.967  1.00  0.00    -0.462 OA
BRANCH   2   3
ATOM      3  C   UNL     1      -0.293  -3.061   1.772  1.00  0.00     0.310 C 
ATOM      4  O   UNL     1       0.486  -3.431   2.646  1.00  0.00    -0.252 OA
BRANCH   3   5
ATOM      5  C   UNL     1       0.090  -3.023   0.272  1.00  0.00     0.116 C 
ATOM      6  C   UNL     1       0.766   1.157   0.283  1.00  0.00     0.039 C 
ATOM      7  C   UNL     1       0.680  -0.317   0.015  1.00  0.00    -0.074 C 
ATOM      8  C   UNL     1       1.700  -1.171   0.249  1.00  0.00    -0.073 C 
ATOM      9  C   UNL     1      -0.693  -0.783  -0.501  1.00  0.00     0.045 C 
ATOM     10  C   UNL     1       3.047  -0.889   0.850  1.00  0.00     0.039 C 
ATOM     11  C   UNL     1       1.514  -2.617  -0.022  1.00  0.00     0.046 C 
ATOM     12  C   UNL     1      -0.889  -2.313  -0.640  1.00  0.00     0.097 C 
BRANCH  12  13
ATOM     13  C   UNL     1      -2.355  -2.738  -0.471  1.00  0.00     0.227 C 
ATOM     14  O   UNL     1      -3.266  -1.950  -0.745  1.00  0.00    -0.275 OA
ATOM     15  N   UNL     1      -2.655  -4.030  -0.038  1.00  0.00    -0.339 N 
ATOM     16  C   UNL     1      -4.511  -4.402  -0.087  1.00  0.00     0.141 C 
ATOM     17  C   UNL     1      -1.429  -5.422   0.413  1.00  0.00     0.141 C 
ATOM     18  C   UNL     1      -5.101  -6.235   0.336  1.00  0.00     0.138 C 
ATOM     19  C   UNL     1      -2.091  -7.183   0.913  1.00  0.00     0.138 C 
ATOM     20  N   UNL     1      -3.849  -7.575   0.588  1.00  0.00    -0.368 N 
BRANCH  20  21
ATOM     21  C   UNL     1      -4.153  -8.734   1.300  1.00  0.00     0.037 A 
ATOM     22  C   UNL     1      -3.801  -9.989   0.782  1.00  0.00     0.026 A 
ATOM     23  C   UNL     1      -4.539  -8.653   2.634  1.00  0.00     0.039 A 
ATOM     24  C   UNL     1      -3.836 -11.135   1.581  1.00  0.00     0.003 A 
ATOM     25  C   UNL     1      -4.507  -9.780   3.471  1.00  0.00     0.058 A 
ATOM     26  C   UNL     1      -4.176 -11.029   2.928  1.00  0.00     0.013 A 
BRANCH  25  27
ATOM     27  C   UNL     1      -4.778  -9.626   4.944  1.00  0.00     0.416 C 
ATOM     28  F   UNL     1      -6.056  -9.945   5.279  1.00  0.00    -0.166 F 
ATOM     29  F   UNL     1      -3.975 -10.411   5.715  1.00  0.00    -0.166 F 
ATOM     30  F   UNL     1      -4.579  -8.351   5.390  1.00  0.00    -0.166 F 
ENDBRANCH  25  27
ENDBRANCH  20  21
ENDBRANCH  12  13
ENDBRANCH   3   5
ENDBRANCH   2   3
ENDBRANCH   1   2
BRANCH   1  31
ATOM     31  C   UNL     1      -3.417  -4.944   2.059  1.00  0.00     0.275 C 
BRANCH  31  32
ATOM     32  O   UNL     1      -3.247  -5.755   0.445  1.00  0.00    -0.458 OA
BRANCH  32  33
ATOM     33  C   UNL     1      -3.150  -5.937  -1.200  1.00  0.00     0.338 C 
ATOM     34  O   UNL     1      -3.373  -5.082  -2.070  1.00  0.00    -0.246 OA
BRANCH  33  35
ATOM     35  C   UNL     1      -2.592  -7.114  -1.882  1.00  0.00     0.060 A 
ATOM     36  C   UNL     1      -1.280  -7.008  -2.388  1.00  0.00     0.016 A 
ATOM     37  C   UNL     1      -3.505  -7.989  -2.471  1.00  0.00     0.016 A 
ATOM     38  C   UNL     1      -0.857  -7.817  -3.414  1.00  0.00     0.010 A 
ATOM     39  C   UNL     1      -3.081  -8.813  -3.498  1.00  0.00     0.010 A 
ATOM     40  C   UNL     1      -1.756  -8.733  -3.945  1.00  0.00    -0.014 A 
BRANCH  40  41
ATOM     41  C   UNL     1      -1.268  -9.705  -4.914  1.00  0.00     0.031 A 
ATOM     42  C   UNL     1      -1.709  -9.621  -6.329  1.00  0.00     0.074 A 
ATOM     43  C   UNL     1      -0.493 -10.680  -4.411  1.00  0.00     0.049 A 
ATOM     44  N   UNL     1      -1.590 -10.517  -7.265  1.00  0.00    -0.248 NA
ATOM     45  C   UNL     1      -2.404  -8.389  -6.742  1.00  0.00     0.031 C 
ATOM     46  C   UNL     1      -0.035 -10.760  -3.015  1.00  0.00     0.029 A 
ATOM     47  N   UNL     1       0.024 -11.793  -4.995  1.00  0.00    -0.354 N 
ATOM     48  C   UNL     1      -2.237  -9.985  -8.370  1.00  0.00     0.074 A 
ATOM     49  C   UNL     1      -2.746  -8.685  -7.989  1.00  0.00     0.031 C 
ATOM     50  C   UNL     1       0.698 -11.868  -2.856  1.00  0.00     0.029 A 
ATOM     51  C   UNL     1       0.688 -12.602  -4.109  1.00  0.00     0.049 A 
ATOM     52  H   UNL     1      -0.069 -11.998  -5.954  1.00  0.00     0.167 HD
ATOM     53  C   UNL     1      -2.389 -10.565  -9.581  1.00  0.00     0.031 A 
ATOM     54  C   UNL     1       1.182 -13.835  -4.289  1.00  0.00     0.031 A 
ATOM     55  C   UNL     1      -1.859 -11.869  -9.883  1.00  0.00     0.049 A 
ATOM     56  C   UNL     1       0.986 -14.450  -5.638  1.00  0.00     0.074 A 
ATOM     57  C   UNL     1      -1.918 -12.578 -11.067  1.00  0.00     0.029 A 
ATOM     58  N   UNL     1      -1.159 -12.656  -8.974  1.00  0.00    -0.354 N 
ATOM     59  N   UNL     1       0.370 -13.949  -6.685  1.00  0.00    -0.248 NA
ATOM     60  C   UNL     1       1.535 -15.791  -5.833  1.00  0.00     0.031 C 
ATOM     61  C   UNL     1      -1.281 -13.808 -10.862  1.00  0.00     0.029 A 
ATOM     62  C   UNL     1      -0.788 -13.848  -9.565  1.00  0.00     0.049 A 
ATOM     63  H   UNL     1      -0.958 -12.401  -8.044  1.00  0.00     0.167 HD
ATOM     64  C   UNL     1       0.461 -14.913  -7.672  1.00  0.00     0.074 A 
ATOM     65  C   UNL     1       1.219 -16.015  -7.101  1.00  0.00     0.031 C 
ATOM     66  C   UNL     1      -0.041 -14.906  -8.931  1.00  0.00     0.031 A 
BRANCH  53  67
ATOM     67  C   UNL     1      -3.172  -9.817 -10.621  1.00  0.00    -0.014 A 
ATOM     68  C   UNL     1      -2.664  -8.654 -11.222  1.00  0.00     0.009 A 
ATOM     69  C   UNL     1      -4.434 -10.286 -11.018  1.00  0.00     0.009 A 
ATOM     70  C   UNL     1      -3.414  -7.962 -12.176  1.00  0.00     0.001 A 
ATOM     71  C   UNL     1      -5.173  -9.605 -11.990  1.00  0.00     0.001 A 
ATOM     72  C   UNL     1      -4.666  -8.440 -12.562  1.00  0.00     0.000 A 
ENDBRANCH  53  67
BRANCH  54  73
ATOM     73  C   UNL     1       1.861 -14.532  -3.171  1.00  0.00    -0.014 A 
ATOM     74  C   UNL     1       3.248 -14.727  -3.204  1.00  0.00     0.009 A 
ATOM     75  C   UNL     1       1.144 -14.945  -2.036  1.00  0.00     0.009 A 
ATOM     76  C   UNL     1       3.901 -15.340  -2.132  1.00  0.00     0.001 A 
ATOM     77  C   UNL     1       1.803 -15.530  -0.953  1.00  0.00     0.001 A 
ATOM     78  C   UNL     1       3.180 -15.736  -1.007  1.00  0.00     0.000 A 
ENDBRANCH  54  73
BRANCH  66  79
ATOM     79  C   UNL     1       0.241 -16.128  -9.748  1.00  0.00    -0.014 A 
ATOM     80  C   UNL     1      -0.466 -17.318  -9.522  1.00  0.00     0.009 A 
ATOM     81  C   UNL     1       1.205 -16.075 -10.764  1.00  0.00     0.009 A 
ATOM     82  C   UNL     1      -0.188 -18.449 -10.286  1.00  0.00     0.001 A 
ATOM     83  C   UNL     1       1.460 -17.200 -11.544  1.00  0.00     0.001 A 
ATOM     84  C   UNL     1       0.770 -18.387 -11.299  1.00  0.00     0.000 A 
ENDBRANCH  66  79
ENDBRANCH  40  41
ENDBRANCH  33  35
ENDBRANCH  32  33
ENDBRANCH  31  32
ENDBRANCH   1  31
TORSDOF 14
