REMARK SMILES CC(C)[C@@H](NC(=O)[C@@](C)([NH3+])C(F)(F)F)C(=O)OCCOC(=O)c1ccc(-c2c3nc(c(-c4ccccc4)c4ccc([nH]4)c(-c4ccccc4)c4nc(c(-c5ccccc5)c5ccc2[nH]5)C=C4)C=C3)cc1
REMARK SMILES IDX 18 1 17 2 15 3 16 4 4 5 2 6 1 7 3 8 5 9 6 10 7 12 8 13 9 14
REMARK SMILES IDX 10 15 11 19 12 20 13 21 14 22 19 23 20 24 21 25 22 26 23 27
REMARK SMILES IDX 24 28 70 29 25 30 69 31 26 32 27 33 28 34 63 35 29 36 68 37
REMARK SMILES IDX 62 38 64 39 30 40 67 41 61 42 60 43 31 45 53 46 38 47 52 48
REMARK SMILES IDX 39 49 42 50 51 51 65 52 40 53 41 54 50 56 66 57 43 58 32 59
REMARK SMILES IDX 33 60 37 61 34 62 36 63 35 64 54 65 55 66 59 67 56 68 58 69
REMARK SMILES IDX 57 70 44 71 45 72 49 73 46 74 48 75 47 76
REMARK H PARENT 5 11 10 16 10 17 10 18 64 44 42 55
REMARK Flexibility Score: inf
ROOT
ATOM      1  C   UNL     1      -1.233  -4.156  -3.332  1.00  0.00     0.274 C 
ENDROOT
BRANCH   1   2
ATOM      2  O   UNL     1      -0.658  -3.052  -2.599  1.00  0.00    -0.461 OA
BRANCH   2   3
ATOM      3  C   UNL     1      -1.470  -2.443  -1.698  1.00  0.00     0.329 C 
ATOM      4  O   UNL     1      -2.583  -2.861  -1.389  1.00  0.00    -0.250 OA
BRANCH   3   5
ATOM      5  C   UNL     1      -0.957  -1.080  -1.201  1.00  0.00     0.195 C 
BRANCH   5   6
ATOM      6  C   UNL     1       0.569  -0.790  -1.263  1.00  0.00     0.017 C 
ATOM      7  C   UNL     1       0.920   0.463  -0.435  1.00  0.00     0.010 C 
ATOM      8  C   UNL     1       1.411  -1.943  -0.692  1.00  0.00     0.010 C 
ENDBRANCH   5   6
BRANCH   5   9
ATOM      9  N   UNL     1      -1.800   0.093  -1.566  1.00  0.00    -0.337 N 
ATOM     10  C   UNL     1      -2.408   0.590  -2.687  1.00  0.00     0.291 C 
ATOM     11  H   UNL     1      -1.965   0.669  -0.786  1.00  0.00     0.164 HD
ATOM     12  O   UNL     1      -2.591   1.812  -2.670  1.00  0.00    -0.267 OA
BRANCH  10  13
ATOM     13  C   UNL     1      -2.913  -0.292  -3.850  1.00  0.00     0.267 C 
ATOM     14  C   UNL     1      -1.740  -0.912  -4.620  1.00  0.00     0.100 C 
BRANCH  13  15
ATOM     15  N   UNL     1      -3.842  -1.331  -3.303  1.00  0.00    -0.337 N 
ATOM     16  H   UNL     1      -3.336  -1.929  -2.649  1.00  0.00     0.345 HD
ATOM     17  H   UNL     1      -4.207  -1.898  -4.069  1.00  0.00     0.345 HD
ATOM     18  H   UNL     1      -4.615  -0.876  -2.819  1.00  0.00     0.345 HD
ENDBRANCH  13  15
BRANCH  13  19
ATOM     19  C   UNL     1      -3.688   0.622  -4.851  1.00  0.00     0.453 C 
ATOM     20  F   UNL     1      -4.773   1.217  -4.309  1.00  0.00    -0.164 F 
ATOM     21  F   UNL     1      -2.909   1.578  -5.404  1.00  0.00    -0.164 F 
ATOM     22  F   UNL     1      -4.145  -0.140  -5.889  1.00  0.00    -0.164 F 
ENDBRANCH  13  19
ENDBRANCH  10  13
ENDBRANCH   5   9
ENDBRANCH   3   5
ENDBRANCH   2   3
ENDBRANCH   1   2
BRANCH   1  23
ATOM     23  C   UNL     1      -0.892  -5.525  -2.744  1.00  0.00     0.275 C 
BRANCH  23  24
ATOM     24  O   UNL     1      -1.461  -5.686  -1.437  1.00  0.00    -0.458 OA
BRANCH  24  25
ATOM     25  C   UNL     1      -0.631  -5.356  -0.423  1.00  0.00     0.338 C 
ATOM     26  O   UNL     1       0.542  -5.035  -0.497  1.00  0.00    -0.246 OA
BRANCH  25  27
ATOM     27  C   UNL     1      -1.397  -5.258   0.823  1.00  0.00     0.060 A 
ATOM     28  C   UNL     1      -1.450  -4.011   1.454  1.00  0.00     0.016 A 
ATOM     29  C   UNL     1      -1.972  -6.385   1.407  1.00  0.00     0.016 A 
ATOM     30  C   UNL     1      -2.072  -3.878   2.686  1.00  0.00     0.010 A 
ATOM     31  C   UNL     1      -2.577  -6.258   2.657  1.00  0.00     0.010 A 
ATOM     32  C   UNL     1      -2.607  -5.010   3.305  1.00  0.00    -0.014 A 
BRANCH  32  33
ATOM     33  C   UNL     1      -3.066  -4.915   4.702  1.00  0.00     0.031 A 
ATOM     34  C   UNL     1      -2.132  -5.347   5.792  1.00  0.00     0.074 A 
ATOM     35  C   UNL     1      -4.286  -4.429   4.979  1.00  0.00     0.049 A 
ATOM     36  N   UNL     1      -2.359  -5.476   7.071  1.00  0.00    -0.248 NA
ATOM     37  C   UNL     1      -0.757  -5.678   5.382  1.00  0.00     0.031 C 
ATOM     38  C   UNL     1      -5.230  -3.900   3.995  1.00  0.00     0.029 A 
ATOM     39  N   UNL     1      -4.939  -4.311   6.176  1.00  0.00    -0.354 N 
ATOM     40  C   UNL     1      -1.165  -5.929   7.617  1.00  0.00     0.074 A 
ATOM     41  C   UNL     1      -0.218  -6.056   6.532  1.00  0.00     0.031 C 
ATOM     42  C   UNL     1      -6.355  -3.529   4.630  1.00  0.00     0.029 A 
ATOM     43  C   UNL     1      -6.222  -3.840   6.050  1.00  0.00     0.049 A 
ATOM     44  H   UNL     1      -4.529  -4.541   7.041  1.00  0.00     0.167 HD
ATOM     45  C   UNL     1      -0.893  -6.223   8.909  1.00  0.00     0.031 A 
ATOM     46  C   UNL     1      -7.188  -3.717   6.978  1.00  0.00     0.031 A 
ATOM     47  C   UNL     1      -1.854  -6.108   9.971  1.00  0.00     0.049 A 
ATOM     48  C   UNL     1      -6.888  -4.130   8.392  1.00  0.00     0.074 A 
ATOM     49  C   UNL     1      -1.700  -6.400  11.314  1.00  0.00     0.029 A 
ATOM     50  N   UNL     1      -3.157  -5.661   9.802  1.00  0.00    -0.354 N 
ATOM     51  N   UNL     1      -5.769  -4.593   8.898  1.00  0.00    -0.248 NA
ATOM     52  C   UNL     1      -7.985  -4.010   9.361  1.00  0.00     0.031 C 
ATOM     53  C   UNL     1      -2.925  -6.169  11.950  1.00  0.00     0.029 A 
ATOM     54  C   UNL     1      -3.825  -5.685  11.012  1.00  0.00     0.049 A 
ATOM     55  H   UNL     1      -3.547  -5.371   8.946  1.00  0.00     0.167 HD
ATOM     56  C   UNL     1      -6.020  -4.801  10.247  1.00  0.00     0.074 A 
ATOM     57  C   UNL     1      -7.393  -4.399  10.482  1.00  0.00     0.031 C 
ATOM     58  C   UNL     1      -5.193  -5.280  11.209  1.00  0.00     0.031 A 
BRANCH  45  59
ATOM     59  C   UNL     1       0.478  -6.752   9.216  1.00  0.00    -0.014 A 
ATOM     60  C   UNL     1       1.607  -5.918   9.197  1.00  0.00     0.009 A 
ATOM     61  C   UNL     1       0.642  -8.112   9.524  1.00  0.00     0.009 A 
ATOM     62  C   UNL     1       2.877  -6.443   9.446  1.00  0.00     0.001 A 
ATOM     63  C   UNL     1       1.910  -8.629   9.797  1.00  0.00     0.001 A 
ATOM     64  C   UNL     1       3.027  -7.796   9.748  1.00  0.00     0.000 A 
ENDBRANCH  45  59
BRANCH  46  65
ATOM     65  C   UNL     1      -8.533  -3.223   6.590  1.00  0.00    -0.014 A 
ATOM     66  C   UNL     1      -8.978  -1.960   7.005  1.00  0.00     0.009 A 
ATOM     67  C   UNL     1      -9.379  -4.014   5.795  1.00  0.00     0.009 A 
ATOM     68  C   UNL     1     -10.250  -1.506   6.646  1.00  0.00     0.001 A 
ATOM     69  C   UNL     1     -10.639  -3.546   5.417  1.00  0.00     0.001 A 
ATOM     70  C   UNL     1     -11.077  -2.296   5.849  1.00  0.00     0.000 A 
ENDBRANCH  46  65
BRANCH  58  71
ATOM     71  C   UNL     1      -5.746  -5.358  12.601  1.00  0.00    -0.014 A 
ATOM     72  C   UNL     1      -6.657  -6.361  12.966  1.00  0.00     0.009 A 
ATOM     73  C   UNL     1      -5.318  -4.436  13.569  1.00  0.00     0.009 A 
ATOM     74  C   UNL     1      -7.153  -6.418  14.269  1.00  0.00     0.001 A 
ATOM     75  C   UNL     1      -5.797  -4.512  14.876  1.00  0.00     0.001 A 
ATOM     76  C   UNL     1      -6.720  -5.497  15.223  1.00  0.00     0.000 A 
ENDBRANCH  58  71
ENDBRANCH  32  33
ENDBRANCH  25  27
ENDBRANCH  24  25
ENDBRANCH  23  24
ENDBRANCH   1  23
TORSDOF 16
