REMARK SMILES O=C(OCCOC(=O)c1ccc(O[C@@H]2CCCCNC2=O)cn1)c1ccc(-c2c3nc(c(-c4ccccc4)c4ccc([nH]4)c(-c4ccccc4)c4nc(c(-c5ccccc5)c5ccc2[nH]5)C=C4)C=C3)cc1
REMARK SMILES IDX 6 1 5 2 4 3 3 4 2 5 1 6 24 7 25 8 71 9 26 10 70 11 27 12
REMARK SMILES IDX 28 13 29 14 64 15 30 16 69 17 63 18 65 19 31 20 68 21 62 22
REMARK SMILES IDX 61 23 32 25 54 26 39 27 53 28 40 29 43 30 52 31 66 32 41 33
REMARK SMILES IDX 42 34 51 36 67 37 44 38 33 39 34 40 38 41 35 42 37 43 36 44
REMARK SMILES IDX 55 45 56 46 60 47 57 48 59 49 58 50 45 51 46 52 50 53 47 54
REMARK SMILES IDX 49 55 48 56 7 57 8 58 9 59 10 60 23 61 11 62 22 63 12 64
REMARK SMILES IDX 13 65 14 66 15 67 16 68 20 70 19 71 21 72 18 74 17 75
REMARK H PARENT 65 24 43 35 19 73
REMARK Flexibility Score: 90.00
ROOT
ATOM      1  O   UNL     1       3.885 -12.243  -8.381  1.00  0.00    -0.457 OA
ENDROOT
BRANCH   1   2
ATOM      2  C   UNL     1       4.223 -13.617  -8.606  1.00  0.00     0.275 C 
BRANCH   2   3
ATOM      3  C   UNL     1       3.004 -14.537  -8.668  1.00  0.00     0.275 C 
BRANCH   3   4
ATOM      4  O   UNL     1       1.776 -13.910  -9.065  1.00  0.00    -0.458 OA
BRANCH   4   5
ATOM      5  C   UNL     1       0.913 -13.187  -8.314  1.00  0.00     0.338 C 
ATOM      6  O   UNL     1      -0.196 -12.915  -8.771  1.00  0.00    -0.246 OA
BRANCH   5   7
ATOM      7  C   UNL     1       1.269 -12.612  -6.981  1.00  0.00     0.060 A 
ATOM      8  C   UNL     1       1.956 -13.270  -5.954  1.00  0.00     0.016 A 
ATOM      9  C   UNL     1       0.771 -11.330  -6.720  1.00  0.00     0.016 A 
ATOM     10  C   UNL     1       2.154 -12.659  -4.700  1.00  0.00     0.010 A 
ATOM     11  C   UNL     1       0.982 -10.711  -5.488  1.00  0.00     0.010 A 
ATOM     12  C   UNL     1       1.648 -11.383  -4.446  1.00  0.00    -0.014 A 
BRANCH  12  13
ATOM     13  C   UNL     1       1.602 -10.768  -3.088  1.00  0.00     0.031 A 
ATOM     14  C   UNL     1       0.238 -10.515  -2.499  1.00  0.00     0.074 A 
ATOM     15  C   UNL     1       2.701 -10.293  -2.462  1.00  0.00     0.049 A 
ATOM     16  N   UNL     1      -0.107  -9.718  -1.524  1.00  0.00    -0.248 NA
ATOM     17  C   UNL     1      -0.885 -11.266  -3.093  1.00  0.00     0.031 C 
ATOM     18  C   UNL     1       4.094 -10.511  -2.856  1.00  0.00     0.029 A 
ATOM     19  N   UNL     1       2.792  -9.353  -1.455  1.00  0.00    -0.354 N 
ATOM     20  C   UNL     1      -1.472  -9.918  -1.351  1.00  0.00     0.074 A 
ATOM     21  C   UNL     1      -1.915 -10.809  -2.398  1.00  0.00     0.031 C 
ATOM     22  C   UNL     1       4.865  -9.571  -2.273  1.00  0.00     0.029 A 
ATOM     23  C   UNL     1       4.021  -8.719  -1.444  1.00  0.00     0.049 A 
ATOM     24  H   UNL     1       2.067  -9.157  -0.819  1.00  0.00     0.167 HD
ATOM     25  C   UNL     1      -2.265  -9.464  -0.353  1.00  0.00     0.031 A 
ATOM     26  C   UNL     1       4.378  -7.532  -0.910  1.00  0.00     0.031 A 
ATOM     27  C   UNL     1      -1.803  -8.585   0.681  1.00  0.00     0.049 A 
ATOM     28  C   UNL     1       3.407  -6.809  -0.024  1.00  0.00     0.074 A 
ATOM     29  C   UNL     1      -2.421  -8.224   1.863  1.00  0.00     0.029 A 
ATOM     30  N   UNL     1      -0.604  -7.900   0.624  1.00  0.00    -0.354 N 
ATOM     31  N   UNL     1       2.159  -7.096   0.236  1.00  0.00    -0.248 NA
ATOM     32  C   UNL     1       3.925  -5.633   0.692  1.00  0.00     0.031 C 
ATOM     33  C   UNL     1      -1.610  -7.278   2.502  1.00  0.00     0.029 A 
ATOM     34  C   UNL     1      -0.476  -7.084   1.731  1.00  0.00     0.049 A 
ATOM     35  H   UNL     1       0.061  -7.981  -0.098  1.00  0.00     0.167 HD
ATOM     36  C   UNL     1       1.777  -6.207   1.232  1.00  0.00     0.074 A 
ATOM     37  C   UNL     1       2.893  -5.314   1.458  1.00  0.00     0.031 C 
ATOM     38  C   UNL     1       0.630  -6.196   1.950  1.00  0.00     0.031 A 
BRANCH  25  39
ATOM     39  C   UNL     1      -3.671  -9.983  -0.287  1.00  0.00    -0.014 A 
ATOM     40  C   UNL     1      -3.913 -11.332   0.027  1.00  0.00     0.009 A 
ATOM     41  C   UNL     1      -4.761  -9.123  -0.475  1.00  0.00     0.009 A 
ATOM     42  C   UNL     1      -5.218 -11.817   0.117  1.00  0.00     0.001 A 
ATOM     43  C   UNL     1      -6.066  -9.607  -0.361  1.00  0.00     0.001 A 
ATOM     44  C   UNL     1      -6.294 -10.953  -0.072  1.00  0.00     0.000 A 
ENDBRANCH  25  39
BRANCH  26  45
ATOM     45  C   UNL     1       5.664  -6.861  -1.232  1.00  0.00    -0.014 A 
ATOM     46  C   UNL     1       6.832  -7.092  -0.497  1.00  0.00     0.009 A 
ATOM     47  C   UNL     1       5.670  -5.850  -2.209  1.00  0.00     0.009 A 
ATOM     48  C   UNL     1       7.979  -6.329  -0.743  1.00  0.00     0.001 A 
ATOM     49  C   UNL     1       6.824  -5.111  -2.475  1.00  0.00     0.001 A 
ATOM     50  C   UNL     1       7.978  -5.347  -1.736  1.00  0.00     0.000 A 
ENDBRANCH  26  45
BRANCH  38  51
ATOM     51  C   UNL     1       0.583  -5.284   3.134  1.00  0.00    -0.014 A 
ATOM     52  C   UNL     1       0.366  -3.907   3.002  1.00  0.00     0.009 A 
ATOM     53  C   UNL     1       0.747  -5.837   4.415  1.00  0.00     0.009 A 
ATOM     54  C   UNL     1       0.333  -3.095   4.137  1.00  0.00     0.001 A 
ATOM     55  C   UNL     1       0.685  -5.029   5.547  1.00  0.00     0.001 A 
ATOM     56  C   UNL     1       0.484  -3.657   5.407  1.00  0.00     0.000 A 
ENDBRANCH  38  51
ENDBRANCH  12  13
ENDBRANCH   5   7
ENDBRANCH   4   5
ENDBRANCH   3   4
ENDBRANCH   2   3
ENDBRANCH   1   2
BRANCH   1  57
ATOM     57  C   UNL     1       3.751 -11.496  -9.508  1.00  0.00     0.357 C 
ATOM     58  O   UNL     1       3.982 -11.856 -10.657  1.00  0.00    -0.244 OA
BRANCH  57  59
ATOM     59  C   UNL     1       3.392 -10.115  -9.124  1.00  0.00     0.148 A 
ATOM     60  C   UNL     1       4.413  -9.210  -8.890  1.00  0.00     0.040 A 
ATOM     61  N   UNL     1       2.074  -9.795  -9.052  1.00  0.00    -0.245 NA
ATOM     62  C   UNL     1       4.058  -7.905  -8.558  1.00  0.00     0.050 A 
ATOM     63  C   UNL     1       1.770  -8.523  -8.678  1.00  0.00     0.158 A 
ATOM     64  C   UNL     1       2.721  -7.564  -8.362  1.00  0.00     0.138 A 
BRANCH  64  65
ATOM     65  O   UNL     1       2.380  -6.298  -8.021  1.00  0.00    -0.479 OA
BRANCH  65  66
ATOM     66  C   UNL     1       2.274  -5.932  -6.648  1.00  0.00     0.262 C 
BRANCH  66  67
ATOM     67  C   UNL     1       3.536  -5.224  -6.105  1.00  0.00     0.055 C 
BRANCH  67  68
ATOM     68  C   UNL     1       4.829  -6.016  -5.917  1.00  0.00     0.006 CG0
ATOM     69  G   UNL     1       4.810  -7.406  -5.283  1.00  0.00     0.000 G0
ENDBRANCH  67  68
ENDBRANCH  66  67
BRANCH  66  70
ATOM     70  C   UNL     1       1.606  -6.704  -5.475  1.00  0.00     0.261 C 
ATOM     71  N   UNL     1       2.385  -7.555  -4.747  1.00  0.00    -0.353 N 
ATOM     72  O   UNL     1       0.444  -6.501  -5.126  1.00  0.00    -0.271 OA
ATOM     73  H   UNL     1       2.144  -7.724  -3.808  1.00  0.00     0.163 HD
BRANCH  71  74
ATOM     74  C   UNL     1       3.534  -8.212  -5.285  1.00  0.00     0.116 C 
BRANCH  74  75
ATOM     75  C   UNL     1       4.810  -7.406  -5.283  1.00  0.00     0.021 CG0
ATOM     76  G   UNL     1       4.829  -6.016  -5.917  1.00  0.00     0.000 G0
ENDBRANCH  74  75
ENDBRANCH  71  74
ENDBRANCH  66  70
ENDBRANCH  65  66
ENDBRANCH  64  65
ENDBRANCH  57  59
ENDBRANCH   1  57
TORSDOF 13
