REMARK SMILES Cc1ccccc1[C@@H](Cc1c(Cl)cccc1Cl)C(=O)OCCOC(=O)c1ccc(-c2c3nc(c(-c4ccccc4)c4ccc([nH]4)c(-c4ccccc4)c4nc(c(-c5ccccc5)c5ccc2[nH]5)C=C4)C=C3)cc1
REMARK SMILES IDX 21 1 20 2 18 3 19 4 8 5 7 6 1 7 2 8 3 9 4 10 6 11 5 12 9 13
REMARK SMILES IDX 10 14 11 15 16 16 12 17 13 18 15 19 17 20 14 21 22 22 23 23
REMARK SMILES IDX 24 24 25 25 26 26 27 27 73 28 28 29 72 30 29 31 30 32 31 33
REMARK SMILES IDX 66 34 32 35 71 36 65 37 67 38 33 39 70 40 64 41 63 42 34 44
REMARK SMILES IDX 56 45 41 46 55 47 42 48 45 49 54 50 68 51 43 52 44 53 53 55
REMARK SMILES IDX 69 56 46 57 35 58 36 59 40 60 37 61 39 62 38 63 57 64 58 65
REMARK SMILES IDX 62 66 59 67 61 68 60 69 47 70 48 71 52 72 49 73 51 74 50 75
REMARK H PARENT 67 43 45 54
REMARK Flexibility Score: inf
ROOT
ATOM      1  C   UNL     1      -1.893   1.909   2.367  1.00  0.00     0.274 C 
ENDROOT
BRANCH   1   2
ATOM      2  O   UNL     1      -0.742   1.894   1.517  1.00  0.00    -0.462 OA
BRANCH   2   3
ATOM      3  C   UNL     1      -0.925   2.425   0.264  1.00  0.00     0.313 C 
ATOM      4  O   UNL     1      -1.964   2.955  -0.102  1.00  0.00    -0.252 OA
BRANCH   3   5
ATOM      5  C   UNL     1       0.219   1.972  -0.667  1.00  0.00     0.134 C 
BRANCH   5   6
ATOM      6  C   UNL     1      -0.109   0.482  -0.899  1.00  0.00    -0.031 A 
ATOM      7  C   UNL     1       2.242  -0.333  -0.299  1.00  0.00     0.044 C 
ATOM      8  C   UNL     1       0.773  -0.541  -0.518  1.00  0.00    -0.047 A 
ATOM      9  C   UNL     1       0.247  -1.819  -0.272  1.00  0.00     0.004 A 
ATOM     10  C   UNL     1      -1.111  -2.093  -0.447  1.00  0.00     0.000 A 
ATOM     11  C   UNL     1      -1.449   0.150  -1.220  1.00  0.00     0.005 A 
ATOM     12  C   UNL     1      -1.954  -1.116  -0.956  1.00  0.00     0.000 A 
ENDBRANCH   5   6
BRANCH   5  13
ATOM     13  C   UNL     1       0.387   2.739  -2.013  1.00  0.00     0.058 C 
BRANCH  13  14
ATOM     14  C   UNL     1       1.052   4.124  -2.091  1.00  0.00    -0.010 A 
ATOM     15  C   UNL     1       0.473   5.160  -2.866  1.00  0.00     0.045 A 
ATOM     16  C   UNL     1       2.315   4.430  -1.542  1.00  0.00     0.045 A 
ATOM     17  Cl  UNL     1      -0.881   4.888  -3.916  1.00  0.00    -0.084 Cl
ATOM     18  C   UNL     1       1.011   6.460  -2.904  1.00  0.00     0.021 A 
ATOM     19  C   UNL     1       2.848   5.735  -1.573  1.00  0.00     0.021 A 
ATOM     20  Cl  UNL     1       3.360   3.242  -0.856  1.00  0.00    -0.084 Cl
ATOM     21  C   UNL     1       2.175   6.763  -2.215  1.00  0.00     0.003 A 
ENDBRANCH  13  14
ENDBRANCH   5  13
ENDBRANCH   3   5
ENDBRANCH   2   3
ENDBRANCH   1   2
BRANCH   1  22
ATOM     22  C   UNL     1      -1.583   1.467   3.811  1.00  0.00     0.275 C 
BRANCH  22  23
ATOM     23  O   UNL     1      -0.214   1.095   4.136  1.00  0.00    -0.458 OA
BRANCH  23  24
ATOM     24  C   UNL     1       0.898   1.886   4.108  1.00  0.00     0.338 C 
ATOM     25  O   UNL     1       2.006   1.483   4.398  1.00  0.00    -0.246 OA
BRANCH  24  26
ATOM     26  C   UNL     1       0.711   3.249   3.585  1.00  0.00     0.060 A 
ATOM     27  C   UNL     1       1.408   3.631   2.434  1.00  0.00     0.016 A 
ATOM     28  C   UNL     1      -0.282   4.057   4.120  1.00  0.00     0.016 A 
ATOM     29  C   UNL     1       0.982   4.755   1.724  1.00  0.00     0.010 A 
ATOM     30  C   UNL     1      -0.781   5.087   3.349  1.00  0.00     0.010 A 
ATOM     31  C   UNL     1      -0.162   5.441   2.138  1.00  0.00    -0.014 A 
BRANCH  31  32
ATOM     32  C   UNL     1      -0.545   6.751   1.608  1.00  0.00     0.031 A 
ATOM     33  C   UNL     1      -1.210   7.019   0.315  1.00  0.00     0.074 A 
ATOM     34  C   UNL     1      -0.208   7.759   2.440  1.00  0.00     0.049 A 
ATOM     35  N   UNL     1      -1.160   8.149  -0.310  1.00  0.00    -0.248 NA
ATOM     36  C   UNL     1      -1.985   6.034  -0.416  1.00  0.00     0.031 C 
ATOM     37  C   UNL     1      -0.529   9.170   2.371  1.00  0.00     0.029 A 
ATOM     38  N   UNL     1       0.757   7.675   3.451  1.00  0.00    -0.354 N 
ATOM     39  C   UNL     1      -2.082   8.116  -1.339  1.00  0.00     0.074 A 
ATOM     40  C   UNL     1      -2.516   6.749  -1.413  1.00  0.00     0.031 C 
ATOM     41  C   UNL     1       0.438   9.840   3.026  1.00  0.00     0.029 A 
ATOM     42  C   UNL     1       1.463   8.869   3.399  1.00  0.00     0.049 A 
ATOM     43  H   UNL     1       0.905   6.924   4.070  1.00  0.00     0.167 HD
ATOM     44  C   UNL     1      -2.471   9.277  -1.936  1.00  0.00     0.031 A 
ATOM     45  C   UNL     1       2.775   8.886   3.029  1.00  0.00     0.031 A 
ATOM     46  C   UNL     1      -1.674  10.390  -1.440  1.00  0.00     0.049 A 
ATOM     47  C   UNL     1       2.979   9.756   1.814  1.00  0.00     0.074 A 
ATOM     48  C   UNL     1      -1.881  11.312  -0.429  1.00  0.00     0.029 A 
ATOM     49  N   UNL     1      -0.317  10.416  -1.734  1.00  0.00    -0.354 N 
ATOM     50  N   UNL     1       2.071   9.999   0.909  1.00  0.00    -0.248 NA
ATOM     51  C   UNL     1       4.250  10.404   1.533  1.00  0.00     0.031 C 
ATOM     52  C   UNL     1      -0.609  11.820  -0.044  1.00  0.00     0.029 A 
ATOM     53  C   UNL     1       0.354  11.246  -0.858  1.00  0.00     0.049 A 
ATOM     54  H   UNL     1       0.108   9.912  -2.465  1.00  0.00     0.167 HD
ATOM     55  C   UNL     1       2.566  10.906   0.004  1.00  0.00     0.074 A 
ATOM     56  C   UNL     1       3.946  11.097   0.423  1.00  0.00     0.031 C 
ATOM     57  C   UNL     1       1.795  11.446  -0.989  1.00  0.00     0.031 A 
BRANCH  44  58
ATOM     58  C   UNL     1      -3.739   9.441  -2.746  1.00  0.00    -0.014 A 
ATOM     59  C   UNL     1      -4.399  10.687  -2.744  1.00  0.00     0.009 A 
ATOM     60  C   UNL     1      -4.371   8.416  -3.472  1.00  0.00     0.009 A 
ATOM     61  C   UNL     1      -5.652  10.874  -3.349  1.00  0.00     0.001 A 
ATOM     62  C   UNL     1      -5.638   8.589  -4.058  1.00  0.00     0.001 A 
ATOM     63  C   UNL     1      -6.285   9.816  -3.985  1.00  0.00     0.000 A 
ENDBRANCH  44  58
BRANCH  45  64
ATOM     64  C   UNL     1       3.570   7.645   3.316  1.00  0.00    -0.014 A 
ATOM     65  C   UNL     1       3.565   7.114   4.627  1.00  0.00     0.009 A 
ATOM     66  C   UNL     1       4.104   6.848   2.294  1.00  0.00     0.009 A 
ATOM     67  C   UNL     1       3.978   5.802   4.885  1.00  0.00     0.001 A 
ATOM     68  C   UNL     1       4.546   5.541   2.560  1.00  0.00     0.001 A 
ATOM     69  C   UNL     1       4.456   5.010   3.847  1.00  0.00     0.000 A 
ENDBRANCH  45  64
BRANCH  57  70
ATOM     70  C   UNL     1       2.268  12.309  -2.144  1.00  0.00    -0.014 A 
ATOM     71  C   UNL     1       3.603  12.562  -2.473  1.00  0.00     0.009 A 
ATOM     72  C   UNL     1       1.303  12.857  -3.025  1.00  0.00     0.009 A 
ATOM     73  C   UNL     1       3.955  13.353  -3.576  1.00  0.00     0.001 A 
ATOM     74  C   UNL     1       1.646  13.603  -4.154  1.00  0.00     0.001 A 
ATOM     75  C   UNL     1       2.979  13.865  -4.421  1.00  0.00     0.000 A 
ENDBRANCH  57  70
ENDBRANCH  31  32
ENDBRANCH  24  26
ENDBRANCH  23  24
ENDBRANCH  22  23
ENDBRANCH   1  22
TORSDOF 14
