REMARK SMILES CN(CCOCC1CC1)C(=O)N1CC[C@](C)(C(=O)OCCOC(=O)c2ccc(-c3c4nc(c(-c5ccccc5)c5ccc([nH]5)c(-c5ccccc5)c5nc(c(-c6ccccc6)c6ccc3[nH]6)C=C5)C=C4)cc2)C1
REMARK SMILES IDX 17 1 18 2 15 3 12 4 13 5 73 6 14 7 16 8 10 9 11 10 2 11 1 12
REMARK SMILES IDX 3 13 4 14 5 15 6 16 7 17 8 18 9 19 19 20 20 21 21 22 22 23
REMARK SMILES IDX 23 24 24 25 25 26 26 27 72 28 27 29 71 30 28 31 29 32 30 33
REMARK SMILES IDX 65 34 31 35 70 36 64 37 66 38 32 39 69 40 63 41 62 42 33 44
REMARK SMILES IDX 55 45 40 46 54 47 41 48 44 49 53 50 67 51 42 52 43 53 52 55
REMARK SMILES IDX 68 56 45 57 34 58 35 59 39 60 36 61 38 62 37 63 56 64 57 65
REMARK SMILES IDX 61 66 58 67 60 68 59 69 46 70 47 71 51 72 48 73 50 74 49 75
REMARK H PARENT 66 43 44 54
REMARK Flexibility Score: inf
ROOT
ATOM      1  C   UNL     1      -2.235  -2.300   6.001  1.00  0.00     0.313 C 
ATOM      2  O   UNL     1      -2.255  -3.153   6.884  1.00  0.00    -0.252 OA
ENDROOT
BRANCH   1   3
ATOM      3  C   UNL     1      -1.103  -1.290   5.887  1.00  0.00     0.084 C 
ATOM      4  N   UNL     1       0.416  -0.429   4.216  1.00  0.00    -0.323 N 
ATOM      5  C   UNL     1       1.202  -1.063   5.266  1.00  0.00     0.122 C 
ATOM      6  C   UNL     1      -1.013  -0.514   4.558  1.00  0.00     0.139 C 
ATOM      7  C   UNL     1       0.239  -2.029   5.913  1.00  0.00     0.042 C 
ATOM      8  C   UNL     1      -1.236  -0.341   7.086  1.00  0.00     0.026 C 
BRANCH   4   9
ATOM      9  C   UNL     1       1.092  -0.007   3.098  1.00  0.00     0.319 C 
ATOM     10  O   UNL     1       2.313  -0.212   3.042  1.00  0.00    -0.248 OA
BRANCH   9  11
ATOM     11  N   UNL     1       0.469   0.614   2.036  1.00  0.00    -0.325 N 
ATOM     12  C   UNL     1       1.299   0.879   0.857  1.00  0.00     0.148 C 
BRANCH  11  13
ATOM     13  C   UNL     1      -0.875   1.194   1.958  1.00  0.00     0.149 C 
BRANCH  13  14
ATOM     14  C   UNL     1      -1.817   0.533   0.936  1.00  0.00     0.181 C 
BRANCH  14  15
ATOM     15  O   UNL     1      -2.282  -0.747   1.355  1.00  0.00    -0.379 OA
BRANCH  15  16
ATOM     16  C   UNL     1      -1.395  -1.821   1.039  1.00  0.00     0.163 C 
BRANCH  16  17
ATOM     17  C   UNL     1      -2.010  -2.677  -0.024  1.00  0.00     0.015 C 
ATOM     18  C   UNL     1      -1.252  -3.030  -1.282  1.00  0.00     0.006 C 
ATOM     19  C   UNL     1      -1.474  -4.073  -0.229  1.00  0.00     0.006 C 
ENDBRANCH  16  17
ENDBRANCH  15  16
ENDBRANCH  14  15
ENDBRANCH  13  14
ENDBRANCH  11  13
ENDBRANCH   9  11
ENDBRANCH   4   9
ENDBRANCH   1   3
BRANCH   1  20
ATOM     20  O   UNL     1      -3.230  -2.112   5.098  1.00  0.00    -0.462 OA
BRANCH  20  21
ATOM     21  C   UNL     1      -4.374  -2.982   5.244  1.00  0.00     0.274 C 
BRANCH  21  22
ATOM     22  C   UNL     1      -4.278  -4.204   4.334  1.00  0.00     0.275 C 
BRANCH  22  23
ATOM     23  O   UNL     1      -3.087  -4.952   4.637  1.00  0.00    -0.458 OA
BRANCH  23  24
ATOM     24  C   UNL     1      -2.343  -5.308   3.570  1.00  0.00     0.338 C 
ATOM     25  O   UNL     1      -2.629  -5.130   2.390  1.00  0.00    -0.246 OA
BRANCH  24  26
ATOM     26  C   UNL     1      -1.083  -5.959   3.974  1.00  0.00     0.060 A 
ATOM     27  C   UNL     1      -0.358  -5.510   5.074  1.00  0.00     0.016 A 
ATOM     28  C   UNL     1      -0.548  -6.956   3.155  1.00  0.00     0.016 A 
ATOM     29  C   UNL     1       0.946  -5.961   5.280  1.00  0.00     0.010 A 
ATOM     30  C   UNL     1       0.710  -7.496   3.436  1.00  0.00     0.010 A 
ATOM     31  C   UNL     1       1.493  -6.978   4.480  1.00  0.00    -0.014 A 
BRANCH  31  32
ATOM     32  C   UNL     1       2.866  -7.497   4.739  1.00  0.00     0.031 A 
ATOM     33  C   UNL     1       3.920  -7.483   3.659  1.00  0.00     0.074 A 
ATOM     34  C   UNL     1       3.182  -7.985   5.955  1.00  0.00     0.049 A 
ATOM     35  N   UNL     1       5.104  -8.046   3.655  1.00  0.00    -0.248 NA
ATOM     36  C   UNL     1       3.600  -6.760   2.418  1.00  0.00     0.031 C 
ATOM     37  C   UNL     1       2.281  -8.044   7.109  1.00  0.00     0.029 A 
ATOM     38  N   UNL     1       4.359  -8.509   6.432  1.00  0.00    -0.354 N 
ATOM     39  C   UNL     1       5.641  -7.799   2.397  1.00  0.00     0.074 A 
ATOM     40  C   UNL     1       4.660  -7.026   1.665  1.00  0.00     0.031 C 
ATOM     41  C   UNL     1       2.954  -8.503   8.172  1.00  0.00     0.029 A 
ATOM     42  C   UNL     1       4.303  -8.866   7.757  1.00  0.00     0.049 A 
ATOM     43  H   UNL     1       5.165  -8.617   5.877  1.00  0.00     0.167 HD
ATOM     44  C   UNL     1       6.837  -8.190   1.894  1.00  0.00     0.031 A 
ATOM     45  C   UNL     1       5.216  -9.456   8.550  1.00  0.00     0.031 A 
ATOM     46  C   UNL     1       7.839  -8.911   2.634  1.00  0.00     0.049 A 
ATOM     47  C   UNL     1       6.534  -9.872   7.974  1.00  0.00     0.074 A 
ATOM     48  C   UNL     1       9.081  -9.350   2.205  1.00  0.00     0.029 A 
ATOM     49  N   UNL     1       7.726  -9.275   3.966  1.00  0.00    -0.354 N 
ATOM     50  N   UNL     1       6.987  -9.708   6.756  1.00  0.00    -0.248 NA
ATOM     51  C   UNL     1       7.453 -10.582   8.874  1.00  0.00     0.031 C 
ATOM     52  C   UNL     1       9.710 -10.001   3.273  1.00  0.00     0.029 A 
ATOM     53  C   UNL     1       8.872  -9.937   4.373  1.00  0.00     0.049 A 
ATOM     54  H   UNL     1       6.946  -9.091   4.538  1.00  0.00     0.167 HD
ATOM     55  C   UNL     1       8.238 -10.305   6.738  1.00  0.00     0.074 A 
ATOM     56  C   UNL     1       8.487 -10.806   8.075  1.00  0.00     0.031 C 
ATOM     57  C   UNL     1       9.098 -10.440   5.701  1.00  0.00     0.031 A 
BRANCH  44  58
ATOM     58  C   UNL     1       7.121  -7.881   0.452  1.00  0.00    -0.014 A 
ATOM     59  C   UNL     1       7.508  -6.598   0.038  1.00  0.00     0.009 A 
ATOM     60  C   UNL     1       7.059  -8.913  -0.499  1.00  0.00     0.009 A 
ATOM     61  C   UNL     1       7.808  -6.351  -1.305  1.00  0.00     0.001 A 
ATOM     62  C   UNL     1       7.378  -8.668  -1.835  1.00  0.00     0.001 A 
ATOM     63  C   UNL     1       7.747  -7.386  -2.238  1.00  0.00     0.000 A 
ENDBRANCH  44  58
BRANCH  45  64
ATOM     64  C   UNL     1       4.880  -9.736   9.969  1.00  0.00    -0.014 A 
ATOM     65  C   UNL     1       5.456  -8.978  10.998  1.00  0.00     0.009 A 
ATOM     66  C   UNL     1       3.952 -10.738  10.295  1.00  0.00     0.009 A 
ATOM     67  C   UNL     1       5.111  -9.222  12.329  1.00  0.00     0.001 A 
ATOM     68  C   UNL     1       3.590 -10.960  11.623  1.00  0.00     0.001 A 
ATOM     69  C   UNL     1       4.172 -10.206  12.640  1.00  0.00     0.000 A 
ENDBRANCH  45  64
BRANCH  57  70
ATOM     70  C   UNL     1      10.383 -11.157   5.982  1.00  0.00    -0.014 A 
ATOM     71  C   UNL     1      10.419 -12.557   6.065  1.00  0.00     0.009 A 
ATOM     72  C   UNL     1      11.569 -10.428   6.156  1.00  0.00     0.009 A 
ATOM     73  C   UNL     1      11.617 -13.214   6.348  1.00  0.00     0.001 A 
ATOM     74  C   UNL     1      12.768 -11.089   6.423  1.00  0.00     0.001 A 
ATOM     75  C   UNL     1      12.790 -12.480   6.526  1.00  0.00     0.000 A 
ENDBRANCH  57  70
ENDBRANCH  31  32
ENDBRANCH  24  26
ENDBRANCH  23  24
ENDBRANCH  22  23
ENDBRANCH  21  22
ENDBRANCH  20  21
ENDBRANCH   1  20
TORSDOF 18
