REMARK SMILES CC(C)c1ccc(-c2cnc([C@@H]3[NH2+][C@H](C(=O)OCCOC(=O)c4ccc(-c5c6nc(c(-c7ccccc7)c7ccc([nH]7)c(-c7ccccc7)c7nc(c(-c8ccccc8)c8ccc5[nH]8)C=C7)C=C6)cc4)C(C)(C)S3)s2)cc1
REMARK SMILES IDX 18 1 17 2 15 3 16 4 14 5 12 6 13 7 74 8 71 11 72 12 73 13
REMARK SMILES IDX 11 14 8 15 9 16 75 17 10 18 7 19 4 20 5 21 77 22 6 23 76 24
REMARK SMILES IDX 2 25 1 26 3 27 19 28 20 29 21 30 22 31 23 32 24 33 70 34
REMARK SMILES IDX 25 35 69 36 26 37 27 38 28 39 63 40 29 41 68 42 62 43 64 44
REMARK SMILES IDX 30 45 67 46 61 47 60 48 31 50 53 51 38 52 52 53 39 54 42 55
REMARK SMILES IDX 51 56 65 57 40 58 41 59 50 61 66 62 43 63 32 64 33 65 37 66
REMARK SMILES IDX 34 67 36 68 35 69 54 70 55 71 59 72 56 73 58 74 57 75 44 76
REMARK SMILES IDX 45 77 49 78 46 79 48 80 47 81
REMARK H PARENT 13 9 13 10 64 49 42 60
REMARK Flexibility Score: inf
ROOT
ATOM      1  C   UNL     1     -13.466   2.217  -1.937  1.00  0.00     0.274 C 
ENDROOT
BRANCH   1   2
ATOM      2  O   UNL     1     -12.871   1.578  -0.790  1.00  0.00    -0.458 OA
BRANCH   2   3
ATOM      3  C   UNL     1     -12.471   0.300  -1.018  1.00  0.00     0.366 C 
ATOM      4  O   UNL     1     -12.768  -0.326  -2.036  1.00  0.00    -0.245 OA
BRANCH   3   5
ATOM      5  C   UNL     1     -11.641  -0.342   0.124  1.00  0.00     0.310 C 
ATOM      6  C   UNL     1      -9.333   0.146  -0.388  1.00  0.00     0.304 C 
ATOM      7  N   UNL     1     -10.361  -0.908  -0.441  1.00  0.00    -0.317 N 
ATOM      8  S   UNL     1      -9.577   0.947   1.236  1.00  0.00    -0.079 SA
ATOM      9  H   UNL     1     -10.064  -1.710   0.114  1.00  0.00     0.348 HD
ATOM     10  H   UNL     1     -10.505  -1.214  -1.404  1.00  0.00     0.348 HD
ATOM     11  C   UNL     1     -11.310   0.382   1.455  1.00  0.00     0.079 C 
ATOM     12  C   UNL     1     -11.258  -0.621   2.632  1.00  0.00     0.030 C 
ATOM     13  C   UNL     1     -12.255   1.507   1.895  1.00  0.00     0.030 C 
BRANCH   6  14
ATOM     14  C   UNL     1      -9.338   1.129  -1.564  1.00  0.00     0.162 A 
ATOM     15  C   UNL     1      -8.679   2.656  -3.395  1.00  0.00     0.055 A 
ATOM     16  C   UNL     1      -9.966   2.778  -2.913  1.00  0.00     0.132 A 
ATOM     17  S   UNL     1      -7.983   1.259  -2.644  1.00  0.00    -0.112 S 
ATOM     18  N   UNL     1     -10.321   1.952  -1.865  1.00  0.00    -0.242 NA
BRANCH  15  19
ATOM     19  C   UNL     1      -7.969   3.562  -4.327  1.00  0.00    -0.007 A 
ATOM     20  C   UNL     1      -6.665   5.412  -6.113  1.00  0.00    -0.045 A 
ATOM     21  C   UNL     1      -6.316   4.051  -6.062  1.00  0.00     0.004 A 
ATOM     22  C   UNL     1      -7.671   5.831  -5.233  1.00  0.00     0.004 A 
ATOM     23  C   UNL     1      -6.951   3.144  -5.186  1.00  0.00     0.010 A 
ATOM     24  C   UNL     1      -8.301   4.929  -4.358  1.00  0.00     0.010 A 
BRANCH  20  25
ATOM     25  C   UNL     1      -6.084   6.380  -7.150  1.00  0.00     0.013 C 
ATOM     26  C   UNL     1      -5.813   7.798  -6.617  1.00  0.00     0.012 C 
ATOM     27  C   UNL     1      -4.804   5.893  -7.847  1.00  0.00     0.012 C 
ENDBRANCH  20  25
ENDBRANCH  15  19
ENDBRANCH   6  14
ENDBRANCH   3   5
ENDBRANCH   2   3
ENDBRANCH   1   2
BRANCH   1  28
ATOM     28  C   UNL     1     -13.615   3.725  -1.705  1.00  0.00     0.275 C 
BRANCH  28  29
ATOM     29  O   UNL     1     -12.318   4.348  -1.586  1.00  0.00    -0.458 OA
BRANCH  29  30
ATOM     30  C   UNL     1     -12.069   5.052  -0.458  1.00  0.00     0.338 C 
ATOM     31  O   UNL     1     -12.866   5.371   0.412  1.00  0.00    -0.246 OA
BRANCH  30  32
ATOM     32  C   UNL     1     -10.611   5.243  -0.334  1.00  0.00     0.060 A 
ATOM     33  C   UNL     1      -9.902   4.225   0.292  1.00  0.00     0.016 A 
ATOM     34  C   UNL     1      -9.933   6.379  -0.767  1.00  0.00     0.016 A 
ATOM     35  C   UNL     1      -8.519   4.286   0.451  1.00  0.00     0.010 A 
ATOM     36  C   UNL     1      -8.537   6.457  -0.594  1.00  0.00     0.010 A 
ATOM     37  C   UNL     1      -7.818   5.405   0.008  1.00  0.00    -0.014 A 
BRANCH  37  38
ATOM     38  C   UNL     1      -6.355   5.489   0.253  1.00  0.00     0.031 A 
ATOM     39  C   UNL     1      -5.851   6.162   1.484  1.00  0.00     0.074 A 
ATOM     40  C   UNL     1      -5.463   4.867  -0.538  1.00  0.00     0.049 A 
ATOM     41  N   UNL     1      -4.626   6.493   1.793  1.00  0.00    -0.248 NA
ATOM     42  C   UNL     1      -6.851   6.464   2.515  1.00  0.00     0.031 C 
ATOM     43  C   UNL     1      -5.820   3.959  -1.610  1.00  0.00     0.029 A 
ATOM     44  N   UNL     1      -4.090   4.879  -0.566  1.00  0.00    -0.354 N 
ATOM     45  C   UNL     1      -4.706   7.064   3.051  1.00  0.00     0.074 A 
ATOM     46  C   UNL     1      -6.098   7.024   3.450  1.00  0.00     0.031 C 
ATOM     47  C   UNL     1      -4.712   3.510  -2.217  1.00  0.00     0.029 A 
ATOM     48  C   UNL     1      -3.562   4.177  -1.625  1.00  0.00     0.049 A 
ATOM     49  H   UNL     1      -3.540   5.344   0.105  1.00  0.00     0.167 HD
ATOM     50  C   UNL     1      -3.704   7.594   3.791  1.00  0.00     0.031 A 
ATOM     51  C   UNL     1      -2.305   4.132  -2.107  1.00  0.00     0.031 A 
ATOM     52  C   UNL     1      -2.333   7.660   3.361  1.00  0.00     0.049 A 
ATOM     53  C   UNL     1      -1.252   4.951  -1.417  1.00  0.00     0.074 A 
ATOM     54  C   UNL     1      -1.259   8.269   3.985  1.00  0.00     0.029 A 
ATOM     55  N   UNL     1      -1.847   7.099   2.188  1.00  0.00    -0.354 N 
ATOM     56  N   UNL     1      -1.343   5.624  -0.296  1.00  0.00    -0.248 NA
ATOM     57  C   UNL     1       0.065   5.027  -2.063  1.00  0.00     0.031 C 
ATOM     58  C   UNL     1      -0.139   8.133   3.157  1.00  0.00     0.029 A 
ATOM     59  C   UNL     1      -0.498   7.382   2.048  1.00  0.00     0.049 A 
ATOM     60  H   UNL     1      -2.383   6.577   1.548  1.00  0.00     0.167 HD
ATOM     61  C   UNL     1      -0.091   6.182  -0.086  1.00  0.00     0.074 A 
ATOM     62  C   UNL     1       0.746   5.762  -1.193  1.00  0.00     0.031 C 
ATOM     63  C   UNL     1       0.324   6.967   0.939  1.00  0.00     0.031 A 
BRANCH  50  64
ATOM     64  C   UNL     1      -4.107   8.251   5.077  1.00  0.00    -0.014 A 
ATOM     65  C   UNL     1      -4.514   7.505   6.194  1.00  0.00     0.009 A 
ATOM     66  C   UNL     1      -4.134   9.652   5.144  1.00  0.00     0.009 A 
ATOM     67  C   UNL     1      -4.986   8.154   7.337  1.00  0.00     0.001 A 
ATOM     68  C   UNL     1      -4.578  10.297   6.297  1.00  0.00     0.001 A 
ATOM     69  C   UNL     1      -5.018   9.548   7.387  1.00  0.00     0.000 A 
ENDBRANCH  50  64
BRANCH  51  70
ATOM     70  C   UNL     1      -1.993   3.375  -3.351  1.00  0.00    -0.014 A 
ATOM     71  C   UNL     1      -1.126   2.272  -3.323  1.00  0.00     0.009 A 
ATOM     72  C   UNL     1      -2.540   3.770  -4.584  1.00  0.00     0.009 A 
ATOM     73  C   UNL     1      -0.804   1.593  -4.503  1.00  0.00     0.001 A 
ATOM     74  C   UNL     1      -2.238   3.073  -5.756  1.00  0.00     0.001 A 
ATOM     75  C   UNL     1      -1.364   1.990  -5.716  1.00  0.00     0.000 A 
ENDBRANCH  51  70
BRANCH  63  76
ATOM     76  C   UNL     1       1.764   7.394   0.931  1.00  0.00    -0.014 A 
ATOM     77  C   UNL     1       2.232   8.367   0.035  1.00  0.00     0.009 A 
ATOM     78  C   UNL     1       2.654   6.843   1.866  1.00  0.00     0.009 A 
ATOM     79  C   UNL     1       3.571   8.762   0.062  1.00  0.00     0.001 A 
ATOM     80  C   UNL     1       3.984   7.261   1.909  1.00  0.00     0.001 A 
ATOM     81  C   UNL     1       4.443   8.215   1.003  1.00  0.00     0.000 A 
ENDBRANCH  63  76
ENDBRANCH  37  38
ENDBRANCH  30  32
ENDBRANCH  29  30
ENDBRANCH  28  29
ENDBRANCH   1  28
TORSDOF 14
