REMARK SMILES CC(C)(C)c1cc2c(cc1Cl)C=C(C(=O)OCCOC(=O)c1ccc(-c3c4nc(c(-c5ccccc5)c5ccc([nH]5)c(-c5ccccc5)c5nc(c(-c6ccccc6)c6ccc3[nH]6)C=C5)C=C4)cc1)[C@@H](C(F)(F)F)O2
REMARK SMILES IDX 18 1 17 2 16 3 14 4 15 5 13 6 5 7 6 8 10 9 7 10 9 11 11 12
REMARK SMILES IDX 8 13 75 14 12 15 70 16 2 17 1 18 3 19 4 20 71 21 72 22 73 23
REMARK SMILES IDX 74 24 19 25 20 26 21 27 22 28 23 29 69 30 24 31 68 32 25 33
REMARK SMILES IDX 26 34 27 35 62 36 28 37 67 38 61 39 63 40 29 41 66 42 60 43
REMARK SMILES IDX 59 44 30 46 52 47 37 48 51 49 38 50 41 51 50 52 64 53 39 54
REMARK SMILES IDX 40 55 49 57 65 58 42 59 31 60 32 61 36 62 33 63 35 64 34 65
REMARK SMILES IDX 53 66 54 67 58 68 55 69 57 70 56 71 43 72 44 73 48 74 45 75
REMARK SMILES IDX 47 76 46 77
REMARK H PARENT 63 45 41 56
REMARK Flexibility Score: inf
ROOT
ATOM      1  C   UNL     1       1.519  11.094   2.164  1.00  0.00     0.275 C 
ENDROOT
BRANCH   1   2
ATOM      2  C   UNL     1       1.461  10.846   0.656  1.00  0.00     0.275 C 
BRANCH   2   3
ATOM      3  O   UNL     1       1.003   9.508   0.356  1.00  0.00    -0.459 OA
BRANCH   3   4
ATOM      4  C   UNL     1       1.965   8.636  -0.023  1.00  0.00     0.338 C 
ATOM      5  O   UNL     1       3.159   8.870  -0.135  1.00  0.00    -0.246 OA
BRANCH   4   6
ATOM      6  C   UNL     1       1.396   7.292  -0.236  1.00  0.00     0.087 C 
ATOM      7  C   UNL     1       0.817   2.256  -0.514  1.00  0.00    -0.020 A 
ATOM      8  C   UNL     1       0.153   3.394  -1.067  1.00  0.00     0.053 A 
ATOM      9  C   UNL     1       1.898   2.529   0.349  1.00  0.00     0.045 A 
ATOM     10  C   UNL     1       0.522   4.709  -0.771  1.00  0.00     0.128 A 
ATOM     11  C   UNL     1       2.256   3.849   0.653  1.00  0.00     0.032 A 
ATOM     12  Cl  UNL     1       2.938   1.356   1.075  1.00  0.00    -0.084 Cl
ATOM     13  C   UNL     1       1.580   4.928   0.088  1.00  0.00     0.019 A 
ATOM     14  O   UNL     1      -0.193   5.716  -1.358  1.00  0.00    -0.475 OA
ATOM     15  C   UNL     1       2.023   6.274   0.358  1.00  0.00     0.027 C 
ATOM     16  C   UNL     1       0.262   7.098  -1.202  1.00  0.00     0.316 C 
BRANCH   7  17
ATOM     17  C   UNL     1       0.337   0.854  -0.969  1.00  0.00    -0.012 C 
ATOM     18  C   UNL     1       0.750  -0.349  -0.091  1.00  0.00     0.016 C 
ATOM     19  C   UNL     1       0.894   0.607  -2.386  1.00  0.00     0.016 C 
ATOM     20  C   UNL     1      -1.214   0.790  -1.018  1.00  0.00     0.016 C 
ENDBRANCH   7  17
BRANCH  16  21
ATOM     21  C   UNL     1       0.620   7.657  -2.589  1.00  0.00     0.430 C 
ATOM     22  F   UNL     1      -0.390   7.475  -3.472  1.00  0.00    -0.167 F 
ATOM     23  F   UNL     1       0.856   8.991  -2.541  1.00  0.00    -0.167 F 
ATOM     24  F   UNL     1       1.724   7.070  -3.105  1.00  0.00    -0.167 F 
ENDBRANCH  16  21
ENDBRANCH   4   6
ENDBRANCH   3   4
ENDBRANCH   2   3
ENDBRANCH   1   2
BRANCH   1  25
ATOM     25  O   UNL     1       2.561  10.298   2.759  1.00  0.00    -0.458 OA
BRANCH  25  26
ATOM     26  C   UNL     1       2.142   9.302   3.571  1.00  0.00     0.338 C 
ATOM     27  O   UNL     1       0.996   9.025   3.881  1.00  0.00    -0.246 OA
BRANCH  26  28
ATOM     28  C   UNL     1       3.290   8.484   3.990  1.00  0.00     0.060 A 
ATOM     29  C   UNL     1       3.637   8.356   5.329  1.00  0.00     0.016 A 
ATOM     30  C   UNL     1       3.903   7.680   3.038  1.00  0.00     0.016 A 
ATOM     31  C   UNL     1       4.605   7.410   5.694  1.00  0.00     0.010 A 
ATOM     32  C   UNL     1       4.722   6.623   3.425  1.00  0.00     0.010 A 
ATOM     33  C   UNL     1       5.119   6.486   4.758  1.00  0.00    -0.014 A 
BRANCH  33  34
ATOM     34  C   UNL     1       6.046   5.388   5.175  1.00  0.00     0.031 A 
ATOM     35  C   UNL     1       7.372   5.157   4.480  1.00  0.00     0.074 A 
ATOM     36  C   UNL     1       5.686   4.558   6.179  1.00  0.00     0.049 A 
ATOM     37  N   UNL     1       8.313   4.290   4.772  1.00  0.00    -0.248 NA
ATOM     38  C   UNL     1       7.671   5.960   3.282  1.00  0.00     0.031 C 
ATOM     39  C   UNL     1       4.391   4.568   6.864  1.00  0.00     0.029 A 
ATOM     40  N   UNL     1       6.386   3.563   6.822  1.00  0.00    -0.354 N 
ATOM     41  C   UNL     1       9.283   4.428   3.784  1.00  0.00     0.074 A 
ATOM     42  C   UNL     1       8.787   5.402   2.841  1.00  0.00     0.031 C 
ATOM     43  C   UNL     1       4.427   3.708   7.892  1.00  0.00     0.029 A 
ATOM     44  C   UNL     1       5.727   3.045   7.913  1.00  0.00     0.049 A 
ATOM     45  H   UNL     1       7.273   3.252   6.530  1.00  0.00     0.167 HD
ATOM     46  C   UNL     1      10.499   3.841   3.689  1.00  0.00     0.031 A 
ATOM     47  C   UNL     1       6.124   2.160   8.848  1.00  0.00     0.031 A 
ATOM     48  C   UNL     1      11.030   2.924   4.660  1.00  0.00     0.049 A 
ATOM     49  C   UNL     1       7.510   1.582   8.776  1.00  0.00     0.074 A 
ATOM     50  C   UNL     1      12.293   2.361   4.706  1.00  0.00     0.029 A 
ATOM     51  N   UNL     1      10.335   2.449   5.759  1.00  0.00    -0.354 N 
ATOM     52  N   UNL     1       8.451   1.811   7.894  1.00  0.00    -0.248 NA
ATOM     53  C   UNL     1       7.894   0.635   9.834  1.00  0.00     0.031 C 
ATOM     54  C   UNL     1      12.347   1.506   5.808  1.00  0.00     0.029 A 
ATOM     55  C   UNL     1      11.139   1.585   6.482  1.00  0.00     0.049 A 
ATOM     56  H   UNL     1       9.409   2.689   5.992  1.00  0.00     0.167 HD
ATOM     57  C   UNL     1       9.540   1.047   8.293  1.00  0.00     0.074 A 
ATOM     58  C   UNL     1       9.154   0.371   9.514  1.00  0.00     0.031 C 
ATOM     59  C   UNL     1      10.748   0.915   7.694  1.00  0.00     0.031 A 
BRANCH  46  60
ATOM     60  C   UNL     1      11.378   4.208   2.521  1.00  0.00    -0.014 A 
ATOM     61  C   UNL     1      11.729   3.236   1.571  1.00  0.00     0.009 A 
ATOM     62  C   UNL     1      11.942   5.490   2.416  1.00  0.00     0.009 A 
ATOM     63  C   UNL     1      12.629   3.537   0.546  1.00  0.00     0.001 A 
ATOM     64  C   UNL     1      12.815   5.798   1.371  1.00  0.00     0.001 A 
ATOM     65  C   UNL     1      13.167   4.819   0.444  1.00  0.00     0.000 A 
ENDBRANCH  46  60
BRANCH  47  66
ATOM     66  C   UNL     1       5.215   1.832   9.980  1.00  0.00    -0.014 A 
ATOM     67  C   UNL     1       4.041   1.091   9.772  1.00  0.00     0.009 A 
ATOM     68  C   UNL     1       5.491   2.312  11.271  1.00  0.00     0.009 A 
ATOM     69  C   UNL     1       3.153   0.857  10.825  1.00  0.00     0.001 A 
ATOM     70  C   UNL     1       4.617   2.051  12.328  1.00  0.00     0.001 A 
ATOM     71  C   UNL     1       3.443   1.333  12.103  1.00  0.00     0.000 A 
ENDBRANCH  47  66
BRANCH  59  72
ATOM     72  C   UNL     1      11.759   0.008   8.336  1.00  0.00    -0.014 A 
ATOM     73  C   UNL     1      12.926   0.550   8.898  1.00  0.00     0.009 A 
ATOM     74  C   UNL     1      11.613  -1.386   8.280  1.00  0.00     0.009 A 
ATOM     75  C   UNL     1      13.935  -0.286   9.376  1.00  0.00     0.001 A 
ATOM     76  C   UNL     1      12.611  -2.220   8.787  1.00  0.00     0.001 A 
ATOM     77  C   UNL     1      13.775  -1.670   9.324  1.00  0.00     0.000 A 
ENDBRANCH  59  72
ENDBRANCH  33  34
ENDBRANCH  26  28
ENDBRANCH  25  26
ENDBRANCH   1  25
TORSDOF 13
