REMARK SMILES O=C1C[C@H](C(=O)OCCOC(=O)c2ccc(-c3c4nc(c(-c5ccccc5)c5ccc([nH]5)c(-c5ccccc5)c5nc(c(-c6ccccc6)c6ccc3[nH]6)C=C5)C=C4)cc2)c2c(nc(Nc3ccc(Oc4ccccc4)cc3)[nH]c2=O)N1
REMARK SMILES IDX 8 1 7 2 5 3 6 4 4 5 1 6 2 7 3 8 82 9 62 10 61 12 63 13 80 14
REMARK SMILES IDX 64 15 79 16 81 17 65 19 66 21 67 22 78 23 68 24 77 25 69 26
REMARK SMILES IDX 70 27 71 28 72 29 76 30 73 31 75 32 74 33 9 34 10 35 11 36
REMARK SMILES IDX 12 37 13 38 14 39 60 40 15 41 59 42 16 43 17 44 18 45 53 46
REMARK SMILES IDX 19 47 58 48 52 49 54 50 20 51 57 52 51 53 50 54 21 56 43 57
REMARK SMILES IDX 28 58 42 59 29 60 32 61 41 62 55 63 30 64 31 65 40 67 56 68
REMARK SMILES IDX 33 69 22 70 23 71 27 72 24 73 26 74 25 75 44 76 45 77 49 78
REMARK SMILES IDX 46 79 48 80 47 81 34 82 35 83 39 84 36 85 38 86 37 87
REMARK H PARENT 82 11 79 18 65 20 54 55 32 66
REMARK Flexibility Score: inf
ROOT
ATOM      1  C   UNL     1       6.740  -3.549   0.589  1.00  0.00     0.274 C 
ENDROOT
BRANCH   1   2
ATOM      2  O   UNL     1       5.828  -2.454   0.369  1.00  0.00    -0.462 OA
BRANCH   2   3
ATOM      3  C   UNL     1       5.319  -2.369  -0.887  1.00  0.00     0.314 C 
ATOM      4  O   UNL     1       5.685  -3.098  -1.802  1.00  0.00    -0.252 OA
BRANCH   3   5
ATOM      5  C   UNL     1       4.225  -1.307  -1.046  1.00  0.00     0.148 C 
ATOM      6  O   UNL     1       2.076   0.656   1.233  1.00  0.00    -0.275 OA
ATOM      7  C   UNL     1       2.966   0.372   0.435  1.00  0.00     0.226 C 
ATOM      8  C   UNL     1       3.467  -1.039   0.265  1.00  0.00     0.121 C 
ATOM      9  N   UNL     1       3.606   1.339  -0.276  1.00  0.00    -0.310 N 
ATOM     10  C   UNL     1       4.487   1.143  -1.290  1.00  0.00     0.146 A 
ATOM     11  H   UNL     1       3.410   2.272  -0.032  1.00  0.00     0.171 HD
ATOM     12  C   UNL     1       4.775  -0.088  -1.713  1.00  0.00     0.075 A 
ATOM     13  N   UNL     1       4.936   2.291  -1.847  1.00  0.00    -0.196 NA
ATOM     14  C   UNL     1       5.513  -0.151  -2.991  1.00  0.00     0.258 A 
ATOM     15  C   UNL     1       5.697   2.232  -2.895  1.00  0.00     0.209 A 
ATOM     16  N   UNL     1       6.017   1.028  -3.451  1.00  0.00    -0.292 N 
ATOM     17  O   UNL     1       5.609  -1.171  -3.661  1.00  0.00    -0.269 OA
ATOM     18  H   UNL     1       6.638   1.011  -4.215  1.00  0.00     0.173 HD
BRANCH  15  19
ATOM     19  N   UNL     1       6.184   3.347  -3.528  1.00  0.00    -0.326 N 
ATOM     20  H   UNL     1       6.668   3.233  -4.377  1.00  0.00     0.170 HD
BRANCH  19  21
ATOM     21  C   UNL     1       6.021   4.646  -3.015  1.00  0.00     0.041 A 
ATOM     22  C   UNL     1       5.499   5.659  -3.824  1.00  0.00     0.030 A 
ATOM     23  C   UNL     1       6.205   4.905  -1.651  1.00  0.00     0.030 A 
ATOM     24  C   UNL     1       5.136   6.892  -3.268  1.00  0.00     0.049 A 
ATOM     25  C   UNL     1       5.845   6.128  -1.094  1.00  0.00     0.049 A 
ATOM     26  C   UNL     1       5.302   7.128  -1.902  1.00  0.00     0.127 A 
BRANCH  26  27
ATOM     27  O   UNL     1       4.859   8.352  -1.440  1.00  0.00    -0.457 OA
BRANCH  27  28
ATOM     28  C   UNL     1       5.214   8.694  -0.158  1.00  0.00     0.127 A 
ATOM     29  C   UNL     1       4.257   8.617   0.853  1.00  0.00     0.047 A 
ATOM     30  C   UNL     1       6.519   9.105   0.120  1.00  0.00     0.047 A 
ATOM     31  C   UNL     1       4.625   8.906   2.167  1.00  0.00     0.004 A 
ATOM     32  C   UNL     1       6.883   9.388   1.435  1.00  0.00     0.004 A 
ATOM     33  C   UNL     1       5.939   9.282   2.458  1.00  0.00     0.000 A 
ENDBRANCH  27  28
ENDBRANCH  26  27
ENDBRANCH  19  21
ENDBRANCH  15  19
ENDBRANCH   3   5
ENDBRANCH   2   3
ENDBRANCH   1   2
BRANCH   1  34
ATOM     34  C   UNL     1       6.023  -4.831   1.037  1.00  0.00     0.275 C 
BRANCH  34  35
ATOM     35  O   UNL     1       5.193  -5.404   0.006  1.00  0.00    -0.458 OA
BRANCH  35  36
ATOM     36  C   UNL     1       3.899  -5.010   0.029  1.00  0.00     0.338 C 
ATOM     37  O   UNL     1       3.380  -4.238   0.818  1.00  0.00    -0.246 OA
BRANCH  36  38
ATOM     38  C   UNL     1       3.160  -5.549  -1.123  1.00  0.00     0.060 A 
ATOM     39  C   UNL     1       2.873  -4.689  -2.184  1.00  0.00     0.016 A 
ATOM     40  C   UNL     1       2.594  -6.822  -1.077  1.00  0.00     0.016 A 
ATOM     41  C   UNL     1       1.979  -5.064  -3.177  1.00  0.00     0.010 A 
ATOM     42  C   UNL     1       1.716  -7.215  -2.093  1.00  0.00     0.010 A 
ATOM     43  C   UNL     1       1.381  -6.326  -3.130  1.00  0.00    -0.014 A 
BRANCH  43  44
ATOM     44  C   UNL     1       0.354  -6.671  -4.136  1.00  0.00     0.031 A 
ATOM     45  C   UNL     1      -1.095  -6.684  -3.746  1.00  0.00     0.074 A 
ATOM     46  C   UNL     1       0.713  -6.899  -5.412  1.00  0.00     0.049 A 
ATOM     47  N   UNL     1      -2.134  -7.048  -4.453  1.00  0.00    -0.248 NA
ATOM     48  C   UNL     1      -1.422  -6.214  -2.389  1.00  0.00     0.031 C 
ATOM     49  C   UNL     1       2.076  -6.809  -5.936  1.00  0.00     0.029 A 
ATOM     50  N   UNL     1      -0.045  -7.239  -6.502  1.00  0.00    -0.354 N 
ATOM     51  C   UNL     1      -3.233  -6.872  -3.623  1.00  0.00     0.074 A 
ATOM     52  C   UNL     1      -2.738  -6.371  -2.358  1.00  0.00     0.031 C 
ATOM     53  C   UNL     1       2.055  -7.071  -7.253  1.00  0.00     0.029 A 
ATOM     54  C   UNL     1       0.690  -7.404  -7.649  1.00  0.00     0.049 A 
ATOM     55  H   UNL     1      -1.023  -7.353  -6.466  1.00  0.00     0.167 HD
ATOM     56  C   UNL     1      -4.537  -7.109  -3.893  1.00  0.00     0.031 A 
ATOM     57  C   UNL     1       0.311  -7.810  -8.875  1.00  0.00     0.031 A 
ATOM     58  C   UNL     1      -5.027  -7.598  -5.152  1.00  0.00     0.049 A 
ATOM     59  C   UNL     1      -1.124  -8.173  -9.119  1.00  0.00     0.074 A 
ATOM     60  C   UNL     1      -6.329  -7.902  -5.510  1.00  0.00     0.029 A 
ATOM     61  N   UNL     1      -4.236  -7.846  -6.261  1.00  0.00    -0.354 N 
ATOM     62  N   UNL     1      -2.144  -8.086  -8.301  1.00  0.00    -0.248 NA
ATOM     63  C   UNL     1      -1.457  -8.712 -10.446  1.00  0.00     0.031 C 
ATOM     64  C   UNL     1      -6.320  -8.366  -6.829  1.00  0.00     0.029 A 
ATOM     65  C   UNL     1      -5.018  -8.315  -7.301  1.00  0.00     0.049 A 
ATOM     66  H   UNL     1      -3.261  -7.709  -6.303  1.00  0.00     0.167 HD
ATOM     67  C   UNL     1      -3.240  -8.555  -9.012  1.00  0.00     0.074 A 
ATOM     68  C   UNL     1      -2.764  -8.914 -10.332  1.00  0.00     0.031 C 
ATOM     69  C   UNL     1      -4.525  -8.677  -8.603  1.00  0.00     0.031 A 
BRANCH  56  70
ATOM     70  C   UNL     1      -5.528  -6.877  -2.793  1.00  0.00    -0.014 A 
ATOM     71  C   UNL     1      -5.984  -5.586  -2.490  1.00  0.00     0.009 A 
ATOM     72  C   UNL     1      -6.059  -7.972  -2.095  1.00  0.00     0.009 A 
ATOM     73  C   UNL     1      -6.947  -5.396  -1.498  1.00  0.00     0.001 A 
ATOM     74  C   UNL     1      -7.032  -7.780  -1.114  1.00  0.00     0.001 A 
ATOM     75  C   UNL     1      -7.474  -6.492  -0.815  1.00  0.00     0.000 A 
ENDBRANCH  56  70
BRANCH  57  76
ATOM     76  C   UNL     1       1.327  -7.934  -9.948  1.00  0.00    -0.014 A 
ATOM     77  C   UNL     1       1.392  -6.987 -10.979  1.00  0.00     0.009 A 
ATOM     78  C   UNL     1       2.261  -8.982  -9.923  1.00  0.00     0.009 A 
ATOM     79  C   UNL     1       2.375  -7.087 -11.966  1.00  0.00     0.001 A 
ATOM     80  C   UNL     1       3.254  -9.069 -10.900  1.00  0.00     0.001 A 
ATOM     81  C   UNL     1       3.308  -8.123 -11.922  1.00  0.00     0.000 A 
ENDBRANCH  57  76
BRANCH  69  82
ATOM     82  C   UNL     1      -5.517  -9.217  -9.588  1.00  0.00    -0.014 A 
ATOM     83  C   UNL     1      -5.618 -10.597  -9.818  1.00  0.00     0.009 A 
ATOM     84  C   UNL     1      -6.418  -8.347 -10.220  1.00  0.00     0.009 A 
ATOM     85  C   UNL     1      -6.602 -11.095 -10.673  1.00  0.00     0.001 A 
ATOM     86  C   UNL     1      -7.411  -8.850 -11.061  1.00  0.00     0.001 A 
ATOM     87  C   UNL     1      -7.501 -10.223 -11.287  1.00  0.00     0.000 A 
ENDBRANCH  69  82
ENDBRANCH  43  44
ENDBRANCH  36  38
ENDBRANCH  35  36
ENDBRANCH  34  35
ENDBRANCH   1  34
TORSDOF 15
