REMARK SMILES COC(=O)[C@H]1CC[C@]2(C)[C@H](CC[C@]3(C)[C@H]2CC=C2[C@H]4CC(C)(C)CC[C@]4(C(=O)OCCOC(=O)c4ccc(-c5c6nc(c(-c7ccccc7)c7ccc([nH]7)c(-c7ccccc7)c7nc(c(-c8ccccc8)c8ccc5[nH]8)C=C7)C=C6)cc4)CC[C@@]23C)C1(C)C
REMARK SMILES IDX 30 1 29 2 27 3 28 4 26 5 5 6 6 7 87 8 7 9 10 10 88 11 89 12
REMARK SMILES IDX 8 13 11 14 15 15 9 16 12 17 16 18 13 19 17 20 85 21 14 22
REMARK SMILES IDX 18 23 84 24 86 25 19 26 83 27 20 28 21 29 25 30 24 31 22 32
REMARK SMILES IDX 23 33 3 34 4 35 2 36 1 37 31 38 32 39 33 40 34 41 35 42
REMARK SMILES IDX 36 43 82 44 37 45 81 46 38 47 39 48 40 49 75 50 41 51 80 52
REMARK SMILES IDX 74 53 76 54 42 55 79 56 73 57 72 58 43 60 65 61 50 62 64 63
REMARK SMILES IDX 51 64 54 65 63 66 77 67 52 68 53 69 62 71 78 72 55 73 44 74
REMARK SMILES IDX 45 75 49 76 46 77 48 78 47 79 66 80 67 81 71 82 68 83 70 84
REMARK SMILES IDX 69 85 56 86 57 87 61 88 58 89 60 90 59 91
REMARK H PARENT 76 59 54 70
REMARK Flexibility Score: inf
ROOT
ATOM      1  C   UNL     1      -3.433  -8.192  -7.126  1.00  0.00     0.274 C 
ENDROOT
BRANCH   1   2
ATOM      2  O   UNL     1      -3.396  -6.946  -7.872  1.00  0.00    -0.462 OA
BRANCH   2   3
ATOM      3  C   UNL     1      -2.210  -6.307  -7.769  1.00  0.00     0.312 C 
ATOM      4  O   UNL     1      -1.163  -6.924  -7.598  1.00  0.00    -0.252 OA
BRANCH   3   5
ATOM      5  C   UNL     1      -2.205  -4.771  -7.674  1.00  0.00     0.075 C 
ATOM      6  C   UNL     1       1.024  -2.765  -0.288  1.00  0.00     0.105 C 
ATOM      7  C   UNL     1       0.071  -3.803   0.362  1.00  0.00     0.016 C 
ATOM      8  C   UNL     1       0.956  -2.611  -1.849  1.00  0.00    -0.019 C 
ATOM      9  C   UNL     1      -1.192  -4.274  -0.391  1.00  0.00     0.008 C 
ATOM     10  C   UNL     1      -0.574  -2.887  -2.281  1.00  0.00     0.002 C 
ATOM     11  C   UNL     1       1.398  -1.210  -2.358  1.00  0.00     0.012 C 
ATOM     12  C   UNL     1       2.124  -3.498  -2.397  1.00  0.00     0.012 C 
ATOM     13  C   UNL     1      -1.092  -4.322  -1.944  1.00  0.00    -0.026 C 
ATOM     14  C   UNL     1      -0.984  -2.481  -3.682  1.00  0.00     0.005 C 
ATOM     15  C   UNL     1      -2.579  -4.722  -2.521  1.00  0.00     0.006 C 
ATOM     16  C   UNL     1      -0.009  -5.375  -2.333  1.00  0.00     0.012 C 
ATOM     17  C   UNL     1      -2.504  -2.434  -3.879  1.00  0.00     0.008 C 
ATOM     18  C   UNL     1      -2.566  -6.216  -3.042  1.00  0.00     0.032 C 
ATOM     19  C   UNL     1      -3.337  -3.724  -3.601  1.00  0.00    -0.020 C 
ATOM     20  C   UNL     1      -1.967  -6.201  -4.433  1.00  0.00    -0.027 C 
ATOM     21  C   UNL     1      -3.720  -4.565  -4.949  1.00  0.00    -0.006 C 
ATOM     22  C   UNL     1      -4.666  -3.203  -2.973  1.00  0.00     0.012 C 
ATOM     23  C   UNL     1      -2.372  -5.212  -5.245  1.00  0.00    -0.063 C 
ATOM     24  C   UNL     1      -4.280  -3.873  -6.255  1.00  0.00     0.013 C 
ATOM     25  C   UNL     1      -4.903  -5.578  -4.638  1.00  0.00     0.017 C 
ATOM     26  C   UNL     1      -1.541  -4.513  -6.321  1.00  0.00     0.033 C 
ATOM     27  C   UNL     1      -3.538  -3.998  -7.618  1.00  0.00     0.020 C 
ATOM     28  C   UNL     1       0.001  -4.626  -6.372  1.00  0.00     0.015 C 
ATOM     29  C   UNL     1       0.608  -3.502  -7.269  1.00  0.00    -0.035 C 
ATOM     30  C   UNL     1      -1.336  -4.206  -8.837  1.00  0.00     0.020 C 
ATOM     31  C   UNL     1      -0.354  -3.104  -8.421  1.00  0.00     0.007 C 
ATOM     32  C   UNL     1       1.952  -3.998  -7.815  1.00  0.00     0.011 C 
ATOM     33  C   UNL     1       0.928  -2.230  -6.458  1.00  0.00     0.011 C 
BRANCH   6  34
ATOM     34  C   UNL     1       1.083  -1.431   0.438  1.00  0.00     0.309 C 
ATOM     35  O   UNL     1       2.111  -1.022   0.969  1.00  0.00    -0.252 OA
BRANCH  34  36
ATOM     36  O   UNL     1      -0.067  -0.722   0.316  1.00  0.00    -0.469 OA
ATOM     37  C   UNL     1       0.036   0.666   0.657  1.00  0.00     0.282 C 
ENDBRANCH  34  36
ENDBRANCH   6  34
ENDBRANCH   3   5
ENDBRANCH   2   3
ENDBRANCH   1   2
BRANCH   1  38
ATOM     38  C   UNL     1      -2.764  -9.483  -7.665  1.00  0.00     0.275 C 
BRANCH  38  39
ATOM     39  O   UNL     1      -1.365  -9.381  -7.980  1.00  0.00    -0.458 OA
BRANCH  39  40
ATOM     40  C   UNL     1      -1.117  -9.177  -9.302  1.00  0.00     0.338 C 
ATOM     41  O   UNL     1      -1.899  -9.297 -10.209  1.00  0.00    -0.246 OA
BRANCH  40  42
ATOM     42  C   UNL     1       0.206  -8.525  -9.490  1.00  0.00     0.060 A 
ATOM     43  C   UNL     1       0.164  -7.291 -10.145  1.00  0.00     0.016 A 
ATOM     44  C   UNL     1       1.429  -9.078  -9.110  1.00  0.00     0.016 A 
ATOM     45  C   UNL     1       1.333  -6.597 -10.423  1.00  0.00     0.010 A 
ATOM     46  C   UNL     1       2.619  -8.424  -9.476  1.00  0.00     0.010 A 
ATOM     47  C   UNL     1       2.570  -7.201 -10.169  1.00  0.00    -0.014 A 
BRANCH  47  48
ATOM     48  C   UNL     1       3.712  -6.717 -10.985  1.00  0.00     0.031 A 
ATOM     49  C   UNL     1       3.662  -7.054 -12.456  1.00  0.00     0.074 A 
ATOM     50  C   UNL     1       4.691  -5.935 -10.498  1.00  0.00     0.049 A 
ATOM     51  N   UNL     1       4.461  -6.692 -13.425  1.00  0.00    -0.248 NA
ATOM     52  C   UNL     1       2.531  -7.894 -12.895  1.00  0.00     0.031 C 
ATOM     53  C   UNL     1       4.806  -5.473  -9.118  1.00  0.00     0.029 A 
ATOM     54  N   UNL     1       5.768  -5.365 -11.132  1.00  0.00    -0.354 N 
ATOM     55  C   UNL     1       3.919  -7.250 -14.576  1.00  0.00     0.074 A 
ATOM     56  C   UNL     1       2.712  -7.944 -14.201  1.00  0.00     0.031 C 
ATOM     57  C   UNL     1       5.877  -4.665  -9.014  1.00  0.00     0.029 A 
ATOM     58  C   UNL     1       6.559  -4.603 -10.305  1.00  0.00     0.049 A 
ATOM     59  H   UNL     1       5.957  -5.492 -12.090  1.00  0.00     0.167 HD
ATOM     60  C   UNL     1       4.406  -7.238 -15.836  1.00  0.00     0.031 A 
ATOM     61  C   UNL     1       7.716  -3.961 -10.565  1.00  0.00     0.031 A 
ATOM     62  C   UNL     1       5.668  -6.661 -16.190  1.00  0.00     0.049 A 
ATOM     63  C   UNL     1       8.304  -4.062 -11.952  1.00  0.00     0.074 A 
ATOM     64  C   UNL     1       6.320  -6.689 -17.407  1.00  0.00     0.029 A 
ATOM     65  N   UNL     1       6.484  -5.979 -15.302  1.00  0.00    -0.354 N 
ATOM     66  N   UNL     1       7.800  -4.621 -13.027  1.00  0.00    -0.248 NA
ATOM     67  C   UNL     1       9.634  -3.467 -12.153  1.00  0.00     0.031 C 
ATOM     68  C   UNL     1       7.563  -6.070 -17.239  1.00  0.00     0.029 A 
ATOM     69  C   UNL     1       7.652  -5.602 -15.937  1.00  0.00     0.049 A 
ATOM     70  H   UNL     1       6.265  -5.791 -14.361  1.00  0.00     0.167 HD
ATOM     71  C   UNL     1       8.746  -4.443 -14.030  1.00  0.00     0.074 A 
ATOM     72  C   UNL     1       9.841  -3.697 -13.443  1.00  0.00     0.031 C 
ATOM     73  C   UNL     1       8.723  -4.866 -15.318  1.00  0.00     0.031 A 
BRANCH  60  74
ATOM     74  C   UNL     1       3.617  -7.995 -16.863  1.00  0.00    -0.014 A 
ATOM     75  C   UNL     1       2.408  -7.496 -17.372  1.00  0.00     0.009 A 
ATOM     76  C   UNL     1       4.054  -9.267 -17.263  1.00  0.00     0.009 A 
ATOM     77  C   UNL     1       1.634  -8.274 -18.236  1.00  0.00     0.001 A 
ATOM     78  C   UNL     1       3.290 -10.032 -18.144  1.00  0.00     0.001 A 
ATOM     79  C   UNL     1       2.076  -9.540 -18.621  1.00  0.00     0.000 A 
ENDBRANCH  60  74
BRANCH  61  80
ATOM     80  C   UNL     1       8.445  -3.232  -9.488  1.00  0.00    -0.014 A 
ATOM     81  C   UNL     1       8.637  -1.843  -9.554  1.00  0.00     0.009 A 
ATOM     82  C   UNL     1       9.001  -3.935  -8.406  1.00  0.00     0.009 A 
ATOM     83  C   UNL     1       9.384  -1.180  -8.575  1.00  0.00     0.001 A 
ATOM     84  C   UNL     1       9.720  -3.266  -7.412  1.00  0.00     0.001 A 
ATOM     85  C   UNL     1       9.920  -1.891  -7.502  1.00  0.00     0.000 A 
ENDBRANCH  61  80
BRANCH  73  86
ATOM     86  C   UNL     1       9.901  -4.518 -16.180  1.00  0.00    -0.014 A 
ATOM     87  C   UNL     1      11.131  -5.175 -16.029  1.00  0.00     0.009 A 
ATOM     88  C   UNL     1       9.752  -3.568 -17.203  1.00  0.00     0.009 A 
ATOM     89  C   UNL     1      12.200  -4.867 -16.872  1.00  0.00     0.001 A 
ATOM     90  C   UNL     1      10.814  -3.283 -18.061  1.00  0.00     0.001 A 
ATOM     91  C   UNL     1      12.039  -3.926 -17.890  1.00  0.00     0.000 A 
ENDBRANCH  73  86
ENDBRANCH  47  48
ENDBRANCH  40  42
ENDBRANCH  39  40
ENDBRANCH  38  39
ENDBRANCH   1  38
TORSDOF 13
