REMARK SMILES C[C@]12C[C@@H](O)[C@@H]3[C@@H](CCC4=CC(=O)CC[C@]43C)[C@H]1CC[C@]2(O)C(=O)COC(=O)CCC(=O)OCCOC(=O)c1ccc(-c2c3nc(c(-c4ccccc4)c4ccc([nH]4)c(-c4ccccc4)c4nc(c(-c5ccccc5)c5ccc2[nH]5)C=C4)C=C3)cc1
REMARK SMILES IDX 31 1 32 2 30 3 29 4 27 5 28 6 26 7 25 8 23 9 24 10 21 11
REMARK SMILES IDX 17 12 16 13 15 14 10 15 6 16 14 17 11 18 9 19 7 20 4 21
REMARK SMILES IDX 12 22 8 23 18 24 3 25 13 26 2 27 19 28 1 29 20 30 5 31 22 33
REMARK SMILES IDX 33 35 34 36 35 37 36 38 37 39 38 40 39 41 40 42 86 43 41 44
REMARK SMILES IDX 85 45 42 46 43 47 44 48 79 49 45 50 84 51 78 52 80 53 46 54
REMARK SMILES IDX 83 55 77 56 76 57 47 59 69 60 54 61 68 62 55 63 58 64 67 65
REMARK SMILES IDX 81 66 56 67 57 68 66 70 82 71 59 72 48 73 49 74 53 75 50 76
REMARK SMILES IDX 52 77 51 78 70 79 71 80 75 81 72 82 74 83 73 84 60 85 61 86
REMARK SMILES IDX 65 87 62 88 64 89 63 90
REMARK H PARENT 5 32 22 34 80 58 58 69
REMARK Flexibility Score: inf
ROOT
ATOM      1  C   UNL     1       3.008   7.260  -2.136  1.00  0.00     0.306 C 
ATOM      2  O   UNL     1       2.268   6.778  -2.986  1.00  0.00    -0.252 OA
ENDROOT
BRANCH   1   3
ATOM      3  C   UNL     1       4.311   6.582  -1.727  1.00  0.00     0.134 C 
BRANCH   3   4
ATOM      4  C   UNL     1       5.148   7.229  -0.630  1.00  0.00     0.134 C 
BRANCH   4   5
ATOM      5  C   UNL     1       4.590   7.013   0.756  1.00  0.00     0.306 C 
ATOM      6  O   UNL     1       5.221   6.626   1.726  1.00  0.00    -0.252 OA
BRANCH   5   7
ATOM      7  O   UNL     1       3.303   7.413   0.798  1.00  0.00    -0.458 OA
BRANCH   7   8
ATOM      8  C   UNL     1       2.853   7.988   1.993  1.00  0.00     0.311 C 
BRANCH   8   9
ATOM      9  C   UNL     1       1.748   7.306   2.755  1.00  0.00     0.202 C 
ATOM     10  O   UNL     1       1.377   7.903   3.783  1.00  0.00    -0.293 OA
BRANCH   9  11
ATOM     11  C   UNL     1       1.225   5.871   2.443  1.00  0.00     0.132 C 
ATOM     12  C   UNL     1       0.812  -0.277  -0.313  1.00  0.00     0.016 C 
ATOM     13  C   UNL     1       0.337   0.512   0.949  1.00  0.00    -0.005 C 
ATOM     14  C   UNL     1      -1.044  -0.106   1.332  1.00  0.00     0.020 C 
ATOM     15  C   UNL     1       1.156   0.265   2.217  1.00  0.00    -0.060 C 
ATOM     16  C   UNL     1       0.310   2.051   0.594  1.00  0.00     0.031 C 
ATOM     17  C   UNL     1      -0.897  -1.495   2.013  1.00  0.00     0.081 C 
ATOM     18  C   UNL     1       1.548  -0.976   2.556  1.00  0.00     0.047 C 
ATOM     19  C   UNL     1       1.012   1.238   3.361  1.00  0.00     0.032 C 
ATOM     20  C   UNL     1      -0.171   2.889   1.786  1.00  0.00    -0.000 C 
ATOM     21  C   UNL     1       1.604   2.726  -0.015  1.00  0.00     0.119 C 
ATOM     22  C   UNL     1       0.550  -1.991   2.120  1.00  0.00     0.155 C 
ATOM     23  C   UNL     1       0.795   2.678   2.956  1.00  0.00     0.009 C 
ATOM     24  C   UNL     1      -0.358   4.333   1.276  1.00  0.00     0.002 C 
ATOM     25  C   UNL     1       2.035   4.149   0.494  1.00  0.00     0.042 C 
ATOM     26  O   UNL     1       0.867  -3.170   2.016  1.00  0.00    -0.295 OA
ATOM     27  C   UNL     1       0.949   5.130   1.038  1.00  0.00     0.009 C 
ATOM     28  C   UNL     1      -1.177   5.215   2.191  1.00  0.00     0.008 C 
ATOM     29  C   UNL     1       0.620   6.129  -0.076  1.00  0.00     0.015 C 
ATOM     30  C   UNL     1      -0.180   5.839   3.140  1.00  0.00     0.044 C 
BRANCH  21  31
ATOM     31  O   UNL     1       2.769   1.918   0.146  1.00  0.00    -0.393 OA
ATOM     32  H   UNL     1       3.004   1.873   1.086  1.00  0.00     0.210 HD
ENDBRANCH  21  31
BRANCH  11  33
ATOM     33  O   UNL     1       2.132   5.108   3.259  1.00  0.00    -0.381 OA
ATOM     34  H   UNL     1       1.929   4.163   3.171  1.00  0.00     0.212 HD
ENDBRANCH  11  33
ENDBRANCH   9  11
ENDBRANCH   8   9
ENDBRANCH   7   8
ENDBRANCH   5   7
ENDBRANCH   4   5
ENDBRANCH   3   4
ENDBRANCH   1   3
BRANCH   1  35
ATOM     35  O   UNL     1       2.736   8.392  -1.442  1.00  0.00    -0.462 OA
BRANCH  35  36
ATOM     36  C   UNL     1       1.423   8.996  -1.555  1.00  0.00     0.274 C 
BRANCH  36  37
ATOM     37  C   UNL     1       1.542  10.514  -1.642  1.00  0.00     0.275 C 
BRANCH  37  38
ATOM     38  O   UNL     1       2.134  10.855  -2.896  1.00  0.00    -0.458 OA
BRANCH  38  39
ATOM     39  C   UNL     1       3.473  10.679  -2.931  1.00  0.00     0.338 C 
ATOM     40  O   UNL     1       4.250  10.594  -1.988  1.00  0.00    -0.246 OA
BRANCH  39  41
ATOM     41  C   UNL     1       3.817  10.318  -4.305  1.00  0.00     0.060 A 
ATOM     42  C   UNL     1       4.582   9.164  -4.511  1.00  0.00     0.016 A 
ATOM     43  C   UNL     1       3.383  11.104  -5.370  1.00  0.00     0.016 A 
ATOM     44  C   UNL     1       4.955   8.805  -5.794  1.00  0.00     0.010 A 
ATOM     45  C   UNL     1       3.774  10.760  -6.655  1.00  0.00     0.010 A 
ATOM     46  C   UNL     1       4.594   9.636  -6.857  1.00  0.00    -0.014 A 
BRANCH  46  47
ATOM     47  C   UNL     1       5.250   9.462  -8.159  1.00  0.00     0.031 A 
ATOM     48  C   UNL     1       6.378  10.388  -8.499  1.00  0.00     0.074 A 
ATOM     49  C   UNL     1       4.829   8.510  -9.004  1.00  0.00     0.049 A 
ATOM     50  N   UNL     1       7.023  10.528  -9.624  1.00  0.00    -0.248 NA
ATOM     51  C   UNL     1       6.824  11.295  -7.426  1.00  0.00     0.031 C 
ATOM     52  C   UNL     1       3.773   7.537  -8.724  1.00  0.00     0.029 A 
ATOM     53  N   UNL     1       5.233   8.223 -10.277  1.00  0.00    -0.354 N 
ATOM     54  C   UNL     1       7.923  11.563  -9.407  1.00  0.00     0.074 A 
ATOM     55  C   UNL     1       7.730  12.028  -8.053  1.00  0.00     0.031 C 
ATOM     56  C   UNL     1       3.598   6.767  -9.810  1.00  0.00     0.029 A 
ATOM     57  C   UNL     1       4.495   7.228 -10.866  1.00  0.00     0.049 A 
ATOM     58  H   UNL     1       5.978   8.683 -10.727  1.00  0.00     0.167 HD
ATOM     59  C   UNL     1       8.824  12.080 -10.272  1.00  0.00     0.031 A 
ATOM     60  C   UNL     1       4.523   6.776 -12.132  1.00  0.00     0.031 A 
ATOM     61  C   UNL     1       8.988  11.598 -11.616  1.00  0.00     0.049 A 
ATOM     62  C   UNL     1       5.503   7.393 -13.090  1.00  0.00     0.074 A 
ATOM     63  C   UNL     1       9.884  12.015 -12.581  1.00  0.00     0.029 A 
ATOM     64  N   UNL     1       8.222  10.587 -12.183  1.00  0.00    -0.354 N 
ATOM     65  N   UNL     1       6.366   8.360 -12.880  1.00  0.00    -0.248 NA
ATOM     66  C   UNL     1       5.520   6.853 -14.454  1.00  0.00     0.031 C 
ATOM     67  C   UNL     1       9.619  11.297 -13.753  1.00  0.00     0.029 A 
ATOM     68  C   UNL     1       8.605  10.386 -13.497  1.00  0.00     0.049 A 
ATOM     69  H   UNL     1       7.513  10.087 -11.719  1.00  0.00     0.167 HD
ATOM     70  C   UNL     1       7.047   8.530 -14.078  1.00  0.00     0.074 A 
ATOM     71  C   UNL     1       6.504   7.553 -15.003  1.00  0.00     0.031 C 
ATOM     72  C   UNL     1       8.032   9.409 -14.389  1.00  0.00     0.031 A 
BRANCH  59  73
ATOM     73  C   UNL     1       9.639  13.252  -9.803  1.00  0.00    -0.014 A 
ATOM     74  C   UNL     1      10.611  13.125  -8.797  1.00  0.00     0.009 A 
ATOM     75  C   UNL     1       9.418  14.516 -10.373  1.00  0.00     0.009 A 
ATOM     76  C   UNL     1      11.310  14.246  -8.341  1.00  0.00     0.001 A 
ATOM     77  C   UNL     1      10.141  15.629  -9.939  1.00  0.00     0.001 A 
ATOM     78  C   UNL     1      11.077  15.495  -8.915  1.00  0.00     0.000 A 
ENDBRANCH  59  73
BRANCH  60  79
ATOM     79  C   UNL     1       3.581   5.709 -12.551  1.00  0.00    -0.014 A 
ATOM     80  C   UNL     1       4.042   4.414 -12.827  1.00  0.00     0.009 A 
ATOM     81  C   UNL     1       2.203   5.971 -12.637  1.00  0.00     0.009 A 
ATOM     82  C   UNL     1       3.146   3.408 -13.196  1.00  0.00     0.001 A 
ATOM     83  C   UNL     1       1.307   4.956 -12.978  1.00  0.00     0.001 A 
ATOM     84  C   UNL     1       1.780   3.677 -13.263  1.00  0.00     0.000 A 
ENDBRANCH  60  79
BRANCH  72  85
ATOM     85  C   UNL     1       8.603   9.325 -15.776  1.00  0.00    -0.014 A 
ATOM     86  C   UNL     1       7.873   9.758 -16.893  1.00  0.00     0.009 A 
ATOM     87  C   UNL     1       9.911   8.849 -15.957  1.00  0.00     0.009 A 
ATOM     88  C   UNL     1       8.431   9.681 -18.170  1.00  0.00     0.001 A 
ATOM     89  C   UNL     1      10.478   8.805 -17.229  1.00  0.00     0.001 A 
ATOM     90  C   UNL     1       9.734   9.211 -18.336  1.00  0.00     0.000 A 
ENDBRANCH  72  85
ENDBRANCH  46  47
ENDBRANCH  39  41
ENDBRANCH  38  39
ENDBRANCH  37  38
ENDBRANCH  36  37
ENDBRANCH  35  36
ENDBRANCH   1  35
TORSDOF 19
