REMARK SMILES COc1ccccc1[C@@H]1CN(C(=O)CCc2cc(Cl)no2)C[C@H]1C(=O)OCCOC(=O)c1ccc(-c2c3nc(c(-c4ccccc4)c4ccc([nH]4)c(-c4ccccc4)c4nc(c(-c5ccccc5)c5ccc2[nH]5)C=C4)C=C3)cc1
REMARK SMILES IDX 27 1 26 2 24 3 25 4 23 5 9 6 10 7 11 8 22 9 8 10 3 11 4 12
REMARK SMILES IDX 5 13 7 14 6 15 2 16 1 17 12 18 13 19 14 20 15 21 16 22 17 23
REMARK SMILES IDX 21 24 18 25 20 26 19 27 28 28 29 29 30 30 31 31 32 32 33 33
REMARK SMILES IDX 79 34 34 35 78 36 35 37 36 38 37 39 72 40 38 41 77 42 71 43
REMARK SMILES IDX 73 44 39 45 76 46 70 47 69 48 40 50 62 51 47 52 61 53 48 54
REMARK SMILES IDX 51 55 60 56 74 57 49 58 50 59 59 61 75 62 52 63 41 64 42 65
REMARK SMILES IDX 46 66 43 67 45 68 44 69 63 70 64 71 68 72 65 73 67 74 66 75
REMARK SMILES IDX 53 76 54 77 58 78 55 79 57 80 56 81
REMARK H PARENT 73 49 51 60
REMARK Flexibility Score: inf
ROOT
ATOM      1  C   UNL     1       4.824  -3.546  -3.184  1.00  0.00     0.274 C 
ENDROOT
BRANCH   1   2
ATOM      2  O   UNL     1       4.488  -2.624  -2.123  1.00  0.00    -0.462 OA
BRANCH   2   3
ATOM      3  C   UNL     1       3.292  -1.991  -2.251  1.00  0.00     0.311 C 
ATOM      4  O   UNL     1       2.565  -2.089  -3.236  1.00  0.00    -0.252 OA
BRANCH   3   5
ATOM      5  C   UNL     1       2.941  -1.072  -1.099  1.00  0.00     0.128 C 
ATOM      6  C   UNL     1       3.232  -1.527   0.346  1.00  0.00     0.058 C 
ATOM      7  C   UNL     1       3.774  -0.293   1.046  1.00  0.00     0.129 C 
ATOM      8  N   UNL     1       4.223   0.612   0.023  1.00  0.00    -0.341 N 
ATOM      9  C   UNL     1       3.730   0.226  -1.287  1.00  0.00     0.135 C 
BRANCH   6  10
ATOM     10  C   UNL     1       2.158  -2.149   1.246  1.00  0.00    -0.000 A 
ATOM     11  C   UNL     1       0.908  -1.633   1.646  1.00  0.00     0.122 A 
ATOM     12  C   UNL     1       0.105  -2.367   2.551  1.00  0.00     0.047 A 
ATOM     13  C   UNL     1       0.525  -3.567   3.117  1.00  0.00     0.004 A 
ATOM     14  C   UNL     1       2.573  -3.349   1.891  1.00  0.00     0.008 A 
ATOM     15  C   UNL     1       1.779  -4.049   2.802  1.00  0.00     0.001 A 
BRANCH  11  16
ATOM     16  O   UNL     1       0.384  -0.382   1.490  1.00  0.00    -0.496 OA
ATOM     17  C   UNL     1       0.345   0.270   0.243  1.00  0.00     0.278 C 
ENDBRANCH  11  16
ENDBRANCH   6  10
BRANCH   8  18
ATOM     18  C   UNL     1       4.895   1.794   0.229  1.00  0.00     0.223 C 
ATOM     19  O   UNL     1       5.088   2.594  -0.688  1.00  0.00    -0.275 OA
BRANCH  18  20
ATOM     20  C   UNL     1       5.429   2.085   1.625  1.00  0.00     0.108 C 
BRANCH  20  21
ATOM     21  C   UNL     1       4.436   2.822   2.523  1.00  0.00     0.088 C 
BRANCH  21  22
ATOM     22  C   UNL     1       3.598   1.931   3.370  1.00  0.00     0.138 A 
ATOM     23  C   UNL     1       3.846   0.871   4.214  1.00  0.00     0.089 A 
ATOM     24  O   UNL     1       2.253   2.155   3.327  1.00  0.00    -0.360 OA
ATOM     25  C   UNL     1       2.566   0.446   4.613  1.00  0.00     0.172 A 
ATOM     26  N   UNL     1       1.601   1.222   4.118  1.00  0.00    -0.068 NA
ATOM     27  Cl  UNL     1       2.218  -0.892   5.588  1.00  0.00    -0.058 Cl
ENDBRANCH  21  22
ENDBRANCH  20  21
ENDBRANCH  18  20
ENDBRANCH   8  18
ENDBRANCH   3   5
ENDBRANCH   2   3
ENDBRANCH   1   2
BRANCH   1  28
ATOM     28  C   UNL     1       4.363  -4.982  -2.914  1.00  0.00     0.275 C 
BRANCH  28  29
ATOM     29  O   UNL     1       2.938  -5.131  -2.899  1.00  0.00    -0.458 OA
BRANCH  29  30
ATOM     30  C   UNL     1       2.417  -4.867  -1.682  1.00  0.00     0.338 C 
ATOM     31  O   UNL     1       3.012  -4.362  -0.747  1.00  0.00    -0.246 OA
BRANCH  30  32
ATOM     32  C   UNL     1       1.099  -5.464  -1.488  1.00  0.00     0.060 A 
ATOM     33  C   UNL     1       0.312  -4.940  -0.457  1.00  0.00     0.016 A 
ATOM     34  C   UNL     1       0.860  -6.728  -2.025  1.00  0.00     0.016 A 
ATOM     35  C   UNL     1      -0.592  -5.760   0.182  1.00  0.00     0.010 A 
ATOM     36  C   UNL     1      -0.061  -7.542  -1.399  1.00  0.00     0.010 A 
ATOM     37  C   UNL     1      -0.713  -7.080  -0.248  1.00  0.00    -0.014 A 
BRANCH  37  38
ATOM     38  C   UNL     1      -1.600  -7.963   0.493  1.00  0.00     0.031 A 
ATOM     39  C   UNL     1      -3.048  -7.658   0.359  1.00  0.00     0.074 A 
ATOM     40  C   UNL     1      -1.146  -9.092   1.070  1.00  0.00     0.049 A 
ATOM     41  N   UNL     1      -3.949  -7.596   1.285  1.00  0.00    -0.248 NA
ATOM     42  C   UNL     1      -3.540  -7.320  -0.988  1.00  0.00     0.031 C 
ATOM     43  C   UNL     1       0.213  -9.639   1.003  1.00  0.00     0.029 A 
ATOM     44  N   UNL     1      -1.854 -10.087   1.676  1.00  0.00    -0.354 N 
ATOM     45  C   UNL     1      -5.152  -7.362   0.623  1.00  0.00     0.074 A 
ATOM     46  C   UNL     1      -4.827  -7.084  -0.752  1.00  0.00     0.031 C 
ATOM     47  C   UNL     1       0.162 -10.960   1.277  1.00  0.00     0.029 A 
ATOM     48  C   UNL     1      -1.202 -11.312   1.637  1.00  0.00     0.049 A 
ATOM     49  H   UNL     1      -2.734  -9.951   2.096  1.00  0.00     0.167 HD
ATOM     50  C   UNL     1      -6.361  -7.623   1.187  1.00  0.00     0.031 A 
ATOM     51  C   UNL     1      -1.770 -12.536   1.764  1.00  0.00     0.031 A 
ATOM     52  C   UNL     1      -6.302  -7.694   2.619  1.00  0.00     0.049 A 
ATOM     53  C   UNL     1      -3.114 -12.361   2.363  1.00  0.00     0.074 A 
ATOM     54  C   UNL     1      -5.893  -6.829   3.615  1.00  0.00     0.029 A 
ATOM     55  N   UNL     1      -6.391  -8.930   3.213  1.00  0.00    -0.354 N 
ATOM     56  N   UNL     1      -3.319 -12.001   3.596  1.00  0.00    -0.248 NA
ATOM     57  C   UNL     1      -4.252 -12.197   1.470  1.00  0.00     0.031 C 
ATOM     58  C   UNL     1      -5.286  -7.661   4.599  1.00  0.00     0.029 A 
ATOM     59  C   UNL     1      -5.397  -8.979   4.156  1.00  0.00     0.049 A 
ATOM     60  H   UNL     1      -7.041  -9.639   3.004  1.00  0.00     0.167 HD
ATOM     61  C   UNL     1      -4.434 -11.178   3.544  1.00  0.00     0.074 A 
ATOM     62  C   UNL     1      -5.033 -11.433   2.237  1.00  0.00     0.031 C 
ATOM     63  C   UNL     1      -4.607 -10.156   4.435  1.00  0.00     0.031 A 
BRANCH  50  64
ATOM     64  C   UNL     1      -7.511  -8.180   0.392  1.00  0.00    -0.014 A 
ATOM     65  C   UNL     1      -8.771  -8.301   1.000  1.00  0.00     0.009 A 
ATOM     66  C   UNL     1      -7.330  -8.844  -0.838  1.00  0.00     0.009 A 
ATOM     67  C   UNL     1      -9.777  -9.091   0.429  1.00  0.00     0.001 A 
ATOM     68  C   UNL     1      -8.346  -9.593  -1.433  1.00  0.00     0.001 A 
ATOM     69  C   UNL     1      -9.562  -9.738  -0.784  1.00  0.00     0.000 A 
ENDBRANCH  50  64
BRANCH  51  70
ATOM     70  C   UNL     1      -1.333 -13.809   1.147  1.00  0.00    -0.014 A 
ATOM     71  C   UNL     1      -1.839 -15.036   1.600  1.00  0.00     0.009 A 
ATOM     72  C   UNL     1      -0.579 -13.817  -0.043  1.00  0.00     0.009 A 
ATOM     73  C   UNL     1      -1.615 -16.218   0.881  1.00  0.00     0.001 A 
ATOM     74  C   UNL     1      -0.341 -14.997  -0.753  1.00  0.00     0.001 A 
ATOM     75  C   UNL     1      -0.871 -16.197  -0.297  1.00  0.00     0.000 A 
ENDBRANCH  51  70
BRANCH  63  76
ATOM     76  C   UNL     1      -3.683 -10.075   5.625  1.00  0.00    -0.014 A 
ATOM     77  C   UNL     1      -2.285  -9.995   5.495  1.00  0.00     0.009 A 
ATOM     78  C   UNL     1      -4.240  -9.899   6.901  1.00  0.00     0.009 A 
ATOM     79  C   UNL     1      -1.469  -9.784   6.611  1.00  0.00     0.001 A 
ATOM     80  C   UNL     1      -3.427  -9.663   8.012  1.00  0.00     0.001 A 
ATOM     81  C   UNL     1      -2.042  -9.613   7.868  1.00  0.00     0.000 A 
ENDBRANCH  63  76
ENDBRANCH  37  38
ENDBRANCH  30  32
ENDBRANCH  29  30
ENDBRANCH  28  29
ENDBRANCH   1  28
TORSDOF 17
