REMARK SMILES Cc1ccc2oc(-c3ccc4c(c3)OCO4)c/c(=N\[C@H](C)C(=O)OCCOC(=O)c3ccc(-c4c5nc(c(-c6ccccc6)c6ccc([nH]6)c(-c6ccccc6)c6nc(c(-c7ccccc7)c7ccc4[nH]7)C=C6)C=C5)cc3)c2c1
REMARK SMILES IDX 25 1 24 2 22 3 23 4 20 5 21 6 19 7 1 8 2 9 3 10 79 11 4 12
REMARK SMILES IDX 78 13 5 14 18 15 6 16 17 17 7 18 8 19 9 20 13 21 10 22 12 23
REMARK SMILES IDX 11 24 14 25 16 26 15 27 26 28 27 29 28 30 29 31 30 32 31 33
REMARK SMILES IDX 77 34 32 35 76 36 33 37 34 38 35 39 70 40 36 41 75 42 69 43
REMARK SMILES IDX 71 44 37 45 74 46 68 47 67 48 38 50 60 51 45 52 59 53 46 54
REMARK SMILES IDX 49 55 58 56 72 57 47 58 48 59 57 61 73 62 50 63 39 64 40 65
REMARK SMILES IDX 44 66 41 67 43 68 42 69 61 70 62 71 66 72 63 73 65 74 64 75
REMARK SMILES IDX 51 76 52 77 56 78 53 79 55 80 54 81
REMARK H PARENT 71 49 49 60
REMARK Flexibility Score: inf
ROOT
ATOM      1  C   UNL     1       1.055  -1.103  -3.338  1.00  0.00     0.274 C 
ENDROOT
BRANCH   1   2
ATOM      2  O   UNL     1      -0.203  -1.442  -2.717  1.00  0.00    -0.460 OA
BRANCH   2   3
ATOM      3  C   UNL     1      -1.069  -0.401  -2.634  1.00  0.00     0.330 C 
ATOM      4  O   UNL     1      -0.808   0.714  -3.080  1.00  0.00    -0.250 OA
BRANCH   3   5
ATOM      5  C   UNL     1      -2.406  -0.701  -1.947  1.00  0.00     0.212 C 
ATOM      6  C   UNL     1      -2.924  -2.094  -2.287  1.00  0.00     0.046 C 
BRANCH   5   7
ATOM      7  N   UNL     1      -2.393  -0.548  -0.482  1.00  0.00    -0.270 NA
ATOM      8  C   UNL     1      -3.992  -0.632   4.540  1.00  0.00     0.044 C 
ATOM      9  C   UNL     1      -2.933   0.045   3.722  1.00  0.00    -0.050 A 
ATOM     10  C   UNL     1      -1.920   0.797   4.342  1.00  0.00     0.007 A 
ATOM     11  C   UNL     1      -2.923  -0.101   2.332  1.00  0.00     0.017 A 
ATOM     12  C   UNL     1      -0.908   1.398   3.585  1.00  0.00     0.048 A 
ATOM     13  C   UNL     1      -1.936   0.539   1.585  1.00  0.00     0.043 A 
ATOM     14  C   UNL     1      -0.923   1.267   2.203  1.00  0.00     0.136 A 
ATOM     15  C   UNL     1      -1.931   0.493   0.114  1.00  0.00     0.073 A 
ATOM     16  O   UNL     1       0.095   1.831   1.471  1.00  0.00    -0.456 OA
ATOM     17  C   UNL     1      -1.296   1.691  -0.492  1.00  0.00     0.076 A 
ATOM     18  C   UNL     1      -0.182   2.096   0.137  1.00  0.00     0.136 A 
BRANCH  18  19
ATOM     19  C   UNL     1       0.974   2.544  -0.661  1.00  0.00     0.021 A 
ATOM     20  C   UNL     1       0.931   3.618  -1.575  1.00  0.00     0.016 A 
ATOM     21  C   UNL     1       2.141   1.759  -0.574  1.00  0.00     0.062 A 
ATOM     22  C   UNL     1       2.046   3.925  -2.372  1.00  0.00     0.051 A 
ATOM     23  C   UNL     1       3.219   2.088  -1.362  1.00  0.00     0.166 A 
ATOM     24  C   UNL     1       3.177   3.147  -2.233  1.00  0.00     0.165 A 
ATOM     25  O   UNL     1       4.410   1.432  -1.390  1.00  0.00    -0.454 OA
ATOM     26  O   UNL     1       4.350   3.303  -2.906  1.00  0.00    -0.454 OA
ATOM     27  C   UNL     1       5.164   2.299  -2.261  1.00  0.00     0.468 C 
ENDBRANCH  18  19
ENDBRANCH   5   7
ENDBRANCH   3   5
ENDBRANCH   2   3
ENDBRANCH   1   2
BRANCH   1  28
ATOM     28  C   UNL     1       1.023  -1.162  -4.877  1.00  0.00     0.275 C 
BRANCH  28  29
ATOM     29  O   UNL     1       0.253  -0.101  -5.485  1.00  0.00    -0.458 OA
BRANCH  29  30
ATOM     30  C   UNL     1      -1.062  -0.372  -5.696  1.00  0.00     0.338 C 
ATOM     31  O   UNL     1      -1.626  -1.432  -5.505  1.00  0.00    -0.246 OA
BRANCH  30  32
ATOM     32  C   UNL     1      -1.792   0.878  -6.015  1.00  0.00     0.060 A 
ATOM     33  C   UNL     1      -1.409   1.705  -7.069  1.00  0.00     0.016 A 
ATOM     34  C   UNL     1      -2.919   1.201  -5.247  1.00  0.00     0.016 A 
ATOM     35  C   UNL     1      -2.158   2.856  -7.343  1.00  0.00     0.010 A 
ATOM     36  C   UNL     1      -3.648   2.361  -5.499  1.00  0.00     0.010 A 
ATOM     37  C   UNL     1      -3.281   3.192  -6.561  1.00  0.00    -0.014 A 
BRANCH  37  38
ATOM     38  C   UNL     1      -4.159   4.322  -6.949  1.00  0.00     0.031 A 
ATOM     39  C   UNL     1      -4.163   5.618  -6.194  1.00  0.00     0.074 A 
ATOM     40  C   UNL     1      -4.996   4.142  -7.989  1.00  0.00     0.049 A 
ATOM     41  N   UNL     1      -4.804   6.724  -6.479  1.00  0.00    -0.248 NA
ATOM     42  C   UNL     1      -3.361   5.688  -4.963  1.00  0.00     0.031 C 
ATOM     43  C   UNL     1      -5.129   2.895  -8.745  1.00  0.00     0.029 A 
ATOM     44  N   UNL     1      -5.884   4.995  -8.592  1.00  0.00    -0.354 N 
ATOM     45  C   UNL     1      -4.465   7.628  -5.481  1.00  0.00     0.074 A 
ATOM     46  C   UNL     1      -3.602   6.929  -4.553  1.00  0.00     0.031 C 
ATOM     47  C   UNL     1      -6.021   3.074  -9.730  1.00  0.00     0.029 A 
ATOM     48  C   UNL     1      -6.542   4.436  -9.661  1.00  0.00     0.049 A 
ATOM     49  H   UNL     1      -6.036   5.920  -8.289  1.00  0.00     0.167 HD
ATOM     50  C   UNL     1      -4.831   8.928  -5.371  1.00  0.00     0.031 A 
ATOM     51  C   UNL     1      -7.457   4.959 -10.501  1.00  0.00     0.031 A 
ATOM     52  C   UNL     1      -5.700   9.605  -6.300  1.00  0.00     0.049 A 
ATOM     53  C   UNL     1      -7.846   6.403 -10.350  1.00  0.00     0.074 A 
ATOM     54  C   UNL     1      -6.064  10.941  -6.308  1.00  0.00     0.029 A 
ATOM     55  N   UNL     1      -6.351   9.007  -7.367  1.00  0.00    -0.354 N 
ATOM     56  N   UNL     1      -7.415   7.283  -9.479  1.00  0.00    -0.248 NA
ATOM     57  C   UNL     1      -8.827   6.936 -11.306  1.00  0.00     0.031 C 
ATOM     58  C   UNL     1      -6.995  11.134  -7.328  1.00  0.00     0.029 A 
ATOM     59  C   UNL     1      -7.147   9.938  -8.012  1.00  0.00     0.049 A 
ATOM     60  H   UNL     1      -6.261   8.062  -7.627  1.00  0.00     0.167 HD
ATOM     61  C   UNL     1      -8.057   8.474  -9.790  1.00  0.00     0.074 A 
ATOM     62  C   UNL     1      -8.886   8.213 -10.949  1.00  0.00     0.031 C 
ATOM     63  C   UNL     1      -7.971   9.672  -9.164  1.00  0.00     0.031 A 
BRANCH  50  64
ATOM     64  C   UNL     1      -4.281   9.747  -4.235  1.00  0.00    -0.014 A 
ATOM     65  C   UNL     1      -5.151  10.269  -3.262  1.00  0.00     0.009 A 
ATOM     66  C   UNL     1      -2.941  10.163  -4.237  1.00  0.00     0.009 A 
ATOM     67  C   UNL     1      -4.700  11.218  -2.342  1.00  0.00     0.001 A 
ATOM     68  C   UNL     1      -2.486  11.092  -3.298  1.00  0.00     0.001 A 
ATOM     69  C   UNL     1      -3.369  11.631  -2.363  1.00  0.00     0.000 A 
ENDBRANCH  50  64
BRANCH  51  70
ATOM     70  C   UNL     1      -8.034   4.104 -11.574  1.00  0.00    -0.014 A 
ATOM     71  C   UNL     1      -8.839   2.999 -11.245  1.00  0.00     0.009 A 
ATOM     72  C   UNL     1      -7.745   4.349 -12.924  1.00  0.00     0.009 A 
ATOM     73  C   UNL     1      -9.319   2.146 -12.241  1.00  0.00     0.001 A 
ATOM     74  C   UNL     1      -8.258   3.515 -13.921  1.00  0.00     0.001 A 
ATOM     75  C   UNL     1      -9.034   2.408 -13.579  1.00  0.00     0.000 A 
ENDBRANCH  51  70
BRANCH  63  76
ATOM     76  C   UNL     1      -8.792  10.814  -9.700  1.00  0.00    -0.014 A 
ATOM     77  C   UNL     1      -8.153  11.939 -10.247  1.00  0.00     0.009 A 
ATOM     78  C   UNL     1     -10.186  10.836  -9.545  1.00  0.00     0.009 A 
ATOM     79  C   UNL     1      -8.888  13.072 -10.601  1.00  0.00     0.001 A 
ATOM     80  C   UNL     1     -10.923  11.957  -9.933  1.00  0.00     0.001 A 
ATOM     81  C   UNL     1     -10.273  13.078 -10.446  1.00  0.00     0.000 A 
ENDBRANCH  63  76
ENDBRANCH  37  38
ENDBRANCH  30  32
ENDBRANCH  29  30
ENDBRANCH  28  29
ENDBRANCH   1  28
TORSDOF 13
