REMARK SMILES Nc1c(CC(=O)OCCOC(=O)c2ccc(-c3c4nc(c(-c5ccccc5)c5ccc([nH]5)c(-c5ccccc5)c5nc(c(-c6ccccc6)c6ccc3[nH]6)C=C5)C=C4)cc2)cccc1C(=O)c1ccc(Br)cc1
REMARK SMILES IDX 8 1 7 2 5 3 6 4 4 5 3 6 2 7 64 8 61 9 63 10 62 11 1 12 65 15
REMARK SMILES IDX 66 16 67 17 68 18 73 19 69 20 72 21 70 22 71 23 9 24 10 25
REMARK SMILES IDX 11 26 12 27 13 28 14 29 60 30 15 31 59 32 16 33 17 34 18 35
REMARK SMILES IDX 53 36 19 37 58 38 52 39 54 40 20 41 57 42 51 43 50 44 21 46
REMARK SMILES IDX 43 47 28 48 42 49 29 50 32 51 41 52 55 53 30 54 31 55 40 57
REMARK SMILES IDX 56 58 33 59 22 60 23 61 27 62 24 63 26 64 25 65 44 66 45 67
REMARK SMILES IDX 49 68 46 69 48 70 47 71 34 72 35 73 39 74 36 75 38 76 37 77
REMARK H PARENT 1 13 1 14 54 45 32 56
REMARK Flexibility Score: inf
ROOT
ATOM      1  C   UNL     1       0.669  -3.345   3.442  1.00  0.00     0.274 C 
ENDROOT
BRANCH   1   2
ATOM      2  O   UNL     1       0.757  -2.553   2.242  1.00  0.00    -0.462 OA
BRANCH   2   3
ATOM      3  C   UNL     1       1.400  -3.123   1.193  1.00  0.00     0.310 C 
ATOM      4  O   UNL     1       1.983  -4.203   1.234  1.00  0.00    -0.252 OA
BRANCH   3   5
ATOM      5  C   UNL     1       1.305  -2.333  -0.089  1.00  0.00     0.160 C 
BRANCH   5   6
ATOM      6  C   UNL     1       0.580  -1.008  -0.029  1.00  0.00    -0.013 A 
ATOM      7  C   UNL     1       1.249   0.186   0.316  1.00  0.00     0.047 A 
ATOM      8  C   UNL     1       0.553   1.407   0.141  1.00  0.00     0.046 A 
ATOM      9  C   UNL     1      -0.796  -0.988  -0.327  1.00  0.00     0.006 A 
ATOM     10  C   UNL     1      -0.819   1.407  -0.162  1.00  0.00     0.014 A 
ATOM     11  C   UNL     1      -1.497   0.211  -0.368  1.00  0.00     0.001 A 
BRANCH   7  12
ATOM     12  N   UNL     1       2.585   0.125   0.714  1.00  0.00    -0.398 N 
ATOM     13  H   UNL     1       3.027  -0.748   0.823  1.00  0.00     0.156 HD
ATOM     14  H   UNL     1       3.086   0.956   0.886  1.00  0.00     0.156 HD
ENDBRANCH   7  12
BRANCH   8  15
ATOM     15  C   UNL     1       1.185   2.755   0.268  1.00  0.00     0.195 C 
ATOM     16  O   UNL     1       0.529   3.716   0.663  1.00  0.00    -0.289 OA
BRANCH  15  17
ATOM     17  C   UNL     1       2.611   2.970  -0.064  1.00  0.00     0.023 A 
ATOM     18  C   UNL     1       3.409   3.632   0.876  1.00  0.00     0.013 A 
ATOM     19  C   UNL     1       3.178   2.445  -1.232  1.00  0.00     0.013 A 
ATOM     20  C   UNL     1       4.789   3.705   0.683  1.00  0.00     0.016 A 
ATOM     21  C   UNL     1       4.559   2.525  -1.424  1.00  0.00     0.016 A 
ATOM     22  C   UNL     1       5.358   3.139  -0.458  1.00  0.00     0.018 A 
ATOM     23  Br  UNL     1       7.235   3.177  -0.683  1.00  0.00    -0.051 Br
ENDBRANCH  15  17
ENDBRANCH   8  15
ENDBRANCH   5   6
ENDBRANCH   3   5
ENDBRANCH   2   3
ENDBRANCH   1   2
BRANCH   1  24
ATOM     24  C   UNL     1      -0.722  -3.960   3.560  1.00  0.00     0.275 C 
BRANCH  24  25
ATOM     25  O   UNL     1      -1.000  -4.766   2.400  1.00  0.00    -0.458 OA
BRANCH  25  26
ATOM     26  C   UNL     1      -2.012  -4.328   1.618  1.00  0.00     0.338 C 
ATOM     27  O   UNL     1      -2.740  -3.368   1.796  1.00  0.00    -0.246 OA
BRANCH  26  28
ATOM     28  C   UNL     1      -2.153  -5.217   0.456  1.00  0.00     0.060 A 
ATOM     29  C   UNL     1      -1.135  -5.309  -0.495  1.00  0.00     0.016 A 
ATOM     30  C   UNL     1      -3.363  -5.881   0.265  1.00  0.00     0.016 A 
ATOM     31  C   UNL     1      -1.345  -6.021  -1.675  1.00  0.00     0.010 A 
ATOM     32  C   UNL     1      -3.543  -6.657  -0.880  1.00  0.00     0.010 A 
ATOM     33  C   UNL     1      -2.546  -6.716  -1.870  1.00  0.00    -0.014 A 
BRANCH  33  34
ATOM     34  C   UNL     1      -2.797  -7.510  -3.098  1.00  0.00     0.031 A 
ATOM     35  C   UNL     1      -3.942  -7.143  -3.998  1.00  0.00     0.074 A 
ATOM     36  C   UNL     1      -2.054  -8.600  -3.365  1.00  0.00     0.049 A 
ATOM     37  N   UNL     1      -4.519  -7.851  -4.934  1.00  0.00    -0.248 NA
ATOM     38  C   UNL     1      -4.524  -5.804  -3.807  1.00  0.00     0.031 C 
ATOM     39  C   UNL     1      -0.877  -9.037  -2.613  1.00  0.00     0.029 A 
ATOM     40  N   UNL     1      -2.205  -9.560  -4.335  1.00  0.00    -0.354 N 
ATOM     41  C   UNL     1      -5.564  -7.068  -5.408  1.00  0.00     0.074 A 
ATOM     42  C   UNL     1      -5.538  -5.828  -4.662  1.00  0.00     0.031 C 
ATOM     43  C   UNL     1      -0.416 -10.180  -3.144  1.00  0.00     0.029 A 
ATOM     44  C   UNL     1      -1.312 -10.597  -4.217  1.00  0.00     0.049 A 
ATOM     45  H   UNL     1      -2.886  -9.510  -5.045  1.00  0.00     0.167 HD
ATOM     46  C   UNL     1      -6.469  -7.365  -6.370  1.00  0.00     0.031 A 
ATOM     47  C   UNL     1      -1.256 -11.780  -4.856  1.00  0.00     0.031 A 
ATOM     48  C   UNL     1      -6.478  -8.593  -7.119  1.00  0.00     0.049 A 
ATOM     49  C   UNL     1      -2.309 -12.118  -5.870  1.00  0.00     0.074 A 
ATOM     50  C   UNL     1      -7.353  -8.992  -8.114  1.00  0.00     0.029 A 
ATOM     51  N   UNL     1      -5.557  -9.616  -6.959  1.00  0.00    -0.354 N 
ATOM     52  N   UNL     1      -3.326 -11.397  -6.274  1.00  0.00    -0.248 NA
ATOM     53  C   UNL     1      -2.217 -13.441  -6.505  1.00  0.00     0.031 C 
ATOM     54  C   UNL     1      -6.980 -10.273  -8.534  1.00  0.00     0.029 A 
ATOM     55  C   UNL     1      -5.848 -10.651  -7.830  1.00  0.00     0.049 A 
ATOM     56  H   UNL     1      -4.808  -9.608  -6.321  1.00  0.00     0.167 HD
ATOM     57  C   UNL     1      -3.981 -12.167  -7.226  1.00  0.00     0.074 A 
ATOM     58  C   UNL     1      -3.244 -13.409  -7.342  1.00  0.00     0.031 C 
ATOM     59  C   UNL     1      -5.093 -11.870  -7.940  1.00  0.00     0.031 A 
BRANCH  46  60
ATOM     60  C   UNL     1      -7.554  -6.361  -6.635  1.00  0.00    -0.014 A 
ATOM     61  C   UNL     1      -7.297  -5.174  -7.336  1.00  0.00     0.009 A 
ATOM     62  C   UNL     1      -8.864  -6.630  -6.207  1.00  0.00     0.009 A 
ATOM     63  C   UNL     1      -8.326  -4.261  -7.577  1.00  0.00     0.001 A 
ATOM     64  C   UNL     1      -9.895  -5.726  -6.469  1.00  0.00     0.001 A 
ATOM     65  C   UNL     1      -9.624  -4.539  -7.147  1.00  0.00     0.000 A 
ENDBRANCH  46  60
BRANCH  47  66
ATOM     66  C   UNL     1      -0.191 -12.755  -4.509  1.00  0.00    -0.014 A 
ATOM     67  C   UNL     1       0.861 -13.005  -5.402  1.00  0.00     0.009 A 
ATOM     68  C   UNL     1      -0.213 -13.429  -3.278  1.00  0.00     0.009 A 
ATOM     69  C   UNL     1       1.862 -13.922  -5.074  1.00  0.00     0.001 A 
ATOM     70  C   UNL     1       0.803 -14.325  -2.942  1.00  0.00     0.001 A 
ATOM     71  C   UNL     1       1.836 -14.576  -3.843  1.00  0.00     0.000 A 
ENDBRANCH  47  66
BRANCH  59  72
ATOM     72  C   UNL     1      -5.547 -12.880  -8.952  1.00  0.00    -0.014 A 
ATOM     73  C   UNL     1      -6.248 -14.031  -8.565  1.00  0.00     0.009 A 
ATOM     74  C   UNL     1      -5.319 -12.641 -10.316  1.00  0.00     0.009 A 
ATOM     75  C   UNL     1      -6.697 -14.936  -9.529  1.00  0.00     0.001 A 
ATOM     76  C   UNL     1      -5.785 -13.537 -11.277  1.00  0.00     0.001 A 
ATOM     77  C   UNL     1      -6.470 -14.685 -10.883  1.00  0.00     0.000 A 
ENDBRANCH  59  72
ENDBRANCH  33  34
ENDBRANCH  26  28
ENDBRANCH  25  26
ENDBRANCH  24  25
ENDBRANCH   1  24
TORSDOF 15
