REMARK SMILES Cc1cc(Cl)cc2c1O[C@H](C(F)(F)F)C(C(=O)OCCOC(=O)c1ccc(-c3c4nc(c(-c5ccccc5)c5ccc([nH]5)c(-c5ccccc5)c5nc(c(-c6ccccc6)c6ccc3[nH]6)C=C5)C=C4)cc1)=C2
REMARK SMILES IDX 20 1 19 2 18 3 16 4 17 5 15 6 1 7 2 8 3 9 8 10 4 11 7 12
REMARK SMILES IDX 9 13 5 14 6 15 72 16 10 17 11 18 12 19 13 20 14 21 21 22
REMARK SMILES IDX 22 23 23 24 24 25 25 26 71 27 26 28 70 29 27 30 28 31 29 32
REMARK SMILES IDX 64 33 30 34 69 35 63 36 65 37 31 38 68 39 62 40 61 41 32 43
REMARK SMILES IDX 54 44 39 45 53 46 40 47 43 48 52 49 66 50 41 51 42 52 51 54
REMARK SMILES IDX 67 55 44 56 33 57 34 58 38 59 35 60 37 61 36 62 55 63 56 64
REMARK SMILES IDX 60 65 57 66 59 67 58 68 45 69 46 70 50 71 47 72 49 73 48 74
REMARK H PARENT 65 42 43 53
REMARK Flexibility Score: inf
ROOT
ATOM      1  C   UNL     1       2.149  -8.238   3.497  1.00  0.00     0.275 C 
ENDROOT
BRANCH   1   2
ATOM      2  C   UNL     1       1.336  -7.922   2.242  1.00  0.00     0.275 C 
BRANCH   2   3
ATOM      3  O   UNL     1       1.374  -6.511   1.936  1.00  0.00    -0.459 OA
BRANCH   3   4
ATOM      4  C   UNL     1       0.265  -5.812   2.276  1.00  0.00     0.338 C 
ATOM      5  O   UNL     1      -0.743  -6.250   2.795  1.00  0.00    -0.246 OA
BRANCH   4   6
ATOM      6  C   UNL     1       0.447  -4.380   1.960  1.00  0.00     0.087 C 
ATOM      7  C   UNL     1       1.040   0.141  -0.399  1.00  0.00     0.048 C 
ATOM      8  C   UNL     1       0.591  -0.319   0.958  1.00  0.00    -0.007 A 
ATOM      9  C   UNL     1       0.182   0.628   1.913  1.00  0.00     0.027 A 
ATOM     10  C   UNL     1       0.596  -1.680   1.301  1.00  0.00     0.131 A 
ATOM     11  C   UNL     1      -0.225   0.220   3.181  1.00  0.00     0.042 A 
ATOM     12  C   UNL     1       0.165  -2.080   2.568  1.00  0.00     0.019 A 
ATOM     13  O   UNL     1       1.056  -2.564   0.362  1.00  0.00    -0.475 OA
ATOM     14  Cl  UNL     1      -0.724   1.388   4.341  1.00  0.00    -0.084 Cl
ATOM     15  C   UNL     1      -0.238  -1.130   3.513  1.00  0.00     0.032 A 
ATOM     16  C   UNL     1       0.109  -3.490   2.898  1.00  0.00     0.027 C 
ATOM     17  C   UNL     1       0.868  -3.991   0.573  1.00  0.00     0.316 C 
BRANCH  17  18
ATOM     18  C   UNL     1      -0.121  -4.521  -0.477  1.00  0.00     0.430 C 
ATOM     19  F   UNL     1       0.239  -4.148  -1.728  1.00  0.00    -0.167 F 
ATOM     20  F   UNL     1      -0.169  -5.875  -0.476  1.00  0.00    -0.167 F 
ATOM     21  F   UNL     1      -1.379  -4.072  -0.265  1.00  0.00    -0.167 F 
ENDBRANCH  17  18
ENDBRANCH   4   6
ENDBRANCH   3   4
ENDBRANCH   2   3
ENDBRANCH   1   2
BRANCH   1  22
ATOM     22  O   UNL     1       1.528  -7.642   4.651  1.00  0.00    -0.458 OA
BRANCH  22  23
ATOM     23  C   UNL     1       2.211  -6.631   5.231  1.00  0.00     0.338 C 
ATOM     24  O   UNL     1       3.307  -6.194   4.918  1.00  0.00    -0.246 OA
BRANCH  23  25
ATOM     25  C   UNL     1       1.404  -6.043   6.310  1.00  0.00     0.060 A 
ATOM     26  C   UNL     1       0.214  -5.404   5.981  1.00  0.00     0.016 A 
ATOM     27  C   UNL     1       1.885  -5.990   7.616  1.00  0.00     0.016 A 
ATOM     28  C   UNL     1      -0.429  -4.600   6.914  1.00  0.00     0.010 A 
ATOM     29  C   UNL     1       1.155  -5.296   8.592  1.00  0.00     0.010 A 
ATOM     30  C   UNL     1       0.011  -4.556   8.245  1.00  0.00    -0.014 A 
BRANCH  30  31
ATOM     31  C   UNL     1      -0.730  -3.730   9.244  1.00  0.00     0.031 A 
ATOM     32  C   UNL     1      -0.027  -2.651  10.030  1.00  0.00     0.074 A 
ATOM     33  C   UNL     1      -2.057  -3.912   9.417  1.00  0.00     0.049 A 
ATOM     34  N   UNL     1      -0.490  -1.905  11.002  1.00  0.00    -0.248 NA
ATOM     35  C   UNL     1       1.380  -2.380   9.691  1.00  0.00     0.031 C 
ATOM     36  C   UNL     1      -2.881  -4.887   8.697  1.00  0.00     0.029 A 
ATOM     37  N   UNL     1      -2.958  -3.260  10.225  1.00  0.00    -0.354 N 
ATOM     38  C   UNL     1       0.576  -1.118  11.421  1.00  0.00     0.074 A 
ATOM     39  C   UNL     1       1.715  -1.483  10.608  1.00  0.00     0.031 C 
ATOM     40  C   UNL     1      -4.169  -4.707   9.024  1.00  0.00     0.029 A 
ATOM     41  C   UNL     1      -4.256  -3.682  10.056  1.00  0.00     0.049 A 
ATOM     42  H   UNL     1      -2.698  -2.558  10.864  1.00  0.00     0.167 HD
ATOM     43  C   UNL     1       0.605  -0.174  12.393  1.00  0.00     0.031 A 
ATOM     44  C   UNL     1      -5.393  -3.312  10.675  1.00  0.00     0.031 A 
ATOM     45  C   UNL     1      -0.538   0.223  13.172  1.00  0.00     0.049 A 
ATOM     46  C   UNL     1      -5.328  -2.297  11.778  1.00  0.00     0.074 A 
ATOM     47  C   UNL     1      -0.603   1.169  14.182  1.00  0.00     0.029 A 
ATOM     48  N   UNL     1      -1.817  -0.284  13.014  1.00  0.00    -0.354 N 
ATOM     49  N   UNL     1      -4.295  -1.614  12.206  1.00  0.00    -0.248 NA
ATOM     50  C   UNL     1      -6.577  -2.023  12.504  1.00  0.00     0.031 C 
ATOM     51  C   UNL     1      -1.916   1.206  14.660  1.00  0.00     0.029 A 
ATOM     52  C   UNL     1      -2.676   0.320  13.915  1.00  0.00     0.049 A 
ATOM     53  H   UNL     1      -2.076  -0.970  12.357  1.00  0.00     0.167 HD
ATOM     54  C   UNL     1      -4.768  -0.825  13.244  1.00  0.00     0.074 A 
ATOM     55  C   UNL     1      -6.185  -1.098  13.370  1.00  0.00     0.031 C 
ATOM     56  C   UNL     1      -4.084   0.042  14.027  1.00  0.00     0.031 A 
BRANCH  43  57
ATOM     57  C   UNL     1       1.922   0.486  12.693  1.00  0.00    -0.014 A 
ATOM     58  C   UNL     1       2.475   1.442  11.827  1.00  0.00     0.009 A 
ATOM     59  C   UNL     1       2.585   0.194  13.896  1.00  0.00     0.009 A 
ATOM     60  C   UNL     1       3.679   2.073  12.150  1.00  0.00     0.001 A 
ATOM     61  C   UNL     1       3.774   0.845  14.228  1.00  0.00     0.001 A 
ATOM     62  C   UNL     1       4.324   1.780  13.352  1.00  0.00     0.000 A 
ENDBRANCH  43  57
BRANCH  44  63
ATOM     63  C   UNL     1      -6.686  -3.930  10.279  1.00  0.00    -0.014 A 
ATOM     64  C   UNL     1      -7.661  -3.173   9.612  1.00  0.00     0.009 A 
ATOM     65  C   UNL     1      -6.940  -5.288  10.534  1.00  0.00     0.009 A 
ATOM     66  C   UNL     1      -8.862  -3.762   9.210  1.00  0.00     0.001 A 
ATOM     67  C   UNL     1      -8.129  -5.881  10.103  1.00  0.00     0.001 A 
ATOM     68  C   UNL     1      -9.091  -5.117   9.447  1.00  0.00     0.000 A 
ENDBRANCH  44  63
BRANCH  56  69
ATOM     69  C   UNL     1      -4.853   0.782  15.081  1.00  0.00    -0.014 A 
ATOM     70  C   UNL     1      -5.222   0.152  16.278  1.00  0.00     0.009 A 
ATOM     71  C   UNL     1      -5.128   2.147  14.911  1.00  0.00     0.009 A 
ATOM     72  C   UNL     1      -5.863   0.877  17.284  1.00  0.00     0.001 A 
ATOM     73  C   UNL     1      -5.749   2.874  15.927  1.00  0.00     0.001 A 
ATOM     74  C   UNL     1      -6.118   2.237  17.111  1.00  0.00     0.000 A 
ENDBRANCH  56  69
ENDBRANCH  30  31
ENDBRANCH  23  25
ENDBRANCH  22  23
ENDBRANCH   1  22
TORSDOF 12
