REMARK SMILES Cc1nccn1CCC[NH+]1CCC2(CC1)[C@@H](C(=O)OCCOC(=O)c1ccc(-c3c4nc(c(-c5ccccc5)c5ccc([nH]5)c(-c5ccccc5)c5nc(c(-c6ccccc6)c6ccc3[nH]6)C=C5)C=C4)cc1)CC(=O)N2C
REMARK SMILES IDX 20 1 19 2 17 3 18 4 16 5 10 6 11 7 15 8 12 10 14 11 13 12
REMARK SMILES IDX 76 13 73 14 74 15 77 16 75 17 9 18 8 19 7 20 6 21 1 22 2 23
REMARK SMILES IDX 3 24 4 25 5 26 21 27 22 28 23 29 24 30 25 31 26 32 72 33
REMARK SMILES IDX 27 34 71 35 28 36 29 37 30 38 65 39 31 40 70 41 64 42 66 43
REMARK SMILES IDX 32 44 69 45 63 46 62 47 33 49 55 50 40 51 54 52 41 53 44 54
REMARK SMILES IDX 53 55 67 56 42 57 43 58 52 60 68 61 45 62 34 63 35 64 39 65
REMARK SMILES IDX 36 66 38 67 37 68 56 69 57 70 61 71 58 72 60 73 59 74 46 75
REMARK SMILES IDX 47 76 51 77 48 78 50 79 49 80
REMARK H PARENT 10 9 66 48 44 59
REMARK Flexibility Score: inf
ROOT
ATOM      1  C   UNL     1      -0.153   2.083  -1.997  1.00  0.00     0.274 C 
ENDROOT
BRANCH   1   2
ATOM      2  O   UNL     1      -1.016   0.960  -1.700  1.00  0.00    -0.462 OA
BRANCH   2   3
ATOM      3  C   UNL     1      -1.608   0.819  -0.492  1.00  0.00     0.311 C 
ATOM      4  O   UNL     1      -1.332   1.540   0.462  1.00  0.00    -0.252 OA
BRANCH   3   5
ATOM      5  C   UNL     1      -2.546  -0.396  -0.387  1.00  0.00     0.134 C 
ATOM      6  N   UNL     1      -2.531  -2.382  -4.111  1.00  0.00    -0.335 N 
ATOM      7  C   UNL     1      -2.993  -3.223  -3.032  1.00  0.00     0.264 C 
ATOM      8  C   UNL     1      -3.281  -1.158  -4.246  1.00  0.00     0.264 C 
ATOM      9  H   UNL     1      -2.796  -2.861  -4.971  1.00  0.00     0.348 HD
ATOM     10  C   UNL     1      -2.872  -2.542  -1.680  1.00  0.00     0.091 C 
ATOM     11  C   UNL     1      -3.293  -0.314  -2.973  1.00  0.00     0.091 C 
ATOM     12  C   UNL     1      -3.346  -1.055  -1.601  1.00  0.00     0.067 C 
ATOM     13  N   UNL     1      -4.743  -1.047  -1.099  1.00  0.00    -0.339 N 
ATOM     14  C   UNL     1      -3.576  -0.143   0.724  1.00  0.00     0.118 C 
ATOM     15  C   UNL     1      -4.895  -0.596   0.194  1.00  0.00     0.223 C 
ATOM     16  C   UNL     1      -5.895  -1.539  -1.828  1.00  0.00     0.147 C 
ATOM     17  O   UNL     1      -5.939  -0.564   0.828  1.00  0.00    -0.275 OA
BRANCH   6  18
ATOM     18  C   UNL     1      -1.173  -2.517  -4.606  1.00  0.00     0.264 C 
BRANCH  18  19
ATOM     19  C   UNL     1      -0.051  -1.544  -4.213  1.00  0.00     0.083 C 
BRANCH  19  20
ATOM     20  C   UNL     1       0.265  -1.309  -2.741  1.00  0.00     0.129 C 
BRANCH  20  21
ATOM     21  N   UNL     1       0.850  -2.271  -1.841  1.00  0.00    -0.335 N 
ATOM     22  C   UNL     1       1.582  -0.604  -0.019  1.00  0.00     0.087 C 
ATOM     23  C   UNL     1       1.347  -1.966  -0.577  1.00  0.00     0.105 A 
ATOM     24  N   UNL     1       1.550  -3.071   0.113  1.00  0.00    -0.242 NA
ATOM     25  C   UNL     1       1.186  -4.100  -0.704  1.00  0.00     0.131 A 
ATOM     26  C   UNL     1       0.770  -3.630  -1.925  1.00  0.00     0.107 A 
ENDBRANCH  20  21
ENDBRANCH  19  20
ENDBRANCH  18  19
ENDBRANCH   6  18
ENDBRANCH   3   5
ENDBRANCH   2   3
ENDBRANCH   1   2
BRANCH   1  27
ATOM     27  C   UNL     1      -0.937   3.184  -2.687  1.00  0.00     0.275 C 
BRANCH  27  28
ATOM     28  O   UNL     1      -1.674   3.867  -1.687  1.00  0.00    -0.458 OA
BRANCH  28  29
ATOM     29  C   UNL     1      -2.846   3.285  -1.360  1.00  0.00     0.338 C 
ATOM     30  O   UNL     1      -3.385   2.345  -1.911  1.00  0.00    -0.246 OA
BRANCH  29  31
ATOM     31  C   UNL     1      -3.474   4.037  -0.284  1.00  0.00     0.060 A 
ATOM     32  C   UNL     1      -4.732   3.570   0.110  1.00  0.00     0.016 A 
ATOM     33  C   UNL     1      -3.058   5.362  -0.133  1.00  0.00     0.016 A 
ATOM     34  C   UNL     1      -5.699   4.504   0.346  1.00  0.00     0.010 A 
ATOM     35  C   UNL     1      -4.037   6.292   0.023  1.00  0.00     0.010 A 
ATOM     36  C   UNL     1      -5.348   5.840   0.161  1.00  0.00    -0.014 A 
BRANCH  36  37
ATOM     37  C   UNL     1      -6.407   6.804   0.130  1.00  0.00     0.031 A 
ATOM     38  C   UNL     1      -6.798   7.238   1.479  1.00  0.00     0.074 A 
ATOM     39  C   UNL     1      -6.829   7.318  -1.035  1.00  0.00     0.049 A 
ATOM     40  N   UNL     1      -7.904   7.012   2.101  1.00  0.00    -0.248 NA
ATOM     41  C   UNL     1      -5.726   7.810   2.314  1.00  0.00     0.031 C 
ATOM     42  C   UNL     1      -6.223   7.183  -2.365  1.00  0.00     0.029 A 
ATOM     43  N   UNL     1      -7.817   8.217  -1.232  1.00  0.00    -0.354 N 
ATOM     44  C   UNL     1      -7.718   7.573   3.358  1.00  0.00     0.074 A 
ATOM     45  C   UNL     1      -6.306   7.798   3.509  1.00  0.00     0.031 C 
ATOM     46  C   UNL     1      -6.697   8.172  -3.158  1.00  0.00     0.029 A 
ATOM     47  C   UNL     1      -7.713   8.911  -2.423  1.00  0.00     0.049 A 
ATOM     48  H   UNL     1      -8.546   8.364  -0.587  1.00  0.00     0.167 HD
ATOM     49  C   UNL     1      -8.748   8.112   4.060  1.00  0.00     0.031 A 
ATOM     50  C   UNL     1      -8.334  10.083  -2.697  1.00  0.00     0.031 A 
ATOM     51  C   UNL     1     -10.023   7.679   3.557  1.00  0.00     0.049 A 
ATOM     52  C   UNL     1      -9.403  10.273  -1.680  1.00  0.00     0.074 A 
ATOM     53  C   UNL     1     -10.655   6.457   3.448  1.00  0.00     0.029 A 
ATOM     54  N   UNL     1     -10.672   8.526   2.689  1.00  0.00    -0.354 N 
ATOM     55  N   UNL     1     -10.458   9.514  -1.585  1.00  0.00    -0.248 NA
ATOM     56  C   UNL     1      -9.074  11.021  -0.473  1.00  0.00     0.031 C 
ATOM     57  C   UNL     1     -11.362   6.512   2.212  1.00  0.00     0.029 A 
ATOM     58  C   UNL     1     -11.162   7.776   1.650  1.00  0.00     0.049 A 
ATOM     59  H   UNL     1     -10.767   9.500   2.795  1.00  0.00     0.167 HD
ATOM     60  C   UNL     1     -10.683   9.367  -0.220  1.00  0.00     0.074 A 
ATOM     61  C   UNL     1      -9.867  10.402   0.408  1.00  0.00     0.031 C 
ATOM     62  C   UNL     1     -11.277   8.243   0.283  1.00  0.00     0.031 A 
BRANCH  49  63
ATOM     63  C   UNL     1      -8.572   9.338   4.916  1.00  0.00    -0.014 A 
ATOM     64  C   UNL     1      -9.645   9.769   5.706  1.00  0.00     0.009 A 
ATOM     65  C   UNL     1      -7.479  10.224   4.796  1.00  0.00     0.009 A 
ATOM     66  C   UNL     1      -9.636  11.033   6.310  1.00  0.00     0.001 A 
ATOM     67  C   UNL     1      -7.442  11.461   5.436  1.00  0.00     0.001 A 
ATOM     68  C   UNL     1      -8.536  11.877   6.176  1.00  0.00     0.000 A 
ENDBRANCH  49  63
BRANCH  50  69
ATOM     69  C   UNL     1      -7.811  11.193  -3.520  1.00  0.00    -0.014 A 
ATOM     70  C   UNL     1      -8.671  12.174  -4.028  1.00  0.00     0.009 A 
ATOM     71  C   UNL     1      -6.424  11.427  -3.604  1.00  0.00     0.009 A 
ATOM     72  C   UNL     1      -8.162  13.358  -4.579  1.00  0.00     0.001 A 
ATOM     73  C   UNL     1      -5.915  12.605  -4.157  1.00  0.00     0.001 A 
ATOM     74  C   UNL     1      -6.787  13.578  -4.633  1.00  0.00     0.000 A 
ENDBRANCH  50  69
BRANCH  62  75
ATOM     75  C   UNL     1     -11.878   7.271  -0.707  1.00  0.00    -0.014 A 
ATOM     76  C   UNL     1     -11.108   6.580  -1.661  1.00  0.00     0.009 A 
ATOM     77  C   UNL     1     -13.228   6.921  -0.567  1.00  0.00     0.009 A 
ATOM     78  C   UNL     1     -11.681   5.592  -2.469  1.00  0.00     0.001 A 
ATOM     79  C   UNL     1     -13.795   5.920  -1.359  1.00  0.00     0.001 A 
ATOM     80  C   UNL     1     -13.024   5.259  -2.313  1.00  0.00     0.000 A 
ENDBRANCH  62  75
ENDBRANCH  36  37
ENDBRANCH  29  31
ENDBRANCH  28  29
ENDBRANCH  27  28
ENDBRANCH   1  27
TORSDOF 15
