REMARK SMILES CC[C@@](C)(NC(=O)Nc1c(C)cccc1Cl)C(=O)OCCOC(=O)c1ccc(-c2c3nc(c(-c4ccccc4)c4ccc([nH]4)c(-c4ccccc4)c4nc(c(-c5ccccc5)c5ccc2[nH]5)C=C4)C=C3)cc1
REMARK SMILES IDX 20 1 19 2 17 3 18 4 3 5 4 6 2 7 1 8 5 9 6 10 7 12 8 13 9 15
REMARK SMILES IDX 10 16 15 17 11 18 12 19 14 20 16 21 13 22 21 23 22 24 23 25
REMARK SMILES IDX 24 26 25 27 26 28 72 29 27 30 71 31 28 32 29 33 30 34 65 35
REMARK SMILES IDX 31 36 70 37 64 38 66 39 32 40 69 41 63 42 62 43 33 45 55 46
REMARK SMILES IDX 40 47 54 48 41 49 44 50 53 51 67 52 42 53 43 54 52 56 68 57
REMARK SMILES IDX 45 58 34 59 35 60 39 61 36 62 38 63 37 64 56 65 57 66 61 67
REMARK SMILES IDX 58 68 60 69 59 70 46 71 47 72 51 73 48 74 50 75 49 76
REMARK H PARENT 5 11 8 14 66 44 44 55
REMARK Flexibility Score: inf
ROOT
ATOM      1  C   UNL     1       4.190  -3.848  -2.913  1.00  0.00     0.274 C 
ENDROOT
BRANCH   1   2
ATOM      2  O   UNL     1       2.575  -4.386  -2.765  1.00  0.00    -0.460 OA
BRANCH   2   3
ATOM      3  C   UNL     1       1.518  -4.543  -1.722  1.00  0.00     0.331 C 
ATOM      4  O   UNL     1       1.493  -5.571  -1.034  1.00  0.00    -0.249 OA
BRANCH   3   5
ATOM      5  C   UNL     1       0.126  -3.430  -1.595  1.00  0.00     0.136 C 
ATOM      6  C   UNL     1      -1.062  -4.157  -0.937  1.00  0.00     0.047 C 
BRANCH   5   7
ATOM      7  C   UNL     1      -0.143  -1.877  -1.158  1.00  0.00     0.037 C 
ATOM      8  C   UNL     1       0.077  -1.300   0.232  1.00  0.00     0.007 C 
ENDBRANCH   5   7
BRANCH   5   9
ATOM      9  N   UNL     1      -0.057  -3.349  -2.999  1.00  0.00    -0.322 N 
ATOM     10  C   UNL     1       0.952  -2.765  -3.661  1.00  0.00     0.320 C 
ATOM     11  H   UNL     1      -0.861  -3.695  -3.451  1.00  0.00     0.166 HD
ATOM     12  O   UNL     1       0.908  -2.630  -4.868  1.00  0.00    -0.248 OA
ATOM     13  N   UNL     1       2.040  -2.312  -2.941  1.00  0.00    -0.306 N 
ATOM     14  H   UNL     1       2.741  -2.109  -3.601  1.00  0.00     0.171 HD
BRANCH  13  15
ATOM     15  C   UNL     1       2.621  -1.995  -1.606  1.00  0.00     0.064 A 
ATOM     16  C   UNL     1       3.098  -2.610  -0.362  1.00  0.00    -0.026 A 
ATOM     17  C   UNL     1       3.051  -0.715  -1.761  1.00  0.00     0.064 A 
ATOM     18  C   UNL     1       3.355  -4.035   0.127  1.00  0.00     0.046 C 
ATOM     19  C   UNL     1       3.730  -1.826   0.667  1.00  0.00     0.005 A 
ATOM     20  C   UNL     1       4.022  -0.134  -0.854  1.00  0.00     0.023 A 
ATOM     21  Cl  UNL     1       2.419   0.003  -3.551  1.00  0.00    -0.082 Cl
ATOM     22  C   UNL     1       4.282  -0.621   0.392  1.00  0.00     0.002 A 
ENDBRANCH  13  15
ENDBRANCH   5   9
ENDBRANCH   3   5
ENDBRANCH   2   3
ENDBRANCH   1   2
BRANCH   1  23
ATOM     23  C   UNL     1       5.036  -2.367  -3.594  1.00  0.00     0.275 C 
BRANCH  23  24
ATOM     24  O   UNL     1       4.951  -0.813  -3.146  1.00  0.00    -0.458 OA
BRANCH  24  25
ATOM     25  C   UNL     1       5.368   0.475  -3.657  1.00  0.00     0.338 C 
ATOM     26  O   UNL     1       6.237   0.543  -4.521  1.00  0.00    -0.246 OA
BRANCH  25  27
ATOM     27  C   UNL     1       4.607   1.956  -3.143  1.00  0.00     0.060 A 
ATOM     28  C   UNL     1       3.437   2.079  -2.356  1.00  0.00     0.016 A 
ATOM     29  C   UNL     1       4.952   3.246  -3.554  1.00  0.00     0.016 A 
ATOM     30  C   UNL     1       2.564   3.114  -2.107  1.00  0.00     0.010 A 
ATOM     31  C   UNL     1       4.150   4.431  -3.175  1.00  0.00     0.010 A 
ATOM     32  C   UNL     1       2.953   4.356  -2.426  1.00  0.00    -0.014 A 
BRANCH  32  33
ATOM     33  C   UNL     1       1.978   5.371  -1.962  1.00  0.00     0.031 A 
ATOM     34  C   UNL     1       1.105   6.036  -2.972  1.00  0.00     0.074 A 
ATOM     35  C   UNL     1       1.634   5.494  -0.653  1.00  0.00     0.049 A 
ATOM     36  N   UNL     1       0.426   7.142  -2.861  1.00  0.00    -0.248 NA
ATOM     37  C   UNL     1       0.962   5.356  -4.271  1.00  0.00     0.031 C 
ATOM     38  C   UNL     1       2.082   4.638   0.462  1.00  0.00     0.029 A 
ATOM     39  N   UNL     1       0.814   6.407  -0.030  1.00  0.00    -0.354 N 
ATOM     40  C   UNL     1      -0.121   7.362  -4.115  1.00  0.00     0.074 A 
ATOM     41  C   UNL     1       0.237   6.236  -4.949  1.00  0.00     0.031 C 
ATOM     42  C   UNL     1       1.603   5.121   1.621  1.00  0.00     0.029 A 
ATOM     43  C   UNL     1       0.908   6.367   1.345  1.00  0.00     0.049 A 
ATOM     44  H   UNL     1       0.221   7.026  -0.516  1.00  0.00     0.167 HD
ATOM     45  C   UNL     1      -0.804   8.454  -4.522  1.00  0.00     0.031 A 
ATOM     46  C   UNL     1       0.580   7.292   2.268  1.00  0.00     0.031 A 
ATOM     47  C   UNL     1      -1.151   9.537  -3.641  1.00  0.00     0.049 A 
ATOM     48  C   UNL     1      -0.000   8.593   1.785  1.00  0.00     0.074 A 
ATOM     49  C   UNL     1      -1.762  10.740  -3.941  1.00  0.00     0.029 A 
ATOM     50  N   UNL     1      -0.926   9.531  -2.271  1.00  0.00    -0.354 N 
ATOM     51  N   UNL     1      -0.336   8.942   0.566  1.00  0.00    -0.248 NA
ATOM     52  C   UNL     1      -0.224   9.634   2.795  1.00  0.00     0.031 C 
ATOM     53  C   UNL     1      -1.857  11.484  -2.760  1.00  0.00     0.029 A 
ATOM     54  C   UNL     1      -1.367  10.717  -1.714  1.00  0.00     0.049 A 
ATOM     55  H   UNL     1      -0.513   8.792  -1.770  1.00  0.00     0.167 HD
ATOM     56  C   UNL     1      -0.835  10.233   0.665  1.00  0.00     0.074 A 
ATOM     57  C   UNL     1      -0.775  10.595   2.067  1.00  0.00     0.031 C 
ATOM     58  C   UNL     1      -1.301  11.047  -0.313  1.00  0.00     0.031 A 
BRANCH  45  59
ATOM     59  C   UNL     1      -1.083   8.585  -5.989  1.00  0.00    -0.014 A 
ATOM     60  C   UNL     1      -2.053   7.813  -6.641  1.00  0.00     0.009 A 
ATOM     61  C   UNL     1      -0.346   9.524  -6.731  1.00  0.00     0.009 A 
ATOM     62  C   UNL     1      -2.263   7.964  -8.015  1.00  0.00     0.001 A 
ATOM     63  C   UNL     1      -0.577   9.693  -8.095  1.00  0.00     0.001 A 
ATOM     64  C   UNL     1      -1.531   8.907  -8.738  1.00  0.00     0.000 A 
ENDBRANCH  45  59
BRANCH  46  65
ATOM     65  C   UNL     1       0.935   7.103   3.705  1.00  0.00    -0.014 A 
ATOM     66  C   UNL     1      -0.059   7.041   4.692  1.00  0.00     0.009 A 
ATOM     67  C   UNL     1       2.282   7.039   4.105  1.00  0.00     0.009 A 
ATOM     68  C   UNL     1       0.286   6.943   6.044  1.00  0.00     0.001 A 
ATOM     69  C   UNL     1       2.624   6.907   5.453  1.00  0.00     0.001 A 
ATOM     70  C   UNL     1       1.626   6.870   6.423  1.00  0.00     0.000 A 
ENDBRANCH  46  65
BRANCH  58  71
ATOM     71  C   UNL     1      -1.840  12.382   0.115  1.00  0.00    -0.014 A 
ATOM     72  C   UNL     1      -0.991  13.409   0.554  1.00  0.00     0.009 A 
ATOM     73  C   UNL     1      -3.222  12.618   0.049  1.00  0.00     0.009 A 
ATOM     74  C   UNL     1      -1.522  14.635   0.956  1.00  0.00     0.001 A 
ATOM     75  C   UNL     1      -3.746  13.855   0.419  1.00  0.00     0.001 A 
ATOM     76  C   UNL     1      -2.897  14.859   0.883  1.00  0.00     0.000 A 
ENDBRANCH  58  71
ENDBRANCH  32  33
ENDBRANCH  25  27
ENDBRANCH  24  25
ENDBRANCH  23  24
ENDBRANCH   1  23
TORSDOF 14
