REMARK SMILES C[C@@H](C(=O)OCCOC(=O)c1ccc(-c2c3nc(c(-c4ccccc4)c4ccc([nH]4)c(-c4ccccc4)c4nc(c(-c5ccccc5)c5ccc2[nH]5)C=C4)C=C3)cc1)N1C(=O)/C(=C/c2ccc(F)cc2)SC1=S
REMARK SMILES IDX 6 1 5 2 3 3 4 4 2 5 1 6 59 7 60 8 72 9 61 10 62 11 71 12
REMARK SMILES IDX 73 13 63 14 64 15 65 16 70 17 66 18 69 19 67 20 68 21 7 22
REMARK SMILES IDX 8 23 9 24 10 25 11 26 12 27 58 28 13 29 57 30 14 31 15 32
REMARK SMILES IDX 16 33 51 34 17 35 56 36 50 37 52 38 18 39 55 40 49 41 48 42
REMARK SMILES IDX 19 44 41 45 26 46 40 47 27 48 30 49 39 50 53 51 28 52 29 53
REMARK SMILES IDX 38 55 54 56 31 57 20 58 21 59 25 60 22 61 24 62 23 63 42 64
REMARK SMILES IDX 43 65 47 66 44 67 46 68 45 69 32 70 33 71 37 72 34 73 36 74
REMARK SMILES IDX 35 75
REMARK H PARENT 52 43 30 54
REMARK Flexibility Score: inf
ROOT
ATOM      1  C   UNL     1       2.286  -3.240  -1.890  1.00  0.00     0.274 C 
ENDROOT
BRANCH   1   2
ATOM      2  O   UNL     1       1.676  -2.029  -1.406  1.00  0.00    -0.461 OA
BRANCH   2   3
ATOM      3  C   UNL     1       1.286  -1.095  -2.325  1.00  0.00     0.329 C 
ATOM      4  O   UNL     1       1.392  -1.224  -3.538  1.00  0.00    -0.250 OA
BRANCH   3   5
ATOM      5  C   UNL     1       0.722   0.172  -1.626  1.00  0.00     0.199 C 
ATOM      6  C   UNL     1       0.993   0.140  -0.111  1.00  0.00     0.044 C 
BRANCH   5   7
ATOM      7  N   UNL     1      -0.685   0.567  -1.921  1.00  0.00    -0.279 N 
ATOM      8  C   UNL     1      -1.622  -0.371  -2.311  1.00  0.00     0.266 C 
ATOM      9  C   UNL     1      -1.195   1.828  -1.655  1.00  0.00     0.149 C 
ATOM     10  O   UNL     1      -1.393  -1.528  -2.634  1.00  0.00    -0.268 OA
ATOM     11  C   UNL     1      -3.008   0.182  -2.227  1.00  0.00     0.081 C 
ATOM     12  S   UNL     1      -2.960   1.790  -1.659  1.00  0.00    -0.054 SA
ATOM     13  S   UNL     1      -0.361   3.239  -1.335  1.00  0.00    -0.052 S 
ATOM     14  C   UNL     1      -4.079  -0.573  -2.508  1.00  0.00     0.029 C 
BRANCH  14  15
ATOM     15  C   UNL     1      -5.501  -0.296  -2.248  1.00  0.00    -0.024 A 
ATOM     16  C   UNL     1      -6.021  -0.415  -0.947  1.00  0.00     0.011 A 
ATOM     17  C   UNL     1      -6.381  -0.090  -3.316  1.00  0.00     0.011 A 
ATOM     18  C   UNL     1      -7.401  -0.378  -0.725  1.00  0.00     0.040 A 
ATOM     19  C   UNL     1      -7.758  -0.019  -3.086  1.00  0.00     0.040 A 
ATOM     20  C   UNL     1      -8.257  -0.181  -1.798  1.00  0.00     0.123 A 
ATOM     21  F   UNL     1      -9.580  -0.151  -1.595  1.00  0.00    -0.207 F 
ENDBRANCH  14  15
ENDBRANCH   5   7
ENDBRANCH   3   5
ENDBRANCH   2   3
ENDBRANCH   1   2
BRANCH   1  22
ATOM     22  C   UNL     1       2.173  -4.335  -0.820  1.00  0.00     0.275 C 
BRANCH  22  23
ATOM     23  O   UNL     1       0.793  -4.715  -0.637  1.00  0.00    -0.458 OA
BRANCH  23  24
ATOM     24  C   UNL     1       0.172  -4.139   0.421  1.00  0.00     0.338 C 
ATOM     25  O   UNL     1       0.671  -3.443   1.288  1.00  0.00    -0.246 OA
BRANCH  24  26
ATOM     26  C   UNL     1      -1.284  -4.271   0.253  1.00  0.00     0.060 A 
ATOM     27  C   UNL     1      -1.962  -3.102  -0.066  1.00  0.00     0.016 A 
ATOM     28  C   UNL     1      -1.991  -5.459   0.457  1.00  0.00     0.016 A 
ATOM     29  C   UNL     1      -3.341  -3.120  -0.220  1.00  0.00     0.010 A 
ATOM     30  C   UNL     1      -3.393  -5.468   0.308  1.00  0.00     0.010 A 
ATOM     31  C   UNL     1      -4.077  -4.295  -0.047  1.00  0.00    -0.014 A 
BRANCH  31  32
ATOM     32  C   UNL     1      -5.558  -4.196  -0.162  1.00  0.00     0.031 A 
ATOM     33  C   UNL     1      -6.370  -3.867   1.060  1.00  0.00     0.074 A 
ATOM     34  C   UNL     1      -6.156  -4.166  -1.370  1.00  0.00     0.049 A 
ATOM     35  N   UNL     1      -7.652  -3.626   1.165  1.00  0.00    -0.248 NA
ATOM     36  C   UNL     1      -5.626  -3.746   2.324  1.00  0.00     0.031 C 
ATOM     37  C   UNL     1      -5.462  -4.253  -2.653  1.00  0.00     0.029 A 
ATOM     38  N   UNL     1      -7.473  -3.970  -1.716  1.00  0.00    -0.354 N 
ATOM     39  C   UNL     1      -7.875  -3.346   2.507  1.00  0.00     0.074 A 
ATOM     40  C   UNL     1      -6.592  -3.426   3.173  1.00  0.00     0.031 C 
ATOM     41  C   UNL     1      -6.346  -4.034  -3.643  1.00  0.00     0.029 A 
ATOM     42  C   UNL     1      -7.681  -3.862  -3.072  1.00  0.00     0.049 A 
ATOM     43  H   UNL     1      -8.200  -3.912  -1.054  1.00  0.00     0.167 HD
ATOM     44  C   UNL     1      -9.043  -3.069   3.135  1.00  0.00     0.031 A 
ATOM     45  C   UNL     1      -8.816  -3.647  -3.771  1.00  0.00     0.031 A 
ATOM     46  C   UNL     1     -10.328  -3.018   2.493  1.00  0.00     0.049 A 
ATOM     47  C   UNL     1     -10.125  -3.517  -3.032  1.00  0.00     0.074 A 
ATOM     48  C   UNL     1     -11.575  -2.857   3.073  1.00  0.00     0.029 A 
ATOM     49  N   UNL     1     -10.534  -3.125   1.127  1.00  0.00    -0.354 N 
ATOM     50  N   UNL     1     -10.345  -3.390  -1.747  1.00  0.00    -0.248 NA
ATOM     51  C   UNL     1     -11.350  -3.524  -3.850  1.00  0.00     0.031 C 
ATOM     52  C   UNL     1     -12.541  -2.928   2.064  1.00  0.00     0.029 A 
ATOM     53  C   UNL     1     -11.890  -3.067   0.849  1.00  0.00     0.049 A 
ATOM     54  H   UNL     1      -9.823  -3.227   0.454  1.00  0.00     0.167 HD
ATOM     55  C   UNL     1     -11.724  -3.275  -1.607  1.00  0.00     0.074 A 
ATOM     56  C   UNL     1     -12.290  -3.328  -2.937  1.00  0.00     0.031 C 
ATOM     57  C   UNL     1     -12.455  -3.143  -0.473  1.00  0.00     0.031 A 
BRANCH  44  58
ATOM     58  C   UNL     1      -8.986  -2.906   4.626  1.00  0.00    -0.014 A 
ATOM     59  C   UNL     1      -8.499  -1.735   5.223  1.00  0.00     0.009 A 
ATOM     60  C   UNL     1      -9.437  -3.955   5.444  1.00  0.00     0.009 A 
ATOM     61  C   UNL     1      -8.433  -1.632   6.615  1.00  0.00     0.001 A 
ATOM     62  C   UNL     1      -9.392  -3.840   6.832  1.00  0.00     0.001 A 
ATOM     63  C   UNL     1      -8.881  -2.683   7.417  1.00  0.00     0.000 A 
ENDBRANCH  44  58
BRANCH  45  64
ATOM     64  C   UNL     1      -8.800  -3.566  -5.261  1.00  0.00    -0.014 A 
ATOM     65  C   UNL     1      -9.239  -2.405  -5.919  1.00  0.00     0.009 A 
ATOM     66  C   UNL     1      -8.416  -4.669  -6.039  1.00  0.00     0.009 A 
ATOM     67  C   UNL     1      -9.315  -2.358  -7.314  1.00  0.00     0.001 A 
ATOM     68  C   UNL     1      -8.459  -4.609  -7.434  1.00  0.00     0.001 A 
ATOM     69  C   UNL     1      -8.919  -3.458  -8.070  1.00  0.00     0.000 A 
ENDBRANCH  45  64
BRANCH  57  70
ATOM     70  C   UNL     1     -13.952  -3.054  -0.610  1.00  0.00    -0.014 A 
ATOM     71  C   UNL     1     -14.714  -4.172  -0.984  1.00  0.00     0.009 A 
ATOM     72  C   UNL     1     -14.615  -1.855  -0.305  1.00  0.00     0.009 A 
ATOM     73  C   UNL     1     -16.106  -4.083  -1.076  1.00  0.00     0.001 A 
ATOM     74  C   UNL     1     -16.008  -1.777  -0.369  1.00  0.00     0.001 A 
ATOM     75  C   UNL     1     -16.751  -2.888  -0.761  1.00  0.00     0.000 A 
ENDBRANCH  57  70
ENDBRANCH  31  32
ENDBRANCH  24  26
ENDBRANCH  23  24
ENDBRANCH  22  23
ENDBRANCH   1  22
TORSDOF 13
