REMARK SMILES O=C(CCN1C(=O)S/C(=C\c2ccccc2F)C1=O)Nc1ccc(C(=O)OCCOC(=O)c2ccc(-c3c4nc(c(-c5ccccc5)c5ccc([nH]5)c(-c5ccccc5)c5nc(c(-c6ccccc6)c6ccc3[nH]6)C=C5)C=C4)cc2)c(O)c1
REMARK SMILES IDX 27 1 25 2 26 3 24 4 21 5 22 6 83 7 23 8 81 9 20 10 1 11 2 12
REMARK SMILES IDX 3 14 4 15 5 16 6 17 18 18 7 19 8 20 9 21 19 22 10 23 11 24
REMARK SMILES IDX 12 25 16 26 13 27 15 28 17 29 14 30 82 31 28 33 29 34 30 35
REMARK SMILES IDX 31 36 32 37 33 38 34 39 80 40 35 41 79 42 36 43 37 44 38 45
REMARK SMILES IDX 73 46 39 47 78 48 72 49 74 50 40 51 77 52 71 53 70 54 41 56
REMARK SMILES IDX 63 57 48 58 62 59 49 60 52 61 61 62 75 63 50 64 51 65 60 67
REMARK SMILES IDX 76 68 53 69 42 70 43 71 47 72 44 73 46 74 45 75 64 76 65 77
REMARK SMILES IDX 69 78 66 79 68 80 67 81 54 82 55 83 59 84 56 85 58 86 57 87
REMARK H PARENT 20 13 82 32 74 55 52 66
REMARK Flexibility Score: inf
ROOT
ATOM      1  O   UNL     1       1.005  -6.328  -3.704  1.00  0.00    -0.458 OA
ENDROOT
BRANCH   1   2
ATOM      2  C   UNL     1       1.130  -5.098  -4.271  1.00  0.00     0.342 C 
ATOM      3  O   UNL     1       0.865  -4.802  -5.424  1.00  0.00    -0.246 OA
BRANCH   2   4
ATOM      4  C   UNL     1       1.563  -4.105  -3.262  1.00  0.00     0.101 A 
ATOM      5  C   UNL     1       2.364  -2.102  -1.470  1.00  0.00     0.044 A 
ATOM      6  C   UNL     1       1.378  -1.827  -2.402  1.00  0.00     0.027 A 
ATOM      7  C   UNL     1       2.947  -3.375  -1.431  1.00  0.00     0.073 A 
ATOM      8  C   UNL     1       1.039  -2.805  -3.336  1.00  0.00     0.022 A 
ATOM      9  C   UNL     1       2.510  -4.388  -2.284  1.00  0.00     0.132 A 
BRANCH   5  10
ATOM     10  N   UNL     1       2.875  -1.119  -0.617  1.00  0.00    -0.326 N 
ATOM     11  O   UNL     1       1.017   0.219  -0.257  1.00  0.00    -0.275 OA
ATOM     12  C   UNL     1       2.209  -0.027  -0.102  1.00  0.00     0.226 C 
ATOM     13  H   UNL     1       3.818  -1.218  -0.352  1.00  0.00     0.169 HD
BRANCH  12  14
ATOM     14  C   UNL     1       3.113   0.921   0.670  1.00  0.00     0.122 C 
BRANCH  14  15
ATOM     15  C   UNL     1       3.887   0.285   1.834  1.00  0.00     0.140 C 
BRANCH  15  16
ATOM     16  N   UNL     1       4.960  -0.617   1.413  1.00  0.00    -0.268 N 
ATOM     17  C   UNL     1       6.075  -0.144   0.773  1.00  0.00     0.293 C 
ATOM     18  C   UNL     1       4.910  -1.976   1.651  1.00  0.00     0.268 C 
ATOM     19  O   UNL     1       6.332   1.026   0.517  1.00  0.00    -0.261 OA
ATOM     20  S   UNL     1       7.088  -1.476   0.263  1.00  0.00    -0.022 SA
ATOM     21  C   UNL     1       6.030  -2.652   0.938  1.00  0.00     0.083 C 
ATOM     22  O   UNL     1       4.019  -2.569   2.236  1.00  0.00    -0.268 OA
ATOM     23  C   UNL     1       6.046  -3.982   0.764  1.00  0.00     0.032 C 
BRANCH  23  24
ATOM     24  C   UNL     1       7.017  -4.730  -0.044  1.00  0.00     0.012 A 
ATOM     25  C   UNL     1       6.578  -5.455  -1.160  1.00  0.00     0.011 A 
ATOM     26  C   UNL     1       8.377  -4.760   0.279  1.00  0.00     0.130 A 
ATOM     27  C   UNL     1       7.488  -6.169  -1.946  1.00  0.00     0.001 A 
ATOM     28  C   UNL     1       9.288  -5.466  -0.501  1.00  0.00     0.040 A 
ATOM     29  F   UNL     1       8.827  -4.109   1.362  1.00  0.00    -0.206 F 
ATOM     30  C   UNL     1       8.844  -6.170  -1.619  1.00  0.00     0.003 A 
ENDBRANCH  23  24
ENDBRANCH  15  16
ENDBRANCH  14  15
ENDBRANCH  12  14
ENDBRANCH   5  10
BRANCH   9  31
ATOM     31  O   UNL     1       3.080  -5.619  -2.113  1.00  0.00    -0.507 OA
ATOM     32  H   UNL     1       2.822  -6.334  -2.660  1.00  0.00     0.293 HD
ENDBRANCH   9  31
ENDBRANCH   2   4
ENDBRANCH   1   2
BRANCH   1  33
ATOM     33  C   UNL     1       0.444  -7.356  -4.551  1.00  0.00     0.275 C 
BRANCH  33  34
ATOM     34  C   UNL     1      -1.028  -7.616  -4.221  1.00  0.00     0.275 C 
BRANCH  34  35
ATOM     35  O   UNL     1      -1.839  -6.478  -4.570  1.00  0.00    -0.458 OA
BRANCH  35  36
ATOM     36  C   UNL     1      -2.277  -5.743  -3.523  1.00  0.00     0.338 C 
ATOM     37  O   UNL     1      -2.085  -5.954  -2.337  1.00  0.00    -0.246 OA
BRANCH  36  38
ATOM     38  C   UNL     1      -2.948  -4.524  -3.999  1.00  0.00     0.060 A 
ATOM     39  C   UNL     1      -2.141  -3.499  -4.466  1.00  0.00     0.016 A 
ATOM     40  C   UNL     1      -4.303  -4.295  -3.792  1.00  0.00     0.016 A 
ATOM     41  C   UNL     1      -2.630  -2.202  -4.564  1.00  0.00     0.010 A 
ATOM     42  C   UNL     1      -4.832  -3.022  -4.058  1.00  0.00     0.010 A 
ATOM     43  C   UNL     1      -3.994  -1.942  -4.401  1.00  0.00    -0.014 A 
BRANCH  43  44
ATOM     44  C   UNL     1      -4.520  -0.554  -4.581  1.00  0.00     0.031 A 
ATOM     45  C   UNL     1      -5.370   0.091  -3.513  1.00  0.00     0.074 A 
ATOM     46  C   UNL     1      -4.229   0.149  -5.698  1.00  0.00     0.049 A 
ATOM     47  N   UNL     1      -6.074   1.196  -3.571  1.00  0.00    -0.248 NA
ATOM     48  C   UNL     1      -5.457  -0.603  -2.219  1.00  0.00     0.031 C 
ATOM     49  C   UNL     1      -3.373  -0.307  -6.798  1.00  0.00     0.029 A 
ATOM     50  N   UNL     1      -4.614   1.409  -6.091  1.00  0.00    -0.354 N 
ATOM     51  C   UNL     1      -6.735   1.291  -2.350  1.00  0.00     0.074 A 
ATOM     52  C   UNL     1      -6.357   0.128  -1.577  1.00  0.00     0.031 C 
ATOM     53  C   UNL     1      -3.252   0.672  -7.704  1.00  0.00     0.029 A 
ATOM     54  C   UNL     1      -4.118   1.777  -7.320  1.00  0.00     0.049 A 
ATOM     55  H   UNL     1      -5.189   1.993  -5.545  1.00  0.00     0.167 HD
ATOM     56  C   UNL     1      -7.583   2.256  -1.916  1.00  0.00     0.031 A 
ATOM     57  C   UNL     1      -4.372   2.849  -8.094  1.00  0.00     0.031 A 
ATOM     58  C   UNL     1      -7.923   3.435  -2.671  1.00  0.00     0.049 A 
ATOM     59  C   UNL     1      -5.364   3.869  -7.622  1.00  0.00     0.074 A 
ATOM     60  C   UNL     1      -8.759   4.479  -2.310  1.00  0.00     0.029 A 
ATOM     61  N   UNL     1      -7.434   3.735  -3.933  1.00  0.00    -0.354 N 
ATOM     62  N   UNL     1      -6.024   3.916  -6.492  1.00  0.00    -0.248 NA
ATOM     63  C   UNL     1      -5.660   4.975  -8.543  1.00  0.00     0.031 C 
ATOM     64  C   UNL     1      -8.822   5.379  -3.379  1.00  0.00     0.029 A 
ATOM     65  C   UNL     1      -7.972   4.932  -4.377  1.00  0.00     0.049 A 
ATOM     66  H   UNL     1      -6.798   3.179  -4.439  1.00  0.00     0.167 HD
ATOM     67  C   UNL     1      -6.800   5.065  -6.556  1.00  0.00     0.074 A 
ATOM     68  C   UNL     1      -6.509   5.698  -7.826  1.00  0.00     0.031 C 
ATOM     69  C   UNL     1      -7.677   5.550  -5.644  1.00  0.00     0.031 A 
BRANCH  56  70
ATOM     70  C   UNL     1      -8.247   2.055  -0.579  1.00  0.00    -0.014 A 
ATOM     71  C   UNL     1      -7.534   2.138   0.626  1.00  0.00     0.009 A 
ATOM     72  C   UNL     1      -9.631   1.813  -0.529  1.00  0.00     0.009 A 
ATOM     73  C   UNL     1      -8.184   1.944   1.849  1.00  0.00     0.001 A 
ATOM     74  C   UNL     1     -10.284   1.653   0.695  1.00  0.00     0.001 A 
ATOM     75  C   UNL     1      -9.558   1.707   1.882  1.00  0.00     0.000 A 
ENDBRANCH  56  70
BRANCH  57  76
ATOM     76  C   UNL     1      -3.726   2.972  -9.430  1.00  0.00    -0.014 A 
ATOM     77  C   UNL     1      -2.799   3.992  -9.687  1.00  0.00     0.009 A 
ATOM     78  C   UNL     1      -4.034   2.064 -10.458  1.00  0.00     0.009 A 
ATOM     79  C   UNL     1      -2.208   4.110 -10.948  1.00  0.00     0.001 A 
ATOM     80  C   UNL     1      -3.414   2.160 -11.704  1.00  0.00     0.001 A 
ATOM     81  C   UNL     1      -2.509   3.190 -11.952  1.00  0.00     0.000 A 
ENDBRANCH  57  76
BRANCH  69  82
ATOM     82  C   UNL     1      -8.352   6.851  -5.973  1.00  0.00    -0.014 A 
ATOM     83  C   UNL     1      -9.336   6.933  -6.971  1.00  0.00     0.009 A 
ATOM     84  C   UNL     1      -8.012   8.009  -5.256  1.00  0.00     0.009 A 
ATOM     85  C   UNL     1      -9.938   8.158  -7.269  1.00  0.00     0.001 A 
ATOM     86  C   UNL     1      -8.639   9.224  -5.533  1.00  0.00     0.001 A 
ATOM     87  C   UNL     1      -9.592   9.300  -6.547  1.00  0.00     0.000 A 
ENDBRANCH  69  82
ENDBRANCH  43  44
ENDBRANCH  36  38
ENDBRANCH  35  36
ENDBRANCH  34  35
ENDBRANCH  33  34
ENDBRANCH   1  33
TORSDOF 17
