REMARK SMILES O=C(OCCOC(=O)c1ccc(-c2c3nc(c(-c4ccccc4)c4ccc([nH]4)c(-c4ccccc4)c4nc(c(-c5ccccc5)c5ccc2[nH]5)C=C4)C=C3)cc1)C1=Cc2c(Cl)cc(Cl)cc2O[C@@H]1C(F)(F)F
REMARK SMILES IDX 5 1 4 2 3 3 2 4 1 5 57 6 58 7 68 8 59 9 67 10 60 11 66 12
REMARK SMILES IDX 61 13 62 14 65 15 63 16 64 17 69 18 70 19 71 20 72 21 6 22
REMARK SMILES IDX 7 23 8 24 9 25 10 26 56 27 11 28 55 29 12 30 13 31 14 32
REMARK SMILES IDX 49 33 15 34 54 35 48 36 50 37 16 38 53 39 47 40 46 41 17 43
REMARK SMILES IDX 39 44 24 45 38 46 25 47 28 48 37 49 51 50 26 51 27 52 36 54
REMARK SMILES IDX 52 55 29 56 18 57 19 58 23 59 20 60 22 61 21 62 40 63 41 64
REMARK SMILES IDX 45 65 42 66 44 67 43 68 30 69 31 70 35 71 32 72 34 73 33 74
REMARK H PARENT 50 42 28 53
REMARK Flexibility Score: inf
ROOT
ATOM      1  C   UNL     1       4.803   0.115  -0.925  1.00  0.00     0.275 C 
ENDROOT
BRANCH   1   2
ATOM      2  C   UNL     1       3.996   0.652   1.007  1.00  0.00     0.275 C 
BRANCH   2   3
ATOM      3  O   UNL     1       3.135   1.901   1.335  1.00  0.00    -0.459 OA
BRANCH   3   4
ATOM      4  C   UNL     1       3.364   2.928   0.507  1.00  0.00     0.338 C 
ATOM      5  O   UNL     1       2.760   3.963   0.379  1.00  0.00    -0.246 OA
BRANCH   4   6
ATOM      6  C   UNL     1       4.212   2.182  -0.395  1.00  0.00     0.087 C 
ATOM      7  C   UNL     1       5.568   2.007   0.111  1.00  0.00     0.029 C 
ATOM      8  C   UNL     1       2.940   0.775  -0.714  1.00  0.00     0.316 C 
ATOM      9  C   UNL     1       6.207   0.435   0.721  1.00  0.00     0.036 A 
ATOM     10  O   UNL     1       3.563  -0.910   0.004  1.00  0.00    -0.475 OA
ATOM     11  C   UNL     1       7.424   0.395   1.352  1.00  0.00     0.053 A 
ATOM     12  C   UNL     1       5.218  -0.994   0.784  1.00  0.00     0.130 A 
ATOM     13  Cl  UNL     1       8.510   1.721   1.391  1.00  0.00    -0.083 Cl
ATOM     14  C   UNL     1       7.723  -0.800   2.020  1.00  0.00     0.042 A 
ATOM     15  C   UNL     1       5.585  -2.129   1.453  1.00  0.00     0.067 A 
ATOM     16  C   UNL     1       6.854  -1.974   2.075  1.00  0.00     0.046 A 
ATOM     17  Cl  UNL     1       7.453  -3.285   3.044  1.00  0.00    -0.084 Cl
BRANCH   8  18
ATOM     18  C   UNL     1       2.575   1.314  -2.170  1.00  0.00     0.430 C 
ATOM     19  F   UNL     1       1.325   1.000  -2.517  1.00  0.00    -0.167 F 
ATOM     20  F   UNL     1       2.549   2.684  -2.141  1.00  0.00    -0.167 F 
ATOM     21  F   UNL     1       3.438   1.068  -3.174  1.00  0.00    -0.167 F 
ENDBRANCH   8  18
ENDBRANCH   4   6
ENDBRANCH   3   4
ENDBRANCH   2   3
ENDBRANCH   1   2
BRANCH   1  22
ATOM     22  O   UNL     1       3.949  -0.822  -2.132  1.00  0.00    -0.458 OA
BRANCH  22  23
ATOM     23  C   UNL     1       3.015  -1.823  -2.301  1.00  0.00     0.338 C 
ATOM     24  O   UNL     1       2.556  -2.603  -1.487  1.00  0.00    -0.246 OA
BRANCH  23  25
ATOM     25  C   UNL     1       2.334  -1.543  -3.609  1.00  0.00     0.060 A 
ATOM     26  C   UNL     1       0.986  -1.135  -3.609  1.00  0.00     0.016 A 
ATOM     27  C   UNL     1       3.117  -1.315  -4.737  1.00  0.00     0.016 A 
ATOM     28  C   UNL     1       0.526  -0.249  -4.608  1.00  0.00     0.010 A 
ATOM     29  C   UNL     1       2.647  -0.460  -5.737  1.00  0.00     0.010 A 
ATOM     30  C   UNL     1       1.392   0.166  -5.631  1.00  0.00    -0.014 A 
BRANCH  30  31
ATOM     31  C   UNL     1       0.970   1.079  -6.731  1.00  0.00     0.031 A 
ATOM     32  C   UNL     1       0.357   0.414  -7.925  1.00  0.00     0.074 A 
ATOM     33  C   UNL     1       1.246   2.402  -6.767  1.00  0.00     0.049 A 
ATOM     34  N   UNL     1       0.098   0.898  -9.109  1.00  0.00    -0.248 NA
ATOM     35  C   UNL     1       0.040  -1.015  -7.762  1.00  0.00     0.031 C 
ATOM     36  C   UNL     1       1.832   3.195  -5.686  1.00  0.00     0.029 A 
ATOM     37  N   UNL     1       1.093   3.320  -7.790  1.00  0.00    -0.354 N 
ATOM     38  C   UNL     1      -0.377  -0.179  -9.841  1.00  0.00     0.074 A 
ATOM     39  C   UNL     1      -0.338  -1.340  -8.984  1.00  0.00     0.031 C 
ATOM     40  C   UNL     1       2.004   4.466  -6.106  1.00  0.00     0.029 A 
ATOM     41  C   UNL     1       1.575   4.580  -7.499  1.00  0.00     0.049 A 
ATOM     42  H   UNL     1       0.675   3.093  -8.652  1.00  0.00     0.167 HD
ATOM     43  C   UNL     1      -0.809  -0.208 -11.120  1.00  0.00     0.031 A 
ATOM     44  C   UNL     1       1.675   5.684  -8.276  1.00  0.00     0.031 A 
ATOM     45  C   UNL     1      -0.833   0.930 -11.987  1.00  0.00     0.049 A 
ATOM     46  C   UNL     1       1.224   5.612  -9.723  1.00  0.00     0.074 A 
ATOM     47  C   UNL     1      -1.290   1.006 -13.289  1.00  0.00     0.029 A 
ATOM     48  N   UNL     1      -0.366   2.187 -11.642  1.00  0.00    -0.354 N 
ATOM     49  N   UNL     1       0.691   4.608 -10.377  1.00  0.00    -0.248 NA
ATOM     50  C   UNL     1       1.393   6.828 -10.541  1.00  0.00     0.031 C 
ATOM     51  C   UNL     1      -1.046   2.301 -13.753  1.00  0.00     0.029 A 
ATOM     52  C   UNL     1      -0.496   3.042 -12.719  1.00  0.00     0.049 A 
ATOM     53  H   UNL     1       0.002   2.434 -10.762  1.00  0.00     0.167 HD
ATOM     54  C   UNL     1       0.431   5.081 -11.660  1.00  0.00     0.074 A 
ATOM     55  C   UNL     1       0.848   6.465 -11.694  1.00  0.00     0.031 C 
ATOM     56  C   UNL     1      -0.101   4.426 -12.721  1.00  0.00     0.031 A 
BRANCH  43  57
ATOM     57  C   UNL     1      -1.247  -1.542 -11.643  1.00  0.00    -0.014 A 
ATOM     58  C   UNL     1      -2.418  -2.156 -11.171  1.00  0.00     0.009 A 
ATOM     59  C   UNL     1      -0.450  -2.213 -12.582  1.00  0.00     0.009 A 
ATOM     60  C   UNL     1      -2.754  -3.442 -11.589  1.00  0.00     0.001 A 
ATOM     61  C   UNL     1      -0.809  -3.485 -13.025  1.00  0.00     0.001 A 
ATOM     62  C   UNL     1      -1.952  -4.104 -12.518  1.00  0.00     0.000 A 
ENDBRANCH  43  57
BRANCH  44  63
ATOM     63  C   UNL     1       2.248   6.969  -7.763  1.00  0.00    -0.014 A 
ATOM     64  C   UNL     1       1.449   8.125  -7.679  1.00  0.00     0.009 A 
ATOM     65  C   UNL     1       3.616   7.087  -7.473  1.00  0.00     0.009 A 
ATOM     66  C   UNL     1       2.013   9.369  -7.368  1.00  0.00     0.001 A 
ATOM     67  C   UNL     1       4.172   8.327  -7.129  1.00  0.00     0.001 A 
ATOM     68  C   UNL     1       3.374   9.469  -7.093  1.00  0.00     0.000 A 
ENDBRANCH  44  63
BRANCH  56  69
ATOM     69  C   UNL     1      -0.316   5.192 -13.997  1.00  0.00    -0.014 A 
ATOM     70  C   UNL     1       0.759   5.540 -14.829  1.00  0.00     0.009 A 
ATOM     71  C   UNL     1      -1.626   5.458 -14.429  1.00  0.00     0.009 A 
ATOM     72  C   UNL     1       0.525   6.146 -16.065  1.00  0.00     0.001 A 
ATOM     73  C   UNL     1      -1.857   6.035 -15.677  1.00  0.00     0.001 A 
ATOM     74  C   UNL     1      -0.782   6.382 -16.493  1.00  0.00     0.000 A 
ENDBRANCH  56  69
ENDBRANCH  30  31
ENDBRANCH  23  25
ENDBRANCH  22  23
ENDBRANCH   1  22
TORSDOF 12
