REMARK SMILES Cc1cc(C)c(C(=O)NC[C@H]2CC[C@@H](C(=O)OCCOC(=O)c3ccc(-c4c5nc(c(-c6ccccc6)c6ccc([nH]6)c(-c6ccccc6)c6nc(c(-c7ccccc7)c7ccc4[nH]7)C=C6)C=C5)cc3)O2)c(C)c1
REMARK SMILES IDX 18 1 17 2 15 3 16 4 14 5 11 6 12 7 71 8 13 9 10 10 9 11 7 12
REMARK SMILES IDX 8 13 6 15 1 16 2 17 3 18 74 19 4 20 72 21 5 22 73 23 19 24
REMARK SMILES IDX 20 25 21 26 22 27 23 28 24 29 70 30 25 31 69 32 26 33 27 34
REMARK SMILES IDX 28 35 63 36 29 37 68 38 62 39 64 40 30 41 67 42 61 43 60 44
REMARK SMILES IDX 31 46 53 47 38 48 52 49 39 50 42 51 51 52 65 53 40 54 41 55
REMARK SMILES IDX 50 57 66 58 43 59 32 60 33 61 37 62 34 63 36 64 35 65 54 66
REMARK SMILES IDX 55 67 59 68 56 69 58 70 57 71 44 72 45 73 49 74 46 75 48 76
REMARK SMILES IDX 47 77
REMARK H PARENT 9 14 64 45 42 56
REMARK Flexibility Score: inf
ROOT
ATOM      1  C   UNL     1      -2.909  -8.564   3.493  1.00  0.00     0.274 C 
ENDROOT
BRANCH   1   2
ATOM      2  O   UNL     1      -2.264  -8.064   2.304  1.00  0.00    -0.460 OA
BRANCH   2   3
ATOM      3  C   UNL     1      -1.234  -7.194   2.494  1.00  0.00     0.335 C 
ATOM      4  O   UNL     1      -0.799  -6.843   3.585  1.00  0.00    -0.249 OA
BRANCH   3   5
ATOM      5  C   UNL     1      -0.692  -6.683   1.157  1.00  0.00     0.228 C 
ATOM      6  C   UNL     1      -0.014  -4.451   1.036  1.00  0.00     0.138 C 
ATOM      7  C   UNL     1       1.153  -5.286   0.550  1.00  0.00     0.037 C 
ATOM      8  O   UNL     1      -1.148  -5.333   0.963  1.00  0.00    -0.361 OA
ATOM      9  C   UNL     1       0.835  -6.646   1.117  1.00  0.00     0.047 C 
BRANCH   6  10
ATOM     10  C   UNL     1       0.147  -3.921   2.479  1.00  0.00     0.148 C 
BRANCH  10  11
ATOM     11  N   UNL     1       0.885  -2.680   2.504  1.00  0.00    -0.349 N 
ATOM     12  C   UNL     1       0.680  -1.352   2.276  1.00  0.00     0.251 C 
ATOM     13  O   UNL     1       1.769  -0.792   2.082  1.00  0.00    -0.269 OA
ATOM     14  H   UNL     1       1.820  -2.842   2.765  1.00  0.00     0.163 HD
BRANCH  12  15
ATOM     15  C   UNL     1      -0.593  -0.516   2.208  1.00  0.00     0.045 A 
ATOM     16  C   UNL     1      -3.769   2.378   1.351  1.00  0.00     0.044 C 
ATOM     17  C   UNL     1      -2.696   1.394   1.702  1.00  0.00    -0.051 A 
ATOM     18  C   UNL     1      -1.426   1.823   2.046  1.00  0.00     0.007 A 
ATOM     19  C   UNL     1      -2.937   0.029   1.693  1.00  0.00     0.007 A 
ATOM     20  C   UNL     1      -0.393   0.904   2.334  1.00  0.00    -0.038 A 
ATOM     21  C   UNL     1      -1.925  -0.935   1.956  1.00  0.00    -0.038 A 
ATOM     22  C   UNL     1       0.912   1.545   2.767  1.00  0.00     0.045 C 
ATOM     23  C   UNL     1      -2.455  -2.333   1.955  1.00  0.00     0.045 C 
ENDBRANCH  12  15
ENDBRANCH  10  11
ENDBRANCH   6  10
ENDBRANCH   3   5
ENDBRANCH   2   3
ENDBRANCH   1   2
BRANCH   1  24
ATOM     24  C   UNL     1      -2.564 -10.034   3.709  1.00  0.00     0.275 C 
BRANCH  24  25
ATOM     25  O   UNL     1      -1.161 -10.162   4.005  1.00  0.00    -0.458 OA
BRANCH  25  26
ATOM     26  C   UNL     1      -0.426 -10.813   3.078  1.00  0.00     0.338 C 
ATOM     27  O   UNL     1      -0.812 -11.355   2.058  1.00  0.00    -0.246 OA
BRANCH  26  28
ATOM     28  C   UNL     1       0.999 -10.703   3.421  1.00  0.00     0.060 A 
ATOM     29  C   UNL     1       1.632  -9.482   3.209  1.00  0.00     0.016 A 
ATOM     30  C   UNL     1       1.740 -11.828   3.771  1.00  0.00     0.016 A 
ATOM     31  C   UNL     1       3.020  -9.394   3.242  1.00  0.00     0.010 A 
ATOM     32  C   UNL     1       3.132 -11.723   3.882  1.00  0.00     0.010 A 
ATOM     33  C   UNL     1       3.790 -10.519   3.564  1.00  0.00    -0.014 A 
BRANCH  33  34
ATOM     34  C   UNL     1       5.274 -10.463   3.444  1.00  0.00     0.031 A 
ATOM     35  C   UNL     1       5.973 -11.329   2.427  1.00  0.00     0.074 A 
ATOM     36  C   UNL     1       6.001  -9.601   4.181  1.00  0.00     0.049 A 
ATOM     37  N   UNL     1       7.255 -11.524   2.246  1.00  0.00    -0.248 NA
ATOM     38  C   UNL     1       5.116 -12.081   1.495  1.00  0.00     0.031 C 
ATOM     39  C   UNL     1       5.466  -8.649   5.155  1.00  0.00     0.029 A 
ATOM     40  N   UNL     1       7.355  -9.372   4.201  1.00  0.00    -0.354 N 
ATOM     41  C   UNL     1       7.355 -12.469   1.232  1.00  0.00     0.074 A 
ATOM     42  C   UNL     1       6.006 -12.800   0.827  1.00  0.00     0.031 C 
ATOM     43  C   UNL     1       6.474  -7.903   5.638  1.00  0.00     0.029 A 
ATOM     44  C   UNL     1       7.731  -8.369   5.061  1.00  0.00     0.049 A 
ATOM     45  H   UNL     1       7.995  -9.878   3.651  1.00  0.00     0.167 HD
ATOM     46  C   UNL     1       8.467 -13.018   0.688  1.00  0.00     0.031 A 
ATOM     47  C   UNL     1       8.951  -7.889   5.366  1.00  0.00     0.031 A 
ATOM     48  C   UNL     1       9.812 -12.656   1.038  1.00  0.00     0.049 A 
ATOM     49  C   UNL     1      10.171  -8.503   4.740  1.00  0.00     0.074 A 
ATOM     50  C   UNL     1      11.002 -13.180   0.561  1.00  0.00     0.029 A 
ATOM     51  N   UNL     1      10.146 -11.650   1.929  1.00  0.00    -0.354 N 
ATOM     52  N   UNL     1      10.249  -9.468   3.858  1.00  0.00    -0.248 NA
ATOM     53  C   UNL     1      11.473  -7.969   5.168  1.00  0.00     0.031 C 
ATOM     54  C   UNL     1      12.058 -12.496   1.174  1.00  0.00     0.029 A 
ATOM     55  C   UNL     1      11.523 -11.530   2.009  1.00  0.00     0.049 A 
ATOM     56  H   UNL     1       9.501 -11.102   2.431  1.00  0.00     0.167 HD
ATOM     57  C   UNL     1      11.605  -9.657   3.625  1.00  0.00     0.074 A 
ATOM     58  C   UNL     1      12.312  -8.690   4.438  1.00  0.00     0.031 C 
ATOM     59  C   UNL     1      12.210 -10.561   2.819  1.00  0.00     0.031 A 
BRANCH  46  60
ATOM     60  C   UNL     1       8.264 -14.111  -0.320  1.00  0.00    -0.014 A 
ATOM     61  C   UNL     1       7.894 -13.827  -1.643  1.00  0.00     0.009 A 
ATOM     62  C   UNL     1       8.460 -15.446   0.064  1.00  0.00     0.009 A 
ATOM     63  C   UNL     1       7.694 -14.867  -2.555  1.00  0.00     0.001 A 
ATOM     64  C   UNL     1       8.279 -16.481  -0.854  1.00  0.00     0.001 A 
ATOM     65  C   UNL     1       7.889 -16.191  -2.161  1.00  0.00     0.000 A 
ENDBRANCH  46  60
BRANCH  47  66
ATOM     66  C   UNL     1       9.089  -6.777   6.339  1.00  0.00    -0.014 A 
ATOM     67  C   UNL     1       9.433  -5.489   5.901  1.00  0.00     0.009 A 
ATOM     68  C   UNL     1       8.887  -6.999   7.710  1.00  0.00     0.009 A 
ATOM     69  C   UNL     1       9.589  -4.449   6.819  1.00  0.00     0.001 A 
ATOM     70  C   UNL     1       9.021  -5.952   8.623  1.00  0.00     0.001 A 
ATOM     71  C   UNL     1       9.378  -4.681   8.178  1.00  0.00     0.000 A 
ENDBRANCH  47  66
BRANCH  59  72
ATOM     72  C   UNL     1      13.708 -10.529   2.764  1.00  0.00    -0.014 A 
ATOM     73  C   UNL     1      14.478 -11.087   3.795  1.00  0.00     0.009 A 
ATOM     74  C   UNL     1      14.354  -9.955   1.659  1.00  0.00     0.009 A 
ATOM     75  C   UNL     1      15.872 -11.046   3.733  1.00  0.00     0.001 A 
ATOM     76  C   UNL     1      15.748  -9.930   1.593  1.00  0.00     0.001 A 
ATOM     77  C   UNL     1      16.505 -10.469   2.632  1.00  0.00     0.000 A 
ENDBRANCH  59  72
ENDBRANCH  33  34
ENDBRANCH  26  28
ENDBRANCH  25  26
ENDBRANCH  24  25
ENDBRANCH   1  24
TORSDOF 14
