REMARK SMILES COc1cccc(-c2nn(-c3cc4c(cc3C(N)=O)OCO4)cc2C(=O)OCCOC(=O)c2ccc(-c3c4nc(c(-c5ccccc5)c5ccc([nH]5)c(-c5ccccc5)c5nc(c(-c6ccccc6)c6ccc3[nH]6)C=C5)C=C4)cc2)c1
REMARK SMILES IDX 28 1 27 2 25 3 26 4 24 5 8 6 9 7 10 8 23 9 7 10 3 11 4 12
REMARK SMILES IDX 81 13 5 14 6 15 2 16 1 17 11 18 12 19 16 20 13 21 15 22
REMARK SMILES IDX 14 23 22 24 20 25 21 26 17 27 18 28 19 29 29 32 30 33 31 34
REMARK SMILES IDX 32 35 33 36 34 37 80 38 35 39 79 40 36 41 37 42 38 43 73 44
REMARK SMILES IDX 39 45 78 46 72 47 74 48 40 49 77 50 71 51 70 52 41 54 63 55
REMARK SMILES IDX 48 56 62 57 49 58 52 59 61 60 75 61 50 62 51 63 60 65 76 66
REMARK SMILES IDX 53 67 42 68 43 69 47 70 44 71 46 72 45 73 64 74 65 75 69 76
REMARK SMILES IDX 66 77 68 78 67 79 54 80 55 81 59 82 56 83 58 84 57 85
REMARK H PARENT 18 30 18 31 74 53 52 64
REMARK Flexibility Score: inf
ROOT
ATOM      1  C   UNL     1       3.973   2.873  -6.941  1.00  0.00     0.275 C 
ENDROOT
BRANCH   1   2
ATOM      2  O   UNL     1       4.584   1.753  -6.276  1.00  0.00    -0.458 OA
BRANCH   2   3
ATOM      3  C   UNL     1       3.843   1.052  -5.359  1.00  0.00     0.342 C 
ATOM      4  O   UNL     1       2.692   1.339  -5.040  1.00  0.00    -0.246 OA
BRANCH   3   5
ATOM      5  C   UNL     1       4.577  -0.071  -4.812  1.00  0.00     0.106 A 
ATOM      6  C   UNL     1       4.194  -1.117  -3.920  1.00  0.00     0.107 A 
ATOM      7  N   UNL     1       5.246  -1.905  -3.615  1.00  0.00    -0.167 NA
ATOM      8  N   UNL     1       6.304  -1.238  -4.132  1.00  0.00    -0.239 N 
ATOM      9  C   UNL     1       5.903  -0.343  -5.083  1.00  0.00     0.131 A 
BRANCH   6  10
ATOM     10  C   UNL     1       2.866  -1.419  -3.396  1.00  0.00     0.007 A 
ATOM     11  C   UNL     1       1.107  -1.093  -1.757  1.00  0.00     0.119 A 
ATOM     12  C   UNL     1       0.291  -1.972  -2.479  1.00  0.00     0.046 A 
ATOM     13  C   UNL     1       2.392  -0.802  -2.227  1.00  0.00     0.056 A 
ATOM     14  C   UNL     1       0.763  -2.600  -3.629  1.00  0.00     0.005 A 
ATOM     15  C   UNL     1       2.060  -2.343  -4.069  1.00  0.00     0.011 A 
BRANCH  11  16
ATOM     16  O   UNL     1       0.525  -0.615  -0.615  1.00  0.00    -0.497 OA
ATOM     17  C   UNL     1       1.273   0.298   0.174  1.00  0.00     0.278 C 
ENDBRANCH  11  16
ENDBRANCH   6  10
BRANCH   8  18
ATOM     18  C   UNL     1       7.640  -1.526  -3.765  1.00  0.00     0.081 A 
ATOM     19  C   UNL     1       7.983  -2.878  -3.561  1.00  0.00     0.079 A 
ATOM     20  C   UNL     1       8.617  -0.492  -3.621  1.00  0.00     0.069 A 
ATOM     21  C   UNL     1       9.301  -3.166  -3.287  1.00  0.00     0.167 A 
ATOM     22  C   UNL     1       9.964  -0.855  -3.454  1.00  0.00     0.066 A 
ATOM     23  C   UNL     1      10.263  -2.185  -3.264  1.00  0.00     0.166 A 
ATOM     24  O   UNL     1       9.820  -4.391  -3.004  1.00  0.00    -0.454 OA
ATOM     25  O   UNL     1      11.498  -2.671  -2.962  1.00  0.00    -0.454 OA
ATOM     26  C   UNL     1      11.155  -4.023  -2.596  1.00  0.00     0.468 C 
BRANCH  20  27
ATOM     27  C   UNL     1       8.239   0.954  -3.397  1.00  0.00     0.251 C 
ATOM     28  N   UNL     1       9.191   1.816  -2.927  1.00  0.00    -0.366 N 
ATOM     29  O   UNL     1       7.108   1.402  -3.520  1.00  0.00    -0.269 OA
ATOM     30  H   UNL     1      10.119   1.508  -2.809  1.00  0.00     0.159 HD
ATOM     31  H   UNL     1       8.949   2.745  -2.707  1.00  0.00     0.159 HD
ENDBRANCH  20  27
ENDBRANCH   8  18
ENDBRANCH   3   5
ENDBRANCH   2   3
ENDBRANCH   1   2
BRANCH   1  32
ATOM     32  C   UNL     1       3.334   2.480  -8.269  1.00  0.00     0.275 C 
BRANCH  32  33
ATOM     33  O   UNL     1       2.154   1.716  -8.047  1.00  0.00    -0.458 OA
BRANCH  33  34
ATOM     34  C   UNL     1       2.385   0.394  -7.909  1.00  0.00     0.338 C 
ATOM     35  O   UNL     1       3.464  -0.176  -7.945  1.00  0.00    -0.246 OA
BRANCH  34  36
ATOM     36  C   UNL     1       1.119  -0.325  -7.806  1.00  0.00     0.060 A 
ATOM     37  C   UNL     1       1.216  -1.682  -7.486  1.00  0.00     0.016 A 
ATOM     38  C   UNL     1      -0.064   0.253  -8.283  1.00  0.00     0.016 A 
ATOM     39  C   UNL     1       0.185  -2.514  -7.833  1.00  0.00     0.010 A 
ATOM     40  C   UNL     1      -1.096  -0.579  -8.637  1.00  0.00     0.010 A 
ATOM     41  C   UNL     1      -0.903  -1.954  -8.499  1.00  0.00    -0.014 A 
BRANCH  41  42
ATOM     42  C   UNL     1      -1.812  -2.874  -9.139  1.00  0.00     0.031 A 
ATOM     43  C   UNL     1      -2.709  -3.590  -8.204  1.00  0.00     0.074 A 
ATOM     44  C   UNL     1      -1.822  -2.956 -10.483  1.00  0.00     0.049 A 
ATOM     45  N   UNL     1      -2.861  -4.864  -8.063  1.00  0.00    -0.248 NA
ATOM     46  C   UNL     1      -3.434  -2.780  -7.209  1.00  0.00     0.031 C 
ATOM     47  C   UNL     1      -1.137  -2.090 -11.452  1.00  0.00     0.029 A 
ATOM     48  N   UNL     1      -2.587  -3.741 -11.276  1.00  0.00    -0.354 N 
ATOM     49  C   UNL     1      -3.830  -5.020  -7.076  1.00  0.00     0.074 A 
ATOM     50  C   UNL     1      -4.037  -3.722  -6.487  1.00  0.00     0.031 C 
ATOM     51  C   UNL     1      -1.757  -2.197 -12.648  1.00  0.00     0.029 A 
ATOM     52  C   UNL     1      -2.785  -3.220 -12.545  1.00  0.00     0.049 A 
ATOM     53  H   UNL     1      -2.966  -4.601 -10.981  1.00  0.00     0.167 HD
ATOM     54  C   UNL     1      -4.574  -6.153  -6.978  1.00  0.00     0.031 A 
ATOM     55  C   UNL     1      -3.822  -3.510 -13.370  1.00  0.00     0.031 A 
ATOM     56  C   UNL     1      -3.951  -7.268  -7.636  1.00  0.00     0.049 A 
ATOM     57  C   UNL     1      -4.427  -4.780 -12.882  1.00  0.00     0.074 A 
ATOM     58  C   UNL     1      -2.753  -7.934  -7.469  1.00  0.00     0.029 A 
ATOM     59  N   UNL     1      -4.394  -7.598  -8.895  1.00  0.00    -0.354 N 
ATOM     60  N   UNL     1      -3.798  -5.923 -12.906  1.00  0.00    -0.248 NA
ATOM     61  C   UNL     1      -5.503  -4.685 -11.902  1.00  0.00     0.031 C 
ATOM     62  C   UNL     1      -2.298  -8.197  -8.794  1.00  0.00     0.029 A 
ATOM     63  C   UNL     1      -3.278  -7.745  -9.680  1.00  0.00     0.049 A 
ATOM     64  H   UNL     1      -5.330  -7.708  -9.178  1.00  0.00     0.167 HD
ATOM     65  C   UNL     1      -4.095  -6.524 -11.689  1.00  0.00     0.074 A 
ATOM     66  C   UNL     1      -5.212  -5.749 -11.144  1.00  0.00     0.031 C 
ATOM     67  C   UNL     1      -3.227  -7.389 -11.081  1.00  0.00     0.031 A 
BRANCH  54  68
ATOM     68  C   UNL     1      -6.044  -6.118  -6.659  1.00  0.00    -0.014 A 
ATOM     69  C   UNL     1      -6.738  -7.330  -6.518  1.00  0.00     0.009 A 
ATOM     70  C   UNL     1      -6.822  -4.949  -6.789  1.00  0.00     0.009 A 
ATOM     71  C   UNL     1      -8.136  -7.374  -6.581  1.00  0.00     0.001 A 
ATOM     72  C   UNL     1      -8.216  -4.985  -6.811  1.00  0.00     0.001 A 
ATOM     73  C   UNL     1      -8.873  -6.204  -6.737  1.00  0.00     0.000 A 
ENDBRANCH  54  68
BRANCH  55  74
ATOM     74  C   UNL     1      -4.537  -2.534 -14.230  1.00  0.00    -0.014 A 
ATOM     75  C   UNL     1      -5.392  -2.948 -15.261  1.00  0.00     0.009 A 
ATOM     76  C   UNL     1      -4.547  -1.163 -13.894  1.00  0.00     0.009 A 
ATOM     77  C   UNL     1      -6.223  -2.028 -15.921  1.00  0.00     0.001 A 
ATOM     78  C   UNL     1      -5.368  -0.245 -14.555  1.00  0.00     0.001 A 
ATOM     79  C   UNL     1      -6.215  -0.680 -15.565  1.00  0.00     0.000 A 
ENDBRANCH  55  74
BRANCH  67  80
ATOM     80  C   UNL     1      -1.973  -7.792 -11.822  1.00  0.00    -0.014 A 
ATOM     81  C   UNL     1      -0.980  -6.868 -12.198  1.00  0.00     0.009 A 
ATOM     82  C   UNL     1      -1.690  -9.157 -11.961  1.00  0.00     0.009 A 
ATOM     83  C   UNL     1       0.245  -7.299 -12.719  1.00  0.00     0.001 A 
ATOM     84  C   UNL     1      -0.461  -9.589 -12.465  1.00  0.00     0.001 A 
ATOM     85  C   UNL     1       0.506  -8.661 -12.847  1.00  0.00     0.000 A 
ENDBRANCH  67  80
ENDBRANCH  41  42
ENDBRANCH  34  36
ENDBRANCH  33  34
ENDBRANCH  32  33
ENDBRANCH   1  32
TORSDOF 15
