REMARK SMILES O=C(OCCOC(=O)[C@H]1CCCCN1C(=O)c1nc(C2CC2)n[nH]1)c1ccc(-c2c3nc(c(-c4ccccc4)c4ccc([nH]4)c(-c4ccccc4)c4nc(c(-c5ccccc5)c5ccc2[nH]5)C=C4)C=C3)cc1
REMARK SMILES IDX 5 1 4 2 3 3 2 4 1 5 25 6 26 7 72 8 27 9 71 10 28 11 29 12
REMARK SMILES IDX 30 13 65 14 31 15 70 16 64 17 66 18 32 19 69 20 63 21 62 22
REMARK SMILES IDX 33 24 55 25 40 26 54 27 41 28 44 29 53 30 67 31 42 32 43 33
REMARK SMILES IDX 52 35 68 36 45 37 34 38 35 39 39 40 36 41 38 42 37 43 56 44
REMARK SMILES IDX 57 45 61 46 58 47 60 48 59 49 46 50 47 51 51 52 48 53 50 54
REMARK SMILES IDX 49 55 6 56 7 57 8 58 9 59 10 60 14 61 11 62 13 63 12 64
REMARK SMILES IDX 15 65 16 66 17 67 18 68 24 69 19 70 23 71 20 73 21 74 22 75
REMARK H PARENT 66 23 44 34 24 72
REMARK Flexibility Score: inf
ROOT
ATOM      1  C   UNL     1       4.143  -1.706  -6.163  1.00  0.00     0.274 C 
ENDROOT
BRANCH   1   2
ATOM      2  C   UNL     1       5.078  -0.500  -6.379  1.00  0.00     0.275 C 
BRANCH   2   3
ATOM      3  O   UNL     1       5.918  -0.294  -5.250  1.00  0.00    -0.458 OA
BRANCH   3   4
ATOM      4  C   UNL     1       5.942   0.880  -4.600  1.00  0.00     0.338 C 
ATOM      5  O   UNL     1       6.977   1.291  -4.083  1.00  0.00    -0.246 OA
BRANCH   4   6
ATOM      6  C   UNL     1       4.668   1.583  -4.277  1.00  0.00     0.060 A 
ATOM      7  C   UNL     1       2.991   1.002  -4.487  1.00  0.00     0.016 A 
ATOM      8  C   UNL     1       4.900   2.826  -3.069  1.00  0.00     0.016 A 
ATOM      9  C   UNL     1       1.643   1.713  -3.267  1.00  0.00     0.010 A 
ATOM     10  C   UNL     1       3.654   3.450  -2.051  1.00  0.00     0.010 A 
ATOM     11  C   UNL     1       2.012   2.999  -2.149  1.00  0.00    -0.014 A 
BRANCH  11  12
ATOM     12  C   UNL     1       0.858   3.964  -1.921  1.00  0.00     0.031 A 
ATOM     13  C   UNL     1       0.953   5.424  -2.365  1.00  0.00     0.074 A 
ATOM     14  C   UNL     1      -0.379   3.465  -1.681  1.00  0.00     0.049 A 
ATOM     15  N   UNL     1      -0.007   6.319  -2.448  1.00  0.00    -0.248 NA
ATOM     16  C   UNL     1       2.249   5.952  -2.820  1.00  0.00     0.031 C 
ATOM     17  C   UNL     1      -0.685   2.057  -1.408  1.00  0.00     0.029 A 
ATOM     18  N   UNL     1      -1.625   4.053  -1.723  1.00  0.00    -0.354 N 
ATOM     19  C   UNL     1       0.587   7.482  -2.934  1.00  0.00     0.074 A 
ATOM     20  C   UNL     1       1.961   7.178  -3.208  1.00  0.00     0.031 C 
ATOM     21  C   UNL     1      -2.008   1.875  -1.472  1.00  0.00     0.029 A 
ATOM     22  C   UNL     1      -2.658   3.169  -1.513  1.00  0.00     0.049 A 
ATOM     23  H   UNL     1      -1.762   5.014  -1.888  1.00  0.00     0.167 HD
ATOM     24  C   UNL     1       0.079   8.730  -3.055  1.00  0.00     0.031 A 
ATOM     25  C   UNL     1      -3.968   3.343  -1.246  1.00  0.00     0.031 A 
ATOM     26  C   UNL     1      -1.242   9.083  -2.633  1.00  0.00     0.049 A 
ATOM     27  C   UNL     1      -4.466   4.747  -1.145  1.00  0.00     0.074 A 
ATOM     28  C   UNL     1      -1.804  10.340  -2.522  1.00  0.00     0.029 A 
ATOM     29  N   UNL     1      -2.191   8.170  -2.201  1.00  0.00    -0.354 N 
ATOM     30  N   UNL     1      -3.834   5.853  -1.451  1.00  0.00    -0.248 NA
ATOM     31  C   UNL     1      -5.818   4.941  -0.611  1.00  0.00     0.031 C 
ATOM     32  C   UNL     1      -3.058  10.194  -1.923  1.00  0.00     0.029 A 
ATOM     33  C   UNL     1      -3.318   8.841  -1.768  1.00  0.00     0.049 A 
ATOM     34  H   UNL     1      -2.079   7.192  -2.202  1.00  0.00     0.167 HD
ATOM     35  C   UNL     1      -4.707   6.880  -1.143  1.00  0.00     0.074 A 
ATOM     36  C   UNL     1      -5.922   6.264  -0.645  1.00  0.00     0.031 C 
ATOM     37  C   UNL     1      -4.512   8.214  -1.264  1.00  0.00     0.031 A 
BRANCH  24  38
ATOM     38  C   UNL     1       1.057   9.816  -3.428  1.00  0.00    -0.014 A 
ATOM     39  C   UNL     1       1.592   9.945  -4.720  1.00  0.00     0.009 A 
ATOM     40  C   UNL     1       1.529  10.664  -2.412  1.00  0.00     0.009 A 
ATOM     41  C   UNL     1       2.615  10.866  -4.969  1.00  0.00     0.001 A 
ATOM     42  C   UNL     1       2.527  11.604  -2.671  1.00  0.00     0.001 A 
ATOM     43  C   UNL     1       3.082  11.692  -3.945  1.00  0.00     0.000 A 
ENDBRANCH  24  38
BRANCH  25  44
ATOM     44  C   UNL     1      -4.807   2.171  -0.844  1.00  0.00    -0.014 A 
ATOM     45  C   UNL     1      -5.918   1.759  -1.591  1.00  0.00     0.009 A 
ATOM     46  C   UNL     1      -4.444   1.411   0.287  1.00  0.00     0.009 A 
ATOM     47  C   UNL     1      -6.621   0.601  -1.232  1.00  0.00     0.001 A 
ATOM     48  C   UNL     1      -5.113   0.231   0.613  1.00  0.00     0.001 A 
ATOM     49  C   UNL     1      -6.205  -0.172  -0.147  1.00  0.00     0.000 A 
ENDBRANCH  25  44
BRANCH  37  50
ATOM     50  C   UNL     1      -5.653   9.110  -0.902  1.00  0.00    -0.014 A 
ATOM     51  C   UNL     1      -6.018   9.334   0.432  1.00  0.00     0.009 A 
ATOM     52  C   UNL     1      -6.314   9.806  -1.926  1.00  0.00     0.009 A 
ATOM     53  C   UNL     1      -7.041  10.232   0.733  1.00  0.00     0.001 A 
ATOM     54  C   UNL     1      -7.312  10.726  -1.620  1.00  0.00     0.001 A 
ATOM     55  C   UNL     1      -7.679  10.933  -0.292  1.00  0.00     0.000 A 
ENDBRANCH  37  50
ENDBRANCH  11  12
ENDBRANCH   4   6
ENDBRANCH   3   4
ENDBRANCH   2   3
ENDBRANCH   1   2
BRANCH   1  56
ATOM     56  O   UNL     1       3.154  -1.563  -5.107  1.00  0.00    -0.461 OA
BRANCH  56  57
ATOM     57  C   UNL     1       3.546  -1.459  -3.790  1.00  0.00     0.328 C 
ATOM     58  O   UNL     1       4.611  -1.884  -3.366  1.00  0.00    -0.250 OA
BRANCH  57  59
ATOM     59  C   UNL     1       2.583  -0.476  -2.978  1.00  0.00     0.195 C 
ATOM     60  C   UNL     1       3.370   1.266  -2.639  1.00  0.00     0.037 C 
ATOM     61  N   UNL     1       1.053  -0.459  -3.688  1.00  0.00    -0.322 N 
ATOM     62  C   UNL     1       2.902   2.821  -4.136  1.00  0.00     0.005 C 
ATOM     63  C   UNL     1       0.594   0.579  -5.037  1.00  0.00     0.121 C 
ATOM     64  C   UNL     1       1.379   2.302  -5.288  1.00  0.00     0.022 C 
BRANCH  61  65
ATOM     65  C   UNL     1       0.131  -1.147  -2.847  1.00  0.00     0.291 C 
ATOM     66  O   UNL     1       0.497  -1.577  -1.749  1.00  0.00    -0.265 OA
BRANCH  65  67
ATOM     67  C   UNL     1      -1.258  -1.288  -3.179  1.00  0.00     0.214 A 
ATOM     68  N   UNL     1      -1.803  -1.426  -4.364  1.00  0.00    -0.207 NA
ATOM     69  N   UNL     1      -2.231  -1.452  -2.226  1.00  0.00    -0.255 N 
ATOM     70  C   UNL     1      -3.135  -1.590  -4.070  1.00  0.00     0.154 A 
ATOM     71  N   UNL     1      -3.451  -1.522  -2.776  1.00  0.00    -0.158 NA
ATOM     72  H   UNL     1      -2.054  -1.511  -1.259  1.00  0.00     0.192 HD
BRANCH  70  73
ATOM     73  C   UNL     1      -4.155  -1.900  -5.140  1.00  0.00     0.060 C 
ATOM     74  C   UNL     1      -3.653  -1.980  -6.564  1.00  0.00     0.012 C 
ATOM     75  C   UNL     1      -4.051  -3.231  -5.848  1.00  0.00     0.012 C 
ENDBRANCH  70  73
ENDBRANCH  65  67
ENDBRANCH  61  65
ENDBRANCH  57  59
ENDBRANCH  56  57
ENDBRANCH   1  56
TORSDOF 14
