REMARK SMILES O=C(OCCOC(=O)c1ccc(-c2c3nc(c(-c4ccccc4)c4ccc([nH]4)c(-c4ccccc4)c4nc(c(-c5ccccc5)c5ccc2[nH]5)C=C4)C=C3)cc1)C1=Cc2cc(Cl)cc(-c3ccccc3)c2O[C@@H]1C(F)(F)F
REMARK SMILES IDX 5 1 4 2 3 3 2 4 1 5 57 6 58 7 73 8 59 9 72 10 60 11 71 12
REMARK SMILES IDX 61 13 64 14 62 15 63 16 74 17 75 18 76 19 77 20 65 21 66 22
REMARK SMILES IDX 70 23 67 24 69 25 68 26 6 27 7 28 8 29 9 30 10 31 56 32
REMARK SMILES IDX 11 33 55 34 12 35 13 36 14 37 49 38 15 39 54 40 48 41 50 42
REMARK SMILES IDX 16 43 53 44 47 45 46 46 17 48 39 49 24 50 38 51 25 52 28 53
REMARK SMILES IDX 37 54 51 55 26 56 27 57 36 59 52 60 29 61 18 62 19 63 23 64
REMARK SMILES IDX 20 65 22 66 21 67 40 68 41 69 45 70 42 71 44 72 43 73 30 74
REMARK SMILES IDX 31 75 35 76 32 77 34 78 33 79
REMARK H PARENT 50 47 28 58
REMARK Flexibility Score: inf
ROOT
ATOM      1  C   UNL     1       4.712   0.719  -0.584  1.00  0.00     0.275 C 
ENDROOT
BRANCH   1   2
ATOM      2  C   UNL     1       3.922  -0.204   1.210  1.00  0.00     0.275 C 
BRANCH   2   3
ATOM      3  O   UNL     1       3.015   0.480   2.279  1.00  0.00    -0.459 OA
BRANCH   3   4
ATOM      4  C   UNL     1       3.186   1.806   2.346  1.00  0.00     0.338 C 
ATOM      5  O   UNL     1       2.542   2.642   2.926  1.00  0.00    -0.246 OA
BRANCH   4   6
ATOM      6  C   UNL     1       4.049   1.874   1.191  1.00  0.00     0.087 C 
ATOM      7  C   UNL     1       5.416   1.486   1.470  1.00  0.00     0.027 C 
ATOM      8  C   UNL     1       2.838   0.980  -0.007  1.00  0.00     0.316 C 
ATOM      9  C   UNL     1       6.134  -0.037   0.879  1.00  0.00     0.019 A 
ATOM     10  O   UNL     1       3.561  -0.731  -0.581  1.00  0.00    -0.475 OA
ATOM     11  C   UNL     1       7.381  -0.323   1.365  1.00  0.00     0.032 A 
ATOM     12  C   UNL     1       5.233  -1.230  -0.017  1.00  0.00     0.135 A 
ATOM     13  C   UNL     1       7.829  -1.610   1.095  1.00  0.00     0.042 A 
ATOM     14  C   UNL     1       5.732  -2.507  -0.157  1.00  0.00     0.026 A 
ATOM     15  Cl  UNL     1       9.389  -2.046   1.708  1.00  0.00    -0.084 Cl
ATOM     16  C   UNL     1       7.060  -2.619   0.400  1.00  0.00     0.033 A 
BRANCH   8  17
ATOM     17  C   UNL     1       2.441   2.373  -0.712  1.00  0.00     0.430 C 
ATOM     18  F   UNL     1       1.155   2.385  -1.083  1.00  0.00    -0.167 F 
ATOM     19  F   UNL     1       2.493   3.388   0.212  1.00  0.00    -0.167 F 
ATOM     20  F   UNL     1       3.237   2.858  -1.680  1.00  0.00    -0.167 F 
ENDBRANCH   8  17
BRANCH  14  21
ATOM     21  C   UNL     1       5.121  -3.751  -0.607  1.00  0.00    -0.015 A 
ATOM     22  C   UNL     1       4.949  -4.799   0.328  1.00  0.00     0.009 A 
ATOM     23  C   UNL     1       4.945  -4.042  -1.961  1.00  0.00     0.009 A 
ATOM     24  C   UNL     1       4.638  -6.097  -0.078  1.00  0.00     0.001 A 
ATOM     25  C   UNL     1       4.631  -5.345  -2.368  1.00  0.00     0.001 A 
ATOM     26  C   UNL     1       4.485  -6.370  -1.431  1.00  0.00     0.000 A 
ENDBRANCH  14  21
ENDBRANCH   4   6
ENDBRANCH   3   4
ENDBRANCH   2   3
ENDBRANCH   1   2
BRANCH   1  27
ATOM     27  O   UNL     1       3.863   0.803  -2.120  1.00  0.00    -0.458 OA
BRANCH  27  28
ATOM     28  C   UNL     1       2.899   0.191  -2.894  1.00  0.00     0.338 C 
ATOM     29  O   UNL     1       2.417  -0.922  -2.785  1.00  0.00    -0.246 OA
BRANCH  28  30
ATOM     30  C   UNL     1       2.188   1.283  -3.658  1.00  0.00     0.060 A 
ATOM     31  C   UNL     1       0.837   1.549  -3.358  1.00  0.00     0.016 A 
ATOM     32  C   UNL     1       2.931   2.252  -4.330  1.00  0.00     0.016 A 
ATOM     33  C   UNL     1       0.335   2.867  -3.470  1.00  0.00     0.010 A 
ATOM     34  C   UNL     1       2.420   3.552  -4.458  1.00  0.00     0.010 A 
ATOM     35  C   UNL     1       1.161   3.900  -3.934  1.00  0.00    -0.014 A 
BRANCH  35  36
ATOM     36  C   UNL     1       0.695   5.316  -4.056  1.00  0.00     0.031 A 
ATOM     37  C   UNL     1       0.058   5.692  -5.360  1.00  0.00     0.074 A 
ATOM     38  C   UNL     1       0.911   6.276  -3.126  1.00  0.00     0.049 A 
ATOM     39  N   UNL     1      -0.303   6.865  -5.807  1.00  0.00    -0.248 NA
ATOM     40  C   UNL     1      -0.167   4.582  -6.300  1.00  0.00     0.031 C 
ATOM     41  C   UNL     1       1.506   6.082  -1.805  1.00  0.00     0.029 A 
ATOM     42  N   UNL     1       0.668   7.637  -3.168  1.00  0.00    -0.354 N 
ATOM     43  C   UNL     1      -0.786   6.633  -7.086  1.00  0.00     0.074 A 
ATOM     44  C   UNL     1      -0.630   5.222  -7.358  1.00  0.00     0.031 C 
ATOM     45  C   UNL     1       1.597   7.270  -1.173  1.00  0.00     0.029 A 
ATOM     46  C   UNL     1       1.091   8.326  -2.048  1.00  0.00     0.049 A 
ATOM     47  H   UNL     1       0.231   8.078  -3.932  1.00  0.00     0.167 HD
ATOM     48  C   UNL     1      -1.323   7.509  -7.963  1.00  0.00     0.031 A 
ATOM     49  C   UNL     1       1.082   9.651  -1.770  1.00  0.00     0.031 A 
ATOM     50  C   UNL     1      -1.457   8.915  -7.726  1.00  0.00     0.049 A 
ATOM     51  C   UNL     1       0.542  10.621  -2.803  1.00  0.00     0.074 A 
ATOM     52  C   UNL     1      -2.005   9.876  -8.554  1.00  0.00     0.029 A 
ATOM     53  N   UNL     1      -1.023   9.563  -6.582  1.00  0.00    -0.354 N 
ATOM     54  N   UNL     1       0.010  10.374  -3.976  1.00  0.00    -0.248 NA
ATOM     55  C   UNL     1       0.598  12.057  -2.470  1.00  0.00     0.031 C 
ATOM     56  C   UNL     1      -1.853  11.119  -7.933  1.00  0.00     0.029 A 
ATOM     57  C   UNL     1      -1.266  10.919  -6.694  1.00  0.00     0.049 A 
ATOM     58  H   UNL     1      -0.606   9.124  -5.806  1.00  0.00     0.167 HD
ATOM     59  C   UNL     1      -0.363  11.610  -4.496  1.00  0.00     0.074 A 
ATOM     60  C   UNL     1      -0.017  12.607  -3.507  1.00  0.00     0.031 C 
ATOM     61  C   UNL     1      -0.937  11.896  -5.690  1.00  0.00     0.031 A 
BRANCH  48  62
ATOM     62  C   UNL     1      -1.774   6.944  -9.275  1.00  0.00    -0.014 A 
ATOM     63  C   UNL     1      -2.900   6.107  -9.349  1.00  0.00     0.009 A 
ATOM     64  C   UNL     1      -1.046   7.221 -10.441  1.00  0.00     0.009 A 
ATOM     65  C   UNL     1      -3.261   5.521 -10.561  1.00  0.00     0.001 A 
ATOM     66  C   UNL     1      -1.430   6.658 -11.658  1.00  0.00     0.001 A 
ATOM     67  C   UNL     1      -2.528   5.800 -11.714  1.00  0.00     0.000 A 
ENDBRANCH  48  62
BRANCH  49  68
ATOM     68  C   UNL     1       1.614  10.200  -0.481  1.00  0.00    -0.014 A 
ATOM     69  C   UNL     1       0.761  10.866   0.420  1.00  0.00     0.009 A 
ATOM     70  C   UNL     1       2.989  10.186  -0.203  1.00  0.00     0.009 A 
ATOM     71  C   UNL     1       1.276  11.544   1.531  1.00  0.00     0.001 A 
ATOM     72  C   UNL     1       3.499  10.837   0.929  1.00  0.00     0.001 A 
ATOM     73  C   UNL     1       2.645  11.530   1.784  1.00  0.00     0.000 A 
ENDBRANCH  49  68
BRANCH  61  74
ATOM     74  C   UNL     1      -1.275  13.332  -5.987  1.00  0.00    -0.014 A 
ATOM     75  C   UNL     1      -0.276  14.275  -6.269  1.00  0.00     0.009 A 
ATOM     76  C   UNL     1      -2.622  13.721  -6.074  1.00  0.00     0.009 A 
ATOM     77  C   UNL     1      -0.619  15.585  -6.614  1.00  0.00     0.001 A 
ATOM     78  C   UNL     1      -2.962  15.021  -6.450  1.00  0.00     0.001 A 
ATOM     79  C   UNL     1      -1.961  15.953  -6.714  1.00  0.00     0.000 A 
ENDBRANCH  61  74
ENDBRANCH  35  36
ENDBRANCH  28  30
ENDBRANCH  27  28
ENDBRANCH   1  27
TORSDOF 13
