REMARK SMILES CN(CCS(C)(=O)=O)C(=O)Nc1cccc(C(=O)OCCOC(=O)c2ccc(-c3c4nc(c(-c5ccccc5)c5ccc([nH]5)c(-c5ccccc5)c5nc(c(-c6ccccc6)c6ccc3[nH]6)C=C5)C=C4)cc2)c1
REMARK SMILES IDX 19 1 17 2 18 3 16 4 12 5 13 6 73 7 14 8 15 9 11 10 9 11
REMARK SMILES IDX 10 12 2 14 1 15 3 16 4 17 5 18 6 19 7 20 8 21 20 22 21 23
REMARK SMILES IDX 22 24 23 25 24 26 25 27 26 28 72 29 27 30 71 31 28 32 29 33
REMARK SMILES IDX 30 34 65 35 31 36 70 37 64 38 66 39 32 40 69 41 63 42 62 43
REMARK SMILES IDX 33 45 55 46 40 47 54 48 41 49 44 50 53 51 67 52 42 53 43 54
REMARK SMILES IDX 52 56 68 57 45 58 34 59 35 60 39 61 36 62 38 63 37 64 56 65
REMARK SMILES IDX 57 66 61 67 58 68 60 69 59 70 46 71 47 72 51 73 48 74 50 75
REMARK SMILES IDX 49 76
REMARK H PARENT 11 13 66 44 44 55
REMARK Flexibility Score: inf
ROOT
ATOM      1  O   UNL     1      -3.355   2.590  -2.069  1.00  0.00    -0.458 OA
ENDROOT
BRANCH   1   2
ATOM      2  C   UNL     1      -2.736   3.102  -3.175  1.00  0.00     0.338 C 
ATOM      3  O   UNL     1      -3.058   2.957  -4.332  1.00  0.00    -0.246 OA
BRANCH   2   4
ATOM      4  C   UNL     1      -1.581   3.928  -2.726  1.00  0.00     0.062 A 
ATOM      5  C   UNL     1       0.335   4.048  -1.237  1.00  0.00     0.043 A 
ATOM      6  C   UNL     1       0.576   5.346  -1.712  1.00  0.00     0.026 A 
ATOM      7  C   UNL     1      -0.743   3.376  -1.762  1.00  0.00     0.041 A 
ATOM      8  C   UNL     1      -0.231   5.914  -2.707  1.00  0.00     0.003 A 
ATOM      9  C   UNL     1      -1.300   5.190  -3.237  1.00  0.00     0.016 A 
BRANCH   5  10
ATOM     10  N   UNL     1       1.198   3.543  -0.261  1.00  0.00    -0.308 N 
ATOM     11  C   UNL     1       1.493   2.430   0.430  1.00  0.00     0.321 C 
ATOM     12  O   UNL     1       2.574   2.543   1.032  1.00  0.00    -0.248 OA
ATOM     13  H   UNL     1       1.808   4.261   0.022  1.00  0.00     0.171 HD
BRANCH  11  14
ATOM     14  N   UNL     1       0.805   1.255   0.479  1.00  0.00    -0.327 N 
ATOM     15  C   UNL     1       1.625   0.089   0.825  1.00  0.00     0.148 C 
BRANCH  14  16
ATOM     16  C   UNL     1      -0.576   0.874   0.207  1.00  0.00     0.137 C 
BRANCH  16  17
ATOM     17  C   UNL     1      -1.808   1.432   0.913  1.00  0.00     0.158 C 
BRANCH  17  18
ATOM     18  S   UNL     1      -1.787   2.675   2.163  1.00  0.00     0.149 S 
ATOM     19  C   UNL     1      -1.703   4.261   1.365  1.00  0.00     0.158 C 
ATOM     20  O   UNL     1      -3.111   2.619   2.764  1.00  0.00    -0.229 OA
ATOM     21  O   UNL     1      -0.616   2.504   2.995  1.00  0.00    -0.229 OA
ENDBRANCH  17  18
ENDBRANCH  16  17
ENDBRANCH  14  16
ENDBRANCH  11  14
ENDBRANCH   5  10
ENDBRANCH   2   4
ENDBRANCH   1   2
BRANCH   1  22
ATOM     22  C   UNL     1      -4.401   1.613  -2.273  1.00  0.00     0.275 C 
BRANCH  22  23
ATOM     23  C   UNL     1      -5.744   2.066  -1.690  1.00  0.00     0.275 C 
BRANCH  23  24
ATOM     24  O   UNL     1      -6.234   3.193  -2.432  1.00  0.00    -0.458 OA
BRANCH  24  25
ATOM     25  C   UNL     1      -6.109   4.386  -1.808  1.00  0.00     0.338 C 
ATOM     26  O   UNL     1      -5.789   4.602  -0.653  1.00  0.00    -0.246 OA
BRANCH  25  27
ATOM     27  C   UNL     1      -6.115   5.429  -2.837  1.00  0.00     0.060 A 
ATOM     28  C   UNL     1      -4.872   5.729  -3.379  1.00  0.00     0.016 A 
ATOM     29  C   UNL     1      -7.236   6.171  -3.187  1.00  0.00     0.016 A 
ATOM     30  C   UNL     1      -4.713   6.778  -4.261  1.00  0.00     0.010 A 
ATOM     31  C   UNL     1      -7.087   7.216  -4.109  1.00  0.00     0.010 A 
ATOM     32  C   UNL     1      -5.819   7.536  -4.638  1.00  0.00    -0.014 A 
BRANCH  32  33
ATOM     33  C   UNL     1      -5.587   8.732  -5.480  1.00  0.00     0.031 A 
ATOM     34  C   UNL     1      -5.840  10.092  -4.899  1.00  0.00     0.074 A 
ATOM     35  C   UNL     1      -5.044   8.611  -6.707  1.00  0.00     0.049 A 
ATOM     36  N   UNL     1      -5.841  11.258  -5.488  1.00  0.00    -0.248 NA
ATOM     37  C   UNL     1      -6.136  10.143  -3.458  1.00  0.00     0.031 C 
ATOM     38  C   UNL     1      -4.616   7.354  -7.327  1.00  0.00     0.029 A 
ATOM     39  N   UNL     1      -4.727   9.564  -7.639  1.00  0.00    -0.354 N 
ATOM     40  C   UNL     1      -6.211  12.171  -4.508  1.00  0.00     0.074 A 
ATOM     41  C   UNL     1      -6.421  11.424  -3.288  1.00  0.00     0.031 C 
ATOM     42  C   UNL     1      -4.052   7.620  -8.515  1.00  0.00     0.029 A 
ATOM     43  C   UNL     1      -4.177   9.046  -8.786  1.00  0.00     0.049 A 
ATOM     44  H   UNL     1      -4.880  10.527  -7.500  1.00  0.00     0.167 HD
ATOM     45  C   UNL     1      -6.376  13.509  -4.628  1.00  0.00     0.031 A 
ATOM     46  C   UNL     1      -3.860   9.647  -9.947  1.00  0.00     0.031 A 
ATOM     47  C   UNL     1      -6.136  14.233  -5.848  1.00  0.00     0.049 A 
ATOM     48  C   UNL     1      -4.149  11.113 -10.095  1.00  0.00     0.074 A 
ATOM     49  C   UNL     1      -6.289  15.585  -6.098  1.00  0.00     0.029 A 
ATOM     50  N   UNL     1      -5.679  13.656  -7.026  1.00  0.00    -0.354 N 
ATOM     51  N   UNL     1      -4.599  11.959  -9.199  1.00  0.00    -0.248 NA
ATOM     52  C   UNL     1      -3.915  11.700 -11.419  1.00  0.00     0.031 C 
ATOM     53  C   UNL     1      -5.978  15.815  -7.444  1.00  0.00     0.029 A 
ATOM     54  C   UNL     1      -5.568  14.619  -8.014  1.00  0.00     0.049 A 
ATOM     55  H   UNL     1      -5.465  12.702  -7.141  1.00  0.00     0.167 HD
ATOM     56  C   UNL     1      -4.688  13.184  -9.845  1.00  0.00     0.074 A 
ATOM     57  C   UNL     1      -4.227  12.971 -11.204  1.00  0.00     0.031 C 
ATOM     58  C   UNL     1      -5.113  14.377  -9.360  1.00  0.00     0.031 A 
BRANCH  45  59
ATOM     59  C   UNL     1      -6.925  14.239  -3.432  1.00  0.00    -0.014 A 
ATOM     60  C   UNL     1      -6.185  14.404  -2.251  1.00  0.00     0.009 A 
ATOM     61  C   UNL     1      -8.237  14.739  -3.483  1.00  0.00     0.009 A 
ATOM     62  C   UNL     1      -6.767  15.001  -1.129  1.00  0.00     0.001 A 
ATOM     63  C   UNL     1      -8.804  15.366  -2.372  1.00  0.00     0.001 A 
ATOM     64  C   UNL     1      -8.075  15.482  -1.191  1.00  0.00     0.000 A 
ENDBRANCH  45  59
BRANCH  46  65
ATOM     65  C   UNL     1      -3.299   8.850 -11.070  1.00  0.00    -0.014 A 
ATOM     66  C   UNL     1      -1.977   9.046 -11.494  1.00  0.00     0.009 A 
ATOM     67  C   UNL     1      -4.074   7.866 -11.706  1.00  0.00     0.009 A 
ATOM     68  C   UNL     1      -1.445   8.275 -12.532  1.00  0.00     0.001 A 
ATOM     69  C   UNL     1      -3.531   7.076 -12.721  1.00  0.00     0.001 A 
ATOM     70  C   UNL     1      -2.218   7.285 -13.137  1.00  0.00     0.000 A 
ENDBRANCH  46  65
BRANCH  58  71
ATOM     71  C   UNL     1      -5.056  15.547 -10.300  1.00  0.00    -0.014 A 
ATOM     72  C   UNL     1      -5.957  15.673 -11.368  1.00  0.00     0.009 A 
ATOM     73  C   UNL     1      -4.099  16.553 -10.092  1.00  0.00     0.009 A 
ATOM     74  C   UNL     1      -5.877  16.768 -12.230  1.00  0.00     0.001 A 
ATOM     75  C   UNL     1      -4.043  17.661 -10.936  1.00  0.00     0.001 A 
ATOM     76  C   UNL     1      -4.924  17.762 -12.011  1.00  0.00     0.000 A 
ENDBRANCH  58  71
ENDBRANCH  32  33
ENDBRANCH  25  27
ENDBRANCH  24  25
ENDBRANCH  23  24
ENDBRANCH  22  23
ENDBRANCH   1  22
TORSDOF 16
