REMARK SMILES Cc1ccc(C(=O)OCCOC(=O)c2ccc(-c3c4nc(c(-c5ccccc5)c5ccc([nH]5)c(-c5ccccc5)c5nc(c(-c6ccccc6)c6ccc3[nH]6)C=C5)C=C4)cc2)c(NC(=O)CN2C(=O)/C(=C/c3ccccc3C)SC2=S)c1
REMARK SMILES IDX 9 1 8 2 6 3 7 4 5 5 1 6 2 7 3 8 82 9 4 10 62 11 63 12 64 13
REMARK SMILES IDX 65 15 66 16 67 17 68 18 80 19 69 20 70 21 79 22 81 23 71 24
REMARK SMILES IDX 72 25 73 26 77 27 74 28 76 29 78 30 75 31 10 32 11 33 12 34
REMARK SMILES IDX 13 35 14 36 15 37 61 38 16 39 60 40 17 41 18 42 19 43 54 44
REMARK SMILES IDX 20 45 59 46 53 47 55 48 21 49 58 50 52 51 51 52 22 54 44 55
REMARK SMILES IDX 29 56 43 57 30 58 33 59 42 60 56 61 31 62 32 63 41 65 57 66
REMARK SMILES IDX 34 67 23 68 24 69 28 70 25 71 27 72 26 73 45 74 46 75 50 76
REMARK SMILES IDX 47 77 49 78 48 79 35 80 36 81 40 82 37 83 39 84 38 85
REMARK H PARENT 63 14 55 53 33 64
REMARK Flexibility Score: inf
ROOT
ATOM      1  C   UNL     1      -5.450   2.258  -1.794  1.00  0.00     0.275 C 
ENDROOT
BRANCH   1   2
ATOM      2  O   UNL     1      -3.847   1.407  -0.979  1.00  0.00    -0.458 OA
BRANCH   2   3
ATOM      3  C   UNL     1      -3.547  -0.053   0.235  1.00  0.00     0.340 C 
ATOM      4  O   UNL     1      -4.516  -0.584   0.794  1.00  0.00    -0.246 OA
BRANCH   3   5
ATOM      5  C   UNL     1      -1.396  -0.107   0.592  1.00  0.00     0.083 A 
ATOM      6  C   UNL     1       2.870   0.799  -0.111  1.00  0.00     0.044 C 
ATOM      7  C   UNL     1       1.381   0.721   0.177  1.00  0.00    -0.049 A 
ATOM      8  C   UNL     1       0.952  -0.638   0.391  1.00  0.00     0.004 A 
ATOM      9  C   UNL     1       0.512   1.867   0.177  1.00  0.00     0.030 A 
ATOM     10  C   UNL     1      -0.354  -1.066   0.638  1.00  0.00     0.018 A 
ATOM     11  C   UNL     1      -0.844   1.605   0.336  1.00  0.00     0.056 A 
BRANCH  11  12
ATOM     12  N   UNL     1      -2.174   2.868   0.049  1.00  0.00    -0.324 N 
ATOM     13  C   UNL     1      -3.976   2.854   0.193  1.00  0.00     0.244 C 
ATOM     14  H   UNL     1      -1.819   3.738  -0.246  1.00  0.00     0.170 HD
ATOM     15  O   UNL     1      -4.446   3.960   0.532  1.00  0.00    -0.273 OA
BRANCH  13  16
ATOM     16  C   UNL     1      -5.280   1.287  -0.172  1.00  0.00     0.227 C 
BRANCH  16  17
ATOM     17  N   UNL     1      -4.891   0.421  -2.067  1.00  0.00    -0.283 N 
ATOM     18  C   UNL     1      -3.779   1.045  -3.039  1.00  0.00     0.266 C 
ATOM     19  C   UNL     1      -5.518  -0.539  -3.147  1.00  0.00     0.148 C 
ATOM     20  O   UNL     1      -3.214   2.144  -3.057  1.00  0.00    -0.268 OA
ATOM     21  C   UNL     1      -3.609   0.220  -4.212  1.00  0.00     0.081 C 
ATOM     22  S   UNL     1      -5.165   0.026  -4.794  1.00  0.00    -0.054 SA
ATOM     23  S   UNL     1      -6.301  -2.061  -3.331  1.00  0.00    -0.052 S 
ATOM     24  C   UNL     1      -2.446  -0.359  -4.503  1.00  0.00     0.029 C 
BRANCH  24  25
ATOM     25  C   UNL     1      -2.284  -1.337  -5.572  1.00  0.00    -0.021 A 
ATOM     26  C   UNL     1      -1.809  -2.615  -5.230  1.00  0.00     0.008 A 
ATOM     27  C   UNL     1      -2.582  -1.030  -6.912  1.00  0.00    -0.044 A 
ATOM     28  C   UNL     1      -1.639  -3.588  -6.213  1.00  0.00     0.001 A 
ATOM     29  C   UNL     1      -2.418  -2.027  -7.881  1.00  0.00     0.004 A 
ATOM     30  C   UNL     1      -3.118   0.303  -7.365  1.00  0.00     0.045 C 
ATOM     31  C   UNL     1      -1.944  -3.292  -7.538  1.00  0.00     0.000 A 
ENDBRANCH  24  25
ENDBRANCH  16  17
ENDBRANCH  13  16
ENDBRANCH  11  12
ENDBRANCH   3   5
ENDBRANCH   2   3
ENDBRANCH   1   2
BRANCH   1  32
ATOM     32  C   UNL     1      -6.833   0.872  -1.599  1.00  0.00     0.275 C 
BRANCH  32  33
ATOM     33  O   UNL     1      -6.124  -0.713  -0.937  1.00  0.00    -0.458 OA
BRANCH  33  34
ATOM     34  C   UNL     1      -4.681  -1.616  -1.052  1.00  0.00     0.338 C 
ATOM     35  O   UNL     1      -4.907  -2.808  -0.795  1.00  0.00    -0.246 OA
BRANCH  34  36
ATOM     36  C   UNL     1      -2.811  -1.170  -1.178  1.00  0.00     0.060 A 
ATOM     37  C   UNL     1      -2.649  -2.137   0.192  1.00  0.00     0.016 A 
ATOM     38  C   UNL     1      -2.291   0.554  -0.811  1.00  0.00     0.016 A 
ATOM     39  C   UNL     1      -2.692  -1.626   1.835  1.00  0.00     0.010 A 
ATOM     40  C   UNL     1      -2.652   1.127   1.112  1.00  0.00     0.010 A 
ATOM     41  C   UNL     1      -2.863  -0.068   2.340  1.00  0.00    -0.014 A 
BRANCH  41  42
ATOM     42  C   UNL     1      -3.917   0.325   3.378  1.00  0.00     0.031 A 
ATOM     43  C   UNL     1      -3.517   1.582   4.130  1.00  0.00     0.074 A 
ATOM     44  C   UNL     1      -5.062  -0.445   3.492  1.00  0.00     0.049 A 
ATOM     45  N   UNL     1      -3.007   1.576   5.331  1.00  0.00    -0.248 NA
ATOM     46  C   UNL     1      -3.293   2.936   3.525  1.00  0.00     0.031 C 
ATOM     47  C   UNL     1      -6.325  -0.323   4.242  1.00  0.00     0.029 A 
ATOM     48  N   UNL     1      -5.256  -1.717   2.903  1.00  0.00    -0.354 N 
ATOM     49  C   UNL     1      -2.958   2.925   5.679  1.00  0.00     0.074 A 
ATOM     50  C   UNL     1      -2.631   3.592   4.475  1.00  0.00     0.031 C 
ATOM     51  C   UNL     1      -6.918  -1.538   4.367  1.00  0.00     0.029 A 
ATOM     52  C   UNL     1      -6.130  -2.521   3.640  1.00  0.00     0.049 A 
ATOM     53  H   UNL     1      -4.824  -2.004   2.066  1.00  0.00     0.167 HD
ATOM     54  C   UNL     1      -3.847   3.432   6.591  1.00  0.00     0.031 A 
ATOM     55  C   UNL     1      -5.669  -3.703   4.147  1.00  0.00     0.031 A 
ATOM     56  C   UNL     1      -4.699   2.353   7.069  1.00  0.00     0.049 A 
ATOM     57  C   UNL     1      -5.143  -3.426   5.536  1.00  0.00     0.074 A 
ATOM     58  C   UNL     1      -6.022   2.022   6.840  1.00  0.00     0.029 A 
ATOM     59  N   UNL     1      -4.082   1.208   7.536  1.00  0.00    -0.354 N 
ATOM     60  N   UNL     1      -4.807  -2.230   5.943  1.00  0.00    -0.248 NA
ATOM     61  C   UNL     1      -5.068  -4.426   6.598  1.00  0.00     0.031 C 
ATOM     62  C   UNL     1      -6.176   0.642   7.173  1.00  0.00     0.029 A 
ATOM     63  C   UNL     1      -4.941   0.137   7.544  1.00  0.00     0.049 A 
ATOM     64  H   UNL     1      -3.143   1.166   7.827  1.00  0.00     0.167 HD
ATOM     65  C   UNL     1      -4.622  -2.252   7.289  1.00  0.00     0.074 A 
ATOM     66  C   UNL     1      -4.752  -3.652   7.651  1.00  0.00     0.031 C 
ATOM     67  C   UNL     1      -4.443  -1.133   8.044  1.00  0.00     0.031 A 
BRANCH  54  68
ATOM     68  C   UNL     1      -4.194   4.903   6.794  1.00  0.00    -0.014 A 
ATOM     69  C   UNL     1      -5.219   5.217   7.706  1.00  0.00     0.009 A 
ATOM     70  C   UNL     1      -3.576   6.012   6.178  1.00  0.00     0.009 A 
ATOM     71  C   UNL     1      -5.608   6.535   7.982  1.00  0.00     0.001 A 
ATOM     72  C   UNL     1      -3.967   7.337   6.441  1.00  0.00     0.001 A 
ATOM     73  C   UNL     1      -4.980   7.598   7.351  1.00  0.00     0.000 A 
ENDBRANCH  54  68
BRANCH  55  74
ATOM     74  C   UNL     1      -5.008  -4.552   3.106  1.00  0.00    -0.014 A 
ATOM     75  C   UNL     1      -5.805  -4.979   2.018  1.00  0.00     0.009 A 
ATOM     76  C   UNL     1      -3.619  -4.609   2.967  1.00  0.00     0.009 A 
ATOM     77  C   UNL     1      -5.235  -5.261   0.775  1.00  0.00     0.001 A 
ATOM     78  C   UNL     1      -3.047  -4.933   1.726  1.00  0.00     0.001 A 
ATOM     79  C   UNL     1      -3.856  -5.207   0.622  1.00  0.00     0.000 A 
ENDBRANCH  55  74
BRANCH  67  80
ATOM     80  C   UNL     1      -3.815  -1.158   9.407  1.00  0.00    -0.014 A 
ATOM     81  C   UNL     1      -3.075  -2.241   9.886  1.00  0.00     0.009 A 
ATOM     82  C   UNL     1      -3.838   0.003  10.212  1.00  0.00     0.009 A 
ATOM     83  C   UNL     1      -2.527  -2.227  11.167  1.00  0.00     0.001 A 
ATOM     84  C   UNL     1      -3.195   0.064  11.441  1.00  0.00     0.001 A 
ATOM     85  C   UNL     1      -2.583  -1.073  11.941  1.00  0.00     0.000 A 
ENDBRANCH  67  80
ENDBRANCH  41  42
ENDBRANCH  34  36
ENDBRANCH  33  34
ENDBRANCH  32  33
ENDBRANCH   1  32
TORSDOF 15
