REMARK SMILES O=C(OCCOC(=O)c1nnn(-c2cccc(Br)c2)c1[C@@H]1COc2ccccc2O1)c1ccc(-c2c3nc(c(-c4ccccc4)c4ccc([nH]4)c(-c4ccccc4)c4nc(c(-c5ccccc5)c5ccc2[nH]5)C=C4)C=C3)cc1
REMARK SMILES IDX 4 1 3 2 2 3 1 4 31 5 32 6 78 7 33 8 77 9 34 10 35 11 36 12
REMARK SMILES IDX 71 13 37 14 76 15 70 16 72 17 38 18 75 19 69 20 68 21 39 23
REMARK SMILES IDX 61 24 46 25 60 26 47 27 50 28 59 29 73 30 48 31 49 32 58 34
REMARK SMILES IDX 74 35 51 36 40 37 41 38 45 39 42 40 44 41 43 42 62 43 63 44
REMARK SMILES IDX 67 45 64 46 66 47 65 48 52 49 53 50 57 51 54 52 56 53 55 54
REMARK SMILES IDX 5 55 6 56 7 57 8 58 9 59 10 60 20 61 11 62 12 63 21 64 22 65
REMARK SMILES IDX 30 66 23 67 29 68 24 69 28 70 25 71 27 72 26 73 13 74 14 75
REMARK SMILES IDX 19 76 15 77 17 78 16 79 18 80
REMARK H PARENT 72 22 50 33
REMARK Flexibility Score: inf
ROOT
ATOM      1  C   UNL     1       4.040  -1.625  -0.518  1.00  0.00     0.275 C 
ENDROOT
BRANCH   1   2
ATOM      2  O   UNL     1       2.816  -2.313  -0.211  1.00  0.00    -0.458 OA
BRANCH   2   3
ATOM      3  C   UNL     1       1.724  -1.576   0.092  1.00  0.00     0.338 C 
ATOM      4  O   UNL     1       0.769  -1.459  -0.659  1.00  0.00    -0.246 OA
BRANCH   3   5
ATOM      5  C   UNL     1       1.716  -1.082   1.491  1.00  0.00     0.060 A 
ATOM      6  C   UNL     1       2.796  -1.292   2.359  1.00  0.00     0.016 A 
ATOM      7  C   UNL     1       0.562  -0.427   1.943  1.00  0.00     0.016 A 
ATOM      8  C   UNL     1       2.707  -0.911   3.679  1.00  0.00     0.010 A 
ATOM      9  C   UNL     1       0.453  -0.075   3.279  1.00  0.00     0.010 A 
ATOM     10  C   UNL     1       1.510  -0.374   4.141  1.00  0.00    -0.014 A 
BRANCH  10  11
ATOM     11  C   UNL     1       1.370  -0.319   5.582  1.00  0.00     0.031 A 
ATOM     12  C   UNL     1       2.083   0.764   6.295  1.00  0.00     0.074 A 
ATOM     13  C   UNL     1       0.635  -1.261   6.203  1.00  0.00     0.049 A 
ATOM     14  N   UNL     1       2.968   0.650   7.233  1.00  0.00    -0.248 NA
ATOM     15  C   UNL     1       1.818   2.146   5.875  1.00  0.00     0.031 C 
ATOM     16  C   UNL     1      -0.276  -2.228   5.580  1.00  0.00     0.029 A 
ATOM     17  N   UNL     1       0.455  -1.472   7.535  1.00  0.00    -0.354 N 
ATOM     18  C   UNL     1       3.247   1.948   7.651  1.00  0.00     0.074 A 
ATOM     19  C   UNL     1       2.599   2.829   6.711  1.00  0.00     0.031 C 
ATOM     20  C   UNL     1      -1.091  -2.734   6.527  1.00  0.00     0.029 A 
ATOM     21  C   UNL     1      -0.674  -2.223   7.821  1.00  0.00     0.049 A 
ATOM     22  H   UNL     1       1.065  -1.126   8.226  1.00  0.00     0.167 HD
ATOM     23  C   UNL     1       3.793   2.206   8.872  1.00  0.00     0.031 A 
ATOM     24  C   UNL     1      -1.291  -2.329   9.020  1.00  0.00     0.031 A 
ATOM     25  C   UNL     1       4.484   1.067   9.415  1.00  0.00     0.049 A 
ATOM     26  C   UNL     1      -0.330  -1.924  10.070  1.00  0.00     0.074 A 
ATOM     27  C   UNL     1       5.550   0.286   9.014  1.00  0.00     0.029 A 
ATOM     28  N   UNL     1       3.875   0.372  10.431  1.00  0.00    -0.354 N 
ATOM     29  N   UNL     1       0.720  -2.622  10.397  1.00  0.00    -0.248 NA
ATOM     30  C   UNL     1      -0.301  -0.529  10.483  1.00  0.00     0.031 C 
ATOM     31  C   UNL     1       5.248  -1.026   9.482  1.00  0.00     0.029 A 
ATOM     32  C   UNL     1       4.032  -0.961  10.165  1.00  0.00     0.049 A 
ATOM     33  H   UNL     1       3.411   0.761  11.207  1.00  0.00     0.167 HD
ATOM     34  C   UNL     1       1.705  -1.681  10.659  1.00  0.00     0.074 A 
ATOM     35  C   UNL     1       0.988  -0.419  10.819  1.00  0.00     0.031 C 
ATOM     36  C   UNL     1       3.024  -1.960  10.437  1.00  0.00     0.031 A 
BRANCH  23  37
ATOM     37  C   UNL     1       3.315   3.343   9.748  1.00  0.00    -0.014 A 
ATOM     38  C   UNL     1       3.897   3.509  11.019  1.00  0.00     0.009 A 
ATOM     39  C   UNL     1       2.119   4.046   9.507  1.00  0.00     0.009 A 
ATOM     40  C   UNL     1       3.256   4.244  12.024  1.00  0.00     0.001 A 
ATOM     41  C   UNL     1       1.500   4.818  10.493  1.00  0.00     0.001 A 
ATOM     42  C   UNL     1       2.050   4.886  11.764  1.00  0.00     0.000 A 
ENDBRANCH  23  37
BRANCH  24  43
ATOM     43  C   UNL     1      -2.743  -2.461   9.254  1.00  0.00    -0.014 A 
ATOM     44  C   UNL     1      -3.240  -2.885  10.492  1.00  0.00     0.009 A 
ATOM     45  C   UNL     1      -3.663  -1.947   8.318  1.00  0.00     0.009 A 
ATOM     46  C   UNL     1      -4.606  -2.780  10.788  1.00  0.00     0.001 A 
ATOM     47  C   UNL     1      -5.026  -1.852   8.608  1.00  0.00     0.001 A 
ATOM     48  C   UNL     1      -5.495  -2.257   9.850  1.00  0.00     0.000 A 
ENDBRANCH  24  43
BRANCH  36  49
ATOM     49  C   UNL     1       3.405  -3.389  10.145  1.00  0.00    -0.014 A 
ATOM     50  C   UNL     1       2.919  -4.083   9.023  1.00  0.00     0.009 A 
ATOM     51  C   UNL     1       4.400  -3.995  10.925  1.00  0.00     0.009 A 
ATOM     52  C   UNL     1       3.389  -5.363   8.713  1.00  0.00     0.001 A 
ATOM     53  C   UNL     1       4.885  -5.265  10.603  1.00  0.00     0.001 A 
ATOM     54  C   UNL     1       4.376  -5.951   9.502  1.00  0.00     0.000 A 
ENDBRANCH  36  49
ENDBRANCH  10  11
ENDBRANCH   3   5
ENDBRANCH   2   3
ENDBRANCH   1   2
BRANCH   1  55
ATOM     55  C   UNL     1       3.908  -0.192  -1.014  1.00  0.00     0.275 C 
BRANCH  55  56
ATOM     56  O   UNL     1       3.553   0.760   0.003  1.00  0.00    -0.457 OA
BRANCH  56  57
ATOM     57  C   UNL     1       2.651   1.713  -0.383  1.00  0.00     0.361 C 
ATOM     58  O   UNL     1       1.937   1.646  -1.377  1.00  0.00    -0.244 OA
BRANCH  57  59
ATOM     59  C   UNL     1       2.679   2.888   0.464  1.00  0.00     0.198 A 
ATOM     60  N   UNL     1       2.109   2.918   1.709  1.00  0.00    -0.122 NA
ATOM     61  C   UNL     1       3.286   4.112   0.201  1.00  0.00     0.123 A 
ATOM     62  N   UNL     1       2.337   4.111   2.238  1.00  0.00    -0.061 NA
ATOM     63  N   UNL     1       2.947   4.880   1.305  1.00  0.00    -0.213 N 
BRANCH  61  64
ATOM     64  C   UNL     1       4.255   4.551  -0.856  1.00  0.00     0.262 C 
ATOM     65  C   UNL     1       3.714   4.624  -2.284  1.00  0.00     0.281 C 
ATOM     66  O   UNL     1       5.444   3.764  -0.708  1.00  0.00    -0.477 OA
ATOM     67  O   UNL     1       3.649   3.364  -2.943  1.00  0.00    -0.485 OA
ATOM     68  C   UNL     1       5.674   2.863  -1.707  1.00  0.00     0.162 A 
ATOM     69  C   UNL     1       4.805   2.655  -2.778  1.00  0.00     0.161 A 
ATOM     70  C   UNL     1       6.816   2.071  -1.576  1.00  0.00     0.050 A 
ATOM     71  C   UNL     1       5.048   1.627  -3.690  1.00  0.00     0.050 A 
ATOM     72  C   UNL     1       7.074   1.054  -2.499  1.00  0.00     0.004 A 
ATOM     73  C   UNL     1       6.184   0.826  -3.551  1.00  0.00     0.004 A 
ENDBRANCH  61  64
BRANCH  63  74
ATOM     74  C   UNL     1       3.202   6.248   1.561  1.00  0.00     0.068 A 
ATOM     75  C   UNL     1       3.056   7.209   0.549  1.00  0.00     0.028 A 
ATOM     76  C   UNL     1       3.629   6.630   2.839  1.00  0.00     0.044 A 
ATOM     77  C   UNL     1       3.392   8.540   0.802  1.00  0.00     0.003 A 
ATOM     78  C   UNL     1       3.991   7.957   3.067  1.00  0.00     0.020 A 
ATOM     79  C   UNL     1       3.879   8.911   2.056  1.00  0.00     0.016 A 
ATOM     80  Br  UNL     1       4.685   8.459   4.753  1.00  0.00    -0.051 Br
ENDBRANCH  63  74
ENDBRANCH  57  59
ENDBRANCH  56  57
ENDBRANCH  55  56
ENDBRANCH   1  55
TORSDOF 13
