REMARK SMILES CCn1cc(S(=O)(=O)N2CCC(CCc3ccc(C(=O)OCCOC(=O)c4ccc(-c5c6nc(c(-c7ccccc7)c7ccc([nH]7)c(-c7ccccc7)c7nc(c(-c8ccccc8)c8ccc5[nH]8)C=C7)C=C6)cc4)cc3)CC2)cn1
REMARK SMILES IDX 19 1 20 2 18 3 15 4 16 5 76 6 17 7 75 8 14 9 13 10 12 11
REMARK SMILES IDX 9 12 10 13 78 14 11 15 77 16 6 17 7 18 8 19 5 20 3 21 4 22
REMARK SMILES IDX 80 23 79 24 2 25 1 26 21 27 22 28 23 29 24 30 25 31 26 32
REMARK SMILES IDX 27 33 28 34 74 35 29 36 73 37 30 38 31 39 32 40 67 41 33 42
REMARK SMILES IDX 72 43 66 44 68 45 34 46 71 47 65 48 64 49 35 51 57 52 42 53
REMARK SMILES IDX 56 54 43 55 46 56 55 57 69 58 44 59 45 60 54 62 70 63 47 64
REMARK SMILES IDX 36 65 37 66 41 67 38 68 40 69 39 70 58 71 59 72 63 73 60 74
REMARK SMILES IDX 62 75 61 76 48 77 49 78 53 79 50 80 52 81 51 82
REMARK H PARENT 68 50 46 61
REMARK Flexibility Score: inf
ROOT
ATOM      1  C   UNL     1       3.216   4.536  -4.252  1.00  0.00     0.338 C 
ATOM      2  O   UNL     1       3.274   5.646  -4.757  1.00  0.00    -0.246 OA
ENDROOT
BRANCH   1   3
ATOM      3  C   UNL     1       4.189   3.458  -4.534  1.00  0.00     0.060 A 
ATOM      4  C   UNL     1       6.081   1.446  -5.083  1.00  0.00    -0.048 A 
ATOM      5  C   UNL     1       6.433   2.800  -5.176  1.00  0.00     0.004 A 
ATOM      6  C   UNL     1       4.754   1.129  -4.753  1.00  0.00     0.004 A 
ATOM      7  C   UNL     1       5.489   3.800  -4.921  1.00  0.00     0.016 A 
ATOM      8  C   UNL     1       3.825   2.118  -4.437  1.00  0.00     0.016 A 
BRANCH   4   9
ATOM      9  C   UNL     1       7.104   0.373  -5.399  1.00  0.00     0.036 C 
BRANCH   9  10
ATOM     10  C   UNL     1       7.489  -0.578  -4.244  1.00  0.00     0.008 C 
BRANCH  10  11
ATOM     11  C   UNL     1       6.356  -1.473  -3.717  1.00  0.00    -0.008 C 
ATOM     12  N   UNL     1       4.783  -3.812  -3.030  1.00  0.00    -0.198 NA
ATOM     13  C   UNL     1       4.510  -3.073  -4.284  1.00  0.00     0.103 C 
ATOM     14  C   UNL     1       5.556  -3.089  -1.984  1.00  0.00     0.103 C 
ATOM     15  C   UNL     1       5.750  -2.365  -4.806  1.00  0.00     0.020 C 
ATOM     16  C   UNL     1       6.786  -2.387  -2.565  1.00  0.00     0.020 C 
BRANCH  12  17
ATOM     17  S   UNL     1       3.444  -4.707  -2.446  1.00  0.00     0.246 S 
ATOM     18  O   UNL     1       3.830  -5.388  -1.237  1.00  0.00    -0.207 OA
ATOM     19  O   UNL     1       2.844  -5.409  -3.567  1.00  0.00    -0.207 OA
BRANCH  17  20
ATOM     20  C   UNL     1       2.194  -3.647  -1.936  1.00  0.00     0.120 A 
ATOM     21  N   UNL     1       0.933  -1.942  -1.406  1.00  0.00    -0.272 N 
ATOM     22  C   UNL     1       2.160  -2.269  -1.908  1.00  0.00     0.130 A 
ATOM     23  N   UNL     1       0.168  -3.012  -1.120  1.00  0.00    -0.180 NA
ATOM     24  C   UNL     1       0.944  -4.054  -1.445  1.00  0.00     0.156 A 
BRANCH  21  25
ATOM     25  C   UNL     1       0.435  -0.600  -1.171  1.00  0.00     0.141 C 
ATOM     26  C   UNL     1       0.958  -0.023   0.132  1.00  0.00     0.029 C 
ENDBRANCH  21  25
ENDBRANCH  17  20
ENDBRANCH  12  17
ENDBRANCH  10  11
ENDBRANCH   9  10
ENDBRANCH   4   9
ENDBRANCH   1   3
BRANCH   1  27
ATOM     27  O   UNL     1       2.339   4.124  -3.298  1.00  0.00    -0.458 OA
BRANCH  27  28
ATOM     28  C   UNL     1       1.502   5.150  -2.746  1.00  0.00     0.275 C 
BRANCH  28  29
ATOM     29  C   UNL     1       2.174   5.838  -1.567  1.00  0.00     0.275 C 
BRANCH  29  30
ATOM     30  O   UNL     1       3.293   6.630  -1.965  1.00  0.00    -0.458 OA
BRANCH  30  31
ATOM     31  C   UNL     1       4.498   6.038  -1.804  1.00  0.00     0.338 C 
ATOM     32  O   UNL     1       4.741   4.843  -1.765  1.00  0.00    -0.246 OA
BRANCH  31  33
ATOM     33  C   UNL     1       5.472   7.060  -1.402  1.00  0.00     0.060 A 
ATOM     34  C   UNL     1       6.824   6.711  -1.364  1.00  0.00     0.016 A 
ATOM     35  C   UNL     1       5.010   8.259  -0.837  1.00  0.00     0.016 A 
ATOM     36  C   UNL     1       7.696   7.519  -0.656  1.00  0.00     0.010 A 
ATOM     37  C   UNL     1       5.874   9.052  -0.117  1.00  0.00     0.010 A 
ATOM     38  C   UNL     1       7.202   8.653   0.009  1.00  0.00    -0.014 A 
BRANCH  38  39
ATOM     39  C   UNL     1       8.153   9.579   0.605  1.00  0.00     0.031 A 
ATOM     40  C   UNL     1       8.986  10.208  -0.448  1.00  0.00     0.074 A 
ATOM     41  C   UNL     1       8.155   9.934   1.908  1.00  0.00     0.049 A 
ATOM     42  N   UNL     1      10.241  10.001  -0.666  1.00  0.00    -0.248 NA
ATOM     43  C   UNL     1       8.315  10.972  -1.521  1.00  0.00     0.031 C 
ATOM     44  C   UNL     1       7.169   9.546   2.923  1.00  0.00     0.029 A 
ATOM     45  N   UNL     1       8.959  10.803   2.594  1.00  0.00    -0.354 N 
ATOM     46  C   UNL     1      10.569  10.854  -1.715  1.00  0.00     0.074 A 
ATOM     47  C   UNL     1       9.331  11.215  -2.349  1.00  0.00     0.031 C 
ATOM     48  C   UNL     1       7.278  10.365   3.994  1.00  0.00     0.029 A 
ATOM     49  C   UNL     1       8.420  11.243   3.803  1.00  0.00     0.049 A 
ATOM     50  H   UNL     1       9.840  11.093   2.263  1.00  0.00     0.167 HD
ATOM     51  C   UNL     1      11.751  11.527  -1.669  1.00  0.00     0.031 A 
ATOM     52  C   UNL     1       8.850  12.280   4.570  1.00  0.00     0.031 A 
ATOM     53  C   UNL     1      12.650  10.910  -0.725  1.00  0.00     0.049 A 
ATOM     54  C   UNL     1      10.251  12.560   4.199  1.00  0.00     0.074 A 
ATOM     55  C   UNL     1      13.402   9.760  -0.635  1.00  0.00     0.029 A 
ATOM     56  N   UNL     1      12.469  11.378   0.547  1.00  0.00    -0.354 N 
ATOM     57  N   UNL     1      11.231  11.749   4.471  1.00  0.00    -0.248 NA
ATOM     58  C   UNL     1      10.536  13.580   3.197  1.00  0.00     0.031 C 
ATOM     59  C   UNL     1      13.588   9.514   0.761  1.00  0.00     0.029 A 
ATOM     60  C   UNL     1      13.008  10.551   1.487  1.00  0.00     0.049 A 
ATOM     61  H   UNL     1      12.000  12.217   0.760  1.00  0.00     0.167 HD
ATOM     62  C   UNL     1      12.056  11.847   3.369  1.00  0.00     0.074 A 
ATOM     63  C   UNL     1      11.689  13.102   2.721  1.00  0.00     0.031 C 
ATOM     64  C   UNL     1      12.698  10.744   2.885  1.00  0.00     0.031 A 
BRANCH  51  65
ATOM     65  C   UNL     1      11.836  13.026  -1.920  1.00  0.00    -0.014 A 
ATOM     66  C   UNL     1      13.086  13.653  -1.767  1.00  0.00     0.009 A 
ATOM     67  C   UNL     1      10.713  13.879  -1.966  1.00  0.00     0.009 A 
ATOM     68  C   UNL     1      13.196  15.042  -1.610  1.00  0.00     0.001 A 
ATOM     69  C   UNL     1      10.821  15.267  -1.839  1.00  0.00     0.001 A 
ATOM     70  C   UNL     1      12.062  15.847  -1.639  1.00  0.00     0.000 A 
ENDBRANCH  51  65
BRANCH  52  71
ATOM     71  C   UNL     1       8.093  13.209   5.445  1.00  0.00    -0.014 A 
ATOM     72  C   UNL     1       8.763  14.061   6.344  1.00  0.00     0.009 A 
ATOM     73  C   UNL     1       6.739  13.480   5.187  1.00  0.00     0.009 A 
ATOM     74  C   UNL     1       8.120  15.172   6.910  1.00  0.00     0.001 A 
ATOM     75  C   UNL     1       6.095  14.587   5.754  1.00  0.00     0.001 A 
ATOM     76  C   UNL     1       6.791  15.445   6.599  1.00  0.00     0.000 A 
ENDBRANCH  52  71
BRANCH  64  77
ATOM     77  C   UNL     1      12.981   9.625   3.841  1.00  0.00    -0.014 A 
ATOM     78  C   UNL     1      11.998   8.879   4.509  1.00  0.00     0.009 A 
ATOM     79  C   UNL     1      14.329   9.286   4.034  1.00  0.00     0.009 A 
ATOM     80  C   UNL     1      12.364   7.843   5.376  1.00  0.00     0.001 A 
ATOM     81  C   UNL     1      14.692   8.240   4.880  1.00  0.00     0.001 A 
ATOM     82  C   UNL     1      13.710   7.525   5.559  1.00  0.00     0.000 A 
ENDBRANCH  64  77
ENDBRANCH  38  39
ENDBRANCH  31  33
ENDBRANCH  30  31
ENDBRANCH  29  30
ENDBRANCH  28  29
ENDBRANCH  27  28
ENDBRANCH   1  27
TORSDOF 17
