REMARK SMILES Cc1cc(C)c2c(=O)n(CCCC(=O)OCCOC(=O)c3ccc(-c4c5nc(c(-c6ccccc6)c6ccc([nH]6)c(-c6ccccc6)c6nc(c(-c7ccccc7)c7ccc4[nH]7)C=C6)C=C5)cc3)sc2n1
REMARK SMILES IDX 16 1 15 2 13 3 14 4 12 5 11 6 10 7 9 8 1 9 2 10 3 11 71 12
REMARK SMILES IDX 4 13 70 14 5 15 6 16 69 17 7 18 8 19 17 20 18 21 19 22 20 23
REMARK SMILES IDX 21 24 22 25 68 26 23 27 67 28 24 29 25 30 26 31 61 32 27 33
REMARK SMILES IDX 66 34 60 35 62 36 28 37 65 38 59 39 58 40 29 42 51 43 36 44
REMARK SMILES IDX 50 45 37 46 40 47 49 48 63 49 38 50 39 51 48 53 64 54 41 55
REMARK SMILES IDX 30 56 31 57 35 58 32 59 34 60 33 61 52 62 53 63 57 64 54 65
REMARK SMILES IDX 56 66 55 67 42 68 43 69 47 70 44 71 46 72 45 73
REMARK H PARENT 62 41 40 52
REMARK Flexibility Score: inf
ROOT
ATOM      1  C   UNL     1       1.810   5.506  -5.779  1.00  0.00     0.274 C 
ENDROOT
BRANCH   1   2
ATOM      2  O   UNL     1       0.561   4.829  -5.559  1.00  0.00    -0.462 OA
BRANCH   2   3
ATOM      3  C   UNL     1      -0.448   5.468  -4.923  1.00  0.00     0.305 C 
ATOM      4  O   UNL     1      -0.366   6.601  -4.461  1.00  0.00    -0.252 OA
BRANCH   3   5
ATOM      5  C   UNL     1      -1.696   4.611  -4.785  1.00  0.00     0.124 C 
BRANCH   5   6
ATOM      6  C   UNL     1      -2.033   3.562  -5.857  1.00  0.00     0.035 C 
BRANCH   6   7
ATOM      7  C   UNL     1      -0.961   2.551  -6.299  1.00  0.00     0.139 C 
BRANCH   7   8
ATOM      8  N   UNL     1      -0.426   1.719  -5.233  1.00  0.00    -0.262 N 
ATOM      9  C   UNL     1       1.196  -0.461   0.195  1.00  0.00     0.067 C 
ATOM     10  C   UNL     1       0.767  -0.394  -1.237  1.00  0.00     0.039 A 
ATOM     11  C   UNL     1       0.263  -1.514  -1.915  1.00  0.00     0.027 A 
ATOM     12  N   UNL     1       0.918   0.807  -1.830  1.00  0.00    -0.241 NA
ATOM     13  C   UNL     1      -0.191  -1.393  -3.240  1.00  0.00    -0.033 A 
ATOM     14  C   UNL     1       0.469   0.888  -3.089  1.00  0.00     0.146 A 
ATOM     15  C   UNL     1      -0.709  -2.571  -4.000  1.00  0.00     0.045 C 
ATOM     16  C   UNL     1      -0.129  -0.129  -3.806  1.00  0.00     0.081 A 
ATOM     17  S   UNL     1       0.588   2.368  -4.017  1.00  0.00    -0.035 S 
ATOM     18  C   UNL     1      -0.678   0.362  -5.092  1.00  0.00     0.270 A 
ATOM     19  O   UNL     1      -1.305  -0.349  -5.864  1.00  0.00    -0.268 OA
ENDBRANCH   7   8
ENDBRANCH   6   7
ENDBRANCH   5   6
ENDBRANCH   3   5
ENDBRANCH   2   3
ENDBRANCH   1   2
BRANCH   1  20
ATOM     20  C   UNL     1       1.859   6.044  -7.199  1.00  0.00     0.275 C 
BRANCH  20  21
ATOM     21  O   UNL     1       0.886   7.075  -7.341  1.00  0.00    -0.458 OA
BRANCH  21  22
ATOM     22  C   UNL     1      -0.350   6.639  -7.665  1.00  0.00     0.338 C 
ATOM     23  O   UNL     1      -0.703   5.490  -7.877  1.00  0.00    -0.246 OA
BRANCH  22  24
ATOM     24  C   UNL     1      -1.235   7.784  -7.855  1.00  0.00     0.060 A 
ATOM     25  C   UNL     1      -2.595   7.511  -8.035  1.00  0.00     0.016 A 
ATOM     26  C   UNL     1      -0.662   9.016  -8.191  1.00  0.00     0.016 A 
ATOM     27  C   UNL     1      -3.333   8.390  -8.791  1.00  0.00     0.010 A 
ATOM     28  C   UNL     1      -1.392   9.879  -8.964  1.00  0.00     0.010 A 
ATOM     29  C   UNL     1      -2.680   9.501  -9.333  1.00  0.00    -0.014 A 
BRANCH  29  30
ATOM     30  C   UNL     1      -3.360  10.249 -10.359  1.00  0.00     0.031 A 
ATOM     31  C   UNL     1      -4.371  11.198  -9.870  1.00  0.00     0.074 A 
ATOM     32  C   UNL     1      -3.010  10.158 -11.653  1.00  0.00     0.049 A 
ATOM     33  N   UNL     1      -5.642  11.166 -10.084  1.00  0.00    -0.248 NA
ATOM     34  C   UNL     1      -3.924  12.251  -8.950  1.00  0.00     0.031 C 
ATOM     35  C   UNL     1      -1.848   9.492 -12.248  1.00  0.00     0.029 A 
ATOM     36  N   UNL     1      -3.598  10.769 -12.710  1.00  0.00    -0.354 N 
ATOM     37  C   UNL     1      -6.157  12.280  -9.437  1.00  0.00     0.074 A 
ATOM     38  C   UNL     1      -5.083  12.834  -8.649  1.00  0.00     0.031 C 
ATOM     39  C   UNL     1      -1.699   9.927 -13.521  1.00  0.00     0.029 A 
ATOM     40  C   UNL     1      -2.826  10.782 -13.858  1.00  0.00     0.049 A 
ATOM     41  H   UNL     1      -4.497  11.169 -12.666  1.00  0.00     0.167 HD
ATOM     42  C   UNL     1      -7.380  12.786  -9.743  1.00  0.00     0.031 A 
ATOM     43  C   UNL     1      -3.078  11.511 -14.970  1.00  0.00     0.031 A 
ATOM     44  C   UNL     1      -8.182  11.858 -10.495  1.00  0.00     0.049 A 
ATOM     45  C   UNL     1      -4.513  11.884 -14.950  1.00  0.00     0.074 A 
ATOM     46  C   UNL     1      -8.699  10.602 -10.243  1.00  0.00     0.029 A 
ATOM     47  N   UNL     1      -8.239  12.021 -11.859  1.00  0.00    -0.354 N 
ATOM     48  N   UNL     1      -5.478  11.022 -15.102  1.00  0.00    -0.248 NA
ATOM     49  C   UNL     1      -4.902  13.145 -14.336  1.00  0.00     0.031 C 
ATOM     50  C   UNL     1      -8.599   9.903 -11.482  1.00  0.00     0.029 A 
ATOM     51  C   UNL     1      -8.060  10.782 -12.424  1.00  0.00     0.049 A 
ATOM     52  H   UNL     1      -8.382  12.867 -12.340  1.00  0.00     0.167 HD
ATOM     53  C   UNL     1      -6.472  11.441 -14.229  1.00  0.00     0.074 A 
ATOM     54  C   UNL     1      -6.115  12.814 -13.883  1.00  0.00     0.031 C 
ATOM     55  C   UNL     1      -7.326  10.544 -13.649  1.00  0.00     0.031 A 
BRANCH  42  56
ATOM     56  C   UNL     1      -7.706  14.247  -9.639  1.00  0.00    -0.014 A 
ATOM     57  C   UNL     1      -9.033  14.666  -9.815  1.00  0.00     0.009 A 
ATOM     58  C   UNL     1      -6.717  15.251  -9.615  1.00  0.00     0.009 A 
ATOM     59  C   UNL     1      -9.347  16.019  -9.992  1.00  0.00     0.001 A 
ATOM     60  C   UNL     1      -7.031  16.604  -9.746  1.00  0.00     0.001 A 
ATOM     61  C   UNL     1      -8.347  16.986  -9.958  1.00  0.00     0.000 A 
ENDBRANCH  42  56
BRANCH  43  62
ATOM     62  C   UNL     1      -2.110  12.117 -15.902  1.00  0.00    -0.014 A 
ATOM     63  C   UNL     1      -2.518  12.559 -17.169  1.00  0.00     0.009 A 
ATOM     64  C   UNL     1      -0.835  12.504 -15.448  1.00  0.00     0.009 A 
ATOM     65  C   UNL     1      -1.694  13.392 -17.936  1.00  0.00     0.001 A 
ATOM     66  C   UNL     1      -0.011  13.331 -16.216  1.00  0.00     0.001 A 
ATOM     67  C   UNL     1      -0.448  13.788 -17.454  1.00  0.00     0.000 A 
ENDBRANCH  43  62
BRANCH  55  68
ATOM     68  C   UNL     1      -7.268   9.114 -14.139  1.00  0.00    -0.014 A 
ATOM     69  C   UNL     1      -6.103   8.331 -14.045  1.00  0.00     0.009 A 
ATOM     70  C   UNL     1      -8.447   8.493 -14.575  1.00  0.00     0.009 A 
ATOM     71  C   UNL     1      -6.105   6.982 -14.415  1.00  0.00     0.001 A 
ATOM     72  C   UNL     1      -8.455   7.138 -14.923  1.00  0.00     0.001 A 
ATOM     73  C   UNL     1      -7.284   6.386 -14.851  1.00  0.00     0.000 A 
ENDBRANCH  55  68
ENDBRANCH  29  30
ENDBRANCH  22  24
ENDBRANCH  21  22
ENDBRANCH  20  21
ENDBRANCH   1  20
TORSDOF 14
