REMARK SMILES O=C(OCCOC(=O)c1ccc(-c2c3nc(c(-c4ccccc4)c4ccc([nH]4)c(-c4ccccc4)c4nc(c(-c5ccccc5)c5ccc2[nH]5)C=C4)C=C3)cc1)C1=Cc2cc(Cl)cc(C#Cc3ccccc3)c2O[C@@H]1C(F)(F)F
REMARK SMILES IDX 4 1 3 2 2 3 1 4 57 5 58 6 75 7 59 8 74 9 60 10 73 11 61 12
REMARK SMILES IDX 64 13 62 14 63 15 76 16 77 17 78 18 79 19 65 20 66 21 67 22
REMARK SMILES IDX 68 23 72 24 69 25 71 26 70 27 5 28 6 29 7 30 8 31 9 32 10 33
REMARK SMILES IDX 56 34 11 35 55 36 12 37 13 38 14 39 49 40 15 41 54 42 48 43
REMARK SMILES IDX 50 44 16 45 53 46 47 47 46 48 17 50 39 51 24 52 38 53 25 54
REMARK SMILES IDX 28 55 37 56 51 57 26 58 27 59 36 61 52 62 29 63 18 64 19 65
REMARK SMILES IDX 23 66 20 67 22 68 21 69 40 70 41 71 45 72 42 73 44 74 43 75
REMARK SMILES IDX 30 76 31 77 35 78 32 79 34 80 33 81
REMARK H PARENT 50 49 28 60
REMARK Flexibility Score: inf
ROOT
ATOM      1  C   UNL     1       3.938  -0.127   1.250  1.00  0.00     0.275 C 
ENDROOT
BRANCH   1   2
ATOM      2  O   UNL     1       3.042   0.772   2.140  1.00  0.00    -0.459 OA
BRANCH   2   3
ATOM      3  C   UNL     1       3.263   2.080   1.960  1.00  0.00     0.338 C 
ATOM      4  O   UNL     1       2.649   3.030   2.372  1.00  0.00    -0.246 OA
BRANCH   3   5
ATOM      5  C   UNL     1       4.130   1.904   0.815  1.00  0.00     0.087 C 
ATOM      6  C   UNL     1       5.484   1.544   1.165  1.00  0.00     0.027 C 
ATOM      7  C   UNL     1       2.894   0.832  -0.186  1.00  0.00     0.316 C 
ATOM      8  C   UNL     1       6.157  -0.080   0.890  1.00  0.00     0.020 A 
ATOM      9  O   UNL     1       3.560  -0.988  -0.396  1.00  0.00    -0.474 OA
ATOM     10  C   UNL     1       7.415  -0.291   1.381  1.00  0.00     0.032 A 
ATOM     11  C   UNL     1       5.223  -1.406   0.264  1.00  0.00     0.143 A 
ATOM     12  C   UNL     1       7.840  -1.617   1.342  1.00  0.00     0.043 A 
ATOM     13  C   UNL     1       5.720  -2.684   0.318  1.00  0.00     0.069 A 
ATOM     14  Cl  UNL     1       9.420  -1.944   1.974  1.00  0.00    -0.084 Cl
ATOM     15  C   UNL     1       7.046  -2.732   0.862  1.00  0.00     0.041 A 
BRANCH   7  16
ATOM     16  C   UNL     1       2.648   2.104  -1.155  1.00  0.00     0.430 C 
ATOM     17  F   UNL     1       1.485   2.051  -1.785  1.00  0.00    -0.167 F 
ATOM     18  F   UNL     1       2.499   3.232  -0.387  1.00  0.00    -0.167 F 
ATOM     19  F   UNL     1       3.637   2.456  -2.007  1.00  0.00    -0.167 F 
ENDBRANCH   7  16
BRANCH  13  20
ATOM     20  C   UNL     1       5.081  -3.922   0.093  1.00  0.00    -0.058 C 
ATOM     21  C   UNL     1       4.762  -5.095   0.115  1.00  0.00    -0.062 C 
BRANCH  21  22
ATOM     22  C   UNL     1       4.490  -6.486   0.263  1.00  0.00     0.025 A 
ATOM     23  C   UNL     1       3.205  -6.901   0.614  1.00  0.00     0.017 A 
ATOM     24  C   UNL     1       5.501  -7.440   0.085  1.00  0.00     0.017 A 
ATOM     25  C   UNL     1       2.918  -8.261   0.746  1.00  0.00     0.001 A 
ATOM     26  C   UNL     1       5.212  -8.802   0.217  1.00  0.00     0.001 A 
ATOM     27  C   UNL     1       3.917  -9.211   0.538  1.00  0.00     0.000 A 
ENDBRANCH  21  22
ENDBRANCH  13  20
ENDBRANCH   3   5
ENDBRANCH   2   3
ENDBRANCH   1   2
BRANCH   1  28
ATOM     28  C   UNL     1       4.750   0.384  -0.704  1.00  0.00     0.275 C 
BRANCH  28  29
ATOM     29  O   UNL     1       3.839   0.228  -2.206  1.00  0.00    -0.458 OA
BRANCH  29  30
ATOM     30  C   UNL     1       2.880  -0.551  -2.834  1.00  0.00     0.338 C 
ATOM     31  O   UNL     1       2.434  -1.635  -2.508  1.00  0.00    -0.246 OA
BRANCH  30  32
ATOM     32  C   UNL     1       2.158   0.337  -3.813  1.00  0.00     0.060 A 
ATOM     33  C   UNL     1       0.814   0.693  -3.570  1.00  0.00     0.016 A 
ATOM     34  C   UNL     1       2.908   1.092  -4.708  1.00  0.00     0.016 A 
ATOM     35  C   UNL     1       0.351   1.974  -3.963  1.00  0.00     0.010 A 
ATOM     36  C   UNL     1       2.434   2.343  -5.117  1.00  0.00     0.010 A 
ATOM     37  C   UNL     1       1.209   2.850  -4.648  1.00  0.00    -0.014 A 
BRANCH  37  38
ATOM     38  C   UNL     1       0.817   4.234  -5.057  1.00  0.00     0.031 A 
ATOM     39  C   UNL     1       0.162   4.353  -6.397  1.00  0.00     0.074 A 
ATOM     40  C   UNL     1       1.141   5.359  -4.375  1.00  0.00     0.049 A 
ATOM     41  N   UNL     1      -0.105   5.417  -7.104  1.00  0.00    -0.248 NA
ATOM     42  C   UNL     1      -0.201   3.080  -7.043  1.00  0.00     0.031 C 
ATOM     43  C   UNL     1       1.770   5.422  -3.056  1.00  0.00     0.029 A 
ATOM     44  N   UNL     1       1.003   6.691  -4.722  1.00  0.00    -0.354 N 
ATOM     45  C   UNL     1      -0.642   4.938  -8.288  1.00  0.00     0.074 A 
ATOM     46  C   UNL     1      -0.629   3.495  -8.220  1.00  0.00     0.031 C 
ATOM     47  C   UNL     1       1.977   6.712  -2.716  1.00  0.00     0.029 A 
ATOM     48  C   UNL     1       1.528   7.580  -3.802  1.00  0.00     0.049 A 
ATOM     49  H   UNL     1       0.567   6.982  -5.556  1.00  0.00     0.167 HD
ATOM     50  C   UNL     1      -1.114   5.632  -9.346  1.00  0.00     0.031 A 
ATOM     51  C   UNL     1       1.647   8.928  -3.843  1.00  0.00     0.031 A 
ATOM     52  C   UNL     1      -1.119   7.060  -9.440  1.00  0.00     0.049 A 
ATOM     53  C   UNL     1       1.164   9.676  -5.071  1.00  0.00     0.074 A 
ATOM     54  C   UNL     1      -1.611   7.847 -10.464  1.00  0.00     0.029 A 
ATOM     55  N   UNL     1      -0.596   7.912  -8.483  1.00  0.00    -0.354 N 
ATOM     56  N   UNL     1       0.572   9.212  -6.146  1.00  0.00    -0.248 NA
ATOM     57  C   UNL     1       1.368  11.137  -5.094  1.00  0.00     0.031 C 
ATOM     58  C   UNL     1      -1.331   9.180 -10.154  1.00  0.00     0.029 A 
ATOM     59  C   UNL     1      -0.722   9.221  -8.909  1.00  0.00     0.049 A 
ATOM     60  H   UNL     1      -0.196   7.629  -7.629  1.00  0.00     0.167 HD
ATOM     61  C   UNL     1       0.306  10.320  -6.946  1.00  0.00     0.074 A 
ATOM     62  C   UNL     1       0.778  11.483  -6.229  1.00  0.00     0.031 C 
ATOM     63  C   UNL     1      -0.270  10.370  -8.171  1.00  0.00     0.031 A 
BRANCH  50  64
ATOM     64  C   UNL     1      -1.634   4.825 -10.494  1.00  0.00    -0.014 A 
ATOM     65  C   UNL     1      -2.833   4.102 -10.385  1.00  0.00     0.009 A 
ATOM     66  C   UNL     1      -0.902   4.768 -11.688  1.00  0.00     0.009 A 
ATOM     67  C   UNL     1      -3.269   3.304 -11.441  1.00  0.00     0.001 A 
ATOM     68  C   UNL     1      -1.359   3.994 -12.754  1.00  0.00     0.001 A 
ATOM     69  C   UNL     1      -2.535   3.255 -12.625  1.00  0.00     0.000 A 
ENDBRANCH  50  64
BRANCH  51  70
ATOM     70  C   UNL     1       2.279   9.713  -2.732  1.00  0.00    -0.014 A 
ATOM     71  C   UNL     1       1.533  10.667  -2.013  1.00  0.00     0.009 A 
ATOM     72  C   UNL     1       3.656   9.623  -2.476  1.00  0.00     0.009 A 
ATOM     73  C   UNL     1       2.157  11.542  -1.115  1.00  0.00     0.001 A 
ATOM     74  C   UNL     1       4.272  10.476  -1.551  1.00  0.00     0.001 A 
ATOM     75  C   UNL     1       3.527  11.447  -0.885  1.00  0.00     0.000 A 
ENDBRANCH  51  70
BRANCH  63  76
ATOM     76  C   UNL     1      -0.466  11.717  -8.810  1.00  0.00    -0.014 A 
ATOM     77  C   UNL     1       0.617  12.442  -9.329  1.00  0.00     0.009 A 
ATOM     78  C   UNL     1      -1.767  12.215  -8.989  1.00  0.00     0.009 A 
ATOM     79  C   UNL     1       0.401  13.647 -10.001  1.00  0.00     0.001 A 
ATOM     80  C   UNL     1      -1.982  13.402  -9.689  1.00  0.00     0.001 A 
ATOM     81  C   UNL     1      -0.898  14.120 -10.190  1.00  0.00     0.000 A 
ENDBRANCH  63  76
ENDBRANCH  37  38
ENDBRANCH  30  32
ENDBRANCH  29  30
ENDBRANCH  28  29
ENDBRANCH   1  28
TORSDOF 14
