REMARK SMILES Cc1ccccc1C(=O)Nc1ccc(OCC(=O)OCCOC(=O)c2ccc(-c3c4nc(c(-c5ccccc5)c5ccc([nH]5)c(-c5ccccc5)c5nc(c(-c6ccccc6)c6ccc3[nH]6)C=C5)C=C4)cc2)c(-c2nc3ccccc3s2)c1
REMARK SMILES IDX 20 1 19 2 17 3 18 4 16 5 15 6 14 7 11 8 12 9 83 10 13 11
REMARK SMILES IDX 73 12 10 13 8 14 9 15 7 17 1 18 2 19 3 20 4 21 6 22 5 23
REMARK SMILES IDX 74 24 75 25 82 26 76 27 81 28 77 29 80 30 78 31 79 32 21 33
REMARK SMILES IDX 22 34 23 35 24 36 25 37 26 38 72 39 27 40 71 41 28 42 29 43
REMARK SMILES IDX 30 44 65 45 31 46 70 47 64 48 66 49 32 50 69 51 63 52 62 53
REMARK SMILES IDX 33 55 55 56 40 57 54 58 41 59 44 60 53 61 67 62 42 63 43 64
REMARK SMILES IDX 52 66 68 67 45 68 34 69 35 70 39 71 36 72 38 73 37 74 56 75
REMARK SMILES IDX 57 76 61 77 58 78 60 79 59 80 46 81 47 82 51 83 48 84 50 85
REMARK SMILES IDX 49 86
REMARK H PARENT 10 16 66 54 44 65
REMARK Flexibility Score: inf
ROOT
ATOM      1  C   UNL     1       2.963  -3.470   2.182  1.00  0.00     0.274 C 
ENDROOT
BRANCH   1   2
ATOM      2  O   UNL     1       3.837  -2.674   1.362  1.00  0.00    -0.460 OA
BRANCH   2   3
ATOM      3  C   UNL     1       5.057  -3.241   1.161  1.00  0.00     0.344 C 
ATOM      4  O   UNL     1       5.452  -4.232   1.771  1.00  0.00    -0.248 OA
BRANCH   3   5
ATOM      5  C   UNL     1       5.928  -2.521   0.115  1.00  0.00     0.352 C 
BRANCH   5   6
ATOM      6  O   UNL     1       5.396  -1.867  -1.034  1.00  0.00    -0.481 OA
BRANCH   6   7
ATOM      7  C   UNL     1       4.870  -0.606  -0.931  1.00  0.00     0.130 A 
ATOM      8  C   UNL     1       3.372   1.716  -0.441  1.00  0.00     0.042 A 
ATOM      9  C   UNL     1       4.490   1.437   0.337  1.00  0.00     0.030 A 
ATOM     10  C   UNL     1       3.130   0.950  -1.573  1.00  0.00     0.041 A 
ATOM     11  C   UNL     1       5.196   0.250   0.131  1.00  0.00     0.049 A 
ATOM     12  C   UNL     1       3.935  -0.169  -1.900  1.00  0.00     0.055 A 
BRANCH   8  13
ATOM     13  N   UNL     1       2.536   2.764  -0.045  1.00  0.00    -0.322 N 
ATOM     14  C   UNL     1       1.161   2.890  -0.059  1.00  0.00     0.255 C 
ATOM     15  O   UNL     1       0.693   4.029   0.031  1.00  0.00    -0.269 OA
ATOM     16  H   UNL     1       3.012   3.551   0.306  1.00  0.00     0.170 HD
BRANCH  14  17
ATOM     17  C   UNL     1       0.196   1.742  -0.002  1.00  0.00     0.043 A 
ATOM     18  C   UNL     1       1.585   0.282   1.584  1.00  0.00     0.045 C 
ATOM     19  C   UNL     1       0.345   0.600   0.802  1.00  0.00    -0.038 A 
ATOM     20  C   UNL     1      -0.731  -0.318   0.887  1.00  0.00     0.004 A 
ATOM     21  C   UNL     1      -1.930  -0.125   0.213  1.00  0.00     0.000 A 
ATOM     22  C   UNL     1      -1.059   1.963  -0.611  1.00  0.00     0.014 A 
ATOM     23  C   UNL     1      -2.105   1.036  -0.516  1.00  0.00     0.001 A 
ENDBRANCH  14  17
ENDBRANCH   8  13
BRANCH  12  24
ATOM     24  C   UNL     1       3.635  -0.796  -3.216  1.00  0.00     0.128 A 
ATOM     25  N   UNL     1       2.547  -0.485  -3.898  1.00  0.00    -0.236 NA
ATOM     26  S   UNL     1       4.682  -1.870  -4.069  1.00  0.00    -0.114 S 
ATOM     27  C   UNL     1       2.361  -1.345  -4.953  1.00  0.00     0.082 A 
ATOM     28  C   UNL     1       3.420  -2.214  -5.203  1.00  0.00     0.055 A 
ATOM     29  C   UNL     1       1.188  -1.435  -5.729  1.00  0.00     0.030 A 
ATOM     30  C   UNL     1       3.337  -3.194  -6.210  1.00  0.00     0.021 A 
ATOM     31  C   UNL     1       1.070  -2.442  -6.688  1.00  0.00     0.002 A 
ATOM     32  C   UNL     1       2.130  -3.315  -6.918  1.00  0.00     0.002 A 
ENDBRANCH  12  24
ENDBRANCH   6   7
ENDBRANCH   5   6
ENDBRANCH   3   5
ENDBRANCH   2   3
ENDBRANCH   1   2
BRANCH   1  33
ATOM     33  C   UNL     1       1.494  -3.102   1.979  1.00  0.00     0.275 C 
BRANCH  33  34
ATOM     34  O   UNL     1       1.161  -2.405   0.740  1.00  0.00    -0.458 OA
BRANCH  34  35
ATOM     35  C   UNL     1       1.508  -2.648  -0.541  1.00  0.00     0.338 C 
ATOM     36  O   UNL     1       1.342  -1.872  -1.471  1.00  0.00    -0.246 OA
BRANCH  35  37
ATOM     37  C   UNL     1       2.029  -3.970  -0.761  1.00  0.00     0.060 A 
ATOM     38  C   UNL     1       3.234  -4.197  -1.438  1.00  0.00     0.016 A 
ATOM     39  C   UNL     1       1.304  -4.968  -0.144  1.00  0.00     0.016 A 
ATOM     40  C   UNL     1       3.727  -5.479  -1.505  1.00  0.00     0.010 A 
ATOM     41  C   UNL     1       1.930  -6.142   0.046  1.00  0.00     0.010 A 
ATOM     42  C   UNL     1       3.025  -6.427  -0.778  1.00  0.00    -0.014 A 
BRANCH  42  43
ATOM     43  C   UNL     1       3.204  -7.848  -0.905  1.00  0.00     0.031 A 
ATOM     44  C   UNL     1       4.427  -8.376  -0.286  1.00  0.00     0.074 A 
ATOM     45  C   UNL     1       2.037  -8.415  -1.313  1.00  0.00     0.049 A 
ATOM     46  N   UNL     1       5.110  -9.386  -0.695  1.00  0.00    -0.248 NA
ATOM     47  C   UNL     1       5.094  -7.684   0.838  1.00  0.00     0.031 C 
ATOM     48  C   UNL     1       1.459  -9.723  -1.101  1.00  0.00     0.029 A 
ATOM     49  N   UNL     1       1.006  -7.784  -2.038  1.00  0.00    -0.354 N 
ATOM     50  C   UNL     1       5.797  -9.778   0.439  1.00  0.00     0.074 A 
ATOM     51  C   UNL     1       6.039  -8.567   1.177  1.00  0.00     0.031 C 
ATOM     52  C   UNL     1       0.450  -9.904  -1.983  1.00  0.00     0.029 A 
ATOM     53  C   UNL     1       0.403  -8.736  -2.853  1.00  0.00     0.049 A 
ATOM     54  H   UNL     1       0.756  -6.834  -1.978  1.00  0.00     0.167 HD
ATOM     55  C   UNL     1       5.623 -11.057   0.890  1.00  0.00     0.031 A 
ATOM     56  C   UNL     1       0.637  -8.716  -4.204  1.00  0.00     0.031 A 
ATOM     57  C   UNL     1       4.682 -11.777   0.020  1.00  0.00     0.049 A 
ATOM     58  C   UNL     1       1.618  -9.815  -4.549  1.00  0.00     0.074 A 
ATOM     59  C   UNL     1       3.383 -12.223   0.203  1.00  0.00     0.029 A 
ATOM     60  N   UNL     1       4.902 -11.792  -1.351  1.00  0.00    -0.354 N 
ATOM     61  N   UNL     1       2.476 -10.316  -3.701  1.00  0.00    -0.248 NA
ATOM     62  C   UNL     1       1.647 -10.488  -5.839  1.00  0.00     0.031 C 
ATOM     63  C   UNL     1       2.829 -12.502  -1.081  1.00  0.00     0.029 A 
ATOM     64  C   UNL     1       3.768 -12.167  -2.040  1.00  0.00     0.049 A 
ATOM     65  H   UNL     1       5.759 -11.563  -1.777  1.00  0.00     0.167 HD
ATOM     66  C   UNL     1       3.033 -11.448  -4.229  1.00  0.00     0.074 A 
ATOM     67  C   UNL     1       2.517 -11.483  -5.589  1.00  0.00     0.031 C 
ATOM     68  C   UNL     1       3.825 -12.287  -3.494  1.00  0.00     0.031 A 
BRANCH  55  69
ATOM     69  C   UNL     1       6.002 -11.559   2.267  1.00  0.00    -0.014 A 
ATOM     70  C   UNL     1       5.461 -12.777   2.723  1.00  0.00     0.009 A 
ATOM     71  C   UNL     1       6.902 -10.926   3.143  1.00  0.00     0.009 A 
ATOM     72  C   UNL     1       5.764 -13.313   3.980  1.00  0.00     0.001 A 
ATOM     73  C   UNL     1       7.201 -11.449   4.412  1.00  0.00     0.001 A 
ATOM     74  C   UNL     1       6.633 -12.646   4.830  1.00  0.00     0.000 A 
ENDBRANCH  55  69
BRANCH  56  75
ATOM     75  C   UNL     1       0.661  -7.322  -4.762  1.00  0.00    -0.014 A 
ATOM     76  C   UNL     1      -0.571  -6.628  -4.788  1.00  0.00     0.009 A 
ATOM     77  C   UNL     1       1.843  -6.579  -4.661  1.00  0.00     0.009 A 
ATOM     78  C   UNL     1      -0.634  -5.271  -4.453  1.00  0.00     0.001 A 
ATOM     79  C   UNL     1       1.761  -5.236  -4.289  1.00  0.00     0.001 A 
ATOM     80  C   UNL     1       0.532  -4.596  -4.126  1.00  0.00     0.000 A 
ENDBRANCH  56  75
BRANCH  68  81
ATOM     81  C   UNL     1       4.718 -13.378  -4.037  1.00  0.00    -0.014 A 
ATOM     82  C   UNL     1       4.987 -13.587  -5.389  1.00  0.00     0.009 A 
ATOM     83  C   UNL     1       5.446 -14.185  -3.125  1.00  0.00     0.009 A 
ATOM     84  C   UNL     1       5.880 -14.579  -5.809  1.00  0.00     0.001 A 
ATOM     85  C   UNL     1       6.394 -15.118  -3.532  1.00  0.00     0.001 A 
ATOM     86  C   UNL     1       6.594 -15.332  -4.883  1.00  0.00     0.000 A 
ENDBRANCH  68  81
ENDBRANCH  42  43
ENDBRANCH  35  37
ENDBRANCH  34  35
ENDBRANCH  33  34
ENDBRANCH   1  33
TORSDOF 16
