REMARK SMILES C[C@@](NC(=O)[C@H]1COc2ccccc21)(C(=O)OCCOC(=O)c1ccc(-c2c3nc(c(-c4ccccc4)c4ccc([nH]4)c(-c4ccccc4)c4nc(c(-c5ccccc5)c5ccc2[nH]5)C=C4)C=C3)cc1)C(F)(F)F
REMARK SMILES IDX 18 1 17 2 15 3 16 4 2 5 1 6 3 7 4 8 5 10 6 11 7 12 14 13
REMARK SMILES IDX 8 14 9 15 13 16 10 17 12 18 11 19 71 20 72 21 73 22 74 23
REMARK SMILES IDX 19 24 20 25 21 26 22 27 23 28 24 29 70 30 25 31 69 32 26 33
REMARK SMILES IDX 27 34 28 35 63 36 29 37 68 38 62 39 64 40 30 41 67 42 61 43
REMARK SMILES IDX 60 44 31 46 53 47 38 48 52 49 39 50 42 51 51 52 65 53 40 54
REMARK SMILES IDX 41 55 50 57 66 58 43 59 32 60 33 61 37 62 34 63 36 64 35 65
REMARK SMILES IDX 54 66 55 67 59 68 56 69 58 70 57 71 44 72 45 73 49 74 46 75
REMARK SMILES IDX 48 76 47 77
REMARK H PARENT 3 9 64 45 42 56
REMARK Flexibility Score: inf
ROOT
ATOM      1  C   UNL     1      -2.907   0.579  -0.141  1.00  0.00     0.274 C 
ENDROOT
BRANCH   1   2
ATOM      2  O   UNL     1      -1.471   0.693  -0.288  1.00  0.00    -0.460 OA
BRANCH   2   3
ATOM      3  C   UNL     1      -0.762   0.568   0.867  1.00  0.00     0.341 C 
ATOM      4  O   UNL     1      -1.268   0.161   1.899  1.00  0.00    -0.249 OA
BRANCH   3   5
ATOM      5  C   UNL     1       0.625   1.204   0.832  1.00  0.00     0.231 C 
ATOM      6  C   UNL     1       1.190   1.191  -0.601  1.00  0.00     0.058 C 
BRANCH   5   7
ATOM      7  N   UNL     1       0.621   2.629   1.335  1.00  0.00    -0.332 N 
ATOM      8  C   UNL     1       0.123   3.157   2.505  1.00  0.00     0.232 C 
ATOM      9  H   UNL     1       1.041   3.284   0.731  1.00  0.00     0.164 HD
ATOM     10  O   UNL     1       0.846   3.971   3.080  1.00  0.00    -0.274 OA
BRANCH   8  11
ATOM     11  C   UNL     1      -1.312   2.868   2.935  1.00  0.00     0.150 C 
ATOM     12  C   UNL     1      -1.436   1.819   4.052  1.00  0.00     0.248 C 
ATOM     13  C   UNL     1      -2.018   4.002   3.602  1.00  0.00     0.010 A 
ATOM     14  O   UNL     1      -1.897   2.420   5.282  1.00  0.00    -0.492 OA
ATOM     15  C   UNL     1      -2.356   3.646   4.897  1.00  0.00     0.123 A 
ATOM     16  C   UNL     1      -2.388   5.239   3.099  1.00  0.00     0.008 A 
ATOM     17  C   UNL     1      -3.098   4.467   5.721  1.00  0.00     0.047 A 
ATOM     18  C   UNL     1      -3.132   6.093   3.920  1.00  0.00     0.001 A 
ATOM     19  C   UNL     1      -3.498   5.703   5.219  1.00  0.00     0.004 A 
ENDBRANCH   8  11
ENDBRANCH   5   7
BRANCH   5  20
ATOM     20  C   UNL     1       1.545   0.301   1.679  1.00  0.00     0.422 C 
ATOM     21  F   UNL     1       1.627  -0.951   1.176  1.00  0.00    -0.168 F 
ATOM     22  F   UNL     1       2.810   0.794   1.690  1.00  0.00    -0.168 F 
ATOM     23  F   UNL     1       1.158   0.208   2.968  1.00  0.00    -0.168 F 
ENDBRANCH   5  20
ENDBRANCH   3   5
ENDBRANCH   2   3
ENDBRANCH   1   2
BRANCH   1  24
ATOM     24  C   UNL     1      -3.462  -0.849  -0.232  1.00  0.00     0.275 C 
BRANCH  24  25
ATOM     25  O   UNL     1      -3.127  -1.656   0.916  1.00  0.00    -0.458 OA
BRANCH  25  26
ATOM     26  C   UNL     1      -2.140  -2.557   0.713  1.00  0.00     0.338 C 
ATOM     27  O   UNL     1      -1.535  -2.753  -0.332  1.00  0.00    -0.246 OA
BRANCH  26  28
ATOM     28  C   UNL     1      -1.734  -3.207   1.971  1.00  0.00     0.060 A 
ATOM     29  C   UNL     1      -0.572  -2.732   2.574  1.00  0.00     0.016 A 
ATOM     30  C   UNL     1      -2.322  -4.382   2.436  1.00  0.00     0.016 A 
ATOM     31  C   UNL     1       0.048  -3.435   3.595  1.00  0.00     0.010 A 
ATOM     32  C   UNL     1      -1.712  -5.087   3.489  1.00  0.00     0.010 A 
ATOM     33  C   UNL     1      -0.499  -4.637   4.048  1.00  0.00    -0.014 A 
BRANCH  33  34
ATOM     34  C   UNL     1       0.310  -5.454   4.989  1.00  0.00     0.031 A 
ATOM     35  C   UNL     1       0.956  -6.724   4.503  1.00  0.00     0.074 A 
ATOM     36  C   UNL     1       0.598  -4.991   6.221  1.00  0.00     0.049 A 
ATOM     37  N   UNL     1       1.679  -7.593   5.166  1.00  0.00    -0.248 NA
ATOM     38  C   UNL     1       0.773  -7.058   3.081  1.00  0.00     0.031 C 
ATOM     39  C   UNL     1       0.128  -3.721   6.779  1.00  0.00     0.029 A 
ATOM     40  N   UNL     1       1.392  -5.516   7.210  1.00  0.00    -0.354 N 
ATOM     41  C   UNL     1       2.001  -8.590   4.255  1.00  0.00     0.074 A 
ATOM     42  C   UNL     1       1.393  -8.225   2.994  1.00  0.00     0.031 C 
ATOM     43  C   UNL     1       0.673  -3.549   7.994  1.00  0.00     0.029 A 
ATOM     44  C   UNL     1       1.476  -4.722   8.327  1.00  0.00     0.049 A 
ATOM     45  H   UNL     1       1.857  -6.380   7.126  1.00  0.00     0.167 HD
ATOM     46  C   UNL     1       2.736  -9.711   4.449  1.00  0.00     0.031 A 
ATOM     47  C   UNL     1       2.108  -4.925   9.499  1.00  0.00     0.031 A 
ATOM     48  C   UNL     1       3.365 -10.064   5.694  1.00  0.00     0.049 A 
ATOM     49  C   UNL     1       2.875  -6.201   9.707  1.00  0.00     0.074 A 
ATOM     50  C   UNL     1       4.085 -11.204   6.007  1.00  0.00     0.029 A 
ATOM     51  N   UNL     1       3.366  -9.266   6.827  1.00  0.00    -0.354 N 
ATOM     52  N   UNL     1       3.087  -7.184   8.867  1.00  0.00    -0.248 NA
ATOM     53  C   UNL     1       3.479  -6.399  11.033  1.00  0.00     0.031 C 
ATOM     54  C   UNL     1       4.497 -11.108   7.341  1.00  0.00     0.029 A 
ATOM     55  C   UNL     1       4.070  -9.890   7.843  1.00  0.00     0.049 A 
ATOM     56  H   UNL     1       2.930  -8.386   6.899  1.00  0.00     0.167 HD
ATOM     57  C   UNL     1       3.845  -8.117   9.560  1.00  0.00     0.074 A 
ATOM     58  C   UNL     1       4.088  -7.566  10.878  1.00  0.00     0.031 C 
ATOM     59  C   UNL     1       4.290  -9.330   9.150  1.00  0.00     0.031 A 
BRANCH  46  60
ATOM     60  C   UNL     1       2.853 -10.664   3.293  1.00  0.00    -0.014 A 
ATOM     61  C   UNL     1       3.684 -10.389   2.196  1.00  0.00     0.009 A 
ATOM     62  C   UNL     1       2.128 -11.865   3.314  1.00  0.00     0.009 A 
ATOM     63  C   UNL     1       3.760 -11.286   1.128  1.00  0.00     0.001 A 
ATOM     64  C   UNL     1       2.225 -12.771   2.256  1.00  0.00     0.001 A 
ATOM     65  C   UNL     1       3.035 -12.476   1.160  1.00  0.00     0.000 A 
ENDBRANCH  46  60
BRANCH  47  66
ATOM     66  C   UNL     1       1.990  -3.925  10.593  1.00  0.00    -0.014 A 
ATOM     67  C   UNL     1       3.100  -3.179  11.016  1.00  0.00     0.009 A 
ATOM     68  C   UNL     1       0.757  -3.729  11.236  1.00  0.00     0.009 A 
ATOM     69  C   UNL     1       2.982  -2.273  12.073  1.00  0.00     0.001 A 
ATOM     70  C   UNL     1       0.634  -2.801  12.271  1.00  0.00     0.001 A 
ATOM     71  C   UNL     1       1.749  -2.080  12.695  1.00  0.00     0.000 A 
ENDBRANCH  47  66
BRANCH  59  72
ATOM     72  C   UNL     1       5.089 -10.128  10.139  1.00  0.00    -0.014 A 
ATOM     73  C   UNL     1       4.470 -10.752  11.233  1.00  0.00     0.009 A 
ATOM     74  C   UNL     1       6.475 -10.264   9.970  1.00  0.00     0.009 A 
ATOM     75  C   UNL     1       5.230 -11.465  12.161  1.00  0.00     0.001 A 
ATOM     76  C   UNL     1       7.229 -10.998  10.887  1.00  0.00     0.001 A 
ATOM     77  C   UNL     1       6.608 -11.588  11.986  1.00  0.00     0.000 A 
ENDBRANCH  59  72
ENDBRANCH  33  34
ENDBRANCH  26  28
ENDBRANCH  25  26
ENDBRANCH  24  25
ENDBRANCH   1  24
TORSDOF 14
