REMARK SMILES O=C(OCCOC(=O)c1cc([C@@H]2C=NN=C2c2ccc(F)cc2)c2c(ccc3ccccc32)n1)c1ccc(-c2c3nc(c(-c4ccccc4)c4ccc([nH]4)c(-c4ccccc4)c4nc(c(-c5ccccc5)c5ccc2[nH]5)C=C4)C=C3)cc1
REMARK SMILES IDX 4 1 3 2 2 3 1 4 35 5 36 6 82 7 37 8 81 9 38 10 39 11 40 12
REMARK SMILES IDX 75 13 41 14 80 15 74 16 76 17 42 18 79 19 73 20 72 21 43 23
REMARK SMILES IDX 65 24 50 25 64 26 51 27 54 28 63 29 77 30 52 31 53 32 62 34
REMARK SMILES IDX 78 35 55 36 44 37 45 38 49 39 46 40 48 41 47 42 66 43 67 44
REMARK SMILES IDX 71 45 68 46 70 47 69 48 56 49 57 50 61 51 58 52 60 53 59 54
REMARK SMILES IDX 5 55 6 56 7 57 8 58 9 59 10 60 34 61 11 62 25 63 24 64 26 65
REMARK SMILES IDX 33 66 27 67 28 68 32 69 29 70 31 71 30 72 12 73 13 74 16 75
REMARK SMILES IDX 14 76 15 77 17 78 18 79 23 80 19 81 22 82 20 83 21 84
REMARK H PARENT 76 22 54 33
REMARK Flexibility Score: inf
ROOT
ATOM      1  C   UNL     1       4.546  -0.040   1.069  1.00  0.00     0.275 C 
ENDROOT
BRANCH   1   2
ATOM      2  O   UNL     1       3.428   0.834   1.341  1.00  0.00    -0.458 OA
BRANCH   2   3
ATOM      3  C   UNL     1       2.285   0.687   0.640  1.00  0.00     0.338 C 
ATOM      4  O   UNL     1       1.425  -0.151   0.881  1.00  0.00    -0.246 OA
BRANCH   3   5
ATOM      5  C   UNL     1       2.130   1.774  -0.355  1.00  0.00     0.060 A 
ATOM      6  C   UNL     1       3.240   2.467  -0.851  1.00  0.00     0.016 A 
ATOM      7  C   UNL     1       0.846   2.098  -0.809  1.00  0.00     0.016 A 
ATOM      8  C   UNL     1       3.061   3.514  -1.743  1.00  0.00     0.010 A 
ATOM      9  C   UNL     1       0.666   3.150  -1.706  1.00  0.00     0.010 A 
ATOM     10  C   UNL     1       1.772   3.876  -2.152  1.00  0.00    -0.014 A 
BRANCH  10  11
ATOM     11  C   UNL     1       1.659   4.997  -3.083  1.00  0.00     0.031 A 
ATOM     12  C   UNL     1       2.364   4.851  -4.387  1.00  0.00     0.074 A 
ATOM     13  C   UNL     1       0.934   6.110  -2.864  1.00  0.00     0.049 A 
ATOM     14  N   UNL     1       3.413   5.485  -4.798  1.00  0.00    -0.248 NA
ATOM     15  C   UNL     1       1.867   3.841  -5.326  1.00  0.00     0.031 C 
ATOM     16  C   UNL     1      -0.053   6.369  -1.815  1.00  0.00     0.029 A 
ATOM     17  N   UNL     1       0.890   7.245  -3.622  1.00  0.00    -0.354 N 
ATOM     18  C   UNL     1       3.626   5.076  -6.113  1.00  0.00     0.074 A 
ATOM     19  C   UNL     1       2.712   3.985  -6.349  1.00  0.00     0.031 C 
ATOM     20  C   UNL     1      -0.748   7.487  -2.127  1.00  0.00     0.029 A 
ATOM     21  C   UNL     1      -0.152   8.100  -3.304  1.00  0.00     0.049 A 
ATOM     22  H   UNL     1       1.542   7.438  -4.334  1.00  0.00     0.167 HD
ATOM     23  C   UNL     1       4.410   5.785  -6.974  1.00  0.00     0.031 A 
ATOM     24  C   UNL     1      -0.519   9.215  -3.977  1.00  0.00     0.031 A 
ATOM     25  C   UNL     1       5.231   6.752  -6.295  1.00  0.00     0.049 A 
ATOM     26  C   UNL     1       0.631   9.668  -4.788  1.00  0.00     0.074 A 
ATOM     27  C   UNL     1       6.198   6.701  -5.311  1.00  0.00     0.029 A 
ATOM     28  N   UNL     1       4.862   8.073  -6.381  1.00  0.00    -0.354 N 
ATOM     29  N   UNL     1       1.707  10.195  -4.281  1.00  0.00    -0.248 NA
ATOM     30  C   UNL     1       0.754   9.199  -6.158  1.00  0.00     0.031 C 
ATOM     31  C   UNL     1       5.987   7.875  -4.529  1.00  0.00     0.029 A 
ATOM     32  C   UNL     1       4.940   8.588  -5.115  1.00  0.00     0.049 A 
ATOM     33  H   UNL     1       4.593   8.555  -7.197  1.00  0.00     0.167 HD
ATOM     34  C   UNL     1       2.739   9.729  -5.081  1.00  0.00     0.074 A 
ATOM     35  C   UNL     1       2.083   9.232  -6.288  1.00  0.00     0.031 C 
ATOM     36  C   UNL     1       3.993   9.536  -4.573  1.00  0.00     0.031 A 
BRANCH  23  37
ATOM     37  C   UNL     1       4.178   5.867  -8.464  1.00  0.00    -0.014 A 
ATOM     38  C   UNL     1       5.101   6.577  -9.257  1.00  0.00     0.009 A 
ATOM     39  C   UNL     1       2.953   5.532  -9.069  1.00  0.00     0.009 A 
ATOM     40  C   UNL     1       4.782   6.997 -10.554  1.00  0.00     0.001 A 
ATOM     41  C   UNL     1       2.649   5.912 -10.380  1.00  0.00     0.001 A 
ATOM     42  C   UNL     1       3.551   6.672 -11.111  1.00  0.00     0.000 A 
ENDBRANCH  23  37
BRANCH  24  43
ATOM     43  C   UNL     1      -1.859   9.815  -4.121  1.00  0.00    -0.014 A 
ATOM     44  C   UNL     1      -2.011  11.148  -4.531  1.00  0.00     0.009 A 
ATOM     45  C   UNL     1      -3.000   8.992  -4.119  1.00  0.00     0.009 A 
ATOM     46  C   UNL     1      -3.254  11.628  -4.964  1.00  0.00     0.001 A 
ATOM     47  C   UNL     1      -4.240   9.472  -4.547  1.00  0.00     0.001 A 
ATOM     48  C   UNL     1      -4.363  10.786  -4.986  1.00  0.00     0.000 A 
ENDBRANCH  24  43
BRANCH  36  49
ATOM     49  C   UNL     1       4.306  10.105  -3.212  1.00  0.00    -0.014 A 
ATOM     50  C   UNL     1       3.566   9.791  -2.058  1.00  0.00     0.009 A 
ATOM     51  C   UNL     1       5.467  10.879  -3.063  1.00  0.00     0.009 A 
ATOM     52  C   UNL     1       3.947  10.278  -0.805  1.00  0.00     0.001 A 
ATOM     53  C   UNL     1       5.864  11.343  -1.807  1.00  0.00     0.001 A 
ATOM     54  C   UNL     1       5.099  11.052  -0.680  1.00  0.00     0.000 A 
ENDBRANCH  36  49
ENDBRANCH  10  11
ENDBRANCH   3   5
ENDBRANCH   2   3
ENDBRANCH   1   2
BRANCH   1  55
ATOM     55  C   UNL     1       4.264  -1.341   0.323  1.00  0.00     0.275 C 
BRANCH  55  56
ATOM     56  O   UNL     1       3.812  -1.033  -1.005  1.00  0.00    -0.457 OA
BRANCH  56  57
ATOM     57  C   UNL     1       2.751  -1.752  -1.436  1.00  0.00     0.357 C 
ATOM     58  O   UNL     1       2.226  -2.720  -0.889  1.00  0.00    -0.244 OA
BRANCH  57  59
ATOM     59  C   UNL     1       2.408  -1.290  -2.787  1.00  0.00     0.149 A 
ATOM     60  C   UNL     1       3.114  -1.824  -3.833  1.00  0.00     0.041 A 
ATOM     61  N   UNL     1       1.334  -0.509  -2.953  1.00  0.00    -0.241 NA
ATOM     62  C   UNL     1       2.667  -1.617  -5.158  1.00  0.00    -0.021 A 
ATOM     63  C   UNL     1       0.929  -0.242  -4.197  1.00  0.00     0.072 A 
ATOM     64  C   UNL     1       1.512  -0.757  -5.401  1.00  0.00     0.012 A 
ATOM     65  C   UNL     1      -0.181   0.572  -4.228  1.00  0.00     0.029 A 
ATOM     66  C   UNL     1       0.827  -0.373  -6.658  1.00  0.00    -0.009 A 
ATOM     67  C   UNL     1      -0.785   0.961  -5.411  1.00  0.00     0.011 A 
ATOM     68  C   UNL     1      -0.298   0.502  -6.623  1.00  0.00    -0.018 A 
ATOM     69  C   UNL     1       1.157  -0.804  -7.963  1.00  0.00     0.009 A 
ATOM     70  C   UNL     1      -0.970   0.917  -7.787  1.00  0.00     0.009 A 
ATOM     71  C   UNL     1       0.481  -0.407  -9.125  1.00  0.00     0.001 A 
ATOM     72  C   UNL     1      -0.583   0.465  -9.038  1.00  0.00     0.001 A 
BRANCH  62  73
ATOM     73  C   UNL     1       3.421  -2.515  -6.112  1.00  0.00     0.115 C 
ATOM     74  C   UNL     1       4.149  -1.917  -7.254  1.00  0.00     0.123 C 
ATOM     75  C   UNL     1       2.715  -3.619  -6.835  1.00  0.00     0.083 C 
ATOM     76  N   UNL     1       4.028  -2.615  -8.337  1.00  0.00    -0.162 NA
ATOM     77  N   UNL     1       3.117  -3.701  -8.073  1.00  0.00    -0.154 NA
BRANCH  75  78
ATOM     78  C   UNL     1       1.812  -4.610  -6.194  1.00  0.00    -0.001 A 
ATOM     79  C   UNL     1       1.832  -5.924  -6.680  1.00  0.00     0.013 A 
ATOM     80  C   UNL     1       0.963  -4.300  -5.122  1.00  0.00     0.013 A 
ATOM     81  C   UNL     1       1.044  -6.912  -6.081  1.00  0.00     0.040 A 
ATOM     82  C   UNL     1       0.179  -5.289  -4.521  1.00  0.00     0.040 A 
ATOM     83  C   UNL     1       0.231  -6.587  -5.003  1.00  0.00     0.123 A 
ATOM     84  F   UNL     1      -0.518  -7.535  -4.425  1.00  0.00    -0.207 F 
ENDBRANCH  75  78
ENDBRANCH  62  73
ENDBRANCH  57  59
ENDBRANCH  56  57
ENDBRANCH  55  56
ENDBRANCH   1  55
TORSDOF 13
