REMARK SMILES CCNC(=O)c1ccc(NC(=O)CC2(C(=O)OCCOC(=O)c3ccc(-c4c5nc(c(-c6ccccc6)c6ccc([nH]6)c(-c6ccccc6)c6nc(c(-c7ccccc7)c7ccc4[nH]7)C=C6)C=C5)cc3)CCCC2)cc1
REMARK SMILES IDX 17 1 15 2 16 3 14 4 71 5 74 6 72 7 73 8 13 9 11 10 10 11
REMARK SMILES IDX 12 13 9 14 6 15 7 16 76 17 8 18 75 19 4 20 3 21 5 23 2 24
REMARK SMILES IDX 1 25 18 26 19 27 20 28 21 29 22 30 23 31 24 32 70 33 25 34
REMARK SMILES IDX 69 35 26 36 27 37 28 38 63 39 29 40 68 41 62 42 64 43 30 44
REMARK SMILES IDX 67 45 61 46 60 47 31 49 53 50 38 51 52 52 39 53 42 54 51 55
REMARK SMILES IDX 65 56 40 57 41 58 50 60 66 61 43 62 32 63 33 64 37 65 34 66
REMARK SMILES IDX 36 67 35 68 54 69 55 70 59 71 56 72 58 73 57 74 44 75 45 76
REMARK SMILES IDX 49 77 46 78 48 79 47 80
REMARK H PARENT 10 12 3 22 64 48 42 59
REMARK Flexibility Score: inf
ROOT
ATOM      1  O   UNL     1      -6.515   3.625   6.318  1.00  0.00    -0.462 OA
ENDROOT
BRANCH   1   2
ATOM      2  C   UNL     1      -6.197   2.700   5.374  1.00  0.00     0.312 C 
ATOM      3  O   UNL     1      -6.703   1.588   5.299  1.00  0.00    -0.252 OA
BRANCH   2   4
ATOM      4  C   UNL     1      -5.041   3.169   4.474  1.00  0.00     0.077 C 
ATOM      5  C   UNL     1      -3.777   2.440   4.950  1.00  0.00     0.019 C 
ATOM      6  C   UNL     1      -4.646   4.652   4.692  1.00  0.00     0.019 C 
ATOM      7  C   UNL     1      -3.329   3.222   6.176  1.00  0.00     0.001 C 
ATOM      8  C   UNL     1      -3.601   4.674   5.813  1.00  0.00     0.001 C 
BRANCH   4   9
ATOM      9  C   UNL     1      -5.385   2.973   2.978  1.00  0.00     0.119 C 
BRANCH   9  10
ATOM     10  C   UNL     1      -5.853   1.590   2.524  1.00  0.00     0.225 C 
ATOM     11  N   UNL     1      -4.975   0.562   2.340  1.00  0.00    -0.326 N 
ATOM     12  H   UNL     1      -5.383  -0.327   2.235  1.00  0.00     0.169 HD
ATOM     13  O   UNL     1      -7.054   1.359   2.360  1.00  0.00    -0.275 OA
BRANCH  11  14
ATOM     14  C   UNL     1      -3.581   0.591   2.279  1.00  0.00     0.041 A 
ATOM     15  C   UNL     1      -0.836   0.791   2.580  1.00  0.00     0.039 A 
ATOM     16  C   UNL     1      -1.503   1.725   1.790  1.00  0.00     0.016 A 
ATOM     17  C   UNL     1      -1.513  -0.293   3.147  1.00  0.00     0.016 A 
ATOM     18  C   UNL     1      -2.880   1.606   1.620  1.00  0.00     0.027 A 
ATOM     19  C   UNL     1      -2.890  -0.411   2.966  1.00  0.00     0.027 A 
BRANCH  15  20
ATOM     20  C   UNL     1       0.590   0.986   2.871  1.00  0.00     0.251 C 
ATOM     21  N   UNL     1       1.504   0.230   2.190  1.00  0.00    -0.352 N 
ATOM     22  H   UNL     1       2.439   0.307   2.489  1.00  0.00     0.163 HD
ATOM     23  O   UNL     1       0.927   1.814   3.708  1.00  0.00    -0.269 OA
BRANCH  21  24
ATOM     24  C   UNL     1       1.259  -0.671   1.081  1.00  0.00     0.112 C 
ATOM     25  C   UNL     1       1.432   0.045  -0.245  1.00  0.00     0.027 C 
ENDBRANCH  21  24
ENDBRANCH  15  20
ENDBRANCH  11  14
ENDBRANCH   9  10
ENDBRANCH   4   9
ENDBRANCH   2   4
ENDBRANCH   1   2
BRANCH   1  26
ATOM     26  C   UNL     1      -7.536   3.281   7.276  1.00  0.00     0.274 C 
BRANCH  26  27
ATOM     27  C   UNL     1      -8.689   4.268   7.139  1.00  0.00     0.275 C 
BRANCH  27  28
ATOM     28  O   UNL     1      -9.267   4.094   5.835  1.00  0.00    -0.458 OA
BRANCH  28  29
ATOM     29  C   UNL     1      -9.404   5.212   5.087  1.00  0.00     0.338 C 
ATOM     30  O   UNL     1      -9.226   6.367   5.428  1.00  0.00    -0.246 OA
BRANCH  29  31
ATOM     31  C   UNL     1      -9.783   4.819   3.718  1.00  0.00     0.060 A 
ATOM     32  C   UNL     1      -9.000   3.897   3.029  1.00  0.00     0.016 A 
ATOM     33  C   UNL     1     -10.851   5.440   3.077  1.00  0.00     0.016 A 
ATOM     34  C   UNL     1      -9.224   3.656   1.674  1.00  0.00     0.010 A 
ATOM     35  C   UNL     1     -11.139   5.116   1.745  1.00  0.00     0.010 A 
ATOM     36  C   UNL     1     -10.307   4.245   1.014  1.00  0.00    -0.014 A 
BRANCH  36  37
ATOM     37  C   UNL     1     -10.541   4.011  -0.441  1.00  0.00     0.031 A 
ATOM     38  C   UNL     1     -10.605   5.185  -1.384  1.00  0.00     0.074 A 
ATOM     39  C   UNL     1     -10.688   2.768  -0.945  1.00  0.00     0.049 A 
ATOM     40  N   UNL     1     -11.048   5.240  -2.615  1.00  0.00    -0.248 NA
ATOM     41  C   UNL     1     -10.111   6.471  -0.866  1.00  0.00     0.031 C 
ATOM     42  C   UNL     1     -10.556   1.516  -0.198  1.00  0.00     0.029 A 
ATOM     43  N   UNL     1     -10.983   2.357  -2.225  1.00  0.00    -0.354 N 
ATOM     44  C   UNL     1     -10.956   6.574  -2.989  1.00  0.00     0.074 A 
ATOM     45  C   UNL     1     -10.403   7.294  -1.862  1.00  0.00     0.031 C 
ATOM     46  C   UNL     1     -10.738   0.482  -1.035  1.00  0.00     0.029 A 
ATOM     47  C   UNL     1     -11.096   0.994  -2.353  1.00  0.00     0.049 A 
ATOM     48  H   UNL     1     -11.102   2.981  -2.977  1.00  0.00     0.167 HD
ATOM     49  C   UNL     1     -11.310   7.152  -4.162  1.00  0.00     0.031 A 
ATOM     50  C   UNL     1     -11.495   0.236  -3.392  1.00  0.00     0.031 A 
ATOM     51  C   UNL     1     -11.809   6.435  -5.305  1.00  0.00     0.049 A 
ATOM     52  C   UNL     1     -11.944   0.899  -4.663  1.00  0.00     0.074 A 
ATOM     53  C   UNL     1     -12.207   6.937  -6.533  1.00  0.00     0.029 A 
ATOM     54  N   UNL     1     -11.956   5.059  -5.368  1.00  0.00    -0.354 N 
ATOM     55  N   UNL     1     -11.954   2.172  -4.973  1.00  0.00    -0.248 NA
ATOM     56  C   UNL     1     -12.465   0.018  -5.720  1.00  0.00     0.031 C 
ATOM     57  C   UNL     1     -12.624   5.864  -7.329  1.00  0.00     0.029 A 
ATOM     58  C   UNL     1     -12.446   4.694  -6.610  1.00  0.00     0.049 A 
ATOM     59  H   UNL     1     -11.743   4.434  -4.638  1.00  0.00     0.167 HD
ATOM     60  C   UNL     1     -12.472   2.244  -6.259  1.00  0.00     0.074 A 
ATOM     61  C   UNL     1     -12.745   0.887  -6.682  1.00  0.00     0.031 C 
ATOM     62  C   UNL     1     -12.709   3.341  -7.019  1.00  0.00     0.031 A 
BRANCH  49  63
ATOM     63  C   UNL     1     -11.222   8.648  -4.247  1.00  0.00    -0.014 A 
ATOM     64  C   UNL     1      -9.992   9.308  -4.384  1.00  0.00     0.009 A 
ATOM     65  C   UNL     1     -12.403   9.407  -4.211  1.00  0.00     0.009 A 
ATOM     66  C   UNL     1      -9.945  10.703  -4.452  1.00  0.00     0.001 A 
ATOM     67  C   UNL     1     -12.355  10.798  -4.304  1.00  0.00     0.001 A 
ATOM     68  C   UNL     1     -11.126  11.445  -4.415  1.00  0.00     0.000 A 
ENDBRANCH  49  63
BRANCH  50  69
ATOM     69  C   UNL     1     -11.563  -1.243  -3.254  1.00  0.00    -0.014 A 
ATOM     70  C   UNL     1     -10.675  -2.068  -3.960  1.00  0.00     0.009 A 
ATOM     71  C   UNL     1     -12.529  -1.837  -2.425  1.00  0.00     0.009 A 
ATOM     72  C   UNL     1     -10.764  -3.458  -3.851  1.00  0.00     0.001 A 
ATOM     73  C   UNL     1     -12.597  -3.225  -2.296  1.00  0.00     0.001 A 
ATOM     74  C   UNL     1     -11.720  -4.035  -3.015  1.00  0.00     0.000 A 
ENDBRANCH  50  69
BRANCH  62  75
ATOM     75  C   UNL     1     -13.260   3.113  -8.396  1.00  0.00    -0.014 A 
ATOM     76  C   UNL     1     -14.609   2.780  -8.590  1.00  0.00     0.009 A 
ATOM     77  C   UNL     1     -12.427   3.269  -9.514  1.00  0.00     0.009 A 
ATOM     78  C   UNL     1     -15.106   2.580  -9.880  1.00  0.00     0.001 A 
ATOM     79  C   UNL     1     -12.931   3.090 -10.802  1.00  0.00     0.001 A 
ATOM     80  C   UNL     1     -14.268   2.739 -10.984  1.00  0.00     0.000 A 
ENDBRANCH  62  75
ENDBRANCH  36  37
ENDBRANCH  29  31
ENDBRANCH  28  29
ENDBRANCH  27  28
ENDBRANCH  26  27
ENDBRANCH   1  26
TORSDOF 16
