REMARK SMILES CC[C@](C)(NC(=O)Cc1cccc(F)c1)C(=O)OCCOC(=O)c1ccc(-c2c3nc(c(-c4ccccc4)c4ccc([nH]4)c(-c4ccccc4)c4nc(c(-c5ccccc5)c5ccc2[nH]5)C=C4)C=C3)cc1
REMARK SMILES IDX 19 1 18 2 16 3 17 4 3 5 4 6 2 7 1 8 5 9 6 10 7 12 8 13 9 14
REMARK SMILES IDX 10 15 15 16 11 17 13 18 12 19 14 20 20 21 21 22 22 23 23 24
REMARK SMILES IDX 24 25 25 26 71 27 26 28 70 29 27 30 28 31 29 32 64 33 30 34
REMARK SMILES IDX 69 35 63 36 65 37 31 38 68 39 62 40 61 41 32 43 54 44 39 45
REMARK SMILES IDX 53 46 40 47 43 48 52 49 66 50 41 51 42 52 51 54 67 55 44 56
REMARK SMILES IDX 33 57 34 58 38 59 35 60 37 61 36 62 55 63 56 64 60 65 57 66
REMARK SMILES IDX 59 67 58 68 45 69 46 70 50 71 47 72 49 73 48 74
REMARK H PARENT 5 11 65 42 43 53
REMARK Flexibility Score: inf
ROOT
ATOM      1  C   UNL     1       4.601  -3.658   0.236  1.00  0.00     0.274 C 
ENDROOT
BRANCH   1   2
ATOM      2  O   UNL     1       3.221  -3.837  -0.172  1.00  0.00    -0.460 OA
BRANCH   2   3
ATOM      3  C   UNL     1       2.334  -2.968   0.391  1.00  0.00     0.331 C 
ATOM      4  O   UNL     1       2.659  -2.072   1.169  1.00  0.00    -0.249 OA
BRANCH   3   5
ATOM      5  C   UNL     1       0.838  -3.250   0.027  1.00  0.00     0.135 C 
ATOM      6  C   UNL     1      -0.020  -1.976  -0.207  1.00  0.00     0.047 C 
BRANCH   5   7
ATOM      7  C   UNL     1       0.279  -3.927   1.323  1.00  0.00     0.037 C 
ATOM      8  C   UNL     1       0.416  -3.089   2.603  1.00  0.00     0.007 C 
ENDBRANCH   5   7
BRANCH   5   9
ATOM      9  N   UNL     1       0.583  -4.157  -1.129  1.00  0.00    -0.340 N 
ATOM     10  C   UNL     1       0.644  -3.820  -2.460  1.00  0.00     0.225 C 
ATOM     11  H   UNL     1       0.348  -5.089  -0.917  1.00  0.00     0.164 HD
ATOM     12  O   UNL     1      -0.392  -3.976  -3.115  1.00  0.00    -0.275 OA
BRANCH  10  13
ATOM     13  C   UNL     1       1.948  -3.503  -3.155  1.00  0.00     0.135 C 
BRANCH  13  14
ATOM     14  C   UNL     1       2.549  -2.100  -3.230  1.00  0.00    -0.036 A 
ATOM     15  C   UNL     1       2.808  -1.086  -1.723  1.00  0.00     0.004 A 
ATOM     16  C   UNL     1       3.631  -1.825  -4.675  1.00  0.00     0.043 A 
ATOM     17  C   UNL     1       4.163   0.136  -1.632  1.00  0.00     0.003 A 
ATOM     18  C   UNL     1       5.103  -0.766  -4.497  1.00  0.00     0.123 A 
ATOM     19  C   UNL     1       5.379   0.189  -2.967  1.00  0.00     0.039 A 
ATOM     20  F   UNL     1       6.011  -0.704  -5.479  1.00  0.00    -0.207 F 
ENDBRANCH  13  14
ENDBRANCH  10  13
ENDBRANCH   5   9
ENDBRANCH   3   5
ENDBRANCH   2   3
ENDBRANCH   1   2
BRANCH   1  21
ATOM     21  C   UNL     1       5.477  -3.070  -0.869  1.00  0.00     0.275 C 
BRANCH  21  22
ATOM     22  O   UNL     1       4.890  -1.832  -1.329  1.00  0.00    -0.458 OA
BRANCH  22  23
ATOM     23  C   UNL     1       4.475  -1.645  -2.756  1.00  0.00     0.338 C 
ATOM     24  O   UNL     1       5.026  -2.650  -3.291  1.00  0.00    -0.246 OA
BRANCH  23  25
ATOM     25  C   UNL     1       3.270  -0.044  -3.533  1.00  0.00     0.060 A 
ATOM     26  C   UNL     1       1.793   0.288  -3.285  1.00  0.00     0.016 A 
ATOM     27  C   UNL     1       3.652   1.164  -4.361  1.00  0.00     0.016 A 
ATOM     28  C   UNL     1       1.152   1.543  -3.290  1.00  0.00     0.010 A 
ATOM     29  C   UNL     1       3.015   2.425  -4.417  1.00  0.00     0.010 A 
ATOM     30  C   UNL     1       1.821   2.642  -3.760  1.00  0.00    -0.014 A 
BRANCH  30  31
ATOM     31  C   UNL     1       1.191   3.966  -3.760  1.00  0.00     0.031 A 
ATOM     32  C   UNL     1       0.529   4.407  -5.019  1.00  0.00     0.074 A 
ATOM     33  C   UNL     1       1.218   4.733  -2.655  1.00  0.00     0.049 A 
ATOM     34  N   UNL     1       0.040   5.574  -5.330  1.00  0.00    -0.248 NA
ATOM     35  C   UNL     1       0.411   3.389  -6.078  1.00  0.00     0.031 C 
ATOM     36  C   UNL     1       1.767   4.337  -1.355  1.00  0.00     0.029 A 
ATOM     37  N   UNL     1       0.768   6.011  -2.449  1.00  0.00    -0.354 N 
ATOM     38  C   UNL     1      -0.415   5.439  -6.633  1.00  0.00     0.074 A 
ATOM     39  C   UNL     1      -0.135   4.088  -7.059  1.00  0.00     0.031 C 
ATOM     40  C   UNL     1       1.617   5.354  -0.487  1.00  0.00     0.029 A 
ATOM     41  C   UNL     1       1.019   6.488  -1.184  1.00  0.00     0.049 A 
ATOM     42  H   UNL     1       0.309   6.538  -3.142  1.00  0.00     0.167 HD
ATOM     43  C   UNL     1      -1.010   6.375  -7.404  1.00  0.00     0.031 A 
ATOM     44  C   UNL     1       0.812   7.719  -0.675  1.00  0.00     0.031 A 
ATOM     45  C   UNL     1      -1.260   7.715  -6.955  1.00  0.00     0.049 A 
ATOM     46  C   UNL     1       0.226   8.768  -1.588  1.00  0.00     0.074 A 
ATOM     47  C   UNL     1      -1.819   8.768  -7.650  1.00  0.00     0.029 A 
ATOM     48  N   UNL     1      -0.961   8.179  -5.681  1.00  0.00    -0.354 N 
ATOM     49  N   UNL     1      -0.175   8.651  -2.833  1.00  0.00    -0.248 NA
ATOM     50  C   UNL     1       0.073  10.119  -1.032  1.00  0.00     0.031 C 
ATOM     51  C   UNL     1      -1.813   9.886  -6.810  1.00  0.00     0.029 A 
ATOM     52  C   UNL     1      -1.310   9.511  -5.572  1.00  0.00     0.049 A 
ATOM     53  H   UNL     1      -0.560   7.638  -4.962  1.00  0.00     0.167 HD
ATOM     54  C   UNL     1      -0.654   9.902  -3.200  1.00  0.00     0.074 A 
ATOM     55  C   UNL     1      -0.511  10.757  -2.037  1.00  0.00     0.031 C 
ATOM     56  C   UNL     1      -1.161  10.316  -4.387  1.00  0.00     0.031 A 
BRANCH  43  57
ATOM     57  C   UNL     1      -1.344   5.980  -8.810  1.00  0.00    -0.014 A 
ATOM     58  C   UNL     1      -2.367   5.059  -9.092  1.00  0.00     0.009 A 
ATOM     59  C   UNL     1      -0.590   6.505  -9.870  1.00  0.00     0.009 A 
ATOM     60  C   UNL     1      -2.598   4.642 -10.404  1.00  0.00     0.001 A 
ATOM     61  C   UNL     1      -0.845   6.110 -11.184  1.00  0.00     0.001 A 
ATOM     62  C   UNL     1      -1.840   5.170 -11.448  1.00  0.00     0.000 A 
ENDBRANCH  43  57
BRANCH  44  63
ATOM     63  C   UNL     1       1.201   8.055   0.724  1.00  0.00    -0.014 A 
ATOM     64  C   UNL     1       0.235   8.435   1.670  1.00  0.00     0.009 A 
ATOM     65  C   UNL     1       2.551   8.057   1.111  1.00  0.00     0.009 A 
ATOM     66  C   UNL     1       0.615   8.847   2.953  1.00  0.00     0.001 A 
ATOM     67  C   UNL     1       2.926   8.436   2.403  1.00  0.00     0.001 A 
ATOM     68  C   UNL     1       1.959   8.845   3.318  1.00  0.00     0.000 A 
ENDBRANCH  44  63
BRANCH  56  69
ATOM     69  C   UNL     1      -1.642  11.737  -4.465  1.00  0.00    -0.014 A 
ATOM     70  C   UNL     1      -0.742  12.813  -4.495  1.00  0.00     0.009 A 
ATOM     71  C   UNL     1      -3.018  11.990  -4.577  1.00  0.00     0.009 A 
ATOM     72  C   UNL     1      -1.217  14.120  -4.606  1.00  0.00     0.001 A 
ATOM     73  C   UNL     1      -3.486  13.295  -4.723  1.00  0.00     0.001 A 
ATOM     74  C   UNL     1      -2.586  14.359  -4.728  1.00  0.00     0.000 A 
ENDBRANCH  56  69
ENDBRANCH  30  31
ENDBRANCH  23  25
ENDBRANCH  22  23
ENDBRANCH  21  22
ENDBRANCH   1  21
TORSDOF 15
