REMARK SMILES NS(=O)(=O)c1ccc(-n2nc(NC(=O)NCCCC(=O)OCCOC(=O)c3ccc(-c4c5nc(c(-c6ccccc6)c6ccc([nH]6)c(-c6ccccc6)c6nc(c(-c7ccccc7)c7ccc4[nH]7)C=C6)C=C5)cc3)cc2-c2ccccc2)cc1
REMARK SMILES IDX 19 1 20 2 18 3 17 4 16 5 15 6 12 7 13 8 14 10 11 12 9 13
REMARK SMILES IDX 10 14 76 15 75 16 8 17 5 18 6 19 84 20 7 21 83 22 2 23 3 24
REMARK SMILES IDX 4 25 1 26 77 29 78 30 82 31 79 32 81 33 80 34 21 35 22 36
REMARK SMILES IDX 23 37 24 38 25 39 26 40 27 41 28 42 74 43 29 44 73 45 30 46
REMARK SMILES IDX 31 47 32 48 67 49 33 50 72 51 66 52 68 53 34 54 71 55 65 56
REMARK SMILES IDX 64 57 35 59 57 60 42 61 56 62 43 63 46 64 55 65 69 66 44 67
REMARK SMILES IDX 45 68 54 70 70 71 47 72 36 73 37 74 41 75 38 76 40 77 39 78
REMARK SMILES IDX 58 79 59 80 63 81 60 82 62 83 61 84 48 85 49 86 53 87 50 88
REMARK SMILES IDX 52 89 51 90
REMARK H PARENT 12 9 15 11 1 27 1 28 68 58 46 69
REMARK Flexibility Score: inf
ROOT
ATOM      1  C   UNL     1      -3.052   5.595   5.147  1.00  0.00     0.305 C 
ATOM      2  O   UNL     1      -3.999   5.774   4.388  1.00  0.00    -0.252 OA
ENDROOT
BRANCH   1   3
ATOM      3  C   UNL     1      -3.078   4.529   6.224  1.00  0.00     0.124 C 
BRANCH   3   4
ATOM      4  C   UNL     1      -1.813   3.779   6.604  1.00  0.00     0.033 C 
BRANCH   4   5
ATOM      5  C   UNL     1      -0.578   4.562   6.985  1.00  0.00     0.118 C 
BRANCH   5   6
ATOM      6  N   UNL     1      -0.610   5.335   8.201  1.00  0.00    -0.338 N 
ATOM      7  N   UNL     1       1.522   4.800   9.174  1.00  0.00    -0.291 N 
ATOM      8  C   UNL     1       0.314   5.420   9.191  1.00  0.00     0.320 C 
ATOM      9  H   UNL     1       1.939   4.713  10.061  1.00  0.00     0.173 HD
ATOM     10  O   UNL     1      -0.016   6.018  10.221  1.00  0.00    -0.248 OA
ATOM     11  H   UNL     1      -1.419   5.880   8.333  1.00  0.00     0.165 HD
BRANCH   7  12
ATOM     12  C   UNL     1       2.273   4.272   8.151  1.00  0.00     0.157 A 
ATOM     13  N   UNL     1       2.527   3.494   6.262  1.00  0.00    -0.231 N 
ATOM     14  N   UNL     1       2.144   4.620   6.875  1.00  0.00    -0.149 NA
ATOM     15  C   UNL     1       3.548   2.877   6.949  1.00  0.00     0.076 A 
ATOM     16  C   UNL     1       3.328   3.314   8.249  1.00  0.00     0.078 A 
BRANCH  13  17
ATOM     17  C   UNL     1       1.942   3.104   5.059  1.00  0.00     0.065 A 
ATOM     18  C   UNL     1       1.491   2.447   2.554  1.00  0.00     0.082 A 
ATOM     19  C   UNL     1       1.567   1.396   3.453  1.00  0.00     0.024 A 
ATOM     20  C   UNL     1       1.439   3.795   2.873  1.00  0.00     0.024 A 
ATOM     21  C   UNL     1       1.822   1.738   4.748  1.00  0.00     0.030 A 
ATOM     22  C   UNL     1       1.639   4.133   4.171  1.00  0.00     0.030 A 
BRANCH  18  23
ATOM     23  S   UNL     1       1.752   2.159   0.905  1.00  0.00     0.238 S 
ATOM     24  O   UNL     1       3.140   2.431   0.633  1.00  0.00    -0.207 OA
ATOM     25  O   UNL     1       0.705   2.885   0.216  1.00  0.00    -0.207 OA
BRANCH  23  26
ATOM     26  N   UNL     1       1.554   0.490   0.777  1.00  0.00    -0.225 NA
ATOM     27  H   UNL     1       1.692   0.205  -0.192  1.00  0.00     0.137 HD
ATOM     28  H   UNL     1       0.612   0.235   1.076  1.00  0.00     0.137 HD
ENDBRANCH  23  26
ENDBRANCH  18  23
ENDBRANCH  13  17
BRANCH  15  29
ATOM     29  C   UNL     1       4.516   2.015   6.270  1.00  0.00     0.000 A 
ATOM     30  C   UNL     1       5.095   2.461   5.061  1.00  0.00     0.010 A 
ATOM     31  C   UNL     1       4.808   0.728   6.717  1.00  0.00     0.010 A 
ATOM     32  C   UNL     1       5.950   1.646   4.323  1.00  0.00     0.001 A 
ATOM     33  C   UNL     1       5.680  -0.085   5.981  1.00  0.00     0.001 A 
ATOM     34  C   UNL     1       6.253   0.374   4.793  1.00  0.00     0.000 A 
ENDBRANCH  15  29
ENDBRANCH   7  12
ENDBRANCH   5   6
ENDBRANCH   4   5
ENDBRANCH   3   4
ENDBRANCH   1   3
BRANCH   1  35
ATOM     35  O   UNL     1      -1.915   6.332   5.136  1.00  0.00    -0.462 OA
BRANCH  35  36
ATOM     36  C   UNL     1      -1.736   7.223   4.019  1.00  0.00     0.274 C 
BRANCH  36  37
ATOM     37  C   UNL     1      -1.124   6.517   2.814  1.00  0.00     0.275 C 
BRANCH  37  38
ATOM     38  O   UNL     1      -1.999   5.542   2.237  1.00  0.00    -0.458 OA
BRANCH  38  39
ATOM     39  C   UNL     1      -1.904   4.286   2.737  1.00  0.00     0.338 C 
ATOM     40  O   UNL     1      -1.366   3.952   3.774  1.00  0.00    -0.246 OA
BRANCH  39  41
ATOM     41  C   UNL     1      -2.305   3.294   1.746  1.00  0.00     0.060 A 
ATOM     42  C   UNL     1      -2.309   1.925   2.058  1.00  0.00     0.016 A 
ATOM     43  C   UNL     1      -2.272   3.696   0.425  1.00  0.00     0.016 A 
ATOM     44  C   UNL     1      -1.859   1.038   1.058  1.00  0.00     0.010 A 
ATOM     45  C   UNL     1      -2.253   2.710  -0.519  1.00  0.00     0.010 A 
ATOM     46  C   UNL     1      -1.514   1.570  -0.212  1.00  0.00    -0.014 A 
BRANCH  46  47
ATOM     47  C   UNL     1      -0.986   0.838  -1.445  1.00  0.00     0.031 A 
ATOM     48  C   UNL     1      -2.228   0.006  -1.791  1.00  0.00     0.074 A 
ATOM     49  C   UNL     1       0.241   0.908  -2.152  1.00  0.00     0.049 A 
ATOM     50  N   UNL     1      -2.455  -1.165  -1.273  1.00  0.00    -0.248 NA
ATOM     51  C   UNL     1      -3.521   0.624  -2.248  1.00  0.00     0.031 C 
ATOM     52  C   UNL     1       1.532   1.671  -2.016  1.00  0.00     0.029 A 
ATOM     53  N   UNL     1       0.672   0.196  -3.272  1.00  0.00    -0.354 N 
ATOM     54  C   UNL     1      -3.697  -1.547  -1.774  1.00  0.00     0.074 A 
ATOM     55  C   UNL     1      -4.417  -0.339  -2.001  1.00  0.00     0.031 C 
ATOM     56  C   UNL     1       2.333   1.698  -3.107  1.00  0.00     0.029 A 
ATOM     57  C   UNL     1       1.780   0.754  -4.019  1.00  0.00     0.049 A 
ATOM     58  H   UNL     1       0.242  -0.647  -3.543  1.00  0.00     0.167 HD
ATOM     59  C   UNL     1      -3.777  -2.717  -2.464  1.00  0.00     0.031 A 
ATOM     60  C   UNL     1       2.372   0.350  -5.194  1.00  0.00     0.031 A 
ATOM     61  C   UNL     1      -2.628  -3.528  -2.140  1.00  0.00     0.049 A 
ATOM     62  C   UNL     1       1.822  -1.001  -5.450  1.00  0.00     0.074 A 
ATOM     63  C   UNL     1      -2.118  -4.035  -0.963  1.00  0.00     0.029 A 
ATOM     64  N   UNL     1      -1.572  -3.353  -2.998  1.00  0.00    -0.354 N 
ATOM     65  N   UNL     1       2.177  -2.015  -4.704  1.00  0.00    -0.248 NA
ATOM     66  C   UNL     1       0.441  -0.979  -5.933  1.00  0.00     0.031 C 
ATOM     67  C   UNL     1      -0.710  -3.821  -1.036  1.00  0.00     0.029 A 
ATOM     68  C   UNL     1      -0.382  -3.392  -2.322  1.00  0.00     0.049 A 
ATOM     69  H   UNL     1      -1.659  -3.219  -3.970  1.00  0.00     0.167 HD
ATOM     70  C   UNL     1       0.974  -2.488  -4.202  1.00  0.00     0.074 A 
ATOM     71  C   UNL     1      -0.069  -1.798  -5.001  1.00  0.00     0.031 C 
ATOM     72  C   UNL     1       0.875  -3.044  -2.950  1.00  0.00     0.031 A 
BRANCH  59  73
ATOM     73  C   UNL     1      -4.498  -2.844  -3.790  1.00  0.00    -0.014 A 
ATOM     74  C   UNL     1      -4.613  -4.123  -4.353  1.00  0.00     0.009 A 
ATOM     75  C   UNL     1      -4.829  -1.756  -4.630  1.00  0.00     0.009 A 
ATOM     76  C   UNL     1      -5.028  -4.304  -5.679  1.00  0.00     0.001 A 
ATOM     77  C   UNL     1      -5.274  -1.933  -5.944  1.00  0.00     0.001 A 
ATOM     78  C   UNL     1      -5.364  -3.211  -6.472  1.00  0.00     0.000 A 
ENDBRANCH  59  73
BRANCH  60  79
ATOM     79  C   UNL     1       2.964   1.232  -6.265  1.00  0.00    -0.014 A 
ATOM     80  C   UNL     1       3.564   0.788  -7.468  1.00  0.00     0.009 A 
ATOM     81  C   UNL     1       2.660   2.603  -6.202  1.00  0.00     0.009 A 
ATOM     82  C   UNL     1       3.757   1.671  -8.562  1.00  0.00     0.001 A 
ATOM     83  C   UNL     1       2.827   3.469  -7.287  1.00  0.00     0.001 A 
ATOM     84  C   UNL     1       3.353   3.002  -8.480  1.00  0.00     0.000 A 
ENDBRANCH  60  79
BRANCH  72  85
ATOM     85  C   UNL     1       2.128  -3.313  -2.131  1.00  0.00    -0.014 A 
ATOM     86  C   UNL     1       2.977  -2.350  -1.543  1.00  0.00     0.009 A 
ATOM     87  C   UNL     1       2.352  -4.656  -1.802  1.00  0.00     0.009 A 
ATOM     88  C   UNL     1       4.050  -2.745  -0.718  1.00  0.00     0.001 A 
ATOM     89  C   UNL     1       3.403  -5.047  -0.972  1.00  0.00     0.001 A 
ATOM     90  C   UNL     1       4.269  -4.095  -0.448  1.00  0.00     0.000 A 
ENDBRANCH  72  85
ENDBRANCH  46  47
ENDBRANCH  39  41
ENDBRANCH  38  39
ENDBRANCH  37  38
ENDBRANCH  36  37
ENDBRANCH  35  36
ENDBRANCH   1  35
TORSDOF 19
