REMARK SMILES Nc1nc(N2CCOC[C@H]2C(=O)OCCOC(=O)c2ccc(-c3c4nc(c(-c5ccccc5)c5ccc([nH]5)c(-c5ccccc5)c5nc(c(-c6ccccc6)c6ccc3[nH]6)C=C5)C=C4)cc2)ccc1[N+](=O)[O-]
REMARK SMILES IDX 14 1 13 2 11 3 12 4 10 5 5 6 6 7 7 8 9 9 8 10 4 11 2 12 3 13
REMARK SMILES IDX 69 14 68 15 67 16 1 17 70 20 71 21 72 22 15 23 16 24 17 25
REMARK SMILES IDX 18 26 19 27 20 28 66 29 21 30 65 31 22 32 23 33 24 34 59 35
REMARK SMILES IDX 25 36 64 37 58 38 60 39 26 40 63 41 57 42 56 43 27 45 49 46
REMARK SMILES IDX 34 47 48 48 35 49 38 50 47 51 61 52 36 53 37 54 46 56 62 57
REMARK SMILES IDX 39 58 28 59 29 60 33 61 30 62 32 63 31 64 50 65 51 66 55 67
REMARK SMILES IDX 52 68 54 69 53 70 40 71 41 72 45 73 42 74 44 75 43 76
REMARK H PARENT 1 18 1 19 60 44 38 55
REMARK Flexibility Score: inf
ROOT
ATOM      1  C   UNL     1      -0.564   5.897   2.242  1.00  0.00     0.274 C 
ENDROOT
BRANCH   1   2
ATOM      2  O   UNL     1      -1.191   4.762   1.615  1.00  0.00    -0.460 OA
BRANCH   2   3
ATOM      3  C   UNL     1      -1.329   4.820   0.264  1.00  0.00     0.331 C 
ATOM      4  O   UNL     1      -0.957   5.769  -0.425  1.00  0.00    -0.250 OA
BRANCH   3   5
ATOM      5  C   UNL     1      -2.048   3.618  -0.351  1.00  0.00     0.220 C 
ATOM      6  N   UNL     1      -2.217   2.429   0.511  1.00  0.00    -0.339 N 
ATOM      7  C   UNL     1      -3.219   2.515   1.573  1.00  0.00     0.147 C 
ATOM      8  C   UNL     1      -4.538   3.041   0.997  1.00  0.00     0.181 C 
ATOM      9  C   UNL     1      -3.437   4.105  -0.812  1.00  0.00     0.197 C 
ATOM     10  O   UNL     1      -4.354   4.275   0.286  1.00  0.00    -0.377 OA
BRANCH   6  11
ATOM     11  C   UNL     1      -1.490   1.287   0.274  1.00  0.00     0.132 A 
ATOM     12  C   UNL     1       0.582   0.267  -0.132  1.00  0.00     0.204 A 
ATOM     13  N   UNL     1      -0.172   1.392  -0.010  1.00  0.00    -0.207 NA
ATOM     14  C   UNL     1       0.008  -1.001  -0.081  1.00  0.00     0.311 A 
ATOM     15  C   UNL     1      -1.364  -1.120   0.123  1.00  0.00     0.093 A 
ATOM     16  C   UNL     1      -2.109   0.038   0.313  1.00  0.00     0.054 A 
BRANCH  12  17
ATOM     17  N   UNL     1       1.925   0.493  -0.385  1.00  0.00    -0.378 N 
ATOM     18  H   UNL     1       2.273   1.414  -0.409  1.00  0.00     0.158 HD
ATOM     19  H   UNL     1       2.531  -0.267  -0.540  1.00  0.00     0.158 HD
ENDBRANCH  12  17
BRANCH  14  20
ATOM     20  N   UNL     1       0.809  -2.211  -0.186  1.00  0.00     0.066 N 
ATOM     21  O   UNL     1       0.239  -3.237  -0.589  1.00  0.00    -0.258 OA
ATOM     22  O   UNL     1       1.995  -2.167   0.175  1.00  0.00    -0.258 OA
ENDBRANCH  14  20
ENDBRANCH   6  11
ENDBRANCH   3   5
ENDBRANCH   2   3
ENDBRANCH   1   2
BRANCH   1  23
ATOM     23  C   UNL     1       0.910   5.609   2.508  1.00  0.00     0.275 C 
BRANCH  23  24
ATOM     24  O   UNL     1       1.585   5.415   1.255  1.00  0.00    -0.458 OA
BRANCH  24  25
ATOM     25  C   UNL     1       2.128   4.196   1.059  1.00  0.00     0.338 C 
ATOM     26  O   UNL     1       2.226   3.270   1.843  1.00  0.00    -0.246 OA
BRANCH  25  27
ATOM     27  C   UNL     1       2.667   4.150  -0.305  1.00  0.00     0.060 A 
ATOM     28  C   UNL     1       1.805   3.980  -1.391  1.00  0.00     0.016 A 
ATOM     29  C   UNL     1       4.048   4.177  -0.487  1.00  0.00     0.016 A 
ATOM     30  C   UNL     1       2.323   3.825  -2.673  1.00  0.00     0.010 A 
ATOM     31  C   UNL     1       4.565   4.058  -1.776  1.00  0.00     0.010 A 
ATOM     32  C   UNL     1       3.708   3.867  -2.874  1.00  0.00    -0.014 A 
BRANCH  32  33
ATOM     33  C   UNL     1       4.279   3.655  -4.222  1.00  0.00     0.031 A 
ATOM     34  C   UNL     1       5.023   2.386  -4.518  1.00  0.00     0.074 A 
ATOM     35  C   UNL     1       4.147   4.602  -5.167  1.00  0.00     0.049 A 
ATOM     36  N   UNL     1       5.737   2.072  -5.568  1.00  0.00    -0.248 NA
ATOM     37  C   UNL     1       4.961   1.335  -3.490  1.00  0.00     0.031 C 
ATOM     38  C   UNL     1       3.393   5.848  -5.022  1.00  0.00     0.029 A 
ATOM     39  N   UNL     1       4.655   4.662  -6.440  1.00  0.00    -0.354 N 
ATOM     40  C   UNL     1       6.238   0.802  -5.313  1.00  0.00     0.074 A 
ATOM     41  C   UNL     1       5.757   0.410  -4.005  1.00  0.00     0.031 C 
ATOM     42  C   UNL     1       3.479   6.545  -6.166  1.00  0.00     0.029 A 
ATOM     43  C   UNL     1       4.342   5.826  -7.098  1.00  0.00     0.049 A 
ATOM     44  H   UNL     1       5.191   3.941  -6.842  1.00  0.00     0.167 HD
ATOM     45  C   UNL     1       7.029   0.035  -6.100  1.00  0.00     0.031 A 
ATOM     46  C   UNL     1       4.737   6.275  -8.303  1.00  0.00     0.031 A 
ATOM     47  C   UNL     1       7.497   0.427  -7.403  1.00  0.00     0.049 A 
ATOM     48  C   UNL     1       5.681   5.441  -9.123  1.00  0.00     0.074 A 
ATOM     49  C   UNL     1       8.300  -0.279  -8.282  1.00  0.00     0.029 A 
ATOM     50  N   UNL     1       7.197   1.634  -8.015  1.00  0.00    -0.354 N 
ATOM     51  N   UNL     1       6.177   4.256  -8.861  1.00  0.00    -0.248 NA
ATOM     52  C   UNL     1       6.129   6.015 -10.399  1.00  0.00     0.031 C 
ATOM     53  C   UNL     1       8.519   0.520  -9.410  1.00  0.00     0.029 A 
ATOM     54  C   UNL     1       7.814   1.703  -9.252  1.00  0.00     0.049 A 
ATOM     55  H   UNL     1       6.629   2.338  -7.627  1.00  0.00     0.167 HD
ATOM     56  C   UNL     1       6.977   3.932  -9.948  1.00  0.00     0.074 A 
ATOM     57  C   UNL     1       6.891   5.041 -10.877  1.00  0.00     0.031 C 
ATOM     58  C   UNL     1       7.717   2.816 -10.159  1.00  0.00     0.031 A 
BRANCH  45  59
ATOM     59  C   UNL     1       7.470  -1.289  -5.543  1.00  0.00    -0.014 A 
ATOM     60  C   UNL     1       6.579  -2.366  -5.423  1.00  0.00     0.009 A 
ATOM     61  C   UNL     1       8.803  -1.460  -5.138  1.00  0.00     0.009 A 
ATOM     62  C   UNL     1       7.005  -3.576  -4.870  1.00  0.00     0.001 A 
ATOM     63  C   UNL     1       9.232  -2.678  -4.610  1.00  0.00     0.001 A 
ATOM     64  C   UNL     1       8.330  -3.732  -4.467  1.00  0.00     0.000 A 
ENDBRANCH  45  59
BRANCH  46  65
ATOM     65  C   UNL     1       4.263   7.592  -8.798  1.00  0.00    -0.014 A 
ATOM     66  C   UNL     1       3.347   7.662  -9.858  1.00  0.00     0.009 A 
ATOM     67  C   UNL     1       4.722   8.784  -8.215  1.00  0.00     0.009 A 
ATOM     68  C   UNL     1       2.913   8.901 -10.336  1.00  0.00     0.001 A 
ATOM     69  C   UNL     1       4.267  10.019  -8.678  1.00  0.00     0.001 A 
ATOM     70  C   UNL     1       3.369  10.077  -9.743  1.00  0.00     0.000 A 
ENDBRANCH  46  65
BRANCH  58  71
ATOM     71  C   UNL     1       8.460   2.729 -11.461  1.00  0.00    -0.014 A 
ATOM     72  C   UNL     1       9.628   3.473 -11.683  1.00  0.00     0.009 A 
ATOM     73  C   UNL     1       7.999   1.864 -12.466  1.00  0.00     0.009 A 
ATOM     74  C   UNL     1      10.305   3.375 -12.900  1.00  0.00     0.001 A 
ATOM     75  C   UNL     1       8.691   1.750 -13.672  1.00  0.00     0.001 A 
ATOM     76  C   UNL     1       9.838   2.511 -13.891  1.00  0.00     0.000 A 
ENDBRANCH  58  71
ENDBRANCH  32  33
ENDBRANCH  25  27
ENDBRANCH  24  25
ENDBRANCH  23  24
ENDBRANCH   1  23
TORSDOF 14
