REMARK SMILES CC(=O)N[C@H]1[C@@H](Oc2ccc(C)c(C)c2)O[C@H]2CO[C@H](c3ccco3)O[C@@H]2[C@H]1OCC(=O)OCCOC(=O)c1ccc(-c2c3nc(c(-c4ccccc4)c4ccc([nH]4)c(-c4ccccc4)c4nc(c(-c5ccccc5)c5ccc2[nH]5)C=C4)C=C3)cc1
REMARK SMILES IDX 34 1 33 2 31 3 32 4 30 5 29 6 28 7 5 8 6 9 16 10 27 11 17 12
REMARK SMILES IDX 26 13 18 14 20 15 19 16 4 17 1 18 2 19 3 20 7 22 8 23 9 24
REMARK SMILES IDX 15 25 10 26 13 27 11 28 14 29 12 30 21 31 22 32 25 33 23 34
REMARK SMILES IDX 24 35 35 36 36 37 37 38 38 39 39 40 40 41 86 42 41 43 85 44
REMARK SMILES IDX 42 45 43 46 44 47 79 48 45 49 84 50 78 51 80 52 46 53 83 54
REMARK SMILES IDX 77 55 76 56 47 58 69 59 54 60 68 61 55 62 58 63 67 64 81 65
REMARK SMILES IDX 56 66 57 67 66 69 82 70 59 71 48 72 49 73 53 74 50 75 52 76
REMARK SMILES IDX 51 77 70 78 71 79 75 80 72 81 74 82 73 83 60 84 61 85 65 86
REMARK SMILES IDX 62 87 64 88 63 89
REMARK H PARENT 4 21 80 57 58 68
REMARK Flexibility Score: inf
ROOT
ATOM      1  C   UNL     1       5.395  -3.548  -1.638  1.00  0.00     0.274 C 
ENDROOT
BRANCH   1   2
ATOM      2  O   UNL     1       4.575  -2.475  -1.125  1.00  0.00    -0.460 OA
BRANCH   2   3
ATOM      3  C   UNL     1       5.218  -1.303  -0.886  1.00  0.00     0.332 C 
ATOM      4  O   UNL     1       6.420  -1.120  -1.051  1.00  0.00    -0.250 OA
BRANCH   3   5
ATOM      5  C   UNL     1       4.280  -0.184  -0.402  1.00  0.00     0.283 C 
BRANCH   5   6
ATOM      6  O   UNL     1       2.873  -0.279  -0.390  1.00  0.00    -0.361 OA
BRANCH   6   7
ATOM      7  C   UNL     1       2.193  -0.393  -1.641  1.00  0.00     0.179 C 
ATOM      8  C   UNL     1       1.566  -1.805  -1.762  1.00  0.00     0.182 C 
ATOM      9  C   UNL     1       0.547  -1.867  -2.969  1.00  0.00     0.333 C 
ATOM     10  O   UNL     1      -0.352  -0.760  -3.059  1.00  0.00    -0.332 OA
ATOM     11  C   UNL     1       1.089   0.684  -1.789  1.00  0.00     0.184 C 
ATOM     12  C   UNL     1       0.341   0.480  -3.109  1.00  0.00     0.180 C 
ATOM     13  O   UNL     1       1.598   2.018  -1.710  1.00  0.00    -0.337 OA
ATOM     14  C   UNL     1      -0.671   1.607  -3.323  1.00  0.00     0.199 C 
ATOM     15  C   UNL     1       0.485   2.920  -1.782  1.00  0.00     0.319 C 
ATOM     16  O   UNL     1      -0.088   2.884  -3.088  1.00  0.00    -0.343 OA
BRANCH   8  17
ATOM     17  N   UNL     1       1.114  -2.480  -0.507  1.00  0.00    -0.345 N 
ATOM     18  C   UNL     1       0.967  -0.870   1.448  1.00  0.00     0.114 C 
ATOM     19  C   UNL     1       0.878  -2.220   0.800  1.00  0.00     0.217 C 
ATOM     20  O   UNL     1       0.570  -3.190   1.504  1.00  0.00    -0.275 OA
ATOM     21  H   UNL     1       0.926  -3.428  -0.693  1.00  0.00     0.164 HD
ENDBRANCH   8  17
BRANCH   9  22
ATOM     22  O   UNL     1      -0.113  -3.127  -3.142  1.00  0.00    -0.463 OA
BRANCH  22  23
ATOM     23  C   UNL     1      -1.166  -3.484  -2.352  1.00  0.00     0.123 A 
ATOM     24  C   UNL     1      -1.695  -2.755  -1.297  1.00  0.00     0.047 A 
ATOM     25  C   UNL     1      -1.693  -4.748  -2.623  1.00  0.00     0.050 A 
ATOM     26  C   UNL     1      -2.594  -3.353  -0.412  1.00  0.00     0.007 A 
ATOM     27  C   UNL     1      -2.654  -5.340  -1.784  1.00  0.00    -0.045 A 
ATOM     28  C   UNL     1      -3.040  -4.666  -0.613  1.00  0.00    -0.048 A 
ATOM     29  C   UNL     1      -3.236  -6.659  -2.208  1.00  0.00     0.045 C 
ATOM     30  C   UNL     1      -3.920  -5.289   0.433  1.00  0.00     0.044 C 
ENDBRANCH  22  23
ENDBRANCH   9  22
BRANCH  15  31
ATOM     31  C   UNL     1       0.898   4.322  -1.506  1.00  0.00     0.159 A 
ATOM     32  C   UNL     1       0.162   5.493  -1.456  1.00  0.00     0.051 A 
ATOM     33  O   UNL     1       2.191   4.578  -1.149  1.00  0.00    -0.464 OA
ATOM     34  C   UNL     1       1.048   6.512  -1.042  1.00  0.00     0.042 A 
ATOM     35  C   UNL     1       2.271   5.907  -0.876  1.00  0.00     0.195 A 
ENDBRANCH  15  31
ENDBRANCH   6   7
ENDBRANCH   5   6
ENDBRANCH   3   5
ENDBRANCH   2   3
ENDBRANCH   1   2
BRANCH   1  36
ATOM     36  C   UNL     1       5.249  -3.672  -3.155  1.00  0.00     0.275 C 
BRANCH  36  37
ATOM     37  O   UNL     1       5.517  -2.406  -3.786  1.00  0.00    -0.458 OA
BRANCH  37  38
ATOM     38  C   UNL     1       4.511  -1.899  -4.532  1.00  0.00     0.338 C 
ATOM     39  O   UNL     1       3.428  -2.407  -4.764  1.00  0.00    -0.246 OA
BRANCH  38  40
ATOM     40  C   UNL     1       4.851  -0.545  -4.998  1.00  0.00     0.060 A 
ATOM     41  C   UNL     1       5.149   0.452  -4.069  1.00  0.00     0.016 A 
ATOM     42  C   UNL     1       4.721  -0.231  -6.350  1.00  0.00     0.016 A 
ATOM     43  C   UNL     1       5.260   1.778  -4.474  1.00  0.00     0.010 A 
ATOM     44  C   UNL     1       4.918   1.087  -6.769  1.00  0.00     0.010 A 
ATOM     45  C   UNL     1       5.171   2.104  -5.832  1.00  0.00    -0.014 A 
BRANCH  45  46
ATOM     46  C   UNL     1       5.369   3.501  -6.285  1.00  0.00     0.031 A 
ATOM     47  C   UNL     1       4.251   4.247  -6.954  1.00  0.00     0.074 A 
ATOM     48  C   UNL     1       6.572   4.085  -6.129  1.00  0.00     0.049 A 
ATOM     49  N   UNL     1       4.292   5.381  -7.606  1.00  0.00    -0.248 NA
ATOM     50  C   UNL     1       2.917   3.630  -6.896  1.00  0.00     0.031 C 
ATOM     51  C   UNL     1       7.727   3.486  -5.456  1.00  0.00     0.029 A 
ATOM     52  N   UNL     1       7.025   5.312  -6.539  1.00  0.00    -0.354 N 
ATOM     53  C   UNL     1       3.002   5.592  -8.074  1.00  0.00     0.074 A 
ATOM     54  C   UNL     1       2.201   4.469  -7.633  1.00  0.00     0.031 C 
ATOM     55  C   UNL     1       8.752   4.350  -5.492  1.00  0.00     0.029 A 
ATOM     56  C   UNL     1       8.350   5.528  -6.251  1.00  0.00     0.049 A 
ATOM     57  H   UNL     1       6.457   5.974  -6.996  1.00  0.00     0.167 HD
ATOM     58  C   UNL     1       2.532   6.627  -8.812  1.00  0.00     0.031 A 
ATOM     59  C   UNL     1       9.167   6.538  -6.597  1.00  0.00     0.031 A 
ATOM     60  C   UNL     1       3.326   7.755  -9.224  1.00  0.00     0.049 A 
ATOM     61  C   UNL     1       8.635   7.652  -7.448  1.00  0.00     0.074 A 
ATOM     62  C   UNL     1       2.939   8.860  -9.962  1.00  0.00     0.029 A 
ATOM     63  N   UNL     1       4.667   7.926  -8.921  1.00  0.00    -0.354 N 
ATOM     64  N   UNL     1       7.426   7.817  -7.926  1.00  0.00    -0.248 NA
ATOM     65  C   UNL     1       9.584   8.710  -7.818  1.00  0.00     0.031 C 
ATOM     66  C   UNL     1       4.056   9.685 -10.133  1.00  0.00     0.029 A 
ATOM     67  C   UNL     1       5.128   9.111  -9.468  1.00  0.00     0.049 A 
ATOM     68  H   UNL     1       5.212   7.297  -8.394  1.00  0.00     0.167 HD
ATOM     69  C   UNL     1       7.465   9.003  -8.645  1.00  0.00     0.074 A 
ATOM     70  C   UNL     1       8.812   9.523  -8.527  1.00  0.00     0.031 C 
ATOM     71  C   UNL     1       6.473   9.606  -9.344  1.00  0.00     0.031 A 
BRANCH  58  72
ATOM     72  C   UNL     1       1.099   6.565  -9.257  1.00  0.00    -0.014 A 
ATOM     73  C   UNL     1       0.044   6.811  -8.366  1.00  0.00     0.009 A 
ATOM     74  C   UNL     1       0.805   6.290 -10.602  1.00  0.00     0.009 A 
ATOM     75  C   UNL     1      -1.280   6.758  -8.810  1.00  0.00     0.001 A 
ATOM     76  C   UNL     1      -0.517   6.259 -11.047  1.00  0.00     0.001 A 
ATOM     77  C   UNL     1      -1.559   6.486 -10.149  1.00  0.00     0.000 A 
ENDBRANCH  58  72
BRANCH  59  78
ATOM     78  C   UNL     1      10.589   6.510  -6.174  1.00  0.00    -0.014 A 
ATOM     79  C   UNL     1      11.046   7.366  -5.162  1.00  0.00     0.009 A 
ATOM     80  C   UNL     1      11.488   5.605  -6.761  1.00  0.00     0.009 A 
ATOM     81  C   UNL     1      12.380   7.323  -4.754  1.00  0.00     0.001 A 
ATOM     82  C   UNL     1      12.815   5.549  -6.333  1.00  0.00     0.001 A 
ATOM     83  C   UNL     1      13.261   6.412  -5.334  1.00  0.00     0.000 A 
ENDBRANCH  59  78
BRANCH  71  84
ATOM     84  C   UNL     1       6.811  10.908 -10.007  1.00  0.00    -0.014 A 
ATOM     85  C   UNL     1       7.555  10.941 -11.196  1.00  0.00     0.009 A 
ATOM     86  C   UNL     1       6.361  12.112  -9.445  1.00  0.00     0.009 A 
ATOM     87  C   UNL     1       7.868  12.163 -11.794  1.00  0.00     0.001 A 
ATOM     88  C   UNL     1       6.659  13.330 -10.056  1.00  0.00     0.001 A 
ATOM     89  C   UNL     1       7.418  13.355 -11.226  1.00  0.00     0.000 A 
ENDBRANCH  71  84
ENDBRANCH  45  46
ENDBRANCH  38  40
ENDBRANCH  37  38
ENDBRANCH  36  37
ENDBRANCH   1  36
TORSDOF 17
