REMARK SMILES O=C(COc1cc2ccccc2cc1O)OCCOC(=O)c1ccc(-c2c3nc(c(-c4ccccc4)c4ccc([nH]4)c(-c4ccccc4)c4nc(c(-c5ccccc5)c5ccc2[nH]5)C=C4)C=C3)cc1
REMARK SMILES IDX 17 1 16 2 2 3 1 4 3 5 4 6 5 7 6 8 14 9 7 10 13 11 8 12 12 13
REMARK SMILES IDX 9 14 11 15 10 16 15 17 18 19 19 20 20 21 21 22 22 23 23 24
REMARK SMILES IDX 69 25 24 26 68 27 25 28 26 29 27 30 62 31 28 32 67 33 61 34
REMARK SMILES IDX 63 35 29 36 66 37 60 38 59 39 30 41 52 42 37 43 51 44 38 45
REMARK SMILES IDX 41 46 50 47 64 48 39 49 40 50 49 52 65 53 42 54 31 55 32 56
REMARK SMILES IDX 36 57 33 58 35 59 34 60 53 61 54 62 58 63 55 64 57 65 56 66
REMARK SMILES IDX 43 67 44 68 48 69 45 70 47 71 46 72
REMARK H PARENT 15 18 63 40 41 51
REMARK Flexibility Score: inf
ROOT
ATOM      1  C   UNL     1       3.433  -1.843  -0.585  1.00  0.00     0.274 C 
ENDROOT
BRANCH   1   2
ATOM      2  O   UNL     1       2.310  -0.982  -0.284  1.00  0.00    -0.460 OA
BRANCH   2   3
ATOM      3  C   UNL     1       2.394  -0.102   0.755  1.00  0.00     0.344 C 
ATOM      4  O   UNL     1       1.718  -0.247   1.769  1.00  0.00    -0.248 OA
BRANCH   3   5
ATOM      5  C   UNL     1       3.130   1.218   0.421  1.00  0.00     0.352 C 
BRANCH   5   6
ATOM      6  O   UNL     1       3.940   1.927   1.359  1.00  0.00    -0.478 OA
BRANCH   6   7
ATOM      7  C   UNL     1       4.914   1.206   1.988  1.00  0.00     0.162 A 
ATOM      8  C   UNL     1       5.383   1.669   3.212  1.00  0.00     0.059 A 
ATOM      9  C   UNL     1       5.510   0.069   1.467  1.00  0.00     0.158 A 
ATOM     10  C   UNL     1       6.307   0.901   3.953  1.00  0.00    -0.014 A 
ATOM     11  C   UNL     1       6.197  -0.828   2.265  1.00  0.00     0.059 A 
ATOM     12  C   UNL     1       6.972   1.397   5.083  1.00  0.00     0.009 A 
ATOM     13  C   UNL     1       6.605  -0.415   3.527  1.00  0.00    -0.014 A 
ATOM     14  C   UNL     1       7.858   0.587   5.800  1.00  0.00     0.001 A 
ATOM     15  C   UNL     1       7.399  -1.254   4.315  1.00  0.00     0.009 A 
ATOM     16  C   UNL     1       8.033  -0.749   5.445  1.00  0.00     0.001 A 
BRANCH   9  17
ATOM     17  O   UNL     1       5.606  -0.115   0.119  1.00  0.00    -0.504 OA
ATOM     18  H   UNL     1       5.159   0.465  -0.466  1.00  0.00     0.293 HD
ENDBRANCH   9  17
ENDBRANCH   6   7
ENDBRANCH   5   6
ENDBRANCH   3   5
ENDBRANCH   2   3
ENDBRANCH   1   2
BRANCH   1  19
ATOM     19  C   UNL     1       4.113  -1.537  -1.936  1.00  0.00     0.275 C 
BRANCH  19  20
ATOM     20  O   UNL     1       3.816  -0.225  -2.432  1.00  0.00    -0.458 OA
BRANCH  20  21
ATOM     21  C   UNL     1       2.565  -0.115  -2.955  1.00  0.00     0.338 C 
ATOM     22  O   UNL     1       1.767  -1.005  -3.149  1.00  0.00    -0.246 OA
BRANCH  21  23
ATOM     23  C   UNL     1       2.248   1.320  -3.086  1.00  0.00     0.060 A 
ATOM     24  C   UNL     1       1.067   1.795  -2.503  1.00  0.00     0.016 A 
ATOM     25  C   UNL     1       3.099   2.180  -3.781  1.00  0.00     0.016 A 
ATOM     26  C   UNL     1       0.717   3.138  -2.646  1.00  0.00     0.010 A 
ATOM     27  C   UNL     1       2.741   3.520  -3.932  1.00  0.00     0.010 A 
ATOM     28  C   UNL     1       1.537   3.999  -3.389  1.00  0.00    -0.014 A 
BRANCH  28  29
ATOM     29  C   UNL     1       1.084   5.374  -3.701  1.00  0.00     0.031 A 
ATOM     30  C   UNL     1       0.460   5.651  -5.040  1.00  0.00     0.074 A 
ATOM     31  C   UNL     1       1.234   6.365  -2.805  1.00  0.00     0.049 A 
ATOM     32  N   UNL     1       0.028   6.784  -5.532  1.00  0.00    -0.248 NA
ATOM     33  C   UNL     1       0.304   4.501  -5.946  1.00  0.00     0.031 C 
ATOM     34  C   UNL     1       1.797   6.218  -1.463  1.00  0.00     0.029 A 
ATOM     35  N   UNL     1       0.931   7.700  -2.899  1.00  0.00    -0.354 N 
ATOM     36  C   UNL     1      -0.449   6.485  -6.802  1.00  0.00     0.074 A 
ATOM     37  C   UNL     1      -0.228   5.071  -7.017  1.00  0.00     0.031 C 
ATOM     38  C   UNL     1       1.808   7.420  -0.862  1.00  0.00     0.029 A 
ATOM     39  C   UNL     1       1.286   8.424  -1.787  1.00  0.00     0.049 A 
ATOM     40  H   UNL     1       0.500   8.101  -3.688  1.00  0.00     0.167 HD
ATOM     41  C   UNL     1      -1.025   7.313  -7.705  1.00  0.00     0.031 A 
ATOM     42  C   UNL     1       1.219   9.750  -1.554  1.00  0.00     0.031 A 
ATOM     43  C   UNL     1      -1.230   8.722  -7.498  1.00  0.00     0.049 A 
ATOM     44  C   UNL     1       0.655  10.660  -2.615  1.00  0.00     0.074 A 
ATOM     45  C   UNL     1      -1.835   9.635  -8.345  1.00  0.00     0.029 A 
ATOM     46  N   UNL     1      -0.823   9.424  -6.376  1.00  0.00    -0.354 N 
ATOM     47  N   UNL     1       0.149  10.355  -3.786  1.00  0.00    -0.248 NA
ATOM     48  C   UNL     1       0.648  12.100  -2.317  1.00  0.00     0.031 C 
ATOM     49  C   UNL     1      -1.728  10.903  -7.767  1.00  0.00     0.029 A 
ATOM     50  C   UNL     1      -1.122  10.767  -6.528  1.00  0.00     0.049 A 
ATOM     51  H   UNL     1      -0.387   9.027  -5.588  1.00  0.00     0.167 HD
ATOM     52  C   UNL     1      -0.260  11.559  -4.348  1.00  0.00     0.074 A 
ATOM     53  C   UNL     1       0.033  12.595  -3.381  1.00  0.00     0.031 C 
ATOM     54  C   UNL     1      -0.825  11.789  -5.559  1.00  0.00     0.031 A 
BRANCH  41  55
ATOM     55  C   UNL     1      -1.451   6.727  -9.021  1.00  0.00    -0.014 A 
ATOM     56  C   UNL     1      -2.569   5.884  -9.117  1.00  0.00     0.009 A 
ATOM     57  C   UNL     1      -0.766   7.086 -10.193  1.00  0.00     0.009 A 
ATOM     58  C   UNL     1      -2.981   5.397 -10.360  1.00  0.00     0.001 A 
ATOM     59  C   UNL     1      -1.197   6.620 -11.436  1.00  0.00     0.001 A 
ATOM     60  C   UNL     1      -2.300   5.772 -11.518  1.00  0.00     0.000 A 
ENDBRANCH  41  55
BRANCH  42  61
ATOM     61  C   UNL     1       1.736  10.319  -0.280  1.00  0.00    -0.014 A 
ATOM     62  C   UNL     1       0.871  10.944   0.632  1.00  0.00     0.009 A 
ATOM     63  C   UNL     1       3.111  10.297  -0.000  1.00  0.00     0.009 A 
ATOM     64  C   UNL     1       1.377  11.572   1.772  1.00  0.00     0.001 A 
ATOM     65  C   UNL     1       3.611  10.894   1.159  1.00  0.00     0.001 A 
ATOM     66  C   UNL     1       2.745  11.545   2.036  1.00  0.00     0.000 A 
ENDBRANCH  42  61
BRANCH  54  67
ATOM     67  C   UNL     1      -1.191  13.209  -5.896  1.00  0.00    -0.014 A 
ATOM     68  C   UNL     1      -0.206  14.175  -6.156  1.00  0.00     0.009 A 
ATOM     69  C   UNL     1      -2.543  13.574  -5.999  1.00  0.00     0.009 A 
ATOM     70  C   UNL     1      -0.568  15.485  -6.476  1.00  0.00     0.001 A 
ATOM     71  C   UNL     1      -2.901  14.876  -6.353  1.00  0.00     0.001 A 
ATOM     72  C   UNL     1      -1.914  15.832  -6.581  1.00  0.00     0.000 A 
ENDBRANCH  54  67
ENDBRANCH  28  29
ENDBRANCH  21  23
ENDBRANCH  20  21
ENDBRANCH  19  20
ENDBRANCH   1  19
TORSDOF 14
