REMARK SMILES CC(C)(C(=O)OCCOC(=O)c1ccc(-c2c3nc(c(-c4ccccc4)c4ccc([nH]4)c(-c4ccccc4)c4nc(c(-c5ccccc5)c5ccc2[nH]5)C=C4)C=C3)cc1)c1ccc(C(=O)CCCCl)cc1
REMARK SMILES IDX 6 1 4 2 5 3 2 4 1 5 3 6 60 7 61 8 71 9 62 10 70 11 63 12
REMARK SMILES IDX 64 13 65 14 66 15 67 16 68 17 69 18 7 19 8 20 9 21 10 22
REMARK SMILES IDX 11 23 12 24 13 25 59 26 14 27 58 28 15 29 16 30 17 31 52 32
REMARK SMILES IDX 18 33 57 34 51 35 53 36 19 37 56 38 50 39 49 40 20 42 42 43
REMARK SMILES IDX 27 44 41 45 28 46 31 47 40 48 54 49 29 50 30 51 39 53 55 54
REMARK SMILES IDX 32 55 21 56 22 57 26 58 23 59 25 60 24 61 43 62 44 63 48 64
REMARK SMILES IDX 45 65 47 66 46 67 33 68 34 69 38 70 35 71 37 72 36 73
REMARK H PARENT 53 41 31 52
REMARK Flexibility Score: inf
ROOT
ATOM      1  O   UNL     1      -1.661   0.457  -0.966  1.00  0.00    -0.461 OA
ENDROOT
BRANCH   1   2
ATOM      2  C   UNL     1      -0.941   1.591  -0.743  1.00  0.00     0.316 C 
ATOM      3  O   UNL     1      -1.452   2.703  -0.654  1.00  0.00    -0.251 OA
BRANCH   2   4
ATOM      4  C   UNL     1       0.590   1.331  -0.695  1.00  0.00     0.087 C 
ATOM      5  C   UNL     1       0.881  -0.171  -0.478  1.00  0.00     0.028 C 
ATOM      6  C   UNL     1       1.144   1.705  -2.088  1.00  0.00     0.028 C 
BRANCH   4   7
ATOM      7  C   UNL     1       1.265   2.228   0.374  1.00  0.00    -0.031 A 
ATOM      8  C   UNL     1       2.023   1.718   1.441  1.00  0.00     0.005 A 
ATOM      9  C   UNL     1       1.122   3.628   0.307  1.00  0.00     0.005 A 
ATOM     10  C   UNL     1       2.616   2.571   2.384  1.00  0.00     0.012 A 
ATOM     11  C   UNL     1       1.676   4.476   1.269  1.00  0.00     0.012 A 
ATOM     12  C   UNL     1       2.448   3.957   2.305  1.00  0.00     0.018 A 
BRANCH  12  13
ATOM     13  C   UNL     1       3.115   4.819   3.323  1.00  0.00     0.162 C 
ATOM     14  O   UNL     1       4.012   4.335   4.014  1.00  0.00    -0.294 OA
BRANCH  13  15
ATOM     15  C   UNL     1       2.712   6.273   3.489  1.00  0.00     0.082 C 
BRANCH  15  16
ATOM     16  C   UNL     1       3.739   7.230   2.881  1.00  0.00     0.024 C 
BRANCH  16  17
ATOM     17  C   UNL     1       3.599   7.468   1.381  1.00  0.00     0.110 C 
ATOM     18  Cl  UNL     1       2.091   8.330   0.988  1.00  0.00    -0.127 Cl
ENDBRANCH  16  17
ENDBRANCH  15  16
ENDBRANCH  13  15
ENDBRANCH  12  13
ENDBRANCH   4   7
ENDBRANCH   2   4
ENDBRANCH   1   2
BRANCH   1  19
ATOM     19  C   UNL     1      -3.091   0.621  -1.033  1.00  0.00     0.274 C 
BRANCH  19  20
ATOM     20  C   UNL     1      -3.737   0.249   0.298  1.00  0.00     0.275 C 
BRANCH  20  21
ATOM     21  O   UNL     1      -3.308   1.156   1.331  1.00  0.00    -0.458 OA
BRANCH  21  22
ATOM     22  C   UNL     1      -2.720   0.581   2.404  1.00  0.00     0.338 C 
ATOM     23  O   UNL     1      -2.529  -0.607   2.598  1.00  0.00    -0.246 OA
BRANCH  22  24
ATOM     24  C   UNL     1      -2.316   1.609   3.381  1.00  0.00     0.060 A 
ATOM     25  C   UNL     1      -1.389   2.583   3.023  1.00  0.00     0.016 A 
ATOM     26  C   UNL     1      -2.728   1.490   4.710  1.00  0.00     0.016 A 
ATOM     27  C   UNL     1      -0.785   3.356   4.016  1.00  0.00     0.010 A 
ATOM     28  C   UNL     1      -2.173   2.321   5.691  1.00  0.00     0.010 A 
ATOM     29  C   UNL     1      -1.138   3.214   5.368  1.00  0.00    -0.014 A 
BRANCH  29  30
ATOM     30  C   UNL     1      -0.318   3.878   6.428  1.00  0.00     0.031 A 
ATOM     31  C   UNL     1       0.414   3.036   7.452  1.00  0.00     0.074 A 
ATOM     32  C   UNL     1      -0.121   5.212   6.436  1.00  0.00     0.049 A 
ATOM     33  N   UNL     1       1.102   3.419   8.501  1.00  0.00    -0.248 NA
ATOM     34  C   UNL     1       0.350   1.575   7.287  1.00  0.00     0.031 C 
ATOM     35  C   UNL     1      -0.685   6.164   5.480  1.00  0.00     0.029 A 
ATOM     36  N   UNL     1       0.675   5.990   7.245  1.00  0.00    -0.354 N 
ATOM     37  C   UNL     1       1.462   2.252   9.167  1.00  0.00     0.074 A 
ATOM     38  C   UNL     1       0.945   1.147   8.392  1.00  0.00     0.031 C 
ATOM     39  C   UNL     1      -0.119   7.367   5.674  1.00  0.00     0.029 A 
ATOM     40  C   UNL     1       0.785   7.292   6.818  1.00  0.00     0.049 A 
ATOM     41  H   UNL     1       1.122   5.648   8.052  1.00  0.00     0.167 HD
ATOM     42  C   UNL     1       2.144   2.110  10.329  1.00  0.00     0.031 A 
ATOM     43  C   UNL     1       1.545   8.303   7.282  1.00  0.00     0.031 A 
ATOM     44  C   UNL     1       2.749   3.189  11.061  1.00  0.00     0.049 A 
ATOM     45  C   UNL     1       2.364   8.114   8.529  1.00  0.00     0.074 A 
ATOM     46  C   UNL     1       3.408   3.149  12.278  1.00  0.00     0.029 A 
ATOM     47  N   UNL     1       2.816   4.496  10.612  1.00  0.00    -0.354 N 
ATOM     48  N   UNL     1       2.564   7.028   9.231  1.00  0.00    -0.248 NA
ATOM     49  C   UNL     1       3.031   9.311   9.066  1.00  0.00     0.031 C 
ATOM     50  C   UNL     1       3.863   4.440  12.573  1.00  0.00     0.029 A 
ATOM     51  C   UNL     1       3.512   5.272  11.523  1.00  0.00     0.049 A 
ATOM     52  H   UNL     1       2.427   4.825   9.769  1.00  0.00     0.167 HD
ATOM     53  C   UNL     1       3.366   7.412  10.299  1.00  0.00     0.074 A 
ATOM     54  C   UNL     1       3.657   8.819  10.126  1.00  0.00     0.031 C 
ATOM     55  C   UNL     1       3.797   6.669  11.347  1.00  0.00     0.031 A 
BRANCH  42  56
ATOM     56  C   UNL     1       2.205   0.732  10.924  1.00  0.00    -0.014 A 
ATOM     57  C   UNL     1       3.080  -0.250  10.439  1.00  0.00     0.009 A 
ATOM     58  C   UNL     1       1.372   0.428  12.013  1.00  0.00     0.009 A 
ATOM     59  C   UNL     1       3.095  -1.522  11.017  1.00  0.00     0.001 A 
ATOM     60  C   UNL     1       1.407  -0.836  12.602  1.00  0.00     0.001 A 
ATOM     61  C   UNL     1       2.262  -1.813  12.098  1.00  0.00     0.000 A 
ENDBRANCH  42  56
BRANCH  43  62
ATOM     62  C   UNL     1       1.603   9.598   6.555  1.00  0.00    -0.014 A 
ATOM     63  C   UNL     1       2.789   9.971   5.899  1.00  0.00     0.009 A 
ATOM     64  C   UNL     1       0.511  10.476   6.534  1.00  0.00     0.009 A 
ATOM     65  C   UNL     1       2.884  11.204   5.253  1.00  0.00     0.001 A 
ATOM     66  C   UNL     1       0.601  11.698   5.864  1.00  0.00     0.001 A 
ATOM     67  C   UNL     1       1.789  12.064   5.231  1.00  0.00     0.000 A 
ENDBRANCH  43  62
BRANCH  55  68
ATOM     68  C   UNL     1       4.614   7.366  12.394  1.00  0.00    -0.014 A 
ATOM     69  C   UNL     1       4.007   8.234  13.315  1.00  0.00     0.009 A 
ATOM     70  C   UNL     1       5.993   7.127  12.488  1.00  0.00     0.009 A 
ATOM     71  C   UNL     1       4.772   8.874  14.293  1.00  0.00     0.001 A 
ATOM     72  C   UNL     1       6.752   7.753  13.479  1.00  0.00     0.001 A 
ATOM     73  C   UNL     1       6.142   8.631  14.375  1.00  0.00     0.000 A 
ENDBRANCH  55  68
ENDBRANCH  29  30
ENDBRANCH  22  24
ENDBRANCH  21  22
ENDBRANCH  20  21
ENDBRANCH  19  20
ENDBRANCH   1  19
TORSDOF 16
