REMARK SMILES NC(=O)[C@@H]1CCCCN1C(=O)N[C@H]1C=C[C@@H](C(=O)OCCOC(=O)c2ccc(-c3c4nc(c(-c5ccccc5)c5ccc([nH]5)c(-c5ccccc5)c5nc(c(-c6ccccc6)c6ccc3[nH]6)C=C5)C=C4)cc2)C1
REMARK SMILES IDX 20 1 19 2 17 3 18 4 16 5 13 6 14 7 73 8 15 9 12 10 10 11
REMARK SMILES IDX 11 12 9 14 4 15 5 16 6 17 8 18 7 19 2 20 1 21 3 24 21 25
REMARK SMILES IDX 22 26 23 27 24 28 25 29 26 30 72 31 27 32 71 33 28 34 29 35
REMARK SMILES IDX 30 36 65 37 31 38 70 39 64 40 66 41 32 42 69 43 63 44 62 45
REMARK SMILES IDX 33 47 55 48 40 49 54 50 41 51 44 52 53 53 67 54 42 55 43 56
REMARK SMILES IDX 52 58 68 59 45 60 34 61 35 62 39 63 36 64 38 65 37 66 56 67
REMARK SMILES IDX 57 68 61 69 58 70 60 71 59 72 46 73 47 74 51 75 48 76 50 77
REMARK SMILES IDX 49 78
REMARK H PARENT 12 13 1 22 1 23 66 46 44 57
REMARK Flexibility Score: inf
ROOT
ATOM      1  C   UNL     1       2.368   8.504   3.927  1.00  0.00     0.274 C 
ENDROOT
BRANCH   1   2
ATOM      2  O   UNL     1       1.586   8.060   2.801  1.00  0.00    -0.462 OA
BRANCH   2   3
ATOM      3  C   UNL     1       1.500   8.915   1.748  1.00  0.00     0.312 C 
ATOM      4  O   UNL     1       1.981  10.043   1.725  1.00  0.00    -0.252 OA
BRANCH   3   5
ATOM      5  C   UNL     1       0.714   8.345   0.574  1.00  0.00     0.124 C 
ATOM      6  C   UNL     1      -0.273   6.264  -0.258  1.00  0.00     0.107 C 
ATOM      7  C   UNL     1      -1.295   7.152   0.386  1.00  0.00    -0.006 C 
ATOM      8  C   UNL     1       1.044   6.895   0.211  1.00  0.00     0.048 C 
ATOM      9  C   UNL     1      -0.761   8.298   0.828  1.00  0.00    -0.014 C 
BRANCH   6  10
ATOM     10  N   UNL     1      -0.402   4.921   0.246  1.00  0.00    -0.332 N 
ATOM     11  C   UNL     1       0.034   3.702  -0.115  1.00  0.00     0.318 C 
ATOM     12  O   UNL     1      -0.141   2.830   0.742  1.00  0.00    -0.249 OA
ATOM     13  H   UNL     1      -0.949   4.887   1.064  1.00  0.00     0.165 HD
BRANCH  11  14
ATOM     14  N   UNL     1       0.596   3.417  -1.329  1.00  0.00    -0.313 N 
ATOM     15  C   UNL     1       0.960   2.008  -1.612  1.00  0.00     0.176 C 
ATOM     16  C   UNL     1       2.465   1.805  -1.388  1.00  0.00     0.035 C 
ATOM     17  C   UNL     1       3.257   2.763  -2.287  1.00  0.00     0.004 C 
ATOM     18  C   UNL     1       1.265   4.332  -2.253  1.00  0.00     0.122 C 
ATOM     19  C   UNL     1       2.787   4.208  -2.110  1.00  0.00     0.022 C 
BRANCH  15  20
ATOM     20  C   UNL     1       0.048   0.866  -1.094  1.00  0.00     0.240 C 
ATOM     21  N   UNL     1       0.522   0.115  -0.055  1.00  0.00    -0.368 N 
ATOM     22  H   UNL     1      -0.021  -0.622   0.308  1.00  0.00     0.159 HD
ATOM     23  H   UNL     1       1.407   0.310   0.330  1.00  0.00     0.159 HD
ATOM     24  O   UNL     1      -1.070   0.642  -1.554  1.00  0.00    -0.273 OA
ENDBRANCH  15  20
ENDBRANCH  11  14
ENDBRANCH   6  10
ENDBRANCH   3   5
ENDBRANCH   2   3
ENDBRANCH   1   2
BRANCH   1  25
ATOM     25  C   UNL     1       3.775   7.899   3.908  1.00  0.00     0.275 C 
BRANCH  25  26
ATOM     26  O   UNL     1       4.574   8.443   2.840  1.00  0.00    -0.458 OA
BRANCH  26  27
ATOM     27  C   UNL     1       4.543   7.743   1.683  1.00  0.00     0.338 C 
ATOM     28  O   UNL     1       3.953   6.702   1.457  1.00  0.00    -0.246 OA
BRANCH  27  29
ATOM     29  C   UNL     1       5.253   8.487   0.634  1.00  0.00     0.060 A 
ATOM     30  C   UNL     1       4.540   8.866  -0.507  1.00  0.00     0.016 A 
ATOM     31  C   UNL     1       6.624   8.729   0.733  1.00  0.00     0.016 A 
ATOM     32  C   UNL     1       5.199   9.482  -1.567  1.00  0.00     0.010 A 
ATOM     33  C   UNL     1       7.283   9.349  -0.330  1.00  0.00     0.010 A 
ATOM     34  C   UNL     1       6.578   9.717  -1.490  1.00  0.00    -0.014 A 
BRANCH  34  35
ATOM     35  C   UNL     1       7.300  10.304  -2.640  1.00  0.00     0.031 A 
ATOM     36  C   UNL     1       8.163   9.429  -3.501  1.00  0.00     0.074 A 
ATOM     37  C   UNL     1       7.186  11.617  -2.906  1.00  0.00     0.049 A 
ATOM     38  N   UNL     1       8.967   9.766  -4.477  1.00  0.00    -0.248 NA
ATOM     39  C   UNL     1       8.114   7.984  -3.228  1.00  0.00     0.031 C 
ATOM     40  C   UNL     1       6.333  12.558  -2.178  1.00  0.00     0.029 A 
ATOM     41  N   UNL     1       7.801  12.388  -3.859  1.00  0.00    -0.354 N 
ATOM     42  C   UNL     1       9.534   8.579  -4.924  1.00  0.00     0.074 A 
ATOM     43  C   UNL     1       8.992   7.515  -4.104  1.00  0.00     0.031 C 
ATOM     44  C   UNL     1       6.484  13.783  -2.709  1.00  0.00     0.029 A 
ATOM     45  C   UNL     1       7.479  13.720  -3.776  1.00  0.00     0.049 A 
ATOM     46  H   UNL     1       8.414  12.022  -4.537  1.00  0.00     0.167 HD
ATOM     47  C   UNL     1      10.426   8.395  -5.925  1.00  0.00     0.031 A 
ATOM     48  C   UNL     1       7.959  14.775  -4.461  1.00  0.00     0.031 A 
ATOM     49  C   UNL     1      10.971   9.454  -6.731  1.00  0.00     0.049 A 
ATOM     50  C   UNL     1       9.017  14.554  -5.506  1.00  0.00     0.074 A 
ATOM     51  C   UNL     1      11.887   9.370  -7.764  1.00  0.00     0.029 A 
ATOM     52  N   UNL     1      10.648  10.795  -6.589  1.00  0.00    -0.354 N 
ATOM     53  N   UNL     1       9.556  13.430  -5.910  1.00  0.00    -0.248 NA
ATOM     54  C   UNL     1       9.536  15.751  -6.185  1.00  0.00     0.031 C 
ATOM     55  C   UNL     1      12.151  10.665  -8.221  1.00  0.00     0.029 A 
ATOM     56  C   UNL     1      11.361  11.550  -7.504  1.00  0.00     0.049 A 
ATOM     57  H   UNL     1      10.007  11.156  -5.936  1.00  0.00     0.167 HD
ATOM     58  C   UNL     1      10.458  13.780  -6.907  1.00  0.00     0.074 A 
ATOM     59  C   UNL     1      10.386  15.219  -7.053  1.00  0.00     0.031 C 
ATOM     60  C   UNL     1      11.271  12.980  -7.639  1.00  0.00     0.031 A 
BRANCH  47  61
ATOM     61  C   UNL     1      10.896   6.991  -6.179  1.00  0.00    -0.014 A 
ATOM     62  C   UNL     1      10.066   6.048  -6.805  1.00  0.00     0.009 A 
ATOM     63  C   UNL     1      12.199   6.618  -5.816  1.00  0.00     0.009 A 
ATOM     64  C   UNL     1      10.524   4.748  -7.034  1.00  0.00     0.001 A 
ATOM     65  C   UNL     1      12.661   5.325  -6.067  1.00  0.00     0.001 A 
ATOM     66  C   UNL     1      11.821   4.389  -6.669  1.00  0.00     0.000 A 
ENDBRANCH  47  61
BRANCH  48  67
ATOM     67  C   UNL     1       7.470  16.144  -4.156  1.00  0.00    -0.014 A 
ATOM     68  C   UNL     1       6.666  16.835  -5.073  1.00  0.00     0.009 A 
ATOM     69  C   UNL     1       7.817  16.770  -2.948  1.00  0.00     0.009 A 
ATOM     70  C   UNL     1       6.236  18.135  -4.796  1.00  0.00     0.001 A 
ATOM     71  C   UNL     1       7.364  18.059  -2.662  1.00  0.00     0.001 A 
ATOM     72  C   UNL     1       6.581  18.744  -3.590  1.00  0.00     0.000 A 
ENDBRANCH  48  67
BRANCH  60  73
ATOM     73  C   UNL     1      12.115  13.638  -8.692  1.00  0.00    -0.014 A 
ATOM     74  C   UNL     1      13.262  14.370  -8.352  1.00  0.00     0.009 A 
ATOM     75  C   UNL     1      11.780  13.479 -10.046  1.00  0.00     0.009 A 
ATOM     76  C   UNL     1      14.046  14.951  -9.351  1.00  0.00     0.001 A 
ATOM     77  C   UNL     1      12.578  14.042 -11.042  1.00  0.00     0.001 A 
ATOM     78  C   UNL     1      13.707  14.783 -10.693  1.00  0.00     0.000 A 
ENDBRANCH  60  73
ENDBRANCH  34  35
ENDBRANCH  27  29
ENDBRANCH  26  27
ENDBRANCH  25  26
ENDBRANCH   1  25
TORSDOF 14
