REMARK SMILES CC(C)c1nc(COc2c(F)cc(C(=O)OCCOC(=O)c3ccc(-c4c5nc(c(-c6ccccc6)c6ccc([nH]6)c(-c6ccccc6)c6nc(c(-c7ccccc7)c7ccc4[nH]7)C=C6)C=C5)cc3)cc2F)no1
REMARK SMILES IDX 17 1 16 2 14 3 15 4 13 5 9 6 10 7 71 8 11 9 12 10 70 11
REMARK SMILES IDX 72 12 8 13 7 14 6 15 4 16 5 17 74 18 73 19 2 20 1 21 3 22
REMARK SMILES IDX 18 23 19 24 20 25 21 26 22 27 23 28 69 29 24 30 68 31 25 32
REMARK SMILES IDX 26 33 27 34 62 35 28 36 67 37 61 38 63 39 29 40 66 41 60 42
REMARK SMILES IDX 59 43 30 45 52 46 37 47 51 48 38 49 41 50 50 51 64 52 39 53
REMARK SMILES IDX 40 54 49 56 65 57 42 58 31 59 32 60 36 61 33 62 35 63 34 64
REMARK SMILES IDX 53 65 54 66 58 67 55 68 57 69 56 70 43 71 44 72 48 73 45 74
REMARK SMILES IDX 47 75 46 76
REMARK H PARENT 63 44 41 55
REMARK Flexibility Score: inf
ROOT
ATOM      1  C   UNL     1      -1.125   1.149  -6.527  1.00  0.00     0.275 C 
ENDROOT
BRANCH   1   2
ATOM      2  O   UNL     1      -1.623   0.825  -5.215  1.00  0.00    -0.458 OA
BRANCH   2   3
ATOM      3  C   UNL     1      -2.288   1.809  -4.562  1.00  0.00     0.338 C 
ATOM      4  O   UNL     1      -2.465   2.948  -4.950  1.00  0.00    -0.246 OA
BRANCH   3   5
ATOM      5  C   UNL     1      -2.898   1.284  -3.312  1.00  0.00     0.066 A 
ATOM      6  C   UNL     1      -4.198   0.327  -1.024  1.00  0.00     0.191 A 
ATOM      7  C   UNL     1      -3.158  -0.397  -1.605  1.00  0.00     0.169 A 
ATOM      8  C   UNL     1      -4.598   1.523  -1.607  1.00  0.00     0.169 A 
ATOM      9  F   UNL     1      -2.760  -1.560  -1.070  1.00  0.00    -0.203 F 
ATOM     10  C   UNL     1      -2.498   0.074  -2.737  1.00  0.00     0.059 A 
ATOM     11  C   UNL     1      -3.943   2.018  -2.729  1.00  0.00     0.059 A 
ATOM     12  F   UNL     1      -5.623   2.216  -1.093  1.00  0.00    -0.203 F 
BRANCH   6  13
ATOM     13  O   UNL     1      -4.851  -0.160   0.077  1.00  0.00    -0.479 OA
BRANCH  13  14
ATOM     14  C   UNL     1      -4.323   0.421   1.291  1.00  0.00     0.310 C 
BRANCH  14  15
ATOM     15  C   UNL     1      -3.021  -0.175   1.701  1.00  0.00     0.209 A 
ATOM     16  C   UNL     1      -0.966  -0.554   1.707  1.00  0.00     0.229 A 
ATOM     17  N   UNL     1      -1.817   0.366   1.312  1.00  0.00    -0.192 NA
ATOM     18  O   UNL     1      -1.557  -1.594   2.366  1.00  0.00    -0.339 OA
ATOM     19  N   UNL     1      -2.929  -1.334   2.367  1.00  0.00    -0.059 NA
BRANCH  16  20
ATOM     20  C   UNL     1       0.507  -0.631   1.517  1.00  0.00     0.073 C 
ATOM     21  C   UNL     1       0.899  -0.142   0.122  1.00  0.00     0.018 C 
ATOM     22  C   UNL     1       1.225   0.176   2.595  1.00  0.00     0.018 C 
ENDBRANCH  16  20
ENDBRANCH  14  15
ENDBRANCH  13  14
ENDBRANCH   6  13
ENDBRANCH   3   5
ENDBRANCH   2   3
ENDBRANCH   1   2
BRANCH   1  23
ATOM     23  C   UNL     1      -1.982   0.489  -7.608  1.00  0.00     0.275 C 
BRANCH  23  24
ATOM     24  O   UNL     1      -3.287   1.099  -7.662  1.00  0.00    -0.458 OA
BRANCH  24  25
ATOM     25  C   UNL     1      -4.291   0.375  -7.120  1.00  0.00     0.338 C 
ATOM     26  O   UNL     1      -4.231  -0.740  -6.631  1.00  0.00    -0.246 OA
BRANCH  25  27
ATOM     27  C   UNL     1      -5.515   1.188  -7.090  1.00  0.00     0.060 A 
ATOM     28  C   UNL     1      -5.750   1.963  -5.957  1.00  0.00     0.016 A 
ATOM     29  C   UNL     1      -6.481   1.089  -8.088  1.00  0.00     0.016 A 
ATOM     30  C   UNL     1      -6.972   2.604  -5.784  1.00  0.00     0.010 A 
ATOM     31  C   UNL     1      -7.689   1.785  -7.942  1.00  0.00     0.010 A 
ATOM     32  C   UNL     1      -7.957   2.529  -6.777  1.00  0.00    -0.014 A 
BRANCH  32  33
ATOM     33  C   UNL     1      -9.277   3.183  -6.561  1.00  0.00     0.031 A 
ATOM     34  C   UNL     1     -10.531   2.353  -6.487  1.00  0.00     0.074 A 
ATOM     35  C   UNL     1      -9.357   4.518  -6.392  1.00  0.00     0.049 A 
ATOM     36  N   UNL     1     -11.780   2.744  -6.436  1.00  0.00    -0.248 NA
ATOM     37  C   UNL     1     -10.358   0.892  -6.475  1.00  0.00     0.031 C 
ATOM     38  C   UNL     1      -8.221   5.443  -6.375  1.00  0.00     0.029 A 
ATOM     39  N   UNL     1     -10.446   5.329  -6.185  1.00  0.00    -0.354 N 
ATOM     40  C   UNL     1     -12.542   1.581  -6.439  1.00  0.00     0.074 A 
ATOM     41  C   UNL     1     -11.615   0.471  -6.500  1.00  0.00     0.031 C 
ATOM     42  C   UNL     1      -8.669   6.684  -6.131  1.00  0.00     0.029 A 
ATOM     43  C   UNL     1     -10.125   6.659  -6.054  1.00  0.00     0.049 A 
ATOM     44  H   UNL     1     -11.369   4.990  -6.135  1.00  0.00     0.167 HD
ATOM     45  C   UNL     1     -13.889   1.450  -6.399  1.00  0.00     0.031 A 
ATOM     46  C   UNL     1     -10.912   7.744  -5.925  1.00  0.00     0.031 A 
ATOM     47  C   UNL     1     -14.812   2.550  -6.299  1.00  0.00     0.049 A 
ATOM     48  C   UNL     1     -12.405   7.576  -5.928  1.00  0.00     0.074 A 
ATOM     49  C   UNL     1     -16.196   2.514  -6.250  1.00  0.00     0.029 A 
ATOM     50  N   UNL     1     -14.444   3.883  -6.218  1.00  0.00    -0.354 N 
ATOM     51  N   UNL     1     -13.111   6.474  -5.993  1.00  0.00    -0.248 NA
ATOM     52  C   UNL     1     -13.208   8.805  -5.857  1.00  0.00     0.031 C 
ATOM     53  C   UNL     1     -16.666   3.829  -6.177  1.00  0.00     0.029 A 
ATOM     54  C   UNL     1     -15.574   4.680  -6.133  1.00  0.00     0.049 A 
ATOM     55  H   UNL     1     -13.517   4.215  -6.220  1.00  0.00     0.167 HD
ATOM     56  C   UNL     1     -14.440   6.876  -5.960  1.00  0.00     0.074 A 
ATOM     57  C   UNL     1     -14.441   8.320  -5.846  1.00  0.00     0.031 C 
ATOM     58  C   UNL     1     -15.560   6.115  -6.024  1.00  0.00     0.031 A 
BRANCH  45  59
ATOM     59  C   UNL     1     -14.453   0.060  -6.509  1.00  0.00    -0.014 A 
ATOM     60  C   UNL     1     -14.376  -0.852  -5.446  1.00  0.00     0.009 A 
ATOM     61  C   UNL     1     -15.102  -0.328  -7.692  1.00  0.00     0.009 A 
ATOM     62  C   UNL     1     -14.910  -2.137  -5.579  1.00  0.00     0.001 A 
ATOM     63  C   UNL     1     -15.658  -1.602  -7.813  1.00  0.00     0.001 A 
ATOM     64  C   UNL     1     -15.553  -2.509  -6.759  1.00  0.00     0.000 A 
ENDBRANCH  45  59
BRANCH  46  65
ATOM     65  C   UNL     1     -10.302   9.096  -5.831  1.00  0.00    -0.014 A 
ATOM     66  C   UNL     1     -10.362   9.827  -4.635  1.00  0.00     0.009 A 
ATOM     67  C   UNL     1      -9.656   9.663  -6.942  1.00  0.00     0.009 A 
ATOM     68  C   UNL     1      -9.800  11.104  -4.559  1.00  0.00     0.001 A 
ATOM     69  C   UNL     1      -9.069  10.926  -6.853  1.00  0.00     0.001 A 
ATOM     70  C   UNL     1      -9.149  11.649  -5.665  1.00  0.00     0.000 A 
ENDBRANCH  46  65
BRANCH  58  71
ATOM     71  C   UNL     1     -16.877   6.831  -5.942  1.00  0.00    -0.014 A 
ATOM     72  C   UNL     1     -17.372   7.567  -7.029  1.00  0.00     0.009 A 
ATOM     73  C   UNL     1     -17.645   6.742  -4.771  1.00  0.00     0.009 A 
ATOM     74  C   UNL     1     -18.598   8.228  -6.932  1.00  0.00     0.001 A 
ATOM     75  C   UNL     1     -18.882   7.383  -4.686  1.00  0.00     0.001 A 
ATOM     76  C   UNL     1     -19.353   8.132  -5.763  1.00  0.00     0.000 A 
ENDBRANCH  58  71
ENDBRANCH  32  33
ENDBRANCH  25  27
ENDBRANCH  24  25
ENDBRANCH  23  24
ENDBRANCH   1  23
TORSDOF 15
