REMARK SMILES Cc1cc(=O)oc2cc(NC(=O)CC3(CC(=O)OCCOC(=O)c4ccc(-c5c6nc(c(-c7ccccc7)c7ccc([nH]7)c(-c7ccccc7)c7nc(c(-c8ccccc8)c8ccc5[nH]8)C=C7)C=C6)cc4)CCCC3)ccc12
REMARK SMILES IDX 19 1 18 2 16 3 17 4 15 5 14 6 72 7 75 8 73 9 74 10 13 11
REMARK SMILES IDX 11 12 10 13 12 15 9 16 1 17 2 18 3 19 78 20 4 21 7 22 77 23
REMARK SMILES IDX 5 24 6 25 8 26 76 27 20 28 21 29 22 30 23 31 24 32 25 33
REMARK SMILES IDX 71 34 26 35 70 36 27 37 28 38 29 39 64 40 30 41 69 42 63 43
REMARK SMILES IDX 65 44 31 45 68 46 62 47 61 48 32 50 54 51 39 52 53 53 40 54
REMARK SMILES IDX 43 55 52 56 66 57 41 58 42 59 51 61 67 62 44 63 33 64 34 65
REMARK SMILES IDX 38 66 35 67 37 68 36 69 55 70 56 71 60 72 57 73 59 74 58 75
REMARK SMILES IDX 45 76 46 77 50 78 47 79 49 80 48 81
REMARK H PARENT 10 14 65 49 43 60
REMARK Flexibility Score: inf
ROOT
ATOM      1  C   UNL     1       8.972  -1.782   2.079  1.00  0.00     0.274 C 
ENDROOT
BRANCH   1   2
ATOM      2  O   UNL     1       7.593  -1.376   1.957  1.00  0.00    -0.462 OA
BRANCH   2   3
ATOM      3  C   UNL     1       7.208  -0.392   2.801  1.00  0.00     0.306 C 
ATOM      4  O   UNL     1       7.953   0.166   3.603  1.00  0.00    -0.252 OA
BRANCH   3   5
ATOM      5  C   UNL     1       5.735  -0.052   2.753  1.00  0.00     0.130 C 
BRANCH   5   6
ATOM      6  C   UNL     1       4.787  -0.531   1.616  1.00  0.00    -0.011 C 
ATOM      7  C   UNL     1       3.347  -0.280   2.127  1.00  0.00     0.008 C 
ATOM      8  C   UNL     1       4.722  -2.065   1.444  1.00  0.00     0.008 C 
ATOM      9  C   UNL     1       3.025  -1.443   3.068  1.00  0.00     0.001 C 
ATOM     10  C   UNL     1       3.942  -2.586   2.644  1.00  0.00     0.001 C 
BRANCH   6  11
ATOM     11  C   UNL     1       5.129   0.141   0.257  1.00  0.00     0.108 C 
BRANCH  11  12
ATOM     12  C   UNL     1       4.580   1.537  -0.010  1.00  0.00     0.224 C 
ATOM     13  N   UNL     1       3.334   1.804  -0.495  1.00  0.00    -0.326 N 
ATOM     14  H   UNL     1       3.175   2.759  -0.675  1.00  0.00     0.169 HD
ATOM     15  O   UNL     1       5.265   2.523   0.283  1.00  0.00    -0.275 OA
BRANCH  13  16
ATOM     16  C   UNL     1       2.235   0.986  -0.786  1.00  0.00     0.044 A 
ATOM     17  C   UNL     1      -0.965  -3.065  -0.304  1.00  0.00     0.045 C 
ATOM     18  C   UNL     1      -1.143  -1.576  -0.317  1.00  0.00    -0.033 A 
ATOM     19  C   UNL     1      -2.295  -0.999   0.055  1.00  0.00     0.098 A 
ATOM     20  C   UNL     1      -0.009  -0.708  -0.651  1.00  0.00     0.021 A 
ATOM     21  C   UNL     1      -2.474   0.458   0.157  1.00  0.00     0.336 A 
ATOM     22  C   UNL     1      -0.122   0.660  -0.414  1.00  0.00     0.140 A 
ATOM     23  C   UNL     1       1.213  -1.183  -1.134  1.00  0.00     0.014 A 
ATOM     24  O   UNL     1      -3.568   0.938   0.429  1.00  0.00    -0.246 OA
ATOM     25  O   UNL     1      -1.344   1.239  -0.024  1.00  0.00    -0.423 OA
ATOM     26  C   UNL     1       0.977   1.515  -0.490  1.00  0.00     0.074 A 
ATOM     27  C   UNL     1       2.323  -0.334  -1.222  1.00  0.00     0.027 A 
ENDBRANCH  13  16
ENDBRANCH  11  12
ENDBRANCH   6  11
ENDBRANCH   5   6
ENDBRANCH   3   5
ENDBRANCH   2   3
ENDBRANCH   1   2
BRANCH   1  28
ATOM     28  C   UNL     1       9.835  -1.134   1.001  1.00  0.00     0.275 C 
BRANCH  28  29
ATOM     29  O   UNL     1       9.666   0.293   1.024  1.00  0.00    -0.458 OA
BRANCH  29  30
ATOM     30  C   UNL     1       9.148   0.837  -0.099  1.00  0.00     0.338 C 
ATOM     31  O   UNL     1       8.880   0.265  -1.147  1.00  0.00    -0.246 OA
BRANCH  30  32
ATOM     32  C   UNL     1       8.940   2.280   0.094  1.00  0.00     0.060 A 
ATOM     33  C   UNL     1       8.117   2.742   1.119  1.00  0.00     0.016 A 
ATOM     34  C   UNL     1       9.470   3.173  -0.837  1.00  0.00     0.016 A 
ATOM     35  C   UNL     1       7.761   4.088   1.173  1.00  0.00     0.010 A 
ATOM     36  C   UNL     1       9.180   4.535  -0.729  1.00  0.00     0.010 A 
ATOM     37  C   UNL     1       8.300   5.004   0.261  1.00  0.00    -0.014 A 
BRANCH  37  38
ATOM     38  C   UNL     1       7.956   6.448   0.331  1.00  0.00     0.031 A 
ATOM     39  C   UNL     1       7.308   7.136  -0.839  1.00  0.00     0.074 A 
ATOM     40  C   UNL     1       8.268   7.159   1.432  1.00  0.00     0.049 A 
ATOM     41  N   UNL     1       7.162   8.418  -1.066  1.00  0.00    -0.248 NA
ATOM     42  C   UNL     1       6.764   6.272  -1.899  1.00  0.00     0.031 C 
ATOM     43  C   UNL     1       8.848   6.614   2.661  1.00  0.00     0.029 A 
ATOM     44  N   UNL     1       8.154   8.503   1.685  1.00  0.00    -0.354 N 
ATOM     45  C   UNL     1       6.562   8.515  -2.315  1.00  0.00     0.074 A 
ATOM     46  C   UNL     1       6.367   7.164  -2.797  1.00  0.00     0.031 C 
ATOM     47  C   UNL     1       9.030   7.610   3.540  1.00  0.00     0.029 A 
ATOM     48  C   UNL     1       8.661   8.871   2.907  1.00  0.00     0.049 A 
ATOM     49  H   UNL     1       7.749   9.140   1.054  1.00  0.00     0.167 HD
ATOM     50  C   UNL     1       6.215   9.633  -2.999  1.00  0.00     0.031 A 
ATOM     51  C   UNL     1       8.864  10.087   3.444  1.00  0.00     0.031 A 
ATOM     52  C   UNL     1       6.378  10.974  -2.502  1.00  0.00     0.049 A 
ATOM     53  C   UNL     1       8.520  11.310   2.648  1.00  0.00     0.074 A 
ATOM     54  C   UNL     1       6.039  12.169  -3.115  1.00  0.00     0.029 A 
ATOM     55  N   UNL     1       6.915  11.298  -1.266  1.00  0.00    -0.354 N 
ATOM     56  N   UNL     1       8.006  11.393   1.446  1.00  0.00    -0.248 NA
ATOM     57  C   UNL     1       8.799  12.607   3.279  1.00  0.00     0.031 C 
ATOM     58  C   UNL     1       6.405  13.218  -2.264  1.00  0.00     0.029 A 
ATOM     59  C   UNL     1       6.930  12.674  -1.103  1.00  0.00     0.049 A 
ATOM     60  H   UNL     1       7.238  10.647  -0.602  1.00  0.00     0.167 HD
ATOM     61  C   UNL     1       7.884  12.749   1.182  1.00  0.00     0.074 A 
ATOM     62  C   UNL     1       8.366  13.452   2.354  1.00  0.00     0.031 C 
ATOM     63  C   UNL     1       7.414  13.358   0.066  1.00  0.00     0.031 A 
BRANCH  50  64
ATOM     64  C   UNL     1       5.657   9.460  -4.384  1.00  0.00    -0.014 A 
ATOM     65  C   UNL     1       4.346   9.010  -4.597  1.00  0.00     0.009 A 
ATOM     66  C   UNL     1       6.443   9.813  -5.493  1.00  0.00     0.009 A 
ATOM     67  C   UNL     1       3.841   8.896  -5.895  1.00  0.00     0.001 A 
ATOM     68  C   UNL     1       5.929   9.720  -6.787  1.00  0.00     0.001 A 
ATOM     69  C   UNL     1       4.631   9.255  -6.988  1.00  0.00     0.000 A 
ENDBRANCH  50  64
BRANCH  51  70
ATOM     70  C   UNL     1       9.475  10.199   4.792  1.00  0.00    -0.014 A 
ATOM     71  C   UNL     1       8.701  10.592   5.893  1.00  0.00     0.009 A 
ATOM     72  C   UNL     1      10.829   9.883   4.988  1.00  0.00     0.009 A 
ATOM     73  C   UNL     1       9.275  10.677   7.163  1.00  0.00     0.001 A 
ATOM     74  C   UNL     1      11.392   9.942   6.263  1.00  0.00     0.001 A 
ATOM     75  C   UNL     1      10.616  10.344   7.348  1.00  0.00     0.000 A 
ENDBRANCH  51  70
BRANCH  63  76
ATOM     76  C   UNL     1       7.365  14.857   0.081  1.00  0.00    -0.014 A 
ATOM     77  C   UNL     1       8.530  15.623  -0.075  1.00  0.00     0.009 A 
ATOM     78  C   UNL     1       6.132  15.509   0.232  1.00  0.00     0.009 A 
ATOM     79  C   UNL     1       8.463  17.017  -0.049  1.00  0.00     0.001 A 
ATOM     80  C   UNL     1       6.066  16.903   0.236  1.00  0.00     0.001 A 
ATOM     81  C   UNL     1       7.232  17.655   0.104  1.00  0.00     0.000 A 
ENDBRANCH  63  76
ENDBRANCH  37  38
ENDBRANCH  30  32
ENDBRANCH  29  30
ENDBRANCH  28  29
ENDBRANCH   1  28
TORSDOF 15
