REMARK SMILES CC[C@@H]1[C@@H](C(=O)OCCOC(=O)c2ccc(-c3c4nc(c(-c5ccccc5)c5ccc([nH]5)c(-c5ccccc5)c5nc(c(-c6ccccc6)c6ccc3[nH]6)C=C5)C=C4)cc2)CCCN1C(=O)OCc1ccccc1
REMARK SMILES IDX 8 1 7 2 5 3 6 4 4 5 3 6 64 7 61 8 63 9 62 10 2 11 1 12 65 13
REMARK SMILES IDX 66 14 67 15 68 16 69 17 70 18 74 19 71 20 73 21 72 22 9 23
REMARK SMILES IDX 10 24 11 25 12 26 13 27 14 28 60 29 15 30 59 31 16 32 17 33
REMARK SMILES IDX 18 34 53 35 19 36 58 37 52 38 54 39 20 40 57 41 51 42 50 43
REMARK SMILES IDX 21 45 43 46 28 47 42 48 29 49 32 50 41 51 55 52 30 53 31 54
REMARK SMILES IDX 40 56 56 57 33 58 22 59 23 60 27 61 24 62 26 63 25 64 44 65
REMARK SMILES IDX 45 66 49 67 46 68 48 69 47 70 34 71 35 72 39 73 36 74 38 75
REMARK SMILES IDX 37 76
REMARK H PARENT 54 44 32 55
REMARK Flexibility Score: inf
ROOT
ATOM      1  C   UNL     1       3.453  -5.090  -0.769  1.00  0.00     0.274 C 
ENDROOT
BRANCH   1   2
ATOM      2  O   UNL     1       2.800  -4.481   0.363  1.00  0.00    -0.462 OA
BRANCH   2   3
ATOM      3  C   UNL     1       1.608  -3.897   0.082  1.00  0.00     0.311 C 
ATOM      4  O   UNL     1       1.124  -3.847  -1.044  1.00  0.00    -0.252 OA
BRANCH   3   5
ATOM      5  C   UNL     1       0.919  -3.280   1.288  1.00  0.00     0.122 C 
ATOM      6  C   UNL     1       1.135  -1.758   1.348  1.00  0.00     0.102 C 
ATOM      7  N   UNL     1       0.408  -1.235   2.539  1.00  0.00    -0.304 N 
ATOM      8  C   UNL     1       1.281  -3.976   2.613  1.00  0.00     0.019 C 
ATOM      9  C   UNL     1       0.825  -1.817   3.817  1.00  0.00     0.123 C 
ATOM     10  C   UNL     1       0.563  -3.324   3.794  1.00  0.00     0.023 C 
BRANCH   6  11
ATOM     11  C   UNL     1       0.834  -1.068  -0.009  1.00  0.00     0.023 C 
ATOM     12  C   UNL     1       1.312   0.368  -0.105  1.00  0.00     0.006 C 
ENDBRANCH   6  11
BRANCH   7  13
ATOM     13  C   UNL     1      -0.772  -0.505   2.475  1.00  0.00     0.410 C 
ATOM     14  O   UNL     1      -1.472  -0.380   1.478  1.00  0.00    -0.224 OA
BRANCH  13  15
ATOM     15  O   UNL     1      -1.014   0.155   3.642  1.00  0.00    -0.445 OA
BRANCH  15  16
ATOM     16  C   UNL     1      -1.976   1.220   3.575  1.00  0.00     0.270 C 
BRANCH  16  17
ATOM     17  C   UNL     1      -1.382   2.533   3.097  1.00  0.00    -0.011 A 
ATOM     18  C   UNL     1      -0.065   2.636   2.629  1.00  0.00     0.007 A 
ATOM     19  C   UNL     1      -2.181   3.685   3.074  1.00  0.00     0.007 A 
ATOM     20  C   UNL     1       0.417   3.822   2.072  1.00  0.00     0.000 A 
ATOM     21  C   UNL     1      -1.687   4.886   2.554  1.00  0.00     0.000 A 
ATOM     22  C   UNL     1      -0.397   4.948   2.033  1.00  0.00     0.000 A 
ENDBRANCH  16  17
ENDBRANCH  15  16
ENDBRANCH  13  15
ENDBRANCH   7  13
ENDBRANCH   3   5
ENDBRANCH   2   3
ENDBRANCH   1   2
BRANCH   1  23
ATOM     23  C   UNL     1       3.004  -6.539  -1.010  1.00  0.00     0.275 C 
BRANCH  23  24
ATOM     24  O   UNL     1       1.620  -6.648  -1.405  1.00  0.00    -0.458 OA
BRANCH  24  25
ATOM     25  C   UNL     1       0.749  -6.852  -0.388  1.00  0.00     0.338 C 
ATOM     26  O   UNL     1       1.021  -6.991   0.794  1.00  0.00    -0.246 OA
BRANCH  25  27
ATOM     27  C   UNL     1      -0.643  -6.749  -0.858  1.00  0.00     0.060 A 
ATOM     28  C   UNL     1      -1.387  -5.639  -0.457  1.00  0.00     0.016 A 
ATOM     29  C   UNL     1      -1.262  -7.785  -1.549  1.00  0.00     0.016 A 
ATOM     30  C   UNL     1      -2.746  -5.550  -0.713  1.00  0.00     0.010 A 
ATOM     31  C   UNL     1      -2.632  -7.692  -1.830  1.00  0.00     0.010 A 
ATOM     32  C   UNL     1      -3.383  -6.581  -1.399  1.00  0.00    -0.014 A 
BRANCH  32  33
ATOM     33  C   UNL     1      -4.848  -6.513  -1.597  1.00  0.00     0.031 A 
ATOM     34  C   UNL     1      -5.741  -7.471  -0.866  1.00  0.00     0.074 A 
ATOM     35  C   UNL     1      -5.375  -5.569  -2.398  1.00  0.00     0.049 A 
ATOM     36  N   UNL     1      -7.029  -7.659  -0.988  1.00  0.00    -0.248 NA
ATOM     37  C   UNL     1      -5.094  -8.339   0.131  1.00  0.00     0.031 C 
ATOM     38  C   UNL     1      -4.616  -4.530  -3.096  1.00  0.00     0.029 A 
ATOM     39  N   UNL     1      -6.677  -5.337  -2.762  1.00  0.00    -0.354 N 
ATOM     40  C   UNL     1      -7.343  -8.687  -0.109  1.00  0.00     0.074 A 
ATOM     41  C   UNL     1      -6.107  -9.099   0.521  1.00  0.00     0.031 C 
ATOM     42  C   UNL     1      -5.465  -3.776  -3.811  1.00  0.00     0.029 A 
ATOM     43  C   UNL     1      -6.812  -4.318  -3.672  1.00  0.00     0.049 A 
ATOM     44  H   UNL     1      -7.438  -5.849  -2.406  1.00  0.00     0.167 HD
ATOM     45  C   UNL     1      -8.554  -9.238   0.147  1.00  0.00     0.031 A 
ATOM     46  C   UNL     1      -7.892  -3.898  -4.356  1.00  0.00     0.031 A 
ATOM     47  C   UNL     1      -9.775  -8.825  -0.494  1.00  0.00     0.049 A 
ATOM     48  C   UNL     1      -9.209  -4.583  -4.126  1.00  0.00     0.074 A 
ATOM     49  C   UNL     1     -11.055  -9.319  -0.315  1.00  0.00     0.029 A 
ATOM     50  N   UNL     1      -9.865  -7.816  -1.443  1.00  0.00    -0.354 N 
ATOM     51  N   UNL     1      -9.496  -5.571  -3.313  1.00  0.00    -0.248 NA
ATOM     52  C   UNL     1     -10.352  -4.093  -4.907  1.00  0.00     0.031 C 
ATOM     53  C   UNL     1     -11.908  -8.652  -1.201  1.00  0.00     0.029 A 
ATOM     54  C   UNL     1     -11.174  -7.692  -1.880  1.00  0.00     0.049 A 
ATOM     55  H   UNL     1      -9.110  -7.269  -1.760  1.00  0.00     0.167 HD
ATOM     56  C   UNL     1     -10.855  -5.808  -3.466  1.00  0.00     0.074 A 
ATOM     57  C   UNL     1     -11.338  -4.846  -4.438  1.00  0.00     0.031 C 
ATOM     58  C   UNL     1     -11.634  -6.736  -2.857  1.00  0.00     0.031 A 
BRANCH  45  59
ATOM     59  C   UNL     1      -8.594 -10.384   1.121  1.00  0.00    -0.014 A 
ATOM     60  C   UNL     1      -8.337 -10.200   2.489  1.00  0.00     0.009 A 
ATOM     61  C   UNL     1      -8.888 -11.676   0.656  1.00  0.00     0.009 A 
ATOM     62  C   UNL     1      -8.322 -11.292   3.360  1.00  0.00     0.001 A 
ATOM     63  C   UNL     1      -8.908 -12.761   1.535  1.00  0.00     0.001 A 
ATOM     64  C   UNL     1      -8.611 -12.570   2.883  1.00  0.00     0.000 A 
ENDBRANCH  45  59
BRANCH  46  65
ATOM     65  C   UNL     1      -7.752  -2.808  -5.356  1.00  0.00    -0.014 A 
ATOM     66  C   UNL     1      -8.328  -1.549  -5.136  1.00  0.00     0.009 A 
ATOM     67  C   UNL     1      -7.015  -3.020  -6.534  1.00  0.00     0.009 A 
ATOM     68  C   UNL     1      -8.184  -0.531  -6.082  1.00  0.00     0.001 A 
ATOM     69  C   UNL     1      -6.846  -1.991  -7.462  1.00  0.00     0.001 A 
ATOM     70  C   UNL     1      -7.438  -0.750  -7.239  1.00  0.00     0.000 A 
ENDBRANCH  46  65
BRANCH  58  71
ATOM     71  C   UNL     1     -13.098  -6.731  -3.199  1.00  0.00    -0.014 A 
ATOM     72  C   UNL     1     -13.559  -7.157  -4.454  1.00  0.00     0.009 A 
ATOM     73  C   UNL     1     -14.033  -6.325  -2.233  1.00  0.00     0.009 A 
ATOM     74  C   UNL     1     -14.925  -7.144  -4.745  1.00  0.00     0.001 A 
ATOM     75  C   UNL     1     -15.399  -6.344  -2.515  1.00  0.00     0.001 A 
ATOM     76  C   UNL     1     -15.843  -6.743  -3.775  1.00  0.00     0.000 A 
ENDBRANCH  58  71
ENDBRANCH  32  33
ENDBRANCH  25  27
ENDBRANCH  24  25
ENDBRANCH  23  24
ENDBRANCH   1  23
TORSDOF 16
