REMARK SMILES Cc1cccc(NS(=O)(=O)c2ccc(Br)c(C(=O)OCCOC(=O)c3ccc(-c4c5nc(c(-c6ccccc6)c6ccc([nH]6)c(-c6ccccc6)c6nc(c(-c7ccccc7)c7ccc4[nH]7)C=C6)C=C5)cc3)c2)c1
REMARK SMILES IDX 20 1 19 2 17 3 18 4 16 5 11 6 12 7 73 8 13 9 14 10 15 11
REMARK SMILES IDX 8 12 9 13 10 14 7 15 6 17 1 18 2 19 3 20 74 21 4 22 5 23
REMARK SMILES IDX 21 24 22 25 23 26 24 27 25 28 26 29 72 30 27 31 71 32 28 33
REMARK SMILES IDX 29 34 30 35 65 36 31 37 70 38 64 39 66 40 32 41 69 42 63 43
REMARK SMILES IDX 62 44 33 46 55 47 40 48 54 49 41 50 44 51 53 52 67 53 42 54
REMARK SMILES IDX 43 55 52 57 68 58 45 59 34 60 35 61 39 62 36 63 38 64 37 65
REMARK SMILES IDX 56 66 57 67 61 68 58 69 60 70 59 71 46 72 47 73 51 74 48 75
REMARK SMILES IDX 50 76 49 77
REMARK H PARENT 7 16 66 45 44 56
REMARK Flexibility Score: inf
ROOT
ATOM      1  C   UNL     1      -8.468  -3.107   2.046  1.00  0.00     0.275 C 
ENDROOT
BRANCH   1   2
ATOM      2  O   UNL     1      -7.215  -2.420   2.167  1.00  0.00    -0.458 OA
BRANCH   2   3
ATOM      3  C   UNL     1      -6.440  -2.503   1.060  1.00  0.00     0.339 C 
ATOM      4  O   UNL     1      -6.711  -3.040  -0.000  1.00  0.00    -0.246 OA
BRANCH   3   5
ATOM      5  C   UNL     1      -5.121  -1.924   1.308  1.00  0.00     0.075 A 
ATOM      6  C   UNL     1      -3.613  -0.036   1.108  1.00  0.00     0.088 A 
ATOM      7  C   UNL     1      -2.547  -0.863   1.463  1.00  0.00     0.023 A 
ATOM      8  C   UNL     1      -4.912  -0.557   1.085  1.00  0.00     0.039 A 
ATOM      9  C   UNL     1      -2.759  -2.233   1.657  1.00  0.00     0.018 A 
ATOM     10  C   UNL     1      -4.041  -2.771   1.559  1.00  0.00     0.032 A 
ATOM     11  Br  UNL     1      -4.236  -4.651   1.736  1.00  0.00    -0.050 Br
BRANCH   6  12
ATOM     12  S   UNL     1      -3.401   1.612   0.436  1.00  0.00     0.261 S 
ATOM     13  O   UNL     1      -3.879   2.527   1.450  1.00  0.00    -0.201 OA
ATOM     14  O   UNL     1      -3.992   1.587  -0.885  1.00  0.00    -0.201 OA
BRANCH  12  15
ATOM     15  N   UNL     1      -1.766   1.932   0.280  1.00  0.00    -0.280 N 
ATOM     16  H   UNL     1      -1.437   2.786   0.642  1.00  0.00     0.180 HD
BRANCH  15  17
ATOM     17  C   UNL     1      -0.812   1.072  -0.333  1.00  0.00     0.049 A 
ATOM     18  C   UNL     1       2.864   0.304   0.299  1.00  0.00     0.044 C 
ATOM     19  C   UNL     1       1.465   0.219  -0.235  1.00  0.00    -0.049 A 
ATOM     20  C   UNL     1       1.069  -0.873  -1.012  1.00  0.00     0.003 A 
ATOM     21  C   UNL     1       0.513   1.188   0.106  1.00  0.00     0.030 A 
ATOM     22  C   UNL     1      -0.223  -0.932  -1.537  1.00  0.00     0.002 A 
ATOM     23  C   UNL     1      -1.152   0.065  -1.234  1.00  0.00     0.027 A 
ENDBRANCH  15  17
ENDBRANCH  12  15
ENDBRANCH   6  12
ENDBRANCH   3   5
ENDBRANCH   2   3
ENDBRANCH   1   2
BRANCH   1  24
ATOM     24  C   UNL     1      -9.606  -2.367   2.758  1.00  0.00     0.275 C 
BRANCH  24  25
ATOM     25  O   UNL     1      -9.521  -0.912   2.862  1.00  0.00    -0.458 OA
BRANCH  25  26
ATOM     26  C   UNL     1      -9.159   0.013   1.939  1.00  0.00     0.338 C 
ATOM     27  O   UNL     1      -8.810   1.146   2.256  1.00  0.00    -0.246 OA
BRANCH  26  28
ATOM     28  C   UNL     1      -9.140  -0.387   0.526  1.00  0.00     0.060 A 
ATOM     29  C   UNL     1      -8.143   0.103  -0.334  1.00  0.00     0.016 A 
ATOM     30  C   UNL     1     -10.070  -1.309   0.075  1.00  0.00     0.016 A 
ATOM     31  C   UNL     1      -7.980  -0.455  -1.600  1.00  0.00     0.010 A 
ATOM     32  C   UNL     1      -9.821  -1.971  -1.097  1.00  0.00     0.010 A 
ATOM     33  C   UNL     1      -8.808  -1.521  -1.955  1.00  0.00    -0.014 A 
BRANCH  33  34
ATOM     34  C   UNL     1      -8.949  -2.026  -3.310  1.00  0.00     0.031 A 
ATOM     35  C   UNL     1      -7.938  -2.875  -3.958  1.00  0.00     0.074 A 
ATOM     36  C   UNL     1     -10.132  -1.686  -3.875  1.00  0.00     0.049 A 
ATOM     37  N   UNL     1      -7.763  -2.912  -5.234  1.00  0.00    -0.248 NA
ATOM     38  C   UNL     1      -7.019  -3.755  -3.240  1.00  0.00     0.031 C 
ATOM     39  C   UNL     1     -10.740  -2.103  -5.123  1.00  0.00     0.029 A 
ATOM     40  N   UNL     1     -10.999  -0.677  -3.417  1.00  0.00    -0.354 N 
ATOM     41  C   UNL     1      -6.983  -4.015  -5.511  1.00  0.00     0.074 A 
ATOM     42  C   UNL     1      -6.436  -4.428  -4.243  1.00  0.00     0.031 C 
ATOM     43  C   UNL     1     -11.631  -1.155  -5.484  1.00  0.00     0.029 A 
ATOM     44  C   UNL     1     -11.487  -0.039  -4.552  1.00  0.00     0.049 A 
ATOM     45  H   UNL     1     -11.217  -0.466  -2.481  1.00  0.00     0.167 HD
ATOM     46  C   UNL     1      -7.031  -4.557  -6.759  1.00  0.00     0.031 A 
ATOM     47  C   UNL     1     -11.055   1.229  -4.841  1.00  0.00     0.031 A 
ATOM     48  C   UNL     1      -7.941  -3.797  -7.611  1.00  0.00     0.049 A 
ATOM     49  C   UNL     1     -10.226   1.257  -6.115  1.00  0.00     0.074 A 
ATOM     50  C   UNL     1      -9.268  -3.964  -7.966  1.00  0.00     0.029 A 
ATOM     51  N   UNL     1      -7.628  -2.480  -7.887  1.00  0.00    -0.354 N 
ATOM     52  N   UNL     1      -9.795   0.187  -6.726  1.00  0.00    -0.248 NA
ATOM     53  C   UNL     1      -9.750   2.482  -6.755  1.00  0.00     0.031 C 
ATOM     54  C   UNL     1      -9.759  -2.705  -8.425  1.00  0.00     0.029 A 
ATOM     55  C   UNL     1      -8.720  -1.793  -8.375  1.00  0.00     0.049 A 
ATOM     56  H   UNL     1      -6.738  -2.082  -7.752  1.00  0.00     0.167 HD
ATOM     57  C   UNL     1      -9.069   0.536  -7.825  1.00  0.00     0.074 A 
ATOM     58  C   UNL     1      -9.032   1.988  -7.779  1.00  0.00     0.031 C 
ATOM     59  C   UNL     1      -8.552  -0.385  -8.688  1.00  0.00     0.031 A 
BRANCH  46  60
ATOM     60  C   UNL     1      -6.473  -5.901  -7.154  1.00  0.00    -0.014 A 
ATOM     61  C   UNL     1      -7.087  -6.611  -8.206  1.00  0.00     0.009 A 
ATOM     62  C   UNL     1      -5.363  -6.519  -6.555  1.00  0.00     0.009 A 
ATOM     63  C   UNL     1      -6.664  -7.887  -8.598  1.00  0.00     0.001 A 
ATOM     64  C   UNL     1      -4.944  -7.808  -6.931  1.00  0.00     0.001 A 
ATOM     65  C   UNL     1      -5.600  -8.494  -7.949  1.00  0.00     0.000 A 
ENDBRANCH  46  60
BRANCH  47  66
ATOM     66  C   UNL     1     -10.803   2.102  -3.638  1.00  0.00    -0.014 A 
ATOM     67  C   UNL     1     -11.844   2.271  -2.695  1.00  0.00     0.009 A 
ATOM     68  C   UNL     1      -9.513   2.499  -3.255  1.00  0.00     0.009 A 
ATOM     69  C   UNL     1     -11.585   2.697  -1.386  1.00  0.00     0.001 A 
ATOM     70  C   UNL     1      -9.263   2.961  -1.952  1.00  0.00     0.001 A 
ATOM     71  C   UNL     1     -10.288   3.021  -1.008  1.00  0.00     0.000 A 
ENDBRANCH  47  66
BRANCH  59  72
ATOM     72  C   UNL     1      -7.797  -0.018  -9.930  1.00  0.00    -0.014 A 
ATOM     73  C   UNL     1      -8.181   1.050 -10.748  1.00  0.00     0.009 A 
ATOM     74  C   UNL     1      -6.736  -0.829 -10.383  1.00  0.00     0.009 A 
ATOM     75  C   UNL     1      -7.476   1.348 -11.917  1.00  0.00     0.001 A 
ATOM     76  C   UNL     1      -6.048  -0.553 -11.563  1.00  0.00     0.001 A 
ATOM     77  C   UNL     1      -6.407   0.551 -12.320  1.00  0.00     0.000 A 
ENDBRANCH  59  72
ENDBRANCH  33  34
ENDBRANCH  26  28
ENDBRANCH  25  26
ENDBRANCH  24  25
ENDBRANCH   1  24
TORSDOF 14
