REMARK SMILES CCc1ccc(N2C(=O)C[C@@H](SC[C@@H](NC(C)=O)C(=O)OCCOC(=O)c3ccc(-c4c5nc(c(-c6ccccc6)c6ccc([nH]6)c(-c6ccccc6)c6nc(c(-c7ccccc7)c7ccc4[nH]7)C=C6)C=C5)cc3)C2=O)cc1
REMARK SMILES IDX 21 1 19 2 20 3 14 4 13 5 12 6 11 7 7 8 8 9 75 10 9 11 10 12
REMARK SMILES IDX 76 13 6 14 3 15 4 16 78 17 5 18 77 19 2 20 1 21 15 22 16 23
REMARK SMILES IDX 17 25 18 26 22 27 23 28 24 29 25 30 26 31 27 32 28 33 74 34
REMARK SMILES IDX 29 35 73 36 30 37 31 38 32 39 67 40 33 41 72 42 66 43 68 44
REMARK SMILES IDX 34 45 71 46 65 47 64 48 35 50 57 51 42 52 56 53 43 54 46 55
REMARK SMILES IDX 55 56 69 57 44 58 45 59 54 61 70 62 47 63 36 64 37 65 41 66
REMARK SMILES IDX 38 67 40 68 39 69 58 70 59 71 63 72 60 73 62 74 61 75 48 76
REMARK SMILES IDX 49 77 53 78 50 79 52 80 51 81
REMARK H PARENT 15 24 68 49 46 60
REMARK Flexibility Score: inf
ROOT
ATOM      1  O   UNL     1      -1.859  -8.573  -6.830  1.00  0.00    -0.461 OA
ENDROOT
BRANCH   1   2
ATOM      2  C   UNL     1      -1.662  -7.595  -5.912  1.00  0.00     0.329 C 
ATOM      3  O   UNL     1      -2.498  -6.738  -5.630  1.00  0.00    -0.250 OA
BRANCH   2   4
ATOM      4  C   UNL     1      -0.277  -7.599  -5.270  1.00  0.00     0.202 C 
BRANCH   4   5
ATOM      5  C   UNL     1       0.160  -8.917  -4.614  1.00  0.00     0.107 C 
BRANCH   5   6
ATOM      6  S   UNL     1       1.284  -8.899  -3.096  1.00  0.00    -0.145 SA
BRANCH   6   7
ATOM      7  C   UNL     1       2.433  -7.490  -3.327  1.00  0.00     0.146 C 
ATOM      8  N   UNL     1       2.629  -5.468  -2.129  1.00  0.00    -0.250 N 
ATOM      9  C   UNL     1       3.839  -6.082  -2.000  1.00  0.00     0.235 C 
ATOM     10  C   UNL     1       1.792  -6.189  -2.932  1.00  0.00     0.247 C 
ATOM     11  O   UNL     1       4.894  -5.619  -1.591  1.00  0.00    -0.274 OA
ATOM     12  C   UNL     1       3.658  -7.527  -2.411  1.00  0.00     0.125 C 
ATOM     13  O   UNL     1       0.742  -5.767  -3.384  1.00  0.00    -0.273 OA
BRANCH   8  14
ATOM     14  C   UNL     1       2.258  -4.155  -1.767  1.00  0.00     0.052 A 
ATOM     15  C   UNL     1       1.243  -1.556  -1.458  1.00  0.00    -0.048 A 
ATOM     16  C   UNL     1       0.432  -2.654  -1.179  1.00  0.00     0.006 A 
ATOM     17  C   UNL     1       2.575  -1.766  -1.851  1.00  0.00     0.006 A 
ATOM     18  C   UNL     1       0.937  -3.937  -1.333  1.00  0.00     0.027 A 
ATOM     19  C   UNL     1       3.093  -3.062  -1.985  1.00  0.00     0.027 A 
BRANCH  15  20
ATOM     20  C   UNL     1       0.690  -0.170  -1.268  1.00  0.00     0.032 C 
ATOM     21  C   UNL     1       0.976   0.313   0.144  1.00  0.00     0.009 C 
ENDBRANCH  15  20
ENDBRANCH   8  14
ENDBRANCH   6   7
ENDBRANCH   5   6
ENDBRANCH   4   5
BRANCH   4  22
ATOM     22  N   UNL     1       0.769  -7.032  -6.129  1.00  0.00    -0.342 N 
ATOM     23  C   UNL     1       0.628  -5.786  -6.699  1.00  0.00     0.217 C 
ATOM     24  H   UNL     1       1.587  -7.553  -6.302  1.00  0.00     0.164 HD
ATOM     25  C   UNL     1       1.933  -5.090  -6.958  1.00  0.00     0.114 C 
ATOM     26  O   UNL     1      -0.445  -5.284  -7.002  1.00  0.00    -0.275 OA
ENDBRANCH   4  22
ENDBRANCH   2   4
ENDBRANCH   1   2
BRANCH   1  27
ATOM     27  C   UNL     1      -3.118  -8.437  -7.517  1.00  0.00     0.274 C 
BRANCH  27  28
ATOM     28  C   UNL     1      -4.287  -9.123  -6.790  1.00  0.00     0.275 C 
BRANCH  28  29
ATOM     29  O   UNL     1      -4.682  -8.480  -5.558  1.00  0.00    -0.458 OA
BRANCH  29  30
ATOM     30  C   UNL     1      -4.024  -8.887  -4.448  1.00  0.00     0.338 C 
ATOM     31  O   UNL     1      -3.167  -9.762  -4.386  1.00  0.00    -0.246 OA
BRANCH  30  32
ATOM     32  C   UNL     1      -4.385  -8.061  -3.280  1.00  0.00     0.060 A 
ATOM     33  C   UNL     1      -3.372  -7.379  -2.593  1.00  0.00     0.016 A 
ATOM     34  C   UNL     1      -5.693  -8.046  -2.795  1.00  0.00     0.016 A 
ATOM     35  C   UNL     1      -3.659  -6.694  -1.412  1.00  0.00     0.010 A 
ATOM     36  C   UNL     1      -5.979  -7.356  -1.611  1.00  0.00     0.010 A 
ATOM     37  C   UNL     1      -4.963  -6.690  -0.901  1.00  0.00    -0.014 A 
BRANCH  37  38
ATOM     38  C   UNL     1      -5.264  -6.047   0.404  1.00  0.00     0.031 A 
ATOM     39  C   UNL     1      -5.582  -6.902   1.601  1.00  0.00     0.074 A 
ATOM     40  C   UNL     1      -5.266  -4.705   0.521  1.00  0.00     0.049 A 
ATOM     41  N   UNL     1      -5.995  -6.545   2.792  1.00  0.00    -0.248 NA
ATOM     42  C   UNL     1      -5.412  -8.355   1.434  1.00  0.00     0.031 C 
ATOM     43  C   UNL     1      -4.925  -3.761  -0.543  1.00  0.00     0.029 A 
ATOM     44  N   UNL     1      -5.581  -3.904   1.592  1.00  0.00    -0.354 N 
ATOM     45  C   UNL     1      -6.146  -7.725   3.510  1.00  0.00     0.074 A 
ATOM     46  C   UNL     1      -5.811  -8.811   2.614  1.00  0.00     0.031 C 
ATOM     47  C   UNL     1      -5.059  -2.508  -0.074  1.00  0.00     0.029 A 
ATOM     48  C   UNL     1      -5.544  -2.562   1.302  1.00  0.00     0.049 A 
ATOM     49  H   UNL     1      -5.812  -4.258   2.481  1.00  0.00     0.167 HD
ATOM     50  C   UNL     1      -6.521  -7.890   4.802  1.00  0.00     0.031 A 
ATOM     51  C   UNL     1      -5.896  -1.497   2.049  1.00  0.00     0.031 A 
ATOM     52  C   UNL     1      -6.870  -6.812   5.690  1.00  0.00     0.049 A 
ATOM     53  C   UNL     1      -6.417  -1.716   3.446  1.00  0.00     0.074 A 
ATOM     54  C   UNL     1      -7.276  -6.880   7.012  1.00  0.00     0.029 A 
ATOM     55  N   UNL     1      -6.853  -5.470   5.346  1.00  0.00    -0.354 N 
ATOM     56  N   UNL     1      -6.555  -2.836   4.114  1.00  0.00    -0.248 NA
ATOM     57  C   UNL     1      -6.827  -0.518   4.193  1.00  0.00     0.031 C 
ATOM     58  C   UNL     1      -7.554  -5.581   7.452  1.00  0.00     0.029 A 
ATOM     59  C   UNL     1      -7.259  -4.701   6.424  1.00  0.00     0.049 A 
ATOM     60  H   UNL     1      -6.592  -5.115   4.465  1.00  0.00     0.167 HD
ATOM     61  C   UNL     1      -7.030  -2.473   5.369  1.00  0.00     0.074 A 
ATOM     62  C   UNL     1      -7.139  -1.030   5.375  1.00  0.00     0.031 C 
ATOM     63  C   UNL     1      -7.348  -3.264   6.422  1.00  0.00     0.031 A 
BRANCH  50  64
ATOM     64  C   UNL     1      -6.596  -9.297   5.330  1.00  0.00    -0.014 A 
ATOM     65  C   UNL     1      -5.433 -10.047   5.565  1.00  0.00     0.009 A 
ATOM     66  C   UNL     1      -7.842  -9.862   5.645  1.00  0.00     0.009 A 
ATOM     67  C   UNL     1      -5.518 -11.345   6.074  1.00  0.00     0.001 A 
ATOM     68  C   UNL     1      -7.923 -11.148   6.182  1.00  0.00     0.001 A 
ATOM     69  C   UNL     1      -6.762 -11.892   6.388  1.00  0.00     0.000 A 
ENDBRANCH  50  64
BRANCH  51  70
ATOM     70  C   UNL     1      -5.814  -0.120   1.490  1.00  0.00    -0.014 A 
ATOM     71  C   UNL     1      -4.923   0.820   2.030  1.00  0.00     0.009 A 
ATOM     72  C   UNL     1      -6.668   0.279   0.449  1.00  0.00     0.009 A 
ATOM     73  C   UNL     1      -4.919   2.139   1.569  1.00  0.00     0.001 A 
ATOM     74  C   UNL     1      -6.636   1.589  -0.035  1.00  0.00     0.001 A 
ATOM     75  C   UNL     1      -5.773   2.521   0.536  1.00  0.00     0.000 A 
ENDBRANCH  51  70
BRANCH  63  76
ATOM     76  C   UNL     1      -7.784  -2.582   7.691  1.00  0.00    -0.014 A 
ATOM     77  C   UNL     1      -9.029  -1.943   7.792  1.00  0.00     0.009 A 
ATOM     78  C   UNL     1      -6.943  -2.612   8.815  1.00  0.00     0.009 A 
ATOM     79  C   UNL     1      -9.406  -1.315   8.982  1.00  0.00     0.001 A 
ATOM     80  C   UNL     1      -7.336  -2.012  10.012  1.00  0.00     0.001 A 
ATOM     81  C   UNL     1      -8.562  -1.354  10.091  1.00  0.00     0.000 A 
ENDBRANCH  63  76
ENDBRANCH  37  38
ENDBRANCH  30  32
ENDBRANCH  29  30
ENDBRANCH  28  29
ENDBRANCH  27  28
ENDBRANCH   1  27
TORSDOF 17
