REMARK SMILES CC(C)Cc1cc(C(=O)N[C@@H](CO)C(=O)OCCOC(=O)c2ccc(-c3c4nc(c(-c5ccccc5)c5ccc([nH]5)c(-c5ccccc5)c5nc(c(-c6ccccc6)c6ccc3[nH]6)C=C5)C=C4)cc2)n(C)n1
REMARK SMILES IDX 17 1 16 2 14 3 15 4 11 5 10 6 8 7 9 8 7 10 5 11 6 12 72 13
REMARK SMILES IDX 70 14 71 15 4 16 2 17 1 18 3 19 12 20 13 21 18 23 19 24
REMARK SMILES IDX 20 25 21 26 22 27 23 28 69 29 24 30 68 31 25 32 26 33 27 34
REMARK SMILES IDX 62 35 28 36 67 37 61 38 63 39 29 40 66 41 60 42 59 43 30 45
REMARK SMILES IDX 52 46 37 47 51 48 38 49 41 50 50 51 64 52 39 53 40 54 49 56
REMARK SMILES IDX 65 57 42 58 31 59 32 60 36 61 33 62 35 63 34 64 53 65 54 66
REMARK SMILES IDX 58 67 55 68 57 69 56 70 43 71 44 72 48 73 45 74 47 75 46 76
REMARK H PARENT 10 9 13 22 63 44 41 55
REMARK Flexibility Score: inf
ROOT
ATOM      1  C   UNL     1      -5.593   4.744  -5.821  1.00  0.00     0.274 C 
ENDROOT
BRANCH   1   2
ATOM      2  O   UNL     1      -4.493   3.813  -5.797  1.00  0.00    -0.460 OA
BRANCH   2   3
ATOM      3  C   UNL     1      -3.341   4.287  -5.253  1.00  0.00     0.331 C 
ATOM      4  O   UNL     1      -3.182   5.424  -4.816  1.00  0.00    -0.250 OA
BRANCH   3   5
ATOM      5  C   UNL     1      -2.200   3.268  -5.270  1.00  0.00     0.218 C 
BRANCH   5   6
ATOM      6  N   UNL     1      -2.557   1.876  -5.546  1.00  0.00    -0.335 N 
ATOM      7  C   UNL     1      -2.281   0.675  -4.948  1.00  0.00     0.270 C 
ATOM      8  O   UNL     1      -2.689  -0.308  -5.572  1.00  0.00    -0.268 OA
ATOM      9  H   UNL     1      -3.126   1.781  -6.344  1.00  0.00     0.164 HD
BRANCH   7  10
ATOM     10  C   UNL     1      -1.643   0.519  -3.655  1.00  0.00     0.126 A 
ATOM     11  C   UNL     1      -1.073  -0.367  -1.658  1.00  0.00     0.064 A 
ATOM     12  C   UNL     1      -1.808  -0.604  -2.837  1.00  0.00     0.059 A 
ATOM     13  N   UNL     1      -0.545   0.855  -1.696  1.00  0.00    -0.178 NA
ATOM     14  N   UNL     1      -0.706   1.250  -2.969  1.00  0.00    -0.263 N 
ATOM     15  C   UNL     1       0.262   2.214  -3.428  1.00  0.00     0.174 C 
BRANCH  11  16
ATOM     16  C   UNL     1      -0.864  -1.248  -0.466  1.00  0.00     0.061 C 
BRANCH  16  17
ATOM     17  C   UNL     1       0.624  -1.537  -0.147  1.00  0.00    -0.011 C 
ATOM     18  C   UNL     1       1.393  -0.296   0.326  1.00  0.00     0.008 C 
ATOM     19  C   UNL     1       0.730  -2.618   0.933  1.00  0.00     0.008 C 
ENDBRANCH  16  17
ENDBRANCH  11  16
ENDBRANCH   7  10
ENDBRANCH   5   6
BRANCH   5  20
ATOM     20  C   UNL     1      -1.185   3.755  -6.317  1.00  0.00     0.193 C 
BRANCH  20  21
ATOM     21  O   UNL     1      -1.683   3.570  -7.644  1.00  0.00    -0.394 OA
ATOM     22  H   UNL     1      -1.844   2.627  -7.801  1.00  0.00     0.210 HD
ENDBRANCH  20  21
ENDBRANCH   5  20
ENDBRANCH   3   5
ENDBRANCH   2   3
ENDBRANCH   1   2
BRANCH   1  23
ATOM     23  C   UNL     1      -6.695   4.312  -4.856  1.00  0.00     0.275 C 
BRANCH  23  24
ATOM     24  O   UNL     1      -6.174   4.139  -3.524  1.00  0.00    -0.458 OA
BRANCH  24  25
ATOM     25  C   UNL     1      -5.943   2.852  -3.177  1.00  0.00     0.338 C 
ATOM     26  O   UNL     1      -6.142   1.852  -3.844  1.00  0.00    -0.246 OA
BRANCH  25  27
ATOM     27  C   UNL     1      -5.327   2.796  -1.846  1.00  0.00     0.060 A 
ATOM     28  C   UNL     1      -3.938   2.845  -1.756  1.00  0.00     0.016 A 
ATOM     29  C   UNL     1      -6.101   2.519  -0.720  1.00  0.00     0.016 A 
ATOM     30  C   UNL     1      -3.312   2.547  -0.548  1.00  0.00     0.010 A 
ATOM     31  C   UNL     1      -5.468   2.267   0.505  1.00  0.00     0.010 A 
ATOM     32  C   UNL     1      -4.065   2.235   0.593  1.00  0.00    -0.014 A 
BRANCH  32  33
ATOM     33  C   UNL     1      -3.374   1.788   1.835  1.00  0.00     0.031 A 
ATOM     34  C   UNL     1      -3.583   0.390   2.358  1.00  0.00     0.074 A 
ATOM     35  C   UNL     1      -2.508   2.601   2.472  1.00  0.00     0.049 A 
ATOM     36  N   UNL     1      -3.155  -0.149   3.474  1.00  0.00    -0.248 NA
ATOM     37  C   UNL     1      -4.382  -0.521   1.523  1.00  0.00     0.031 C 
ATOM     38  C   UNL     1      -2.148   3.956   2.053  1.00  0.00     0.029 A 
ATOM     39  N   UNL     1      -1.751   2.389   3.599  1.00  0.00    -0.354 N 
ATOM     40  C   UNL     1      -3.683  -1.434   3.503  1.00  0.00     0.074 A 
ATOM     41  C   UNL     1      -4.455  -1.600   2.290  1.00  0.00     0.031 C 
ATOM     42  C   UNL     1      -1.201   4.432   2.877  1.00  0.00     0.029 A 
ATOM     43  C   UNL     1      -0.939   3.448   3.922  1.00  0.00     0.049 A 
ATOM     44  H   UNL     1      -1.787   1.557   4.124  1.00  0.00     0.167 HD
ATOM     45  C   UNL     1      -3.545  -2.389   4.454  1.00  0.00     0.031 A 
ATOM     46  C   UNL     1      -0.092   3.622   4.954  1.00  0.00     0.031 A 
ATOM     47  C   UNL     1      -2.740  -2.257   5.639  1.00  0.00     0.049 A 
ATOM     48  C   UNL     1       0.038   2.553   6.000  1.00  0.00     0.074 A 
ATOM     49  C   UNL     1      -2.549  -3.174   6.660  1.00  0.00     0.029 A 
ATOM     50  N   UNL     1      -1.972  -1.148   5.951  1.00  0.00    -0.354 N 
ATOM     51  N   UNL     1      -0.533   1.375   6.054  1.00  0.00    -0.248 NA
ATOM     52  C   UNL     1       0.918   2.850   7.141  1.00  0.00     0.031 C 
ATOM     53  C   UNL     1      -1.684  -2.608   7.603  1.00  0.00     0.029 A 
ATOM     54  C   UNL     1      -1.308  -1.355   7.150  1.00  0.00     0.049 A 
ATOM     55  H   UNL     1      -1.907  -0.333   5.403  1.00  0.00     0.167 HD
ATOM     56  C   UNL     1      -0.085   0.792   7.231  1.00  0.00     0.074 A 
ATOM     57  C   UNL     1       0.829   1.732   7.848  1.00  0.00     0.031 C 
ATOM     58  C   UNL     1      -0.411  -0.412   7.759  1.00  0.00     0.031 A 
BRANCH  45  59
ATOM     59  C   UNL     1      -4.323  -3.660   4.272  1.00  0.00    -0.014 A 
ATOM     60  C   UNL     1      -3.916  -4.645   3.361  1.00  0.00     0.009 A 
ATOM     61  C   UNL     1      -5.463  -3.888   5.061  1.00  0.00     0.009 A 
ATOM     62  C   UNL     1      -4.652  -5.825   3.225  1.00  0.00     0.001 A 
ATOM     63  C   UNL     1      -6.183  -5.076   4.938  1.00  0.00     0.001 A 
ATOM     64  C   UNL     1      -5.782  -6.041   4.015  1.00  0.00     0.000 A 
ENDBRANCH  45  59
BRANCH  46  65
ATOM     65  C   UNL     1       0.680   4.884   5.073  1.00  0.00    -0.014 A 
ATOM     66  C   UNL     1       2.064   4.894   4.845  1.00  0.00     0.009 A 
ATOM     67  C   UNL     1       0.038   6.082   5.423  1.00  0.00     0.009 A 
ATOM     68  C   UNL     1       2.793   6.077   4.980  1.00  0.00     0.001 A 
ATOM     69  C   UNL     1       0.765   7.268   5.531  1.00  0.00     0.001 A 
ATOM     70  C   UNL     1       2.142   7.264   5.317  1.00  0.00     0.000 A 
ENDBRANCH  46  65
BRANCH  58  71
ATOM     71  C   UNL     1       0.235  -0.781   9.062  1.00  0.00    -0.014 A 
ATOM     72  C   UNL     1      -0.196  -0.208  10.269  1.00  0.00     0.009 A 
ATOM     73  C   UNL     1       1.274  -1.723   9.086  1.00  0.00     0.009 A 
ATOM     74  C   UNL     1       0.426  -0.548  11.472  1.00  0.00     0.001 A 
ATOM     75  C   UNL     1       1.880  -2.076  10.293  1.00  0.00     0.001 A 
ATOM     76  C   UNL     1       1.461  -1.482  11.483  1.00  0.00     0.000 A 
ENDBRANCH  58  71
ENDBRANCH  32  33
ENDBRANCH  25  27
ENDBRANCH  24  25
ENDBRANCH  23  24
ENDBRANCH   1  23
TORSDOF 17
