REMARK SMILES O=C(COc1ncc(C(F)(F)F)cc1Cl)OCCOC(=O)c1ccc(-c2c3nc(c(-c4ccccc4)c4ccc([nH]4)c(-c4ccccc4)c4nc(c(-c5ccccc5)c5ccc2[nH]5)C=C4)C=C3)cc1
REMARK SMILES IDX 17 1 16 2 2 3 1 4 3 5 4 6 5 7 6 8 14 9 7 10 13 11 15 12 8 13
REMARK SMILES IDX 9 14 10 15 11 16 12 17 18 18 19 19 20 20 21 21 22 22 23 23
REMARK SMILES IDX 69 24 24 25 68 26 25 27 26 28 27 29 62 30 28 31 67 32 61 33
REMARK SMILES IDX 63 34 29 35 66 36 60 37 59 38 30 40 52 41 37 42 51 43 38 44
REMARK SMILES IDX 41 45 50 46 64 47 39 48 40 49 49 51 65 52 42 53 31 54 32 55
REMARK SMILES IDX 36 56 33 57 35 58 34 59 53 60 54 61 58 62 55 63 57 64 56 65
REMARK SMILES IDX 43 66 44 67 48 68 45 69 47 70 46 71
REMARK H PARENT 63 39 41 50
REMARK Flexibility Score: inf
ROOT
ATOM      1  C   UNL     1       4.526  -1.170   0.089  1.00  0.00     0.274 C 
ENDROOT
BRANCH   1   2
ATOM      2  O   UNL     1       3.138  -0.979   0.438  1.00  0.00    -0.460 OA
BRANCH   2   3
ATOM      3  C   UNL     1       2.499   0.214   0.358  1.00  0.00     0.344 C 
ATOM      4  O   UNL     1       1.270   0.270   0.373  1.00  0.00    -0.248 OA
BRANCH   3   5
ATOM      5  C   UNL     1       3.335   1.479   0.299  1.00  0.00     0.353 C 
BRANCH   5   6
ATOM      6  O   UNL     1       4.041   1.654   1.522  1.00  0.00    -0.465 OA
BRANCH   6   7
ATOM      7  C   UNL     1       3.423   2.626   2.266  1.00  0.00     0.233 A 
ATOM      8  N   UNL     1       3.734   3.897   1.920  1.00  0.00    -0.220 NA
ATOM      9  C   UNL     1       2.592   2.290   3.330  1.00  0.00     0.103 A 
ATOM     10  C   UNL     1       3.185   4.881   2.670  1.00  0.00     0.128 A 
ATOM     11  C   UNL     1       2.021   3.327   4.062  1.00  0.00     0.041 A 
ATOM     12  Cl  UNL     1       2.259   0.663   3.772  1.00  0.00    -0.078 Cl
ATOM     13  C   UNL     1       2.321   4.655   3.735  1.00  0.00     0.076 A 
BRANCH  13  14
ATOM     14  C   UNL     1       1.793   5.811   4.527  1.00  0.00     0.417 C 
ATOM     15  F   UNL     1       2.709   6.283   5.416  1.00  0.00    -0.166 F 
ATOM     16  F   UNL     1       1.444   6.870   3.748  1.00  0.00    -0.166 F 
ATOM     17  F   UNL     1       0.687   5.500   5.257  1.00  0.00    -0.166 F 
ENDBRANCH  13  14
ENDBRANCH   6   7
ENDBRANCH   5   6
ENDBRANCH   3   5
ENDBRANCH   2   3
ENDBRANCH   1   2
BRANCH   1  18
ATOM     18  C   UNL     1       4.653  -1.596  -1.375  1.00  0.00     0.275 C 
BRANCH  18  19
ATOM     19  O   UNL     1       4.198  -0.534  -2.235  1.00  0.00    -0.458 OA
BRANCH  19  20
ATOM     20  C   UNL     1       2.940  -0.668  -2.727  1.00  0.00     0.338 C 
ATOM     21  O   UNL     1       2.198  -1.625  -2.607  1.00  0.00    -0.246 OA
BRANCH  20  22
ATOM     22  C   UNL     1       2.527   0.633  -3.289  1.00  0.00     0.060 A 
ATOM     23  C   UNL     1       1.292   1.169  -2.905  1.00  0.00     0.016 A 
ATOM     24  C   UNL     1       3.360   1.333  -4.166  1.00  0.00     0.016 A 
ATOM     25  C   UNL     1       0.892   2.417  -3.389  1.00  0.00     0.010 A 
ATOM     26  C   UNL     1       2.951   2.572  -4.662  1.00  0.00     0.010 A 
ATOM     27  C   UNL     1       1.714   3.119  -4.281  1.00  0.00    -0.014 A 
BRANCH  27  28
ATOM     28  C   UNL     1       1.270   4.396  -4.884  1.00  0.00     0.031 A 
ATOM     29  C   UNL     1       0.610   4.383  -6.233  1.00  0.00     0.074 A 
ATOM     30  C   UNL     1       1.508   5.564  -4.260  1.00  0.00     0.049 A 
ATOM     31  N   UNL     1       0.250   5.391  -6.985  1.00  0.00    -0.248 NA
ATOM     32  C   UNL     1       0.323   3.061  -6.812  1.00  0.00     0.031 C 
ATOM     33  C   UNL     1       2.117   5.711  -2.938  1.00  0.00     0.029 A 
ATOM     34  N   UNL     1       1.287   6.854  -4.675  1.00  0.00    -0.354 N 
ATOM     35  C   UNL     1      -0.302   4.829  -8.128  1.00  0.00     0.074 A 
ATOM     36  C   UNL     1      -0.216   3.392  -7.978  1.00  0.00     0.031 C 
ATOM     37  C   UNL     1       2.248   7.021  -2.663  1.00  0.00     0.029 A 
ATOM     38  C   UNL     1       1.764   7.800  -3.801  1.00  0.00     0.049 A 
ATOM     39  H   UNL     1       0.831   7.079  -5.518  1.00  0.00     0.167 HD
ATOM     40  C   UNL     1      -0.831   5.454  -9.205  1.00  0.00     0.031 A 
ATOM     41  C   UNL     1       1.837   9.140  -3.923  1.00  0.00     0.031 A 
ATOM     42  C   UNL     1      -0.904   6.880  -9.366  1.00  0.00     0.049 A 
ATOM     43  C   UNL     1       1.328   9.802  -5.176  1.00  0.00     0.074 A 
ATOM     44  C   UNL     1      -1.465   7.600 -10.407  1.00  0.00     0.029 A 
ATOM     45  N   UNL     1      -0.385   7.802  -8.474  1.00  0.00    -0.354 N 
ATOM     46  N   UNL     1       0.752   9.262  -6.222  1.00  0.00    -0.248 NA
ATOM     47  C   UNL     1       1.486  11.263  -5.266  1.00  0.00     0.031 C 
ATOM     48  C   UNL     1      -1.231   8.959 -10.172  1.00  0.00     0.029 A 
ATOM     49  C   UNL     1      -0.570   9.084  -8.962  1.00  0.00     0.049 A 
ATOM     50  H   UNL     1       0.051   7.579  -7.619  1.00  0.00     0.167 HD
ATOM     51  C   UNL     1       0.463  10.316  -7.082  1.00  0.00     0.074 A 
ATOM     52  C   UNL     1       0.909  11.528  -6.429  1.00  0.00     0.031 C 
ATOM     53  C   UNL     1      -0.119  10.281  -8.305  1.00  0.00     0.031 A 
BRANCH  40  54
ATOM     54  C   UNL     1      -1.348   4.596 -10.322  1.00  0.00    -0.014 A 
ATOM     55  C   UNL     1      -2.577   3.928 -10.213  1.00  0.00     0.009 A 
ATOM     56  C   UNL     1      -0.629   4.514 -11.524  1.00  0.00     0.009 A 
ATOM     57  C   UNL     1      -3.068   3.180 -11.284  1.00  0.00     0.001 A 
ATOM     58  C   UNL     1      -1.131   3.781 -12.599  1.00  0.00     0.001 A 
ATOM     59  C   UNL     1      -2.348   3.112 -12.477  1.00  0.00     0.000 A 
ENDBRANCH  40  54
BRANCH  41  60
ATOM     60  C   UNL     1       2.468   9.959  -2.855  1.00  0.00    -0.014 A 
ATOM     61  C   UNL     1       1.699  10.836  -2.076  1.00  0.00     0.009 A 
ATOM     62  C   UNL     1       3.856   9.910  -2.653  1.00  0.00     0.009 A 
ATOM     63  C   UNL     1       2.312  11.673  -1.141  1.00  0.00     0.001 A 
ATOM     64  C   UNL     1       4.463  10.728  -1.698  1.00  0.00     0.001 A 
ATOM     65  C   UNL     1       3.692  11.617  -0.952  1.00  0.00     0.000 A 
ENDBRANCH  41  60
BRANCH  53  66
ATOM     66  C   UNL     1      -0.323  11.591  -9.012  1.00  0.00    -0.014 A 
ATOM     67  C   UNL     1       0.755  12.271  -9.599  1.00  0.00     0.009 A 
ATOM     68  C   UNL     1      -1.615  12.123  -9.139  1.00  0.00     0.009 A 
ATOM     69  C   UNL     1       0.545  13.472 -10.280  1.00  0.00     0.001 A 
ATOM     70  C   UNL     1      -1.826  13.310  -9.841  1.00  0.00     0.001 A 
ATOM     71  C   UNL     1      -0.745  13.986 -10.405  1.00  0.00     0.000 A 
ENDBRANCH  53  66
ENDBRANCH  27  28
ENDBRANCH  20  22
ENDBRANCH  19  20
ENDBRANCH  18  19
ENDBRANCH   1  18
TORSDOF 14
