REMARK SMILES C[NH+]1CCN(C(=O)c2ccc3c(c2)N(CC(=O)OCCOC(=O)c2ccc(-c4c5nc(c(-c6ccccc6)c6ccc([nH]6)c(-c6ccccc6)c6nc(c(-c7ccccc7)c7ccc4[nH]7)C=C6)C=C5)cc2)C(=O)CO3)CC1
REMARK SMILES IDX 19 1 18 2 16 3 17 4 15 5 14 6 8 7 9 8 13 9 10 10 12 11 11 12
REMARK SMILES IDX 75 13 72 14 74 15 73 16 6 17 1 18 2 19 3 20 77 21 4 23 76 24
REMARK SMILES IDX 5 25 7 26 20 27 21 28 22 29 23 30 24 31 25 32 71 33 26 34
REMARK SMILES IDX 70 35 27 36 28 37 29 38 64 39 30 40 69 41 63 42 65 43 31 44
REMARK SMILES IDX 68 45 62 46 61 47 32 49 54 50 39 51 53 52 40 53 43 54 52 55
REMARK SMILES IDX 66 56 41 57 42 58 51 60 67 61 44 62 33 63 34 64 38 65 35 66
REMARK SMILES IDX 37 67 36 68 55 69 56 70 60 71 57 72 59 73 58 74 45 75 46 76
REMARK SMILES IDX 50 77 47 78 49 79 48 80
REMARK H PARENT 2 22 65 48 43 59
REMARK Flexibility Score: inf
ROOT
ATOM      1  C   UNL     1      -0.035  -5.780   1.435  1.00  0.00     0.274 C 
ENDROOT
BRANCH   1   2
ATOM      2  O   UNL     1      -1.344  -5.340   1.852  1.00  0.00    -0.461 OA
BRANCH   2   3
ATOM      3  C   UNL     1      -1.466  -5.099   3.186  1.00  0.00     0.326 C 
ATOM      4  O   UNL     1      -0.551  -5.241   3.995  1.00  0.00    -0.250 OA
BRANCH   3   5
ATOM      5  C   UNL     1      -2.792  -4.458   3.592  1.00  0.00     0.248 C 
BRANCH   5   6
ATOM      6  N   UNL     1      -3.920  -4.555   2.682  1.00  0.00    -0.295 N 
ATOM      7  C   UNL     1      -3.882  -1.442   0.554  1.00  0.00     0.042 A 
ATOM      8  C   UNL     1      -4.883  -1.744  -0.368  1.00  0.00     0.018 A 
ATOM      9  C   UNL     1      -3.605  -2.320   1.619  1.00  0.00     0.044 A 
ATOM     10  C   UNL     1      -5.583  -2.941  -0.244  1.00  0.00     0.049 A 
ATOM     11  C   UNL     1      -4.258  -3.557   1.718  1.00  0.00     0.087 A 
ATOM     12  C   UNL     1      -5.274  -3.836   0.787  1.00  0.00     0.143 A 
ATOM     13  O   UNL     1      -6.002  -4.997   0.780  1.00  0.00    -0.482 OA
ATOM     14  C   UNL     1      -4.680  -5.716   2.770  1.00  0.00     0.265 C 
ATOM     15  C   UNL     1      -6.006  -5.650   2.035  1.00  0.00     0.330 C 
ATOM     16  O   UNL     1      -4.373  -6.677   3.476  1.00  0.00    -0.270 OA
BRANCH   7  17
ATOM     17  C   UNL     1      -3.197  -0.131   0.462  1.00  0.00     0.254 C 
ATOM     18  C   UNL     1       1.748   0.584  -1.570  1.00  0.00     0.332 C 
ATOM     19  N   UNL     1       0.299   0.583  -1.819  1.00  0.00    -0.334 N 
ATOM     20  C   UNL     1      -0.355   1.605  -0.974  1.00  0.00     0.283 C 
ATOM     21  C   UNL     1      -0.244  -0.775  -1.598  1.00  0.00     0.283 C 
ATOM     22  H   UNL     1       0.108   0.831  -2.789  1.00  0.00     0.347 HD
ATOM     23  C   UNL     1      -1.889   1.490  -0.874  1.00  0.00     0.181 C 
ATOM     24  C   UNL     1      -1.786  -0.868  -1.525  1.00  0.00     0.181 C 
ATOM     25  N   UNL     1      -2.336   0.125  -0.600  1.00  0.00    -0.327 N 
ATOM     26  O   UNL     1      -3.478   0.699   1.324  1.00  0.00    -0.269 OA
ENDBRANCH   7  17
ENDBRANCH   5   6
ENDBRANCH   3   5
ENDBRANCH   2   3
ENDBRANCH   1   2
BRANCH   1  27
ATOM     27  C   UNL     1       0.917  -4.627   1.082  1.00  0.00     0.275 C 
BRANCH  27  28
ATOM     28  O   UNL     1       0.911  -3.571   2.064  1.00  0.00    -0.458 OA
BRANCH  28  29
ATOM     29  C   UNL     1      -0.022  -2.632   1.796  1.00  0.00     0.338 C 
ATOM     30  O   UNL     1      -0.785  -2.643   0.844  1.00  0.00    -0.246 OA
BRANCH  29  31
ATOM     31  C   UNL     1      -0.072  -1.534   2.773  1.00  0.00     0.060 A 
ATOM     32  C   UNL     1      -0.409  -1.734   4.109  1.00  0.00     0.016 A 
ATOM     33  C   UNL     1      -0.018  -0.241   2.255  1.00  0.00     0.016 A 
ATOM     34  C   UNL     1      -0.756  -0.631   4.901  1.00  0.00     0.010 A 
ATOM     35  C   UNL     1      -0.310   0.861   3.049  1.00  0.00     0.010 A 
ATOM     36  C   UNL     1      -0.694   0.676   4.379  1.00  0.00    -0.014 A 
BRANCH  36  37
ATOM     37  C   UNL     1      -0.806   1.869   5.251  1.00  0.00     0.031 A 
ATOM     38  C   UNL     1      -1.898   2.891   5.099  1.00  0.00     0.074 A 
ATOM     39  C   UNL     1       0.225   2.103   6.083  1.00  0.00     0.049 A 
ATOM     40  N   UNL     1      -2.046   4.033   5.726  1.00  0.00    -0.248 NA
ATOM     41  C   UNL     1      -2.939   2.618   4.101  1.00  0.00     0.031 C 
ATOM     42  C   UNL     1       1.399   1.237   6.229  1.00  0.00     0.029 A 
ATOM     43  N   UNL     1       0.470   3.145   6.935  1.00  0.00    -0.354 N 
ATOM     44  C   UNL     1      -3.176   4.628   5.177  1.00  0.00     0.074 A 
ATOM     45  C   UNL     1      -3.670   3.726   4.158  1.00  0.00     0.031 C 
ATOM     46  C   UNL     1       2.233   1.776   7.126  1.00  0.00     0.029 A 
ATOM     47  C   UNL     1       1.667   3.035   7.594  1.00  0.00     0.049 A 
ATOM     48  H   UNL     1      -0.150   3.899   7.061  1.00  0.00     0.167 HD
ATOM     49  C   UNL     1      -3.744   5.817   5.497  1.00  0.00     0.031 A 
ATOM     50  C   UNL     1       2.258   3.854   8.478  1.00  0.00     0.031 A 
ATOM     51  C   UNL     1      -3.255   6.700   6.528  1.00  0.00     0.049 A 
ATOM     52  C   UNL     1       1.564   5.112   8.884  1.00  0.00     0.074 A 
ATOM     53  C   UNL     1      -3.821   7.872   7.003  1.00  0.00     0.029 A 
ATOM     54  N   UNL     1      -2.080   6.509   7.238  1.00  0.00    -0.354 N 
ATOM     55  N   UNL     1       0.444   5.612   8.425  1.00  0.00    -0.248 NA
ATOM     56  C   UNL     1       2.203   5.904   9.940  1.00  0.00     0.031 C 
ATOM     57  C   UNL     1      -2.971   8.406   7.979  1.00  0.00     0.029 A 
ATOM     58  C   UNL     1      -1.896   7.548   8.136  1.00  0.00     0.049 A 
ATOM     59  H   UNL     1      -1.467   5.748   7.122  1.00  0.00     0.167 HD
ATOM     60  C   UNL     1       0.234   6.777   9.146  1.00  0.00     0.074 A 
ATOM     61  C   UNL     1       1.337   6.898  10.080  1.00  0.00     0.031 C 
ATOM     62  C   UNL     1      -0.784   7.663   9.043  1.00  0.00     0.031 A 
BRANCH  49  63
ATOM     63  C   UNL     1      -4.966   6.251   4.733  1.00  0.00    -0.014 A 
ATOM     64  C   UNL     1      -6.215   5.651   4.955  1.00  0.00     0.009 A 
ATOM     65  C   UNL     1      -4.887   7.339   3.847  1.00  0.00     0.009 A 
ATOM     66  C   UNL     1      -7.354   6.118   4.293  1.00  0.00     0.001 A 
ATOM     67  C   UNL     1      -6.031   7.816   3.202  1.00  0.00     0.001 A 
ATOM     68  C   UNL     1      -7.263   7.203   3.422  1.00  0.00     0.000 A 
ENDBRANCH  49  63
BRANCH  50  69
ATOM     69  C   UNL     1       3.554   3.447   9.066  1.00  0.00    -0.014 A 
ATOM     70  C   UNL     1       3.586   2.832  10.325  1.00  0.00     0.009 A 
ATOM     71  C   UNL     1       4.741   3.564   8.326  1.00  0.00     0.009 A 
ATOM     72  C   UNL     1       4.787   2.342  10.837  1.00  0.00     0.001 A 
ATOM     73  C   UNL     1       5.937   3.057   8.835  1.00  0.00     0.001 A 
ATOM     74  C   UNL     1       5.959   2.447  10.089  1.00  0.00     0.000 A 
ENDBRANCH  50  69
BRANCH  62  75
ATOM     75  C   UNL     1      -0.744   8.834   9.977  1.00  0.00    -0.014 A 
ATOM     76  C   UNL     1       0.118   9.915   9.740  1.00  0.00     0.009 A 
ATOM     77  C   UNL     1      -1.571   8.850  11.110  1.00  0.00     0.009 A 
ATOM     78  C   UNL     1       0.177  10.977  10.643  1.00  0.00     0.001 A 
ATOM     79  C   UNL     1      -1.522   9.922  12.001  1.00  0.00     0.001 A 
ATOM     80  C   UNL     1      -0.642  10.979  11.772  1.00  0.00     0.000 A 
ENDBRANCH  62  75
ENDBRANCH  36  37
ENDBRANCH  29  31
ENDBRANCH  28  29
ENDBRANCH  27  28
ENDBRANCH   1  27
TORSDOF 13
