REMARK SMILES Cc1cccc(C(=O)OCCOC(=O)c2ccc(-c3c4nc(c(-c5ccccc5)c5ccc([nH]5)c(-c5ccccc5)c5nc(c(-c6ccccc6)c6ccc3[nH]6)C=C5)C=C4)cc2)c1OC[C@@H]1C[C@H]2CC[C@@H]1C2
REMARK SMILES IDX 10 1 9 2 7 3 8 4 6 5 1 6 2 7 3 8 63 9 4 10 5 11 64 12 65 13
REMARK SMILES IDX 66 14 67 15 71 16 68 17 70 18 72 19 69 20 11 21 12 22 13 23
REMARK SMILES IDX 14 24 15 25 16 26 62 27 17 28 61 29 18 30 19 31 20 32 55 33
REMARK SMILES IDX 21 34 60 35 54 36 56 37 22 38 59 39 53 40 52 41 23 43 45 44
REMARK SMILES IDX 30 45 44 46 31 47 34 48 43 49 57 50 32 51 33 52 42 54 58 55
REMARK SMILES IDX 35 56 24 57 25 58 29 59 26 60 28 61 27 62 46 63 47 64 51 65
REMARK SMILES IDX 48 66 50 67 49 68 36 69 37 70 41 71 38 72 40 73 39 74
REMARK H PARENT 56 42 34 53
REMARK Flexibility Score: inf
ROOT
ATOM      1  C   UNL     1      -1.149   4.438  -1.710  1.00  0.00     0.275 C 
ENDROOT
BRANCH   1   2
ATOM      2  O   UNL     1      -0.986   3.013  -1.727  1.00  0.00    -0.458 OA
BRANCH   2   3
ATOM      3  C   UNL     1      -0.127   2.591  -0.753  1.00  0.00     0.342 C 
ATOM      4  O   UNL     1       0.389   3.302   0.096  1.00  0.00    -0.246 OA
BRANCH   3   5
ATOM      5  C   UNL     1       0.137   1.143  -0.825  1.00  0.00     0.102 A 
ATOM      6  C   UNL     1       2.888  -1.327  -1.713  1.00  0.00     0.048 C 
ATOM      7  C   UNL     1       1.615  -0.740  -1.167  1.00  0.00    -0.008 A 
ATOM      8  C   UNL     1       0.557  -1.622  -0.894  1.00  0.00     0.007 A 
ATOM      9  C   UNL     1       1.431   0.651  -1.028  1.00  0.00     0.136 A 
ATOM     10  C   UNL     1      -0.714  -1.131  -0.643  1.00  0.00     0.001 A 
ATOM     11  C   UNL     1      -0.927   0.245  -0.666  1.00  0.00     0.019 A 
BRANCH   9  12
ATOM     12  O   UNL     1       2.497   1.443  -1.337  1.00  0.00    -0.492 OA
BRANCH  12  13
ATOM     13  C   UNL     1       3.171   2.175  -0.304  1.00  0.00     0.233 C 
BRANCH  13  14
ATOM     14  C   UNL     1       3.325   1.586   1.113  1.00  0.00     0.030 C 
ATOM     15  C   UNL     1       4.309   2.450   1.954  1.00  0.00     0.011 C 
ATOM     16  C   UNL     1       3.988   0.194   1.225  1.00  0.00    -0.004 C 
ATOM     17  C   UNL     1       5.322   1.425   2.497  1.00  0.00    -0.010 C 
ATOM     18  C   UNL     1       3.723  -0.361   2.636  1.00  0.00     0.004 C 
ATOM     19  C   UNL     1       5.481   0.505   1.294  1.00  0.00     0.007 C 
ATOM     20  C   UNL     1       4.629   0.507   3.517  1.00  0.00     0.004 C 
ENDBRANCH  13  14
ENDBRANCH  12  13
ENDBRANCH   9  12
ENDBRANCH   3   5
ENDBRANCH   2   3
ENDBRANCH   1   2
BRANCH   1  21
ATOM     21  C   UNL     1      -2.340   4.964  -2.526  1.00  0.00     0.275 C 
BRANCH  21  22
ATOM     22  O   UNL     1      -3.617   4.265  -2.565  1.00  0.00    -0.458 OA
BRANCH  22  23
ATOM     23  C   UNL     1      -4.075   3.295  -1.747  1.00  0.00     0.338 C 
ATOM     24  O   UNL     1      -4.764   2.363  -2.151  1.00  0.00    -0.246 OA
BRANCH  23  25
ATOM     25  C   UNL     1      -3.735   3.408  -0.327  1.00  0.00     0.060 A 
ATOM     26  C   UNL     1      -3.542   2.231   0.411  1.00  0.00     0.016 A 
ATOM     27  C   UNL     1      -3.519   4.658   0.238  1.00  0.00     0.016 A 
ATOM     28  C   UNL     1      -2.965   2.284   1.670  1.00  0.00     0.010 A 
ATOM     29  C   UNL     1      -2.882   4.718   1.451  1.00  0.00     0.010 A 
ATOM     30  C   UNL     1      -2.635   3.535   2.170  1.00  0.00    -0.014 A 
BRANCH  30  31
ATOM     31  C   UNL     1      -2.360   3.778   3.570  1.00  0.00     0.031 A 
ATOM     32  C   UNL     1      -1.005   3.732   4.124  1.00  0.00     0.074 A 
ATOM     33  C   UNL     1      -3.450   4.299   4.173  1.00  0.00     0.049 A 
ATOM     34  N   UNL     1      -0.741   3.987   5.354  1.00  0.00    -0.248 NA
ATOM     35  C   UNL     1       0.184   3.363   3.360  1.00  0.00     0.031 C 
ATOM     36  C   UNL     1      -3.607   5.108   5.364  1.00  0.00     0.029 A 
ATOM     37  N   UNL     1      -4.764   4.009   3.788  1.00  0.00    -0.354 N 
ATOM     38  C   UNL     1       0.624   4.126   5.471  1.00  0.00     0.074 A 
ATOM     39  C   UNL     1       1.162   3.632   4.235  1.00  0.00     0.031 C 
ATOM     40  C   UNL     1      -4.887   5.005   5.778  1.00  0.00     0.029 A 
ATOM     41  C   UNL     1      -5.524   3.979   4.954  1.00  0.00     0.049 A 
ATOM     42  H   UNL     1      -5.089   3.857   2.872  1.00  0.00     0.167 HD
ATOM     43  C   UNL     1       1.100   4.783   6.564  1.00  0.00     0.031 A 
ATOM     44  C   UNL     1      -5.909   2.746   5.408  1.00  0.00     0.031 A 
ATOM     45  C   UNL     1       0.022   4.942   7.535  1.00  0.00     0.049 A 
ATOM     46  C   UNL     1      -5.207   2.431   6.710  1.00  0.00     0.074 A 
ATOM     47  C   UNL     1      -0.863   5.978   7.779  1.00  0.00     0.029 A 
ATOM     48  N   UNL     1      -0.541   3.792   8.078  1.00  0.00    -0.354 N 
ATOM     49  N   UNL     1      -3.972   2.757   6.996  1.00  0.00    -0.248 NA
ATOM     50  C   UNL     1      -5.919   1.840   7.836  1.00  0.00     0.031 C 
ATOM     51  C   UNL     1      -2.040   5.400   8.338  1.00  0.00     0.029 A 
ATOM     52  C   UNL     1      -1.847   4.032   8.460  1.00  0.00     0.049 A 
ATOM     53  H   UNL     1      -0.075   2.930   8.176  1.00  0.00     0.167 HD
ATOM     54  C   UNL     1      -3.765   2.557   8.337  1.00  0.00     0.074 A 
ATOM     55  C   UNL     1      -4.997   1.942   8.806  1.00  0.00     0.031 C 
ATOM     56  C   UNL     1      -2.651   2.957   9.021  1.00  0.00     0.031 A 
BRANCH  43  57
ATOM     57  C   UNL     1       2.427   5.495   6.668  1.00  0.00    -0.014 A 
ATOM     58  C   UNL     1       2.622   6.398   7.734  1.00  0.00     0.009 A 
ATOM     59  C   UNL     1       3.467   5.429   5.725  1.00  0.00     0.009 A 
ATOM     60  C   UNL     1       3.760   7.210   7.832  1.00  0.00     0.001 A 
ATOM     61  C   UNL     1       4.615   6.234   5.822  1.00  0.00     0.001 A 
ATOM     62  C   UNL     1       4.757   7.132   6.871  1.00  0.00     0.000 A 
ENDBRANCH  43  57
BRANCH  44  63
ATOM     63  C   UNL     1      -6.204   1.759   4.308  1.00  0.00    -0.014 A 
ATOM     64  C   UNL     1      -7.167   2.116   3.332  1.00  0.00     0.009 A 
ATOM     65  C   UNL     1      -5.365   0.672   4.022  1.00  0.00     0.009 A 
ATOM     66  C   UNL     1      -7.200   1.502   2.074  1.00  0.00     0.001 A 
ATOM     67  C   UNL     1      -5.426   0.033   2.769  1.00  0.00     0.001 A 
ATOM     68  C   UNL     1      -6.315   0.471   1.786  1.00  0.00     0.000 A 
ENDBRANCH  44  63
BRANCH  56  69
ATOM     69  C   UNL     1      -2.248   2.416  10.371  1.00  0.00    -0.014 A 
ATOM     70  C   UNL     1      -2.718   1.204  10.889  1.00  0.00     0.009 A 
ATOM     71  C   UNL     1      -1.217   3.058  11.093  1.00  0.00     0.009 A 
ATOM     72  C   UNL     1      -2.240   0.696  12.100  1.00  0.00     0.001 A 
ATOM     73  C   UNL     1      -0.687   2.519  12.265  1.00  0.00     0.001 A 
ATOM     74  C   UNL     1      -1.216   1.346  12.780  1.00  0.00     0.000 A 
ENDBRANCH  56  69
ENDBRANCH  30  31
ENDBRANCH  23  25
ENDBRANCH  22  23
ENDBRANCH  21  22
ENDBRANCH   1  21
TORSDOF 14
