REMARK SMILES C[C@]1(C(=O)OCCOC(=O)c2ccc(-c3c4nc(c(-c5ccccc5)c5ccc([nH]5)c(-c5ccccc5)c5nc(c(-c6ccccc6)c6ccc3[nH]6)C=C5)C=C4)cc2)[NH2+]C2(C(=O)c3ccccc3C2=O)[C@@H]2C(=O)N(c3ccccc3)C(=O)[C@H]21
REMARK SMILES IDX 7 1 6 2 5 3 3 4 4 5 2 6 1 7 59 8 83 9 60 10 71 13 81 14
REMARK SMILES IDX 61 15 69 16 72 17 74 18 82 19 62 20 63 21 68 22 70 23 73 24
REMARK SMILES IDX 64 25 67 26 65 27 66 28 75 29 76 30 80 31 77 32 79 33 78 34
REMARK SMILES IDX 8 35 9 36 10 37 11 38 12 39 58 40 13 41 57 42 14 43 15 44
REMARK SMILES IDX 16 45 51 46 17 47 56 48 50 49 52 50 18 51 55 52 49 53 48 54
REMARK SMILES IDX 19 56 41 57 26 58 40 59 27 60 30 61 39 62 53 63 28 64 29 65
REMARK SMILES IDX 38 67 54 68 31 69 20 70 21 71 25 72 22 73 24 74 23 75 42 76
REMARK SMILES IDX 43 77 47 78 44 79 46 80 45 81 32 82 33 83 37 84 34 85 36 86
REMARK SMILES IDX 35 87
REMARK H PARENT 59 11 59 12 52 55 30 66
REMARK Flexibility Score: inf
ROOT
ATOM      1  C   UNL     1      -3.829  -0.248  -0.692  1.00  0.00     0.275 C 
ENDROOT
BRANCH   1   2
ATOM      2  C   UNL     1      -2.932  -0.999  -1.677  1.00  0.00     0.274 C 
BRANCH   2   3
ATOM      3  O   UNL     1      -1.760  -1.529  -1.028  1.00  0.00    -0.457 OA
BRANCH   3   4
ATOM      4  C   UNL     1      -0.570  -0.892  -1.216  1.00  0.00     0.368 C 
ATOM      5  O   UNL     1      -0.446   0.144  -1.856  1.00  0.00    -0.245 OA
BRANCH   4   6
ATOM      6  C   UNL     1       0.629  -1.694  -0.607  1.00  0.00     0.205 C 
ATOM      7  C   UNL     1       1.810  -0.777  -0.267  1.00  0.00     0.093 C 
ATOM      8  N   UNL     1       0.228  -2.492   0.615  1.00  0.00    -0.313 N 
ATOM      9  C   UNL     1       1.065  -2.780  -1.551  1.00  0.00     0.172 C 
ATOM     10  C   UNL     1       0.161  -3.957   0.220  1.00  0.00     0.237 C 
ATOM     11  H   UNL     1      -0.685  -2.181   0.947  1.00  0.00     0.348 HD
ATOM     12  H   UNL     1       0.908  -2.358   1.364  1.00  0.00     0.348 HD
ATOM     13  C   UNL     1       0.059  -3.874  -1.266  1.00  0.00     0.177 C 
ATOM     14  C   UNL     1       1.010  -2.698  -3.029  1.00  0.00     0.244 C 
ATOM     15  C   UNL     1       1.355  -4.707   0.809  1.00  0.00     0.232 C 
ATOM     16  C   UNL     1      -1.039  -4.620   0.898  1.00  0.00     0.232 C 
ATOM     17  C   UNL     1       0.406  -4.823  -2.358  1.00  0.00     0.245 C 
ATOM     18  N   UNL     1       0.713  -3.993  -3.440  1.00  0.00    -0.250 N 
ATOM     19  O   UNL     1       1.246  -1.694  -3.675  1.00  0.00    -0.273 OA
ATOM     20  O   UNL     1       2.533  -4.522   0.572  1.00  0.00    -0.286 OA
ATOM     21  C   UNL     1       0.859  -5.628   1.831  1.00  0.00     0.036 A 
ATOM     22  C   UNL     1      -0.527  -5.569   1.893  1.00  0.00     0.036 A 
ATOM     23  O   UNL     1      -2.221  -4.445   0.678  1.00  0.00    -0.286 OA
ATOM     24  O   UNL     1       0.291  -6.034  -2.292  1.00  0.00    -0.273 OA
ATOM     25  C   UNL     1       1.597  -6.436   2.676  1.00  0.00     0.013 A 
ATOM     26  C   UNL     1      -1.240  -6.327   2.803  1.00  0.00     0.013 A 
ATOM     27  C   UNL     1       0.893  -7.211   3.601  1.00  0.00     0.001 A 
ATOM     28  C   UNL     1      -0.513  -7.157   3.664  1.00  0.00     0.001 A 
BRANCH  18  29
ATOM     29  C   UNL     1       0.559  -4.318  -4.802  1.00  0.00     0.052 A 
ATOM     30  C   UNL     1       1.395  -3.738  -5.768  1.00  0.00     0.027 A 
ATOM     31  C   UNL     1      -0.535  -5.083  -5.219  1.00  0.00     0.027 A 
ATOM     32  C   UNL     1       1.130  -3.899  -7.127  1.00  0.00     0.002 A 
ATOM     33  C   UNL     1      -0.824  -5.204  -6.581  1.00  0.00     0.002 A 
ATOM     34  C   UNL     1       0.007  -4.613  -7.532  1.00  0.00     0.000 A 
ENDBRANCH  18  29
ENDBRANCH   4   6
ENDBRANCH   3   4
ENDBRANCH   2   3
ENDBRANCH   1   2
BRANCH   1  35
ATOM     35  O   UNL     1      -3.232   1.003  -0.311  1.00  0.00    -0.458 OA
BRANCH  35  36
ATOM     36  C   UNL     1      -2.454   0.947   0.793  1.00  0.00     0.338 C 
ATOM     37  O   UNL     1      -2.283   0.004   1.546  1.00  0.00    -0.246 OA
BRANCH  36  38
ATOM     38  C   UNL     1      -1.658   2.176   0.870  1.00  0.00     0.060 A 
ATOM     39  C   UNL     1      -2.222   3.408   1.177  1.00  0.00     0.016 A 
ATOM     40  C   UNL     1      -0.283   2.054   0.683  1.00  0.00     0.016 A 
ATOM     41  C   UNL     1      -1.384   4.522   1.279  1.00  0.00     0.010 A 
ATOM     42  C   UNL     1       0.556   3.148   0.808  1.00  0.00     0.010 A 
ATOM     43  C   UNL     1       0.010   4.397   1.099  1.00  0.00    -0.014 A 
BRANCH  43  44
ATOM     44  C   UNL     1       0.912   5.553   1.292  1.00  0.00     0.031 A 
ATOM     45  C   UNL     1       1.684   6.132   0.142  1.00  0.00     0.074 A 
ATOM     46  C   UNL     1       1.065   6.038   2.537  1.00  0.00     0.049 A 
ATOM     47  N   UNL     1       2.427   7.208   0.119  1.00  0.00    -0.248 NA
ATOM     48  C   UNL     1       1.641   5.405  -1.138  1.00  0.00     0.031 C 
ATOM     49  C   UNL     1       0.443   5.474   3.738  1.00  0.00     0.029 A 
ATOM     50  N   UNL     1       1.769   7.119   3.001  1.00  0.00    -0.354 N 
ATOM     51  C   UNL     1       2.926   7.295  -1.174  1.00  0.00     0.074 A 
ATOM     52  C   UNL     1       2.464   6.126  -1.887  1.00  0.00     0.031 C 
ATOM     53  C   UNL     1       0.737   6.253   4.789  1.00  0.00     0.029 A 
ATOM     54  C   UNL     1       1.589   7.351   4.343  1.00  0.00     0.049 A 
ATOM     55  H   UNL     1       2.346   7.674   2.428  1.00  0.00     0.167 HD
ATOM     56  C   UNL     1       3.674   8.282  -1.719  1.00  0.00     0.031 A 
ATOM     57  C   UNL     1       2.034   8.355   5.122  1.00  0.00     0.031 A 
ATOM     58  C   UNL     1       4.121   9.438  -0.986  1.00  0.00     0.049 A 
ATOM     59  C   UNL     1       2.836   9.456   4.489  1.00  0.00     0.074 A 
ATOM     60  C   UNL     1       4.817  10.536  -1.457  1.00  0.00     0.029 A 
ATOM     61  N   UNL     1       3.918   9.641   0.371  1.00  0.00    -0.354 N 
ATOM     62  N   UNL     1       3.199   9.593   3.236  1.00  0.00    -0.248 NA
ATOM     63  C   UNL     1       3.270  10.552   5.365  1.00  0.00     0.031 C 
ATOM     64  C   UNL     1       5.095  11.370  -0.372  1.00  0.00     0.029 A 
ATOM     65  C   UNL     1       4.503  10.833   0.760  1.00  0.00     0.049 A 
ATOM     66  H   UNL     1       3.430   9.028   0.968  1.00  0.00     0.167 HD
ATOM     67  C   UNL     1       3.887  10.796   3.167  1.00  0.00     0.074 A 
ATOM     68  C   UNL     1       3.871  11.362   4.502  1.00  0.00     0.031 C 
ATOM     69  C   UNL     1       4.480  11.377   2.096  1.00  0.00     0.031 A 
BRANCH  56  70
ATOM     70  C   UNL     1       4.032   8.188  -3.178  1.00  0.00    -0.014 A 
ATOM     71  C   UNL     1       5.378   8.096  -3.571  1.00  0.00     0.009 A 
ATOM     72  C   UNL     1       3.047   8.307  -4.172  1.00  0.00     0.009 A 
ATOM     73  C   UNL     1       5.729   8.143  -4.922  1.00  0.00     0.001 A 
ATOM     74  C   UNL     1       3.398   8.320  -5.524  1.00  0.00     0.001 A 
ATOM     75  C   UNL     1       4.739   8.251  -5.897  1.00  0.00     0.000 A 
ENDBRANCH  56  70
BRANCH  57  76
ATOM     76  C   UNL     1       1.643   8.385   6.556  1.00  0.00    -0.014 A 
ATOM     77  C   UNL     1       2.122   7.413   7.450  1.00  0.00     0.009 A 
ATOM     78  C   UNL     1       0.714   9.328   7.020  1.00  0.00     0.009 A 
ATOM     79  C   UNL     1       1.656   7.365   8.766  1.00  0.00     0.001 A 
ATOM     80  C   UNL     1       0.274   9.299   8.345  1.00  0.00     0.001 A 
ATOM     81  C   UNL     1       0.735   8.310   9.213  1.00  0.00     0.000 A 
ENDBRANCH  57  76
BRANCH  69  82
ATOM     82  C   UNL     1       5.170  12.697   2.303  1.00  0.00    -0.014 A 
ATOM     83  C   UNL     1       4.665  13.851   1.682  1.00  0.00     0.009 A 
ATOM     84  C   UNL     1       6.383  12.775   3.001  1.00  0.00     0.009 A 
ATOM     85  C   UNL     1       5.374  15.051   1.734  1.00  0.00     0.001 A 
ATOM     86  C   UNL     1       7.074  13.986   3.081  1.00  0.00     0.001 A 
ATOM     87  C   UNL     1       6.576  15.118   2.436  1.00  0.00     0.000 A 
ENDBRANCH  69  82
ENDBRANCH  43  44
ENDBRANCH  36  38
ENDBRANCH  35  36
ENDBRANCH   1  35
TORSDOF 12
