REMARK SMILES C[C@]1(C(=O)OCCOC(=O)c2ccc(-c3c4nc(c(-c5ccccc5)c5ccc([nH]5)c(-c5ccccc5)c5nc(c(-c6ccccc6)c6ccc3[nH]6)C=C5)C=C4)cc2)COC[C@@H]1NC(=O)[C@H]1C=C[C@@H]([NH3+])C1
REMARK SMILES IDX 6 1 5 2 3 3 4 4 2 5 1 6 59 7 62 8 60 9 61 10 63 11 64 12
REMARK SMILES IDX 65 14 66 15 67 16 71 17 68 18 69 19 70 20 7 24 8 25 9 26
REMARK SMILES IDX 10 27 11 28 12 29 58 30 13 31 57 32 14 33 15 34 16 35 51 36
REMARK SMILES IDX 17 37 56 38 50 39 52 40 18 41 55 42 49 43 48 44 19 46 41 47
REMARK SMILES IDX 26 48 40 49 27 50 30 51 39 52 53 53 28 54 29 55 38 57 54 58
REMARK SMILES IDX 31 59 20 60 21 61 25 62 22 63 24 64 23 65 42 66 43 67 47 68
REMARK SMILES IDX 44 69 46 70 45 71 32 72 33 73 37 74 34 75 36 76 35 77
REMARK H PARENT 63 13 70 21 70 22 70 23 52 45 30 56
REMARK Flexibility Score: inf
ROOT
ATOM      1  C   UNL     1       2.838  -0.516  -1.557  1.00  0.00     0.274 C 
ENDROOT
BRANCH   1   2
ATOM      2  O   UNL     1       2.487  -0.655  -0.164  1.00  0.00    -0.462 OA
BRANCH   2   3
ATOM      3  C   UNL     1       1.723   0.347   0.350  1.00  0.00     0.316 C 
ATOM      4  O   UNL     1       1.299   1.294  -0.300  1.00  0.00    -0.251 OA
BRANCH   3   5
ATOM      5  C   UNL     1       1.519   0.191   1.844  1.00  0.00     0.111 C 
ATOM      6  C   UNL     1       1.007  -1.195   2.266  1.00  0.00     0.028 C 
ATOM      7  C   UNL     1       2.860   0.397   2.566  1.00  0.00     0.181 C 
ATOM      8  C   UNL     1       0.810   1.435   2.420  1.00  0.00     0.127 C 
ATOM      9  O   UNL     1       2.531   0.825   3.907  1.00  0.00    -0.378 OA
ATOM     10  C   UNL     1       1.207   1.401   3.886  1.00  0.00     0.186 C 
BRANCH   8  11
ATOM     11  N   UNL     1      -0.541   1.890   2.086  1.00  0.00    -0.349 N 
ATOM     12  C   UNL     1      -1.833   1.496   2.209  1.00  0.00     0.227 C 
ATOM     13  H   UNL     1      -0.499   2.759   1.625  1.00  0.00     0.163 HD
ATOM     14  O   UNL     1      -2.689   2.341   1.934  1.00  0.00    -0.274 OA
BRANCH  12  15
ATOM     15  C   UNL     1      -2.199   0.080   2.602  1.00  0.00     0.107 C 
ATOM     16  C   UNL     1      -3.662  -0.153   2.912  1.00  0.00    -0.012 C 
ATOM     17  C   UNL     1      -2.095  -0.824   1.379  1.00  0.00     0.087 C 
ATOM     18  C   UNL     1      -4.090  -1.318   2.393  1.00  0.00     0.033 C 
ATOM     19  C   UNL     1      -2.974  -2.022   1.694  1.00  0.00     0.205 C 
BRANCH  19  20
ATOM     20  N   UNL     1      -3.324  -2.728   0.485  1.00  0.00    -0.352 N 
ATOM     21  H   UNL     1      -3.745  -2.077  -0.179  1.00  0.00     0.345 HD
ATOM     22  H   UNL     1      -3.991  -3.468   0.704  1.00  0.00     0.345 HD
ATOM     23  H   UNL     1      -2.485  -3.136   0.075  1.00  0.00     0.345 HD
ENDBRANCH  19  20
ENDBRANCH  12  15
ENDBRANCH   8  11
ENDBRANCH   3   5
ENDBRANCH   2   3
ENDBRANCH   1   2
BRANCH   1  24
ATOM     24  C   UNL     1       1.842  -1.240  -2.460  1.00  0.00     0.275 C 
BRANCH  24  25
ATOM     25  O   UNL     1       0.565  -0.578  -2.425  1.00  0.00    -0.458 OA
BRANCH  25  26
ATOM     26  C   UNL     1      -0.506  -1.391  -2.583  1.00  0.00     0.338 C 
ATOM     27  O   UNL     1      -0.469  -2.597  -2.764  1.00  0.00    -0.246 OA
BRANCH  26  28
ATOM     28  C   UNL     1      -1.782  -0.634  -2.513  1.00  0.00     0.060 A 
ATOM     29  C   UNL     1      -1.914   0.536  -1.768  1.00  0.00     0.016 A 
ATOM     30  C   UNL     1      -2.916  -1.191  -3.114  1.00  0.00     0.016 A 
ATOM     31  C   UNL     1      -3.192   1.057  -1.514  1.00  0.00     0.010 A 
ATOM     32  C   UNL     1      -4.178  -0.608  -2.937  1.00  0.00     0.010 A 
ATOM     33  C   UNL     1      -4.349   0.492  -2.083  1.00  0.00    -0.014 A 
BRANCH  33  34
ATOM     34  C   UNL     1      -5.720   1.014  -1.773  1.00  0.00     0.031 A 
ATOM     35  C   UNL     1      -6.823   0.098  -1.277  1.00  0.00     0.074 A 
ATOM     36  C   UNL     1      -6.007   2.324  -1.920  1.00  0.00     0.049 A 
ATOM     37  N   UNL     1      -8.107   0.335  -1.134  1.00  0.00    -0.248 NA
ATOM     38  C   UNL     1      -6.436  -1.266  -0.889  1.00  0.00     0.031 C 
ATOM     39  C   UNL     1      -5.061   3.365  -2.324  1.00  0.00     0.029 A 
ATOM     40  N   UNL     1      -7.189   3.006  -1.742  1.00  0.00    -0.354 N 
ATOM     41  C   UNL     1      -8.672  -0.851  -0.673  1.00  0.00     0.074 A 
ATOM     42  C   UNL     1      -7.598  -1.811  -0.559  1.00  0.00     0.031 C 
ATOM     43  C   UNL     1      -5.681   4.552  -2.315  1.00  0.00     0.029 A 
ATOM     44  C   UNL     1      -7.095   4.345  -2.028  1.00  0.00     0.049 A 
ATOM     45  H   UNL     1      -8.021   2.575  -1.440  1.00  0.00     0.167 HD
ATOM     46  C   UNL     1      -9.967  -1.128  -0.383  1.00  0.00     0.031 A 
ATOM     47  C   UNL     1      -8.037   5.302  -2.125  1.00  0.00     0.031 A 
ATOM     48  C   UNL     1     -11.049  -0.184  -0.485  1.00  0.00     0.049 A 
ATOM     49  C   UNL     1      -9.479   4.951  -1.921  1.00  0.00     0.074 A 
ATOM     50  C   UNL     1     -12.395  -0.382  -0.222  1.00  0.00     0.029 A 
ATOM     51  N   UNL     1     -10.909   1.135  -0.880  1.00  0.00    -0.354 N 
ATOM     52  N   UNL     1     -10.006   3.804  -1.572  1.00  0.00    -0.248 NA
ATOM     53  C   UNL     1     -10.458   6.020  -2.159  1.00  0.00     0.031 C 
ATOM     54  C   UNL     1     -13.077   0.806  -0.508  1.00  0.00     0.029 A 
ATOM     55  C   UNL     1     -12.147   1.755  -0.899  1.00  0.00     0.049 A 
ATOM     56  H   UNL     1     -10.056   1.568  -1.112  1.00  0.00     0.167 HD
ATOM     57  C   UNL     1     -11.378   4.011  -1.552  1.00  0.00     0.074 A 
ATOM     58  C   UNL     1     -11.601   5.399  -1.901  1.00  0.00     0.031 C 
ATOM     59  C   UNL     1     -12.364   3.126  -1.273  1.00  0.00     0.031 A 
BRANCH  46  60
ATOM     60  C   UNL     1     -10.313  -2.533   0.029  1.00  0.00    -0.014 A 
ATOM     61  C   UNL     1     -10.047  -3.006   1.323  1.00  0.00     0.009 A 
ATOM     62  C   UNL     1     -10.991  -3.369  -0.874  1.00  0.00     0.009 A 
ATOM     63  C   UNL     1     -10.442  -4.294   1.698  1.00  0.00     0.001 A 
ATOM     64  C   UNL     1     -11.402  -4.646  -0.489  1.00  0.00     0.001 A 
ATOM     65  C   UNL     1     -11.124  -5.109   0.795  1.00  0.00     0.000 A 
ENDBRANCH  46  60
BRANCH  47  66
ATOM     66  C   UNL     1      -7.635   6.670  -2.542  1.00  0.00    -0.014 A 
ATOM     67  C   UNL     1      -7.667   7.738  -1.635  1.00  0.00     0.009 A 
ATOM     68  C   UNL     1      -7.169   6.897  -3.848  1.00  0.00     0.009 A 
ATOM     69  C   UNL     1      -7.231   9.006  -2.029  1.00  0.00     0.001 A 
ATOM     70  C   UNL     1      -6.703   8.156  -4.227  1.00  0.00     0.001 A 
ATOM     71  C   UNL     1      -6.738   9.210  -3.318  1.00  0.00     0.000 A 
ENDBRANCH  47  66
BRANCH  59  72
ATOM     72  C   UNL     1     -13.773   3.637  -1.329  1.00  0.00    -0.014 A 
ATOM     73  C   UNL     1     -14.409   3.866  -2.559  1.00  0.00     0.009 A 
ATOM     74  C   UNL     1     -14.474   3.886  -0.139  1.00  0.00     0.009 A 
ATOM     75  C   UNL     1     -15.711   4.367  -2.595  1.00  0.00     0.001 A 
ATOM     76  C   UNL     1     -15.783   4.366  -0.179  1.00  0.00     0.001 A 
ATOM     77  C   UNL     1     -16.397   4.615  -1.406  1.00  0.00     0.000 A 
ENDBRANCH  59  72
ENDBRANCH  33  34
ENDBRANCH  26  28
ENDBRANCH  25  26
ENDBRANCH  24  25
ENDBRANCH   1  24
TORSDOF 14
