REMARK SMILES CC[C@H](C)CN(CC)c1nc(C(=O)OCCOC(=O)c2ccc(-c3c4nc(c(-c5ccccc5)c5ccc([nH]5)c(-c5ccccc5)c5nc(c(-c6ccccc6)c6ccc3[nH]6)C=C5)C=C4)cc2)cc2ccccc12
REMARK SMILES IDX 15 1 14 2 12 3 13 4 11 5 9 6 10 7 74 8 69 9 73 10 68 11
REMARK SMILES IDX 70 12 72 13 71 14 6 15 5 16 3 17 4 18 2 19 1 20 7 21 8 22
REMARK SMILES IDX 16 23 17 24 18 25 19 26 20 27 21 28 67 29 22 30 66 31 23 32
REMARK SMILES IDX 24 33 25 34 60 35 26 36 65 37 59 38 61 39 27 40 64 41 58 42
REMARK SMILES IDX 57 43 28 45 50 46 35 47 49 48 36 49 39 50 48 51 62 52 37 53
REMARK SMILES IDX 38 54 47 56 63 57 40 58 29 59 30 60 34 61 31 62 33 63 32 64
REMARK SMILES IDX 51 65 52 66 56 67 53 68 55 69 54 70 41 71 42 72 46 73 43 74
REMARK SMILES IDX 45 75 44 76
REMARK H PARENT 61 44 39 55
REMARK Flexibility Score: inf
ROOT
ATOM      1  C   UNL     1      -1.291  -2.507  -8.327  1.00  0.00     0.275 C 
ENDROOT
BRANCH   1   2
ATOM      2  O   UNL     1      -0.890  -2.364  -6.949  1.00  0.00    -0.457 OA
BRANCH   2   3
ATOM      3  C   UNL     1      -0.150  -1.258  -6.688  1.00  0.00     0.357 C 
ATOM      4  O   UNL     1       0.167  -0.399  -7.502  1.00  0.00    -0.244 OA
BRANCH   3   5
ATOM      5  C   UNL     1       0.214  -1.131  -5.253  1.00  0.00     0.151 A 
ATOM      6  C   UNL     1       1.262  -2.038  -3.404  1.00  0.00     0.137 A 
ATOM      7  N   UNL     1       0.659  -2.225  -4.602  1.00  0.00    -0.223 NA
ATOM      8  C   UNL     1       1.494  -0.732  -2.874  1.00  0.00     0.024 A 
ATOM      9  C   UNL     1       0.840   0.348  -3.488  1.00  0.00    -0.012 A 
ATOM     10  C   UNL     1       2.333  -0.419  -1.779  1.00  0.00     0.012 A 
ATOM     11  C   UNL     1       0.216   0.140  -4.705  1.00  0.00     0.045 A 
ATOM     12  C   UNL     1       0.849   1.627  -2.904  1.00  0.00     0.009 A 
ATOM     13  C   UNL     1       2.365   0.858  -1.211  1.00  0.00     0.001 A 
ATOM     14  C   UNL     1       1.585   1.872  -1.750  1.00  0.00     0.001 A 
BRANCH   6  15
ATOM     15  N   UNL     1       1.575  -3.181  -2.648  1.00  0.00    -0.356 N 
BRANCH  15  16
ATOM     16  C   UNL     1       0.538  -3.603  -1.669  1.00  0.00     0.121 C 
BRANCH  16  17
ATOM     17  C   UNL     1       0.503  -2.725  -0.395  1.00  0.00     0.005 C 
ATOM     18  C   UNL     1      -0.696  -1.765  -0.424  1.00  0.00     0.009 C 
BRANCH  17  19
ATOM     19  C   UNL     1       0.502  -3.537   0.916  1.00  0.00     0.002 C 
ATOM     20  C   UNL     1       1.123  -2.732   2.059  1.00  0.00     0.004 C 
ENDBRANCH  17  19
ENDBRANCH  16  17
ENDBRANCH  15  16
BRANCH  15  21
ATOM     21  C   UNL     1       2.258  -4.258  -3.382  1.00  0.00     0.114 C 
ATOM     22  C   UNL     1       1.361  -5.071  -4.312  1.00  0.00     0.027 C 
ENDBRANCH  15  21
ENDBRANCH   6  15
ENDBRANCH   3   5
ENDBRANCH   2   3
ENDBRANCH   1   2
BRANCH   1  23
ATOM     23  C   UNL     1      -2.700  -1.963  -8.564  1.00  0.00     0.275 C 
BRANCH  23  24
ATOM     24  O   UNL     1      -2.746  -0.546  -8.304  1.00  0.00    -0.458 OA
BRANCH  24  25
ATOM     25  C   UNL     1      -3.661  -0.145  -7.391  1.00  0.00     0.338 C 
ATOM     26  O   UNL     1      -4.477  -0.838  -6.808  1.00  0.00    -0.246 OA
BRANCH  25  27
ATOM     27  C   UNL     1      -3.535   1.302  -7.123  1.00  0.00     0.060 A 
ATOM     28  C   UNL     1      -2.306   1.828  -6.748  1.00  0.00     0.016 A 
ATOM     29  C   UNL     1      -4.672   2.103  -7.059  1.00  0.00     0.016 A 
ATOM     30  C   UNL     1      -2.232   3.086  -6.149  1.00  0.00     0.010 A 
ATOM     31  C   UNL     1      -4.570   3.423  -6.595  1.00  0.00     0.010 A 
ATOM     32  C   UNL     1      -3.360   3.915  -6.071  1.00  0.00    -0.014 A 
BRANCH  32  33
ATOM     33  C   UNL     1      -3.283   5.254  -5.403  1.00  0.00     0.031 A 
ATOM     34  C   UNL     1      -4.259   5.626  -4.307  1.00  0.00     0.074 A 
ATOM     35  C   UNL     1      -2.326   6.145  -5.739  1.00  0.00     0.049 A 
ATOM     36  N   UNL     1      -4.462   6.792  -3.740  1.00  0.00    -0.248 NA
ATOM     37  C   UNL     1      -5.133   4.559  -3.796  1.00  0.00     0.031 C 
ATOM     38  C   UNL     1      -1.279   5.938  -6.742  1.00  0.00     0.029 A 
ATOM     39  N   UNL     1      -2.062   7.404  -5.251  1.00  0.00    -0.354 N 
ATOM     40  C   UNL     1      -5.537   6.614  -2.875  1.00  0.00     0.074 A 
ATOM     41  C   UNL     1      -5.938   5.229  -2.984  1.00  0.00     0.031 C 
ATOM     42  C   UNL     1      -0.446   6.988  -6.739  1.00  0.00     0.029 A 
ATOM     43  C   UNL     1      -0.959   7.996  -5.819  1.00  0.00     0.049 A 
ATOM     44  H   UNL     1      -2.612   7.840  -4.561  1.00  0.00     0.167 HD
ATOM     45  C   UNL     1      -6.141   7.521  -2.068  1.00  0.00     0.031 A 
ATOM     46  C   UNL     1      -0.431   9.225  -5.660  1.00  0.00     0.031 A 
ATOM     47  C   UNL     1      -5.704   8.881  -1.896  1.00  0.00     0.049 A 
ATOM     48  C   UNL     1      -1.111  10.211  -4.758  1.00  0.00     0.074 A 
ATOM     49  C   UNL     1      -6.248   9.867  -1.088  1.00  0.00     0.029 A 
ATOM     50  N   UNL     1      -4.600   9.440  -2.517  1.00  0.00    -0.354 N 
ATOM     51  N   UNL     1      -2.178  10.048  -4.014  1.00  0.00    -0.248 NA
ATOM     52  C   UNL     1      -0.529  11.559  -4.694  1.00  0.00     0.031 C 
ATOM     53  C   UNL     1      -5.489  11.031  -1.244  1.00  0.00     0.029 A 
ATOM     54  C   UNL     1      -4.448  10.757  -2.115  1.00  0.00     0.049 A 
ATOM     55  H   UNL     1      -4.010   8.971  -3.151  1.00  0.00     0.167 HD
ATOM     56  C   UNL     1      -2.394  11.271  -3.394  1.00  0.00     0.074 A 
ATOM     57  C   UNL     1      -1.333  12.158  -3.826  1.00  0.00     0.031 C 
ATOM     58  C   UNL     1      -3.391  11.629  -2.551  1.00  0.00     0.031 A 
BRANCH  45  59
ATOM     59  C   UNL     1      -7.380   7.083  -1.335  1.00  0.00    -0.014 A 
ATOM     60  C   UNL     1      -7.320   6.230  -0.223  1.00  0.00     0.009 A 
ATOM     61  C   UNL     1      -8.630   7.574  -1.748  1.00  0.00     0.009 A 
ATOM     62  C   UNL     1      -8.491   5.852   0.440  1.00  0.00     0.001 A 
ATOM     63  C   UNL     1      -9.795   7.216  -1.067  1.00  0.00     0.001 A 
ATOM     64  C   UNL     1      -9.726   6.348   0.020  1.00  0.00     0.000 A 
ENDBRANCH  45  59
BRANCH  46  65
ATOM     65  C   UNL     1       0.788   9.608  -6.419  1.00  0.00    -0.014 A 
ATOM     66  C   UNL     1       2.014   9.782  -5.759  1.00  0.00     0.009 A 
ATOM     67  C   UNL     1       0.735   9.785  -7.811  1.00  0.00     0.009 A 
ATOM     68  C   UNL     1       3.159  10.132  -6.478  1.00  0.00     0.001 A 
ATOM     69  C   UNL     1       1.888  10.103  -8.530  1.00  0.00     0.001 A 
ATOM     70  C   UNL     1       3.098  10.283  -7.863  1.00  0.00     0.000 A 
ENDBRANCH  46  65
BRANCH  58  71
ATOM     71  C   UNL     1      -3.363  13.032  -2.019  1.00  0.00    -0.014 A 
ATOM     72  C   UNL     1      -3.736  14.119  -2.823  1.00  0.00     0.009 A 
ATOM     73  C   UNL     1      -2.977  13.264  -0.690  1.00  0.00     0.009 A 
ATOM     74  C   UNL     1      -3.694  15.419  -2.314  1.00  0.00     0.001 A 
ATOM     75  C   UNL     1      -2.957  14.562  -0.178  1.00  0.00     0.001 A 
ATOM     76  C   UNL     1      -3.306  15.639  -0.992  1.00  0.00     0.000 A 
ENDBRANCH  58  71
ENDBRANCH  32  33
ENDBRANCH  25  27
ENDBRANCH  24  25
ENDBRANCH  23  24
ENDBRANCH   1  23
TORSDOF 16
