REMARK SMILES C[C@@H]1CCC/C(=C\Nc2ccc(C(=O)OCCOC(=O)c3ccc(-c4c5nc(c(-c6ccccc6)c6ccc([nH]6)c(-c6ccccc6)c6nc(c(-c7ccccc7)c7ccc4[nH]7)C=C6)C=C5)cc3)c(O)c2)C1=O
REMARK SMILES IDX 16 1 15 2 13 3 14 4 12 5 9 6 10 7 71 8 11 9 69 10 8 11 7 13
REMARK SMILES IDX 1 14 2 15 3 16 72 17 4 18 6 19 73 20 5 21 70 22 17 24 18 25
REMARK SMILES IDX 19 26 20 27 21 28 22 29 68 30 23 31 67 32 24 33 25 34 26 35
REMARK SMILES IDX 61 36 27 37 66 38 60 39 62 40 28 41 65 42 59 43 58 44 29 46
REMARK SMILES IDX 51 47 36 48 50 49 37 50 40 51 49 52 63 53 38 54 39 55 48 57
REMARK SMILES IDX 64 58 41 59 30 60 31 61 35 62 32 63 34 64 33 65 52 66 53 67
REMARK SMILES IDX 57 68 54 69 56 70 55 71 42 72 43 73 47 74 44 75 46 76 45 77
REMARK H PARENT 8 12 70 23 62 45 40 56
REMARK Flexibility Score: inf
ROOT
ATOM      1  C   UNL     1       5.260  10.451   2.476  1.00  0.00     0.275 C 
ENDROOT
BRANCH   1   2
ATOM      2  O   UNL     1       5.052   9.358   1.554  1.00  0.00    -0.458 OA
BRANCH   2   3
ATOM      3  C   UNL     1       5.233   8.111   2.063  1.00  0.00     0.342 C 
ATOM      4  O   UNL     1       5.603   7.838   3.193  1.00  0.00    -0.246 OA
BRANCH   3   5
ATOM      5  C   UNL     1       4.811   7.084   1.077  1.00  0.00     0.101 A 
ATOM      6  C   UNL     1       3.923   5.041  -0.661  1.00  0.00     0.042 A 
ATOM      7  C   UNL     1       3.849   4.880   0.726  1.00  0.00     0.027 A 
ATOM      8  C   UNL     1       4.451   6.235  -1.167  1.00  0.00     0.073 A 
ATOM      9  C   UNL     1       4.331   5.869   1.584  1.00  0.00     0.022 A 
ATOM     10  C   UNL     1       4.869   7.257  -0.308  1.00  0.00     0.132 A 
BRANCH   6  11
ATOM     11  N   UNL     1       3.421   4.070  -1.539  1.00  0.00    -0.361 N 
ATOM     12  H   UNL     1       3.913   3.934  -2.381  1.00  0.00     0.166 HD
BRANCH  11  13
ATOM     13  C   UNL     1       2.309   3.291  -1.336  1.00  0.00     0.090 C 
ATOM     14  C   UNL     1       0.996  -0.241   0.104  1.00  0.00     0.016 C 
ATOM     15  C   UNL     1       0.616   0.048  -1.346  1.00  0.00     0.058 C 
ATOM     16  C   UNL     1       1.498  -0.702  -2.352  1.00  0.00     0.012 C 
ATOM     17  C   UNL     1       0.648   1.550  -1.572  1.00  0.00     0.163 C 
ATOM     18  C   UNL     1       2.883  -0.082  -2.525  1.00  0.00     0.006 C 
ATOM     19  C   UNL     1       1.959   2.156  -1.957  1.00  0.00     0.011 C 
ATOM     20  O   UNL     1      -0.338   2.254  -1.363  1.00  0.00    -0.294 OA
ATOM     21  C   UNL     1       2.779   1.385  -2.942  1.00  0.00     0.041 C 
ENDBRANCH  11  13
ENDBRANCH   6  11
BRANCH  10  22
ATOM     22  O   UNL     1       5.328   8.396  -0.912  1.00  0.00    -0.507 OA
ATOM     23  H   UNL     1       5.622   9.117  -0.391  1.00  0.00     0.293 HD
ENDBRANCH  10  22
ENDBRANCH   3   5
ENDBRANCH   2   3
ENDBRANCH   1   2
BRANCH   1  24
ATOM     24  C   UNL     1       3.928  10.960   3.026  1.00  0.00     0.275 C 
BRANCH  24  25
ATOM     25  O   UNL     1       3.352   9.977   3.904  1.00  0.00    -0.458 OA
BRANCH  25  26
ATOM     26  C   UNL     1       2.160   9.465   3.521  1.00  0.00     0.338 C 
ATOM     27  O   UNL     1       1.499   9.761   2.542  1.00  0.00    -0.246 OA
BRANCH  26  28
ATOM     28  C   UNL     1       1.749   8.433   4.485  1.00  0.00     0.060 A 
ATOM     29  C   UNL     1       2.434   7.221   4.514  1.00  0.00     0.016 A 
ATOM     30  C   UNL     1       0.622   8.622   5.282  1.00  0.00     0.016 A 
ATOM     31  C   UNL     1       1.960   6.163   5.286  1.00  0.00     0.010 A 
ATOM     32  C   UNL     1       0.195   7.587   6.121  1.00  0.00     0.010 A 
ATOM     33  C   UNL     1       0.842   6.336   6.112  1.00  0.00    -0.014 A 
BRANCH  33  34
ATOM     34  C   UNL     1       0.323   5.212   6.938  1.00  0.00     0.031 A 
ATOM     35  C   UNL     1      -1.085   4.717   6.734  1.00  0.00     0.074 A 
ATOM     36  C   UNL     1       1.096   4.629   7.876  1.00  0.00     0.049 A 
ATOM     37  N   UNL     1      -1.797   3.916   7.486  1.00  0.00    -0.248 NA
ATOM     38  C   UNL     1      -1.786   5.196   5.532  1.00  0.00     0.031 C 
ATOM     39  C   UNL     1       2.498   4.951   8.146  1.00  0.00     0.029 A 
ATOM     40  N   UNL     1       0.805   3.637   8.781  1.00  0.00    -0.354 N 
ATOM     41  C   UNL     1      -3.048   3.847   6.884  1.00  0.00     0.074 A 
ATOM     42  C   UNL     1      -2.995   4.679   5.701  1.00  0.00     0.031 C 
ATOM     43  C   UNL     1       2.952   4.155   9.126  1.00  0.00     0.029 A 
ATOM     44  C   UNL     1       1.852   3.330   9.615  1.00  0.00     0.049 A 
ATOM     45  H   UNL     1      -0.071   3.189   8.827  1.00  0.00     0.167 HD
ATOM     46  C   UNL     1      -4.144   3.161   7.287  1.00  0.00     0.031 A 
ATOM     47  C   UNL     1       1.915   2.517  10.687  1.00  0.00     0.031 A 
ATOM     48  C   UNL     1      -4.185   2.297   8.437  1.00  0.00     0.049 A 
ATOM     49  C   UNL     1       0.677   1.800  11.142  1.00  0.00     0.074 A 
ATOM     50  C   UNL     1      -5.249   1.556   8.921  1.00  0.00     0.029 A 
ATOM     51  N   UNL     1      -3.107   2.043   9.269  1.00  0.00    -0.354 N 
ATOM     52  N   UNL     1      -0.520   1.802  10.609  1.00  0.00    -0.248 NA
ATOM     53  C   UNL     1       0.793   0.987  12.362  1.00  0.00     0.031 C 
ATOM     54  C   UNL     1      -4.823   0.877  10.068  1.00  0.00     0.029 A 
ATOM     55  C   UNL     1      -3.483   1.165  10.271  1.00  0.00     0.049 A 
ATOM     56  H   UNL     1      -2.208   2.430   9.164  1.00  0.00     0.167 HD
ATOM     57  C   UNL     1      -1.297   0.987  11.421  1.00  0.00     0.074 A 
ATOM     58  C   UNL     1      -0.432   0.493  12.473  1.00  0.00     0.031 C 
ATOM     59  C   UNL     1      -2.611   0.681  11.307  1.00  0.00     0.031 A 
BRANCH  46  60
ATOM     60  C   UNL     1      -5.410   3.357   6.504  1.00  0.00    -0.014 A 
ATOM     61  C   UNL     1      -5.597   2.765   5.246  1.00  0.00     0.009 A 
ATOM     62  C   UNL     1      -6.451   4.120   7.059  1.00  0.00     0.009 A 
ATOM     63  C   UNL     1      -6.791   2.960   4.547  1.00  0.00     0.001 A 
ATOM     64  C   UNL     1      -7.651   4.292   6.369  1.00  0.00     0.001 A 
ATOM     65  C   UNL     1      -7.817   3.719   5.110  1.00  0.00     0.000 A 
ENDBRANCH  46  60
BRANCH  47  66
ATOM     66  C   UNL     1       3.187   2.389  11.443  1.00  0.00    -0.014 A 
ATOM     67  C   UNL     1       3.933   1.203  11.389  1.00  0.00     0.009 A 
ATOM     68  C   UNL     1       3.666   3.460  12.215  1.00  0.00     0.009 A 
ATOM     69  C   UNL     1       5.130   1.089  12.101  1.00  0.00     0.001 A 
ATOM     70  C   UNL     1       4.876   3.353  12.903  1.00  0.00     0.001 A 
ATOM     71  C   UNL     1       5.603   2.166  12.851  1.00  0.00     0.000 A 
ENDBRANCH  47  66
BRANCH  59  72
ATOM     72  C   UNL     1      -3.187  -0.256  12.327  1.00  0.00    -0.014 A 
ATOM     73  C   UNL     1      -3.510   0.190  13.617  1.00  0.00     0.009 A 
ATOM     74  C   UNL     1      -3.455  -1.587  11.975  1.00  0.00     0.009 A 
ATOM     75  C   UNL     1      -4.072  -0.690  14.544  1.00  0.00     0.001 A 
ATOM     76  C   UNL     1      -4.035  -2.459  12.897  1.00  0.00     0.001 A 
ATOM     77  C   UNL     1      -4.338  -2.011  14.182  1.00  0.00     0.000 A 
ENDBRANCH  59  72
ENDBRANCH  33  34
ENDBRANCH  26  28
ENDBRANCH  25  26
ENDBRANCH  24  25
ENDBRANCH   1  24
TORSDOF 14
