REMARK SMILES O=C(/C=C/C(=O)c1ccc(F)c(Br)c1)OCCOC(=O)c1ccc(-c2c3nc(c(-c4ccccc4)c4ccc([nH]4)c(-c4ccccc4)c4nc(c(-c5ccccc5)c5ccc2[nH]5)C=C4)C=C3)cc1
REMARK SMILES IDX 16 1 15 2 2 3 1 4 3 5 4 6 5 7 6 8 7 9 8 10 14 11 9 12 12 13
REMARK SMILES IDX 10 14 13 15 11 16 17 17 18 18 19 19 20 20 21 21 22 22 68 23
REMARK SMILES IDX 23 24 67 25 24 26 25 27 26 28 61 29 27 30 66 31 60 32 62 33
REMARK SMILES IDX 28 34 65 35 59 36 58 37 29 39 51 40 36 41 50 42 37 43 40 44
REMARK SMILES IDX 49 45 63 46 38 47 39 48 48 50 64 51 41 52 30 53 31 54 35 55
REMARK SMILES IDX 32 56 34 57 33 58 52 59 53 60 57 61 54 62 56 63 55 64 42 65
REMARK SMILES IDX 43 66 47 67 44 68 46 69 45 70
REMARK H PARENT 62 38 40 49
REMARK Flexibility Score: inf
ROOT
ATOM      1  C   UNL     1       4.430   1.137  -0.594  1.00  0.00     0.275 C 
ENDROOT
BRANCH   1   2
ATOM      2  O   UNL     1       3.188   0.480  -0.935  1.00  0.00    -0.459 OA
BRANCH   2   3
ATOM      3  C   UNL     1       2.801  -0.784  -0.647  1.00  0.00     0.331 C 
ATOM      4  O   UNL     1       1.767  -1.254  -1.111  1.00  0.00    -0.247 OA
BRANCH   3   5
ATOM      5  C   UNL     1       3.499  -1.552   0.396  1.00  0.00     0.097 C 
ATOM      6  C   UNL     1       4.812  -1.793   0.459  1.00  0.00     0.060 C 
BRANCH   6   7
ATOM      7  C   UNL     1       5.502  -2.312   1.666  1.00  0.00     0.186 C 
ATOM      8  O   UNL     1       6.644  -1.913   1.888  1.00  0.00    -0.289 OA
BRANCH   7   9
ATOM      9  C   UNL     1       4.865  -3.249   2.621  1.00  0.00     0.023 A 
ATOM     10  C   UNL     1       3.961  -4.236   2.212  1.00  0.00     0.015 A 
ATOM     11  C   UNL     1       5.266  -3.184   3.967  1.00  0.00     0.031 A 
ATOM     12  C   UNL     1       3.465  -5.149   3.146  1.00  0.00     0.041 A 
ATOM     13  C   UNL     1       4.752  -4.090   4.895  1.00  0.00     0.054 A 
ATOM     14  C   UNL     1       3.860  -5.072   4.480  1.00  0.00     0.137 A 
ATOM     15  Br  UNL     1       5.273  -3.966   6.708  1.00  0.00    -0.048 Br
ATOM     16  F   UNL     1       3.368  -5.966   5.350  1.00  0.00    -0.206 F 
ENDBRANCH   7   9
ENDBRANCH   6   7
ENDBRANCH   3   5
ENDBRANCH   2   3
ENDBRANCH   1   2
BRANCH   1  17
ATOM     17  C   UNL     1       4.494   1.777   0.798  1.00  0.00     0.275 C 
BRANCH  17  18
ATOM     18  O   UNL     1       4.004   0.930   1.848  1.00  0.00    -0.458 OA
BRANCH  18  19
ATOM     19  C   UNL     1       2.698   1.119   2.162  1.00  0.00     0.338 C 
ATOM     20  O   UNL     1       1.942   1.938   1.666  1.00  0.00    -0.246 OA
BRANCH  19  21
ATOM     21  C   UNL     1       2.245   0.075   3.108  1.00  0.00     0.060 A 
ATOM     22  C   UNL     1       0.977  -0.485   2.906  1.00  0.00     0.016 A 
ATOM     23  C   UNL     1       3.029  -0.346   4.184  1.00  0.00     0.016 A 
ATOM     24  C   UNL     1       0.466  -1.422   3.808  1.00  0.00     0.010 A 
ATOM     25  C   UNL     1       2.516  -1.294   5.080  1.00  0.00     0.010 A 
ATOM     26  C   UNL     1       1.215  -1.812   4.926  1.00  0.00    -0.014 A 
BRANCH  26  27
ATOM     27  C   UNL     1       0.591  -2.631   6.005  1.00  0.00     0.031 A 
ATOM     28  C   UNL     1       0.297  -1.989   7.338  1.00  0.00     0.074 A 
ATOM     29  C   UNL     1       0.251  -3.922   5.819  1.00  0.00     0.049 A 
ATOM     30  N   UNL     1      -0.287  -2.501   8.394  1.00  0.00    -0.248 NA
ATOM     31  C   UNL     1       0.697  -0.582   7.500  1.00  0.00     0.031 C 
ATOM     32  C   UNL     1       0.405  -4.675   4.577  1.00  0.00     0.029 A 
ATOM     33  N   UNL     1      -0.281  -4.838   6.696  1.00  0.00    -0.354 N 
ATOM     34  C   UNL     1      -0.349  -1.474   9.326  1.00  0.00     0.074 A 
ATOM     35  C   UNL     1       0.333  -0.338   8.749  1.00  0.00     0.031 C 
ATOM     36  C   UNL     1       0.045  -5.953   4.789  1.00  0.00     0.029 A 
ATOM     37  C   UNL     1      -0.388  -6.106   6.175  1.00  0.00     0.049 A 
ATOM     38  H   UNL     1      -0.559  -4.608   7.612  1.00  0.00     0.167 HD
ATOM     39  C   UNL     1      -0.958  -1.453  10.536  1.00  0.00     0.031 A 
ATOM     40  C   UNL     1      -0.791  -7.260   6.741  1.00  0.00     0.031 A 
ATOM     41  C   UNL     1      -1.627  -2.577  11.133  1.00  0.00     0.049 A 
ATOM     42  C   UNL     1      -1.343  -7.251   8.141  1.00  0.00     0.074 A 
ATOM     43  C   UNL     1      -2.317  -2.632  12.332  1.00  0.00     0.029 A 
ATOM     44  N   UNL     1      -1.673  -3.849  10.587  1.00  0.00    -0.354 N 
ATOM     45  N   UNL     1      -1.487  -6.245   8.968  1.00  0.00    -0.248 NA
ATOM     46  C   UNL     1      -1.846  -8.532   8.661  1.00  0.00     0.031 C 
ATOM     47  C   UNL     1      -2.721  -3.954  12.544  1.00  0.00     0.029 A 
ATOM     48  C   UNL     1      -2.348  -4.706  11.442  1.00  0.00     0.049 A 
ATOM     49  H   UNL     1      -1.283  -4.107   9.720  1.00  0.00     0.167 HD
ATOM     50  C   UNL     1      -2.163  -6.755  10.071  1.00  0.00     0.074 A 
ATOM     51  C   UNL     1      -2.390  -8.160   9.812  1.00  0.00     0.031 C 
ATOM     52  C   UNL     1      -2.582  -6.104  11.184  1.00  0.00     0.031 A 
BRANCH  39  53
ATOM     53  C   UNL     1      -0.919  -0.156  11.297  1.00  0.00    -0.014 A 
ATOM     54  C   UNL     1      -1.633   0.969  10.851  1.00  0.00     0.009 A 
ATOM     55  C   UNL     1      -0.177  -0.063  12.484  1.00  0.00     0.009 A 
ATOM     56  C   UNL     1      -1.566   2.174  11.553  1.00  0.00     0.001 A 
ATOM     57  C   UNL     1      -0.139   1.134  13.202  1.00  0.00     0.001 A 
ATOM     58  C   UNL     1      -0.822   2.254  12.730  1.00  0.00     0.000 A 
ENDBRANCH  39  53
BRANCH  40  59
ATOM     59  C   UNL     1      -0.738  -8.531   5.970  1.00  0.00    -0.014 A 
ATOM     60  C   UNL     1      -1.915  -9.150   5.522  1.00  0.00     0.009 A 
ATOM     61  C   UNL     1       0.494  -9.157   5.721  1.00  0.00     0.009 A 
ATOM     62  C   UNL     1      -1.864 -10.386   4.874  1.00  0.00     0.001 A 
ATOM     63  C   UNL     1       0.544 -10.382   5.050  1.00  0.00     0.001 A 
ATOM     64  C   UNL     1      -0.635 -11.001   4.638  1.00  0.00     0.000 A 
ENDBRANCH  40  59
BRANCH  52  65
ATOM     65  C   UNL     1      -3.402  -6.882  12.179  1.00  0.00    -0.014 A 
ATOM     66  C   UNL     1      -2.849  -7.913  12.954  1.00  0.00     0.009 A 
ATOM     67  C   UNL     1      -4.756  -6.554  12.357  1.00  0.00     0.009 A 
ATOM     68  C   UNL     1      -3.647  -8.629  13.850  1.00  0.00     0.001 A 
ATOM     69  C   UNL     1      -5.542  -7.246  13.280  1.00  0.00     0.001 A 
ATOM     70  C   UNL     1      -4.991  -8.293  14.015  1.00  0.00     0.000 A 
ENDBRANCH  52  65
ENDBRANCH  26  27
ENDBRANCH  19  21
ENDBRANCH  18  19
ENDBRANCH  17  18
ENDBRANCH   1  17
TORSDOF 13
