REMARK SMILES CS(=O)(=O)c1ccc(-n2nc(C(F)(F)F)cc2-c2ccc(CC(=O)OCCOC(=O)c3ccc(-c4c5nc(c(-c6ccccc6)c6ccc([nH]6)c(-c6ccccc6)c6nc(c(-c7ccccc7)c7ccc4[nH]7)C=C6)C=C5)cc3)cc2)cc1
REMARK SMILES IDX 26 1 25 2 23 3 24 4 22 5 21 6 18 7 19 8 80 9 20 10 79 11
REMARK SMILES IDX 17 12 9 13 10 14 11 15 16 16 8 17 5 18 6 19 82 20 7 21 81 22
REMARK SMILES IDX 2 23 1 24 3 25 4 26 12 27 13 28 14 29 15 30 27 31 28 32
REMARK SMILES IDX 29 33 30 34 31 35 32 36 78 37 33 38 77 39 34 40 35 41 36 42
REMARK SMILES IDX 71 43 37 44 76 45 70 46 72 47 38 48 75 49 69 50 68 51 39 53
REMARK SMILES IDX 61 54 46 55 60 56 47 57 50 58 59 59 73 60 48 61 49 62 58 64
REMARK SMILES IDX 74 65 51 66 40 67 41 68 45 69 42 70 44 71 43 72 62 73 63 74
REMARK SMILES IDX 67 75 64 76 66 77 65 78 52 79 53 80 57 81 54 82 56 83 55 84
REMARK H PARENT 72 52 50 63
REMARK Flexibility Score: inf
ROOT
ATOM      1  C   UNL     1      -5.124  -4.055  -0.601  1.00  0.00     0.274 C 
ENDROOT
BRANCH   1   2
ATOM      2  O   UNL     1      -4.545  -5.010  -1.512  1.00  0.00    -0.462 OA
BRANCH   2   3
ATOM      3  C   UNL     1      -4.899  -4.884  -2.821  1.00  0.00     0.310 C 
ATOM      4  O   UNL     1      -5.657  -4.020  -3.253  1.00  0.00    -0.252 OA
BRANCH   3   5
ATOM      5  C   UNL     1      -4.369  -6.003  -3.692  1.00  0.00     0.158 C 
BRANCH   5   6
ATOM      6  C   UNL     1      -2.921  -6.387  -3.501  1.00  0.00    -0.037 A 
ATOM      7  C   UNL     1      -0.207  -7.039  -3.103  1.00  0.00     0.000 A 
ATOM      8  C   UNL     1      -0.564  -5.906  -3.841  1.00  0.00     0.010 A 
ATOM      9  C   UNL     1      -1.214  -7.873  -2.608  1.00  0.00     0.010 A 
ATOM     10  C   UNL     1      -1.908  -5.593  -4.048  1.00  0.00     0.005 A 
ATOM     11  C   UNL     1      -2.561  -7.540  -2.793  1.00  0.00     0.005 A 
BRANCH   7  12
ATOM     12  C   UNL     1       1.204  -7.317  -2.838  1.00  0.00     0.075 A 
ATOM     13  N   UNL     1       2.080  -6.457  -2.181  1.00  0.00    -0.233 N 
ATOM     14  N   UNL     1       3.376  -6.824  -2.370  1.00  0.00    -0.163 NA
ATOM     15  C   UNL     1       3.316  -8.033  -2.961  1.00  0.00     0.167 A 
ATOM     16  C   UNL     1       1.977  -8.371  -3.279  1.00  0.00     0.064 A 
BRANCH  13  17
ATOM     17  C   UNL     1       1.769  -5.311  -1.396  1.00  0.00     0.065 A 
ATOM     18  C   UNL     1       1.089  -3.002   0.017  1.00  0.00     0.067 A 
ATOM     19  C   UNL     1       0.244  -4.112   0.057  1.00  0.00     0.022 A 
ATOM     20  C   UNL     1       2.298  -3.053  -0.685  1.00  0.00     0.022 A 
ATOM     21  C   UNL     1       0.584  -5.264  -0.650  1.00  0.00     0.030 A 
ATOM     22  C   UNL     1       2.647  -4.218  -1.378  1.00  0.00     0.030 A 
BRANCH  18  23
ATOM     23  S   UNL     1       0.564  -1.523   0.848  1.00  0.00     0.175 S 
ATOM     24  C   UNL     1       1.091  -0.174  -0.171  1.00  0.00     0.163 C 
ATOM     25  O   UNL     1       1.298  -1.462   2.098  1.00  0.00    -0.224 OA
ATOM     26  O   UNL     1      -0.888  -1.508   0.835  1.00  0.00    -0.224 OA
ENDBRANCH  18  23
ENDBRANCH  13  17
BRANCH  15  27
ATOM     27  C   UNL     1       4.534  -8.868  -3.254  1.00  0.00     0.435 C 
ATOM     28  F   UNL     1       5.589  -8.140  -3.702  1.00  0.00    -0.164 F 
ATOM     29  F   UNL     1       4.957  -9.551  -2.156  1.00  0.00    -0.164 F 
ATOM     30  F   UNL     1       4.280  -9.806  -4.210  1.00  0.00    -0.164 F 
ENDBRANCH  15  27
ENDBRANCH   7  12
ENDBRANCH   5   6
ENDBRANCH   3   5
ENDBRANCH   2   3
ENDBRANCH   1   2
BRANCH   1  31
ATOM     31  C   UNL     1      -4.235  -2.841  -0.340  1.00  0.00     0.275 C 
BRANCH  31  32
ATOM     32  O   UNL     1      -4.111  -1.981  -1.480  1.00  0.00    -0.458 OA
BRANCH  32  33
ATOM     33  C   UNL     1      -3.055  -2.277  -2.266  1.00  0.00     0.338 C 
ATOM     34  O   UNL     1      -2.366  -3.279  -2.227  1.00  0.00    -0.246 OA
BRANCH  33  35
ATOM     35  C   UNL     1      -2.718  -1.150  -3.144  1.00  0.00     0.060 A 
ATOM     36  C   UNL     1      -1.967  -1.425  -4.293  1.00  0.00     0.016 A 
ATOM     37  C   UNL     1      -2.945   0.168  -2.726  1.00  0.00     0.016 A 
ATOM     38  C   UNL     1      -1.361  -0.384  -4.972  1.00  0.00     0.010 A 
ATOM     39  C   UNL     1      -2.336   1.209  -3.408  1.00  0.00     0.010 A 
ATOM     40  C   UNL     1      -1.504   0.923  -4.494  1.00  0.00    -0.014 A 
BRANCH  40  41
ATOM     41  C   UNL     1      -0.778   1.974  -5.195  1.00  0.00     0.031 A 
ATOM     42  C   UNL     1      -1.259   2.292  -6.560  1.00  0.00     0.074 A 
ATOM     43  C   UNL     1       0.200   2.705  -4.627  1.00  0.00     0.049 A 
ATOM     44  N   UNL     1      -0.591   2.256  -7.666  1.00  0.00    -0.248 NA
ATOM     45  C   UNL     1      -2.675   2.655  -6.712  1.00  0.00     0.031 C 
ATOM     46  C   UNL     1       0.566   2.727  -3.209  1.00  0.00     0.029 A 
ATOM     47  N   UNL     1       0.993   3.675  -5.178  1.00  0.00    -0.354 N 
ATOM     48  C   UNL     1      -1.454   2.748  -8.639  1.00  0.00     0.074 A 
ATOM     49  C   UNL     1      -2.752   2.873  -8.024  1.00  0.00     0.031 C 
ATOM     50  C   UNL     1       1.338   3.809  -2.971  1.00  0.00     0.029 A 
ATOM     51  C   UNL     1       1.628   4.468  -4.236  1.00  0.00     0.049 A 
ATOM     52  H   UNL     1       1.102   3.796  -6.148  1.00  0.00     0.167 HD
ATOM     53  C   UNL     1      -0.996   3.246  -9.818  1.00  0.00     0.031 A 
ATOM     54  C   UNL     1       2.309   5.616  -4.449  1.00  0.00     0.031 A 
ATOM     55  C   UNL     1       0.371   2.902 -10.081  1.00  0.00     0.049 A 
ATOM     56  C   UNL     1       2.731   5.685  -5.862  1.00  0.00     0.074 A 
ATOM     57  C   UNL     1       1.069   1.819 -10.562  1.00  0.00     0.029 A 
ATOM     58  N   UNL     1       1.282   3.774  -9.553  1.00  0.00    -0.354 N 
ATOM     59  N   UNL     1       3.631   4.902  -6.383  1.00  0.00    -0.248 NA
ATOM     60  C   UNL     1       1.979   6.492  -6.816  1.00  0.00     0.031 C 
ATOM     61  C   UNL     1       2.420   1.992 -10.135  1.00  0.00     0.029 A 
ATOM     62  C   UNL     1       2.502   3.171  -9.397  1.00  0.00     0.049 A 
ATOM     63  H   UNL     1       1.087   4.710  -9.317  1.00  0.00     0.167 HD
ATOM     64  C   UNL     1       3.273   4.806  -7.713  1.00  0.00     0.074 A 
ATOM     65  C   UNL     1       2.393   5.937  -7.959  1.00  0.00     0.031 C 
ATOM     66  C   UNL     1       3.441   3.641  -8.401  1.00  0.00     0.031 A 
BRANCH  53  67
ATOM     67  C   UNL     1      -1.628   4.426 -10.512  1.00  0.00    -0.014 A 
ATOM     68  C   UNL     1      -1.175   4.777 -11.796  1.00  0.00     0.009 A 
ATOM     69  C   UNL     1      -2.412   5.378  -9.830  1.00  0.00     0.009 A 
ATOM     70  C   UNL     1      -1.460   6.031 -12.351  1.00  0.00     0.001 A 
ATOM     71  C   UNL     1      -2.729   6.615 -10.396  1.00  0.00     0.001 A 
ATOM     72  C   UNL     1      -2.234   6.950 -11.649  1.00  0.00     0.000 A 
ENDBRANCH  53  67
BRANCH  54  73
ATOM     73  C   UNL     1       2.510   6.743  -3.519  1.00  0.00    -0.014 A 
ATOM     74  C   UNL     1       3.579   7.633  -3.689  1.00  0.00     0.009 A 
ATOM     75  C   UNL     1       1.508   7.082  -2.591  1.00  0.00     0.009 A 
ATOM     76  C   UNL     1       3.628   8.837  -2.976  1.00  0.00     0.001 A 
ATOM     77  C   UNL     1       1.561   8.279  -1.873  1.00  0.00     0.001 A 
ATOM     78  C   UNL     1       2.615   9.163  -2.077  1.00  0.00     0.000 A 
ENDBRANCH  54  73
BRANCH  66  79
ATOM     79  C   UNL     1       4.494   2.692  -7.910  1.00  0.00    -0.014 A 
ATOM     80  C   UNL     1       4.444   2.079  -6.648  1.00  0.00     0.009 A 
ATOM     81  C   UNL     1       5.549   2.364  -8.774  1.00  0.00     0.009 A 
ATOM     82  C   UNL     1       5.448   1.193  -6.247  1.00  0.00     0.001 A 
ATOM     83  C   UNL     1       6.538   1.460  -8.383  1.00  0.00     0.001 A 
ATOM     84  C   UNL     1       6.493   0.883  -7.115  1.00  0.00     0.000 A 
ENDBRANCH  66  79
ENDBRANCH  40  41
ENDBRANCH  33  35
ENDBRANCH  32  33
ENDBRANCH  31  32
ENDBRANCH   1  31
TORSDOF 16
