REMARK SMILES O=C(OCCOC(=O)c1ccc(-c2c3nc(c(-c4ccccc4)c4ccc([nH]4)c(-c4ccccc4)c4nc(c(-c5ccccc5)c5ccc2[nH]5)C=C4)C=C3)cc1)c1ccc(C[N@@H+]2CCC[C@H]2c2nc(-c3ccc(-c4cncnc4)nc3)no2)cc1
REMARK SMILES IDX 3 1 2 2 1 3 57 4 58 5 85 6 59 7 84 8 60 9 61 10 62 11 63 12
REMARK SMILES IDX 66 13 64 15 65 16 67 17 68 18 83 19 69 20 82 21 70 22 71 23
REMARK SMILES IDX 81 24 72 25 80 26 73 27 74 28 75 29 79 30 76 31 78 32 77 33
REMARK SMILES IDX 4 34 5 35 6 36 7 37 8 38 9 39 10 40 56 41 11 42 55 43 12 44
REMARK SMILES IDX 13 45 14 46 49 47 15 48 54 49 48 50 50 51 16 52 53 53 47 54
REMARK SMILES IDX 46 55 17 57 39 58 24 59 38 60 25 61 28 62 37 63 51 64 26 65
REMARK SMILES IDX 27 66 36 68 52 69 29 70 18 71 19 72 23 73 20 74 22 75 21 76
REMARK SMILES IDX 40 77 41 78 45 79 42 80 44 81 43 82 30 83 31 84 35 85 32 86
REMARK SMILES IDX 34 87 33 88
REMARK H PARENT 62 14 50 56 28 67
REMARK Flexibility Score: inf
ROOT
ATOM      1  O   UNL     1       2.771   0.897   0.123  1.00  0.00    -0.458 OA
ENDROOT
BRANCH   1   2
ATOM      2  C   UNL     1       2.719   0.204  -1.039  1.00  0.00     0.338 C 
ATOM      3  O   UNL     1       1.897   0.544  -1.889  1.00  0.00    -0.246 OA
BRANCH   2   4
ATOM      4  C   UNL     1       3.532  -1.028  -1.315  1.00  0.00     0.060 A 
ATOM      5  C   UNL     1       4.437  -1.613  -0.436  1.00  0.00     0.016 A 
ATOM      6  C   UNL     1       3.302  -1.696  -2.531  1.00  0.00     0.016 A 
ATOM      7  C   UNL     1       5.046  -2.833  -0.711  1.00  0.00     0.010 A 
ATOM      8  C   UNL     1       3.981  -2.879  -2.852  1.00  0.00     0.010 A 
ATOM      9  C   UNL     1       4.877  -3.450  -1.942  1.00  0.00     0.006 A 
BRANCH   9  10
ATOM     10  C   UNL     1       5.751  -4.626  -2.303  1.00  0.00     0.299 C 
BRANCH  10  11
ATOM     11  N   UNL     1       7.159  -4.293  -2.565  1.00  0.00    -0.321 N 
ATOM     12  C   UNL     1       7.988  -4.003  -1.393  1.00  0.00     0.263 C 
ATOM     13  C   UNL     1       7.348  -3.179  -3.511  1.00  0.00     0.275 C 
ATOM     14  H   UNL     1       7.476  -5.173  -2.972  1.00  0.00     0.349 HD
ATOM     15  C   UNL     1       8.221  -2.497  -1.344  1.00  0.00     0.068 C 
ATOM     16  C   UNL     1       7.719  -1.953  -2.672  1.00  0.00     0.081 C 
BRANCH  13  17
ATOM     17  C   UNL     1       8.421  -3.479  -4.501  1.00  0.00     0.285 A 
ATOM     18  N   UNL     1       9.707  -3.699  -4.329  1.00  0.00    -0.186 NA
ATOM     19  O   UNL     1       8.046  -3.433  -5.811  1.00  0.00    -0.332 OA
ATOM     20  C   UNL     1      10.157  -3.754  -5.622  1.00  0.00     0.204 A 
ATOM     21  N   UNL     1       9.206  -3.600  -6.556  1.00  0.00    -0.057 NA
BRANCH  20  22
ATOM     22  C   UNL     1      11.553  -3.873  -5.945  1.00  0.00     0.041 A 
ATOM     23  C   UNL     1      12.153  -2.975  -6.827  1.00  0.00     0.016 A 
ATOM     24  C   UNL     1      12.336  -4.881  -5.407  1.00  0.00     0.123 A 
ATOM     25  C   UNL     1      13.495  -3.130  -7.150  1.00  0.00     0.030 A 
ATOM     26  N   UNL     1      13.640  -5.072  -5.729  1.00  0.00    -0.255 NA
ATOM     27  C   UNL     1      14.204  -4.196  -6.598  1.00  0.00     0.073 A 
BRANCH  27  28
ATOM     28  C   UNL     1      15.582  -4.464  -6.974  1.00  0.00     0.037 A 
ATOM     29  C   UNL     1      16.591  -3.522  -6.889  1.00  0.00     0.124 A 
ATOM     30  C   UNL     1      15.983  -5.677  -7.502  1.00  0.00     0.124 A 
ATOM     31  N   UNL     1      17.860  -3.723  -7.305  1.00  0.00    -0.244 NA
ATOM     32  N   UNL     1      17.234  -5.940  -7.941  1.00  0.00    -0.244 NA
ATOM     33  C   UNL     1      18.114  -4.936  -7.818  1.00  0.00     0.221 A 
ENDBRANCH  27  28
ENDBRANCH  20  22
ENDBRANCH  13  17
ENDBRANCH  10  11
ENDBRANCH   9  10
ENDBRANCH   2   4
ENDBRANCH   1   2
BRANCH   1  34
ATOM     34  C   UNL     1       3.862   1.045   1.054  1.00  0.00     0.275 C 
BRANCH  34  35
ATOM     35  C   UNL     1       3.563   0.338   2.389  1.00  0.00     0.275 C 
BRANCH  35  36
ATOM     36  O   UNL     1       3.276  -1.066   2.210  1.00  0.00    -0.458 OA
BRANCH  36  37
ATOM     37  C   UNL     1       1.970  -1.387   2.014  1.00  0.00     0.338 C 
ATOM     38  O   UNL     1       1.014  -0.655   2.210  1.00  0.00    -0.246 OA
BRANCH  37  39
ATOM     39  C   UNL     1       1.861  -2.716   1.349  1.00  0.00     0.060 A 
ATOM     40  C   UNL     1       0.819  -2.905   0.430  1.00  0.00     0.016 A 
ATOM     41  C   UNL     1       2.777  -3.750   1.566  1.00  0.00     0.016 A 
ATOM     42  C   UNL     1       0.670  -4.126  -0.241  1.00  0.00     0.010 A 
ATOM     43  C   UNL     1       2.646  -4.962   0.868  1.00  0.00     0.010 A 
ATOM     44  C   UNL     1       1.569  -5.176  -0.013  1.00  0.00    -0.014 A 
BRANCH  44  45
ATOM     45  C   UNL     1       1.292  -6.545  -0.539  1.00  0.00     0.031 A 
ATOM     46  C   UNL     1       0.833  -7.609   0.426  1.00  0.00     0.074 A 
ATOM     47  C   UNL     1       1.424  -6.871  -1.840  1.00  0.00     0.049 A 
ATOM     48  N   UNL     1       0.562  -8.872   0.208  1.00  0.00    -0.248 NA
ATOM     49  C   UNL     1       0.664  -7.191   1.827  1.00  0.00     0.031 C 
ATOM     50  C   UNL     1       1.814  -5.961  -2.913  1.00  0.00     0.029 A 
ATOM     51  N   UNL     1       1.242  -8.078  -2.479  1.00  0.00    -0.354 N 
ATOM     52  C   UNL     1       0.201  -9.396   1.442  1.00  0.00     0.074 A 
ATOM     53  C   UNL     1       0.339  -8.332   2.412  1.00  0.00     0.031 C 
ATOM     54  C   UNL     1       1.859  -6.641  -4.073  1.00  0.00     0.029 A 
ATOM     55  C   UNL     1       1.509  -8.040  -3.826  1.00  0.00     0.049 A 
ATOM     56  H   UNL     1       0.949  -8.893  -2.012  1.00  0.00     0.167 HD
ATOM     57  C   UNL     1      -0.234 -10.641   1.751  1.00  0.00     0.031 A 
ATOM     58  C   UNL     1       1.476  -9.015  -4.758  1.00  0.00     0.031 A 
ATOM     59  C   UNL     1      -0.395 -11.714   0.811  1.00  0.00     0.049 A 
ATOM     60  C   UNL     1       1.059 -10.415  -4.381  1.00  0.00     0.074 A 
ATOM     61  C   UNL     1      -0.864 -12.996   1.042  1.00  0.00     0.029 A 
ATOM     62  N   UNL     1      -0.090 -11.635  -0.536  1.00  0.00    -0.354 N 
ATOM     63  N   UNL     1       0.673 -10.879  -3.218  1.00  0.00    -0.248 NA
ATOM     64  C   UNL     1       1.056 -11.421  -5.457  1.00  0.00     0.031 C 
ATOM     65  C   UNL     1      -0.800 -13.708  -0.160  1.00  0.00     0.029 A 
ATOM     66  C   UNL     1      -0.337 -12.853  -1.146  1.00  0.00     0.049 A 
ATOM     67  H   UNL     1       0.252 -10.832  -0.993  1.00  0.00     0.167 HD
ATOM     68  C   UNL     1       0.341 -12.213  -3.433  1.00  0.00     0.074 A 
ATOM     69  C   UNL     1       0.572 -12.487  -4.834  1.00  0.00     0.031 C 
ATOM     70  C   UNL     1      -0.125 -13.123  -2.544  1.00  0.00     0.031 A 
BRANCH  57  71
ATOM     71  C   UNL     1      -0.551 -10.904   3.194  1.00  0.00    -0.014 A 
ATOM     72  C   UNL     1      -1.693 -10.353   3.797  1.00  0.00     0.009 A 
ATOM     73  C   UNL     1       0.306 -11.708   3.959  1.00  0.00     0.009 A 
ATOM     74  C   UNL     1      -1.944 -10.563   5.153  1.00  0.00     0.001 A 
ATOM     75  C   UNL     1       0.037 -11.940   5.308  1.00  0.00     0.001 A 
ATOM     76  C   UNL     1      -1.080 -11.358   5.906  1.00  0.00     0.000 A 
ENDBRANCH  57  71
BRANCH  58  77
ATOM     77  C   UNL     1       1.843  -8.717  -6.168  1.00  0.00    -0.014 A 
ATOM     78  C   UNL     1       0.860  -8.682  -7.168  1.00  0.00     0.009 A 
ATOM     79  C   UNL     1       3.185  -8.523  -6.527  1.00  0.00     0.009 A 
ATOM     80  C   UNL     1       1.217  -8.489  -8.505  1.00  0.00     0.001 A 
ATOM     81  C   UNL     1       3.537  -8.306  -7.861  1.00  0.00     0.001 A 
ATOM     82  C   UNL     1       2.554  -8.299  -8.850  1.00  0.00     0.000 A 
ENDBRANCH  58  77
BRANCH  70  83
ATOM     83  C   UNL     1      -0.476 -14.493  -3.053  1.00  0.00    -0.014 A 
ATOM     84  C   UNL     1       0.515 -15.427  -3.391  1.00  0.00     0.009 A 
ATOM     85  C   UNL     1      -1.825 -14.880  -3.124  1.00  0.00     0.009 A 
ATOM     86  C   UNL     1       0.161 -16.713  -3.808  1.00  0.00     0.001 A 
ATOM     87  C   UNL     1      -2.175 -16.172  -3.518  1.00  0.00     0.001 A 
ATOM     88  C   UNL     1      -1.182 -17.087  -3.864  1.00  0.00     0.000 A 
ENDBRANCH  70  83
ENDBRANCH  44  45
ENDBRANCH  37  39
ENDBRANCH  36  37
ENDBRANCH  35  36
ENDBRANCH  34  35
ENDBRANCH   1  34
TORSDOF 16
