REMARK SMILES Cc1ccccc1OCCN1C(=O)CC[C@H](C(=O)OCCOC(=O)c2ccc(-c3c4nc(c(-c5ccccc5)c5ccc([nH]5)c(-c5ccccc5)c5nc(c(-c6ccccc6)c6ccc3[nH]6)C=C5)C=C4)cc2)[C@@H]1c1ccco1
REMARK SMILES IDX 20 1 19 2 17 3 18 4 16 5 11 6 12 7 73 8 13 9 14 10 15 11
REMARK SMILES IDX 10 12 9 13 8 14 7 15 1 16 2 17 3 18 4 19 6 20 5 21 74 22
REMARK SMILES IDX 75 23 78 24 76 25 77 26 21 27 22 28 23 29 24 30 25 31 26 32
REMARK SMILES IDX 72 33 27 34 71 35 28 36 29 37 30 38 65 39 31 40 70 41 64 42
REMARK SMILES IDX 66 43 32 44 69 45 63 46 62 47 33 49 55 50 40 51 54 52 41 53
REMARK SMILES IDX 44 54 53 55 67 56 42 57 43 58 52 60 68 61 45 62 34 63 35 64
REMARK SMILES IDX 39 65 36 66 38 67 37 68 56 69 57 70 61 71 58 72 60 73 59 74
REMARK SMILES IDX 46 75 47 76 51 77 48 78 50 79 49 80
REMARK H PARENT 66 48 44 59
REMARK Flexibility Score: inf
ROOT
ATOM      1  C   UNL     1       3.283  -5.442   2.991  1.00  0.00     0.274 C 
ENDROOT
BRANCH   1   2
ATOM      2  O   UNL     1       2.352  -4.394   2.680  1.00  0.00    -0.462 OA
BRANCH   2   3
ATOM      3  C   UNL     1       2.920  -3.166   2.555  1.00  0.00     0.311 C 
ATOM      4  O   UNL     1       4.130  -2.985   2.558  1.00  0.00    -0.252 OA
BRANCH   3   5
ATOM      5  C   UNL     1       1.943  -2.039   2.347  1.00  0.00     0.130 C 
ATOM      6  N   UNL     1       1.679   0.434   2.473  1.00  0.00    -0.328 N 
ATOM      7  C   UNL     1       0.347   0.348   2.857  1.00  0.00     0.223 C 
ATOM      8  C   UNL     1       2.601  -0.690   2.708  1.00  0.00     0.166 C 
ATOM      9  O   UNL     1      -0.358   1.338   3.056  1.00  0.00    -0.275 OA
ATOM     10  C   UNL     1      -0.275  -1.037   2.887  1.00  0.00     0.101 C 
ATOM     11  C   UNL     1       0.660  -2.203   3.142  1.00  0.00     0.028 C 
BRANCH   6  12
ATOM     12  C   UNL     1       2.242   1.768   2.208  1.00  0.00     0.162 C 
BRANCH  12  13
ATOM     13  C   UNL     1       2.244   2.230   0.738  1.00  0.00     0.251 C 
BRANCH  13  14
ATOM     14  O   UNL     1       0.974   2.345   0.100  1.00  0.00    -0.491 OA
BRANCH  14  15
ATOM     15  C   UNL     1       0.314   1.225  -0.320  1.00  0.00     0.122 A 
ATOM     16  C   UNL     1       2.269  -0.000  -1.443  1.00  0.00     0.048 C 
ATOM     17  C   UNL     1       0.846   0.111  -0.986  1.00  0.00    -0.009 A 
ATOM     18  C   UNL     1      -0.011  -0.968  -1.286  1.00  0.00     0.007 A 
ATOM     19  C   UNL     1      -1.377  -0.911  -1.009  1.00  0.00     0.001 A 
ATOM     20  C   UNL     1      -1.071   1.289  -0.092  1.00  0.00     0.047 A 
ATOM     21  C   UNL     1      -1.913   0.230  -0.430  1.00  0.00     0.004 A 
ENDBRANCH  14  15
ENDBRANCH  13  14
ENDBRANCH  12  13
ENDBRANCH   6  12
BRANCH   8  22
ATOM     22  C   UNL     1       3.134  -0.619   4.145  1.00  0.00     0.127 A 
ATOM     23  C   UNL     1       4.106  -1.307   4.859  1.00  0.00     0.048 A 
ATOM     24  O   UNL     1       2.617   0.352   4.963  1.00  0.00    -0.467 OA
ATOM     25  C   UNL     1       4.200  -0.716   6.137  1.00  0.00     0.042 A 
ATOM     26  C   UNL     1       3.268   0.287   6.150  1.00  0.00     0.195 A 
ENDBRANCH   8  22
ENDBRANCH   3   5
ENDBRANCH   2   3
ENDBRANCH   1   2
BRANCH   1  27
ATOM     27  C   UNL     1       3.111  -6.686   2.117  1.00  0.00     0.275 C 
BRANCH  27  28
ATOM     28  O   UNL     1       2.758  -6.540   0.712  1.00  0.00    -0.458 OA
BRANCH  28  29
ATOM     29  C   UNL     1       2.997  -5.533  -0.159  1.00  0.00     0.338 C 
ATOM     30  O   UNL     1       2.197  -5.261  -1.050  1.00  0.00    -0.246 OA
BRANCH  29  31
ATOM     31  C   UNL     1       4.242  -4.751  -0.033  1.00  0.00     0.060 A 
ATOM     32  C   UNL     1       4.266  -3.411  -0.472  1.00  0.00     0.016 A 
ATOM     33  C   UNL     1       5.355  -5.304   0.582  1.00  0.00     0.016 A 
ATOM     34  C   UNL     1       5.353  -2.583  -0.159  1.00  0.00     0.010 A 
ATOM     35  C   UNL     1       6.372  -4.463   0.984  1.00  0.00     0.010 A 
ATOM     36  C   UNL     1       6.387  -3.101   0.623  1.00  0.00    -0.014 A 
BRANCH  36  37
ATOM     37  C   UNL     1       7.594  -2.374   1.032  1.00  0.00     0.031 A 
ATOM     38  C   UNL     1       7.627  -1.214   1.951  1.00  0.00     0.074 A 
ATOM     39  C   UNL     1       8.736  -2.918   0.560  1.00  0.00     0.049 A 
ATOM     40  N   UNL     1       8.684  -0.531   2.223  1.00  0.00    -0.248 NA
ATOM     41  C   UNL     1       6.466  -0.696   2.654  1.00  0.00     0.031 C 
ATOM     42  C   UNL     1      10.127  -2.645   0.875  1.00  0.00     0.029 A 
ATOM     43  N   UNL     1       8.799  -3.731  -0.578  1.00  0.00    -0.354 N 
ATOM     44  C   UNL     1       8.409   0.331   3.266  1.00  0.00     0.074 A 
ATOM     45  C   UNL     1       6.996   0.205   3.493  1.00  0.00     0.031 C 
ATOM     46  C   UNL     1      10.868  -2.970  -0.202  1.00  0.00     0.029 A 
ATOM     47  C   UNL     1       9.934  -3.311  -1.271  1.00  0.00     0.049 A 
ATOM     48  H   UNL     1       8.174  -4.447  -0.834  1.00  0.00     0.167 HD
ATOM     49  C   UNL     1       9.450   0.984   3.854  1.00  0.00     0.031 A 
ATOM     50  C   UNL     1       9.754  -2.598  -2.422  1.00  0.00     0.031 A 
ATOM     51  C   UNL     1      10.626   0.900   2.998  1.00  0.00     0.049 A 
ATOM     52  C   UNL     1      10.366  -1.222  -2.318  1.00  0.00     0.074 A 
ATOM     53  C   UNL     1      11.732   0.069   2.975  1.00  0.00     0.029 A 
ATOM     54  N   UNL     1      10.558   1.516   1.755  1.00  0.00    -0.354 N 
ATOM     55  N   UNL     1      10.436  -0.516  -1.221  1.00  0.00    -0.248 NA
ATOM     56  C   UNL     1      11.019  -0.582  -3.451  1.00  0.00     0.031 C 
ATOM     57  C   UNL     1      12.254   0.097   1.651  1.00  0.00     0.029 A 
ATOM     58  C   UNL     1      11.492   0.978   0.898  1.00  0.00     0.049 A 
ATOM     59  H   UNL     1       9.929   2.237   1.520  1.00  0.00     0.167 HD
ATOM     60  C   UNL     1      11.214   0.592  -1.454  1.00  0.00     0.074 A 
ATOM     61  C   UNL     1      11.527   0.518  -2.871  1.00  0.00     0.031 C 
ATOM     62  C   UNL     1      11.588   1.464  -0.471  1.00  0.00     0.031 A 
BRANCH  49  63
ATOM     63  C   UNL     1       9.485   1.544   5.255  1.00  0.00    -0.014 A 
ATOM     64  C   UNL     1      10.738   1.680   5.893  1.00  0.00     0.009 A 
ATOM     65  C   UNL     1       8.364   1.871   6.032  1.00  0.00     0.009 A 
ATOM     66  C   UNL     1      10.864   2.067   7.235  1.00  0.00     0.001 A 
ATOM     67  C   UNL     1       8.482   2.258   7.380  1.00  0.00     0.001 A 
ATOM     68  C   UNL     1       9.731   2.345   7.984  1.00  0.00     0.000 A 
ENDBRANCH  49  63
BRANCH  50  69
ATOM     69  C   UNL     1       8.501  -2.942  -3.179  1.00  0.00    -0.014 A 
ATOM     70  C   UNL     1       8.271  -4.297  -3.522  1.00  0.00     0.009 A 
ATOM     71  C   UNL     1       7.425  -2.052  -3.303  1.00  0.00     0.009 A 
ATOM     72  C   UNL     1       6.995  -4.763  -3.859  1.00  0.00     0.001 A 
ATOM     73  C   UNL     1       6.150  -2.518  -3.674  1.00  0.00     0.001 A 
ATOM     74  C   UNL     1       5.929  -3.874  -3.919  1.00  0.00     0.000 A 
ENDBRANCH  50  69
BRANCH  62  75
ATOM     75  C   UNL     1      12.159   2.851  -0.681  1.00  0.00    -0.014 A 
ATOM     76  C   UNL     1      12.152   3.535  -1.902  1.00  0.00     0.009 A 
ATOM     77  C   UNL     1      12.607   3.586   0.443  1.00  0.00     0.009 A 
ATOM     78  C   UNL     1      12.615   4.853  -2.008  1.00  0.00     0.001 A 
ATOM     79  C   UNL     1      13.012   4.920   0.355  1.00  0.00     0.001 A 
ATOM     80  C   UNL     1      13.031   5.549  -0.879  1.00  0.00     0.000 A 
ENDBRANCH  62  75
ENDBRANCH  36  37
ENDBRANCH  29  31
ENDBRANCH  28  29
ENDBRANCH  27  28
ENDBRANCH   1  27
TORSDOF 16
