REMARK SMILES CC(=O)NCCc1ccc(OCC(=O)OCCOC(=O)c2ccc(-c3c4nc(c(-c5ccccc5)c5ccc([nH]5)c(-c5ccccc5)c5nc(c(-c6ccccc6)c6ccc3[nH]6)C=C5)C=C4)cc2)cc1
REMARK SMILES IDX 15 1 13 2 14 3 12 4 11 5 10 6 7 7 8 8 70 9 9 10 69 11 6 12
REMARK SMILES IDX 5 13 4 14 1 15 2 16 3 17 16 19 17 20 18 21 19 22 20 23 21 24
REMARK SMILES IDX 22 25 68 26 23 27 67 28 24 29 25 30 26 31 61 32 27 33 66 34
REMARK SMILES IDX 60 35 62 36 28 37 65 38 59 39 58 40 29 42 51 43 36 44 50 45
REMARK SMILES IDX 37 46 40 47 49 48 63 49 38 50 39 51 48 53 64 54 41 55 30 56
REMARK SMILES IDX 31 57 35 58 32 59 34 60 33 61 52 62 53 63 57 64 54 65 56 66
REMARK SMILES IDX 55 67 42 68 43 69 47 70 44 71 46 72 45 73
REMARK H PARENT 4 18 62 41 40 52
REMARK Flexibility Score: inf
ROOT
ATOM      1  O   UNL     1      -0.149   3.435   8.607  1.00  0.00    -0.460 OA
ENDROOT
BRANCH   1   2
ATOM      2  C   UNL     1       0.927   3.510   9.435  1.00  0.00     0.344 C 
ATOM      3  O   UNL     1       0.981   3.028  10.563  1.00  0.00    -0.248 OA
BRANCH   2   4
ATOM      4  C   UNL     1       2.085   4.309   8.839  1.00  0.00     0.351 C 
BRANCH   4   5
ATOM      5  O   UNL     1       2.050   4.637   7.462  1.00  0.00    -0.482 OA
BRANCH   5   6
ATOM      6  C   UNL     1       2.391   3.688   6.543  1.00  0.00     0.120 A 
ATOM      7  C   UNL     1       2.875   1.871   4.440  1.00  0.00    -0.046 A 
ATOM      8  C   UNL     1       2.300   3.121   4.184  1.00  0.00     0.007 A 
ATOM      9  C   UNL     1       3.261   1.568   5.750  1.00  0.00     0.007 A 
ATOM     10  C   UNL     1       2.054   4.013   5.229  1.00  0.00     0.047 A 
ATOM     11  C   UNL     1       3.035   2.480   6.791  1.00  0.00     0.047 A 
BRANCH   7  12
ATOM     12  C   UNL     1       3.023   0.853   3.332  1.00  0.00     0.057 C 
BRANCH  12  13
ATOM     13  C   UNL     1       1.710   0.112   3.038  1.00  0.00     0.120 C 
BRANCH  13  14
ATOM     14  N   UNL     1       0.715   0.971   2.412  1.00  0.00    -0.356 N 
ATOM     15  C   UNL     1       1.042   0.151   0.117  1.00  0.00     0.114 C 
ATOM     16  C   UNL     1       0.398   1.093   1.093  1.00  0.00     0.216 C 
ATOM     17  O   UNL     1      -0.407   1.951   0.735  1.00  0.00    -0.275 OA
ATOM     18  H   UNL     1       0.200   1.542   3.027  1.00  0.00     0.163 HD
ENDBRANCH  13  14
ENDBRANCH  12  13
ENDBRANCH   7  12
ENDBRANCH   5   6
ENDBRANCH   4   5
ENDBRANCH   2   4
ENDBRANCH   1   2
BRANCH   1  19
ATOM     19  C   UNL     1      -1.275   2.680   9.101  1.00  0.00     0.274 C 
BRANCH  19  20
ATOM     20  C   UNL     1      -1.244   1.255   8.556  1.00  0.00     0.275 C 
BRANCH  20  21
ATOM     21  O   UNL     1      -0.020   0.620   8.961  1.00  0.00    -0.458 OA
BRANCH  21  22
ATOM     22  C   UNL     1       0.562  -0.177   8.041  1.00  0.00     0.338 C 
ATOM     23  O   UNL     1       0.116  -0.484   6.942  1.00  0.00    -0.246 OA
BRANCH  22  24
ATOM     24  C   UNL     1       1.856  -0.681   8.549  1.00  0.00     0.060 A 
ATOM     25  C   UNL     1       2.675   0.093   9.377  1.00  0.00     0.016 A 
ATOM     26  C   UNL     1       2.292  -1.938   8.124  1.00  0.00     0.016 A 
ATOM     27  C   UNL     1       3.951  -0.357   9.722  1.00  0.00     0.010 A 
ATOM     28  C   UNL     1       3.533  -2.423   8.541  1.00  0.00     0.010 A 
ATOM     29  C   UNL     1       4.386  -1.630   9.327  1.00  0.00    -0.014 A 
BRANCH  29  30
ATOM     30  C   UNL     1       5.713  -2.159   9.739  1.00  0.00     0.031 A 
ATOM     31  C   UNL     1       6.738  -2.543   8.706  1.00  0.00     0.074 A 
ATOM     32  C   UNL     1       5.983  -2.350  11.046  1.00  0.00     0.049 A 
ATOM     33  N   UNL     1       7.861  -3.199   8.860  1.00  0.00    -0.248 NA
ATOM     34  C   UNL     1       6.458  -2.148   7.316  1.00  0.00     0.031 C 
ATOM     35  C   UNL     1       5.097  -2.005  12.158  1.00  0.00     0.029 A 
ATOM     36  N   UNL     1       7.084  -2.900  11.656  1.00  0.00    -0.354 N 
ATOM     37  C   UNL     1       8.398  -3.336   7.585  1.00  0.00     0.074 A 
ATOM     38  C   UNL     1       7.477  -2.698   6.669  1.00  0.00     0.031 C 
ATOM     39  C   UNL     1       5.694  -2.334  13.314  1.00  0.00     0.029 A 
ATOM     40  C   UNL     1       6.968  -2.979  13.022  1.00  0.00     0.049 A 
ATOM     41  H   UNL     1       7.878  -3.208  11.162  1.00  0.00     0.167 HD
ATOM     42  C   UNL     1       9.551  -3.941   7.213  1.00  0.00     0.031 A 
ATOM     43  C   UNL     1       7.772  -3.546  13.940  1.00  0.00     0.031 A 
ATOM     44  C   UNL     1      10.483  -4.554   8.122  1.00  0.00     0.049 A 
ATOM     45  C   UNL     1       9.023  -4.246  13.499  1.00  0.00     0.074 A 
ATOM     46  C   UNL     1      11.692  -5.166   7.836  1.00  0.00     0.029 A 
ATOM     47  N   UNL     1      10.315  -4.626   9.495  1.00  0.00    -0.354 N 
ATOM     48  N   UNL     1       9.503  -4.390  12.288  1.00  0.00    -0.248 NA
ATOM     49  C   UNL     1       9.835  -4.872  14.551  1.00  0.00     0.031 C 
ATOM     50  C   UNL     1      12.238  -5.642   9.034  1.00  0.00     0.029 A 
ATOM     51  C   UNL     1      11.388  -5.288  10.068  1.00  0.00     0.049 A 
ATOM     52  H   UNL     1       9.546  -4.261   9.990  1.00  0.00     0.167 HD
ATOM     53  C   UNL     1      10.678  -5.114  12.434  1.00  0.00     0.074 A 
ATOM     54  C   UNL     1      10.847  -5.364  13.851  1.00  0.00     0.031 C 
ATOM     55  C   UNL     1      11.539  -5.537  11.477  1.00  0.00     0.031 A 
BRANCH  42  56
ATOM     56  C   UNL     1       9.861  -4.000   5.744  1.00  0.00    -0.014 A 
ATOM     57  C   UNL     1      10.314  -2.870   5.047  1.00  0.00     0.009 A 
ATOM     58  C   UNL     1       9.749  -5.222   5.061  1.00  0.00     0.009 A 
ATOM     59  C   UNL     1      10.626  -2.958   3.688  1.00  0.00     0.001 A 
ATOM     60  C   UNL     1      10.083  -5.312   3.709  1.00  0.00     0.001 A 
ATOM     61  C   UNL     1      10.514  -4.178   3.022  1.00  0.00     0.000 A 
ENDBRANCH  42  56
BRANCH  43  62
ATOM     62  C   UNL     1       7.391  -3.508  15.374  1.00  0.00    -0.014 A 
ATOM     63  C   UNL     1       8.077  -2.675  16.270  1.00  0.00     0.009 A 
ATOM     64  C   UNL     1       6.328  -4.293  15.849  1.00  0.00     0.009 A 
ATOM     65  C   UNL     1       7.714  -2.639  17.617  1.00  0.00     0.001 A 
ATOM     66  C   UNL     1       5.951  -4.235  17.192  1.00  0.00     0.001 A 
ATOM     67  C   UNL     1       6.648  -3.413  18.076  1.00  0.00     0.000 A 
ENDBRANCH  43  62
BRANCH  55  68
ATOM     68  C   UNL     1      12.750  -6.292  11.939  1.00  0.00    -0.014 A 
ATOM     69  C   UNL     1      12.654  -7.630  12.353  1.00  0.00     0.009 A 
ATOM     70  C   UNL     1      14.003  -5.662  11.945  1.00  0.00     0.009 A 
ATOM     71  C   UNL     1      13.789  -8.313  12.794  1.00  0.00     0.001 A 
ATOM     72  C   UNL     1      15.139  -6.355  12.366  1.00  0.00     0.001 A 
ATOM     73  C   UNL     1      15.030  -7.676  12.798  1.00  0.00     0.000 A 
ENDBRANCH  55  68
ENDBRANCH  29  30
ENDBRANCH  22  24
ENDBRANCH  21  22
ENDBRANCH  20  21
ENDBRANCH  19  20
ENDBRANCH   1  19
TORSDOF 16
