REMARK SMILES O=C(OCCOC(=O)[C@@]1([NH2+]C2CC2)CC[C@@H]([N@@H+]2CC[N@@H+]3CCC[C@@H]3C2)C1)c1ccc(-c2c3nc(c(-c4ccccc4)c4ccc([nH]4)c(-c4ccccc4)c4nc(c(-c5ccccc5)c5ccc2[nH]5)C=C4)C=C3)cc1
REMARK SMILES IDX 4 1 3 2 2 3 1 4 27 5 28 6 74 7 29 8 73 9 30 10 31 11 32 12
REMARK SMILES IDX 67 13 33 14 72 15 66 16 68 17 34 18 71 19 65 20 64 21 35 23
REMARK SMILES IDX 57 24 42 25 56 26 43 27 46 28 55 29 69 30 44 31 45 32 54 34
REMARK SMILES IDX 70 35 47 36 36 37 37 38 41 39 38 40 40 41 39 42 58 43 59 44
REMARK SMILES IDX 63 45 60 46 62 47 61 48 48 49 49 50 53 51 50 52 52 53 51 54
REMARK SMILES IDX 5 55 6 56 7 57 8 58 9 59 14 60 26 61 15 62 16 63 10 64 11 67
REMARK SMILES IDX 12 68 13 69 17 70 18 71 25 72 19 74 24 75 20 76 23 77 21 78
REMARK SMILES IDX 22 80
REMARK H PARENT 68 22 46 33 10 65 10 66 17 73 20 79
REMARK Flexibility Score: inf
ROOT
ATOM      1  C   UNL     1       4.993  -0.397   1.547  1.00  0.00     0.275 C 
ENDROOT
BRANCH   1   2
ATOM      2  O   UNL     1       5.056   0.802   0.759  1.00  0.00    -0.458 OA
BRANCH   2   3
ATOM      3  C   UNL     1       4.057   1.104  -0.081  1.00  0.00     0.338 C 
ATOM      4  O   UNL     1       2.949   1.513   0.256  1.00  0.00    -0.246 OA
BRANCH   3   5
ATOM      5  C   UNL     1       4.506   0.901  -1.485  1.00  0.00     0.060 A 
ATOM      6  C   UNL     1       5.642   0.127  -1.766  1.00  0.00     0.016 A 
ATOM      7  C   UNL     1       3.731   1.389  -2.542  1.00  0.00     0.016 A 
ATOM      8  C   UNL     1       5.978  -0.181  -3.081  1.00  0.00     0.010 A 
ATOM      9  C   UNL     1       4.050   1.047  -3.864  1.00  0.00     0.010 A 
ATOM     10  C   UNL     1       5.175   0.256  -4.140  1.00  0.00    -0.014 A 
BRANCH  10  11
ATOM     11  C   UNL     1       5.636  -0.005  -5.528  1.00  0.00     0.031 A 
ATOM     12  C   UNL     1       6.425   1.043  -6.197  1.00  0.00     0.074 A 
ATOM     13  C   UNL     1       5.345  -1.127  -6.211  1.00  0.00     0.049 A 
ATOM     14  N   UNL     1       7.071   0.964  -7.321  1.00  0.00    -0.248 NA
ATOM     15  C   UNL     1       6.411   2.367  -5.564  1.00  0.00     0.031 C 
ATOM     16  C   UNL     1       4.397  -2.085  -5.722  1.00  0.00     0.029 A 
ATOM     17  N   UNL     1       5.785  -1.697  -7.380  1.00  0.00    -0.354 N 
ATOM     18  C   UNL     1       7.476   2.254  -7.581  1.00  0.00     0.074 A 
ATOM     19  C   UNL     1       6.997   3.090  -6.500  1.00  0.00     0.031 C 
ATOM     20  C   UNL     1       4.370  -3.178  -6.496  1.00  0.00     0.029 A 
ATOM     21  C   UNL     1       5.388  -3.022  -7.510  1.00  0.00     0.049 A 
ATOM     22  H   UNL     1       6.323  -1.219  -8.052  1.00  0.00     0.167 HD
ATOM     23  C   UNL     1       8.164   2.690  -8.656  1.00  0.00     0.031 A 
ATOM     24  C   UNL     1       5.899  -4.016  -8.266  1.00  0.00     0.031 A 
ATOM     25  C   UNL     1       8.567   1.828  -9.730  1.00  0.00     0.049 A 
ATOM     26  C   UNL     1       6.915  -3.588  -9.282  1.00  0.00     0.074 A 
ATOM     27  C   UNL     1       9.244   2.144 -10.889  1.00  0.00     0.029 A 
ATOM     28  N   UNL     1       8.315   0.459  -9.768  1.00  0.00    -0.354 N 
ATOM     29  N   UNL     1       7.419  -2.390  -9.464  1.00  0.00    -0.248 NA
ATOM     30  C   UNL     1       7.396  -4.602 -10.227  1.00  0.00     0.031 C 
ATOM     31  C   UNL     1       9.392   0.967 -11.635  1.00  0.00     0.029 A 
ATOM     32  C   UNL     1       8.841  -0.090 -10.924  1.00  0.00     0.049 A 
ATOM     33  H   UNL     1       7.833  -0.045  -9.074  1.00  0.00     0.167 HD
ATOM     34  C   UNL     1       8.216  -2.485 -10.585  1.00  0.00     0.074 A 
ATOM     35  C   UNL     1       8.225  -3.884 -10.974  1.00  0.00     0.031 C 
ATOM     36  C   UNL     1       8.822  -1.489 -11.275  1.00  0.00     0.031 A 
BRANCH  23  37
ATOM     37  C   UNL     1       8.410   4.165  -8.682  1.00  0.00    -0.014 A 
ATOM     38  C   UNL     1       9.255   4.766  -7.730  1.00  0.00     0.009 A 
ATOM     39  C   UNL     1       7.647   4.977  -9.531  1.00  0.00     0.009 A 
ATOM     40  C   UNL     1       9.266   6.151  -7.575  1.00  0.00     0.001 A 
ATOM     41  C   UNL     1       7.692   6.365  -9.398  1.00  0.00     0.001 A 
ATOM     42  C   UNL     1       8.482   6.949  -8.408  1.00  0.00     0.000 A 
ENDBRANCH  23  37
BRANCH  24  43
ATOM     43  C   UNL     1       5.574  -5.466  -8.053  1.00  0.00    -0.014 A 
ATOM     44  C   UNL     1       6.606  -6.368  -7.721  1.00  0.00     0.009 A 
ATOM     45  C   UNL     1       4.277  -5.984  -8.182  1.00  0.00     0.009 A 
ATOM     46  C   UNL     1       6.359  -7.738  -7.565  1.00  0.00     0.001 A 
ATOM     47  C   UNL     1       4.023  -7.351  -7.987  1.00  0.00     0.001 A 
ATOM     48  C   UNL     1       5.064  -8.229  -7.694  1.00  0.00     0.000 A 
ENDBRANCH  24  43
BRANCH  36  49
ATOM     49  C   UNL     1       9.500  -1.897 -12.543  1.00  0.00    -0.014 A 
ATOM     50  C   UNL     1       8.743  -2.248 -13.673  1.00  0.00     0.009 A 
ATOM     51  C   UNL     1      10.898  -1.893 -12.621  1.00  0.00     0.009 A 
ATOM     52  C   UNL     1       9.380  -2.612 -14.857  1.00  0.00     0.001 A 
ATOM     53  C   UNL     1      11.530  -2.232 -13.815  1.00  0.00     0.001 A 
ATOM     54  C   UNL     1      10.772  -2.597 -14.928  1.00  0.00     0.000 A 
ENDBRANCH  36  49
ENDBRANCH  10  11
ENDBRANCH   3   5
ENDBRANCH   2   3
ENDBRANCH   1   2
BRANCH   1  55
ATOM     55  C   UNL     1       3.993  -1.526   1.239  1.00  0.00     0.274 C 
BRANCH  55  56
ATOM     56  O   UNL     1       3.421  -1.561  -0.080  1.00  0.00    -0.457 OA
BRANCH  56  57
ATOM     57  C   UNL     1       2.089  -1.894  -0.093  1.00  0.00     0.368 C 
ATOM     58  O   UNL     1       1.431  -2.063   0.932  1.00  0.00    -0.245 OA
BRANCH  57  59
ATOM     59  C   UNL     1       1.552  -2.256  -1.498  1.00  0.00     0.200 C 
ATOM     60  C   UNL     1       2.177  -1.662  -2.756  1.00  0.00     0.087 C 
ATOM     61  C   UNL     1       1.929  -3.782  -1.695  1.00  0.00     0.146 C 
ATOM     62  C   UNL     1       1.800  -2.696  -3.811  1.00  0.00     0.072 C 
ATOM     63  C   UNL     1       2.277  -4.011  -3.186  1.00  0.00     0.191 C 
BRANCH  59  64
ATOM     64  N   UNL     1       0.073  -2.059  -1.538  1.00  0.00    -0.329 N 
ATOM     65  H   UNL     1      -0.310  -2.632  -0.785  1.00  0.00     0.347 HD
ATOM     66  H   UNL     1      -0.147  -2.296  -2.505  1.00  0.00     0.347 HD
BRANCH  64  67
ATOM     67  C   UNL     1      -0.547  -0.729  -1.399  1.00  0.00     0.183 C 
ATOM     68  C   UNL     1       0.158   0.592  -1.352  1.00  0.00     0.071 C 
ATOM     69  C   UNL     1      -0.615   0.215  -2.580  1.00  0.00     0.071 C 
ENDBRANCH  64  67
ENDBRANCH  59  64
BRANCH  63  70
ATOM     70  N   UNL     1       3.656  -4.418  -3.533  1.00  0.00    -0.323 N 
ATOM     71  C   UNL     1       3.799  -5.859  -3.824  1.00  0.00     0.324 C 
ATOM     72  C   UNL     1       4.889  -3.856  -2.957  1.00  0.00     0.328 C 
ATOM     73  H   UNL     1       3.653  -3.811  -4.353  1.00  0.00     0.348 HD
ATOM     74  C   UNL     1       5.232  -6.462  -3.707  1.00  0.00     0.324 C 
ATOM     75  C   UNL     1       6.138  -4.202  -3.847  1.00  0.00     0.240 C 
ATOM     76  N   UNL     1       6.287  -5.611  -4.244  1.00  0.00    -0.323 N 
ATOM     77  C   UNL     1       7.512  -3.749  -3.359  1.00  0.00     0.077 C 
ATOM     78  C   UNL     1       7.647  -6.042  -3.929  1.00  0.00     0.263 C 
ATOM     79  H   UNL     1       6.163  -5.703  -5.252  1.00  0.00     0.348 HD
ATOM     80  C   UNL     1       8.451  -4.757  -4.008  1.00  0.00     0.068 C 
ENDBRANCH  63  70
ENDBRANCH  57  59
ENDBRANCH  56  57
ENDBRANCH  55  56
ENDBRANCH   1  55
TORSDOF 14
