REMARK SMILES O=C(OCCOC(=O)c1[nH]ncc1C[N@H+]1CCC[C@@H](C(=O)c2ccc(Oc3ccccc3)cc2)C1)c1ccc(-c2c3nc(c(-c4ccccc4)c4ccc([nH]4)c(-c4ccccc4)c4nc(c(-c5ccccc5)c5ccc2[nH]5)C=C4)C=C3)cc1
REMARK SMILES IDX 7 1 8 2 6 3 5 4 4 5 3 6 2 7 1 8 36 9 37 10 83 11 38 12 82 13
REMARK SMILES IDX 39 14 40 15 41 16 76 17 42 18 81 19 75 20 77 21 43 22 80 23
REMARK SMILES IDX 74 24 73 25 44 27 66 28 51 29 65 30 52 31 55 32 64 33 78 34
REMARK SMILES IDX 53 35 54 36 63 38 79 39 56 40 45 41 46 42 50 43 47 44 49 45
REMARK SMILES IDX 48 46 67 47 68 48 72 49 69 50 71 51 70 52 57 53 58 54 62 55
REMARK SMILES IDX 59 56 61 57 60 58 9 59 10 60 13 61 11 62 12 64 14 65 15 66
REMARK SMILES IDX 16 67 35 68 17 70 19 71 18 72 20 73 21 74 22 75 23 76 34 77
REMARK SMILES IDX 24 78 33 79 25 80 26 81 27 82 28 83 32 84 29 85 31 86 30 87
REMARK H PARENT 77 26 55 37 10 63 15 69
REMARK Flexibility Score: inf
ROOT
ATOM      1  C   UNL     1       2.223  -1.641  -1.503  1.00  0.00     0.356 C 
ATOM      2  O   UNL     1       1.459  -2.259  -0.789  1.00  0.00    -0.244 OA
ENDROOT
BRANCH   1   3
ATOM      3  O   UNL     1       3.587  -1.642  -1.407  1.00  0.00    -0.457 OA
BRANCH   3   4
ATOM      4  C   UNL     1       4.122  -2.264  -0.232  1.00  0.00     0.275 C 
BRANCH   4   5
ATOM      5  C   UNL     1       4.428  -1.232   0.856  1.00  0.00     0.275 C 
BRANCH   5   6
ATOM      6  O   UNL     1       3.300  -0.386   1.147  1.00  0.00    -0.458 OA
BRANCH   6   7
ATOM      7  C   UNL     1       2.877   0.792   0.640  1.00  0.00     0.338 C 
ATOM      8  O   UNL     1       1.826   1.248   1.096  1.00  0.00    -0.246 OA
BRANCH   7   9
ATOM      9  C   UNL     1       3.534   1.576  -0.467  1.00  0.00     0.060 A 
ATOM     10  C   UNL     1       4.760   1.317  -1.087  1.00  0.00     0.016 A 
ATOM     11  C   UNL     1       2.804   2.687  -0.940  1.00  0.00     0.016 A 
ATOM     12  C   UNL     1       5.255   2.146  -2.112  1.00  0.00     0.010 A 
ATOM     13  C   UNL     1       3.273   3.493  -1.983  1.00  0.00     0.010 A 
ATOM     14  C   UNL     1       4.522   3.245  -2.560  1.00  0.00    -0.014 A 
BRANCH  14  15
ATOM     15  C   UNL     1       5.099   4.245  -3.492  1.00  0.00     0.031 A 
ATOM     16  C   UNL     1       5.541   5.560  -2.928  1.00  0.00     0.074 A 
ATOM     17  C   UNL     1       5.250   4.012  -4.809  1.00  0.00     0.049 A 
ATOM     18  N   UNL     1       5.991   6.614  -3.554  1.00  0.00    -0.248 NA
ATOM     19  C   UNL     1       5.504   5.689  -1.462  1.00  0.00     0.031 C 
ATOM     20  C   UNL     1       4.996   2.742  -5.468  1.00  0.00     0.029 A 
ATOM     21  N   UNL     1       5.628   4.843  -5.836  1.00  0.00    -0.354 N 
ATOM     22  C   UNL     1       6.334   7.513  -2.558  1.00  0.00     0.074 A 
ATOM     23  C   UNL     1       5.967   6.916  -1.292  1.00  0.00     0.031 C 
ATOM     24  C   UNL     1       5.164   2.883  -6.793  1.00  0.00     0.029 A 
ATOM     25  C   UNL     1       5.476   4.273  -7.079  1.00  0.00     0.049 A 
ATOM     26  H   UNL     1       5.974   5.754  -5.696  1.00  0.00     0.167 HD
ATOM     27  C   UNL     1       6.941   8.715  -2.683  1.00  0.00     0.031 A 
ATOM     28  C   UNL     1       5.519   4.820  -8.308  1.00  0.00     0.031 A 
ATOM     29  C   UNL     1       7.254   9.328  -3.942  1.00  0.00     0.049 A 
ATOM     30  C   UNL     1       5.923   6.253  -8.438  1.00  0.00     0.074 A 
ATOM     31  C   UNL     1       7.870  10.540  -4.187  1.00  0.00     0.029 A 
ATOM     32  N   UNL     1       6.946   8.774  -5.177  1.00  0.00    -0.354 N 
ATOM     33  N   UNL     1       6.239   7.099  -7.490  1.00  0.00    -0.248 NA
ATOM     34  C   UNL     1       6.022   6.793  -9.799  1.00  0.00     0.031 C 
ATOM     35  C   UNL     1       7.890  10.743  -5.573  1.00  0.00     0.029 A 
ATOM     36  C   UNL     1       7.329   9.635  -6.190  1.00  0.00     0.049 A 
ATOM     37  H   UNL     1       6.518   7.898  -5.312  1.00  0.00     0.167 HD
ATOM     38  C   UNL     1       6.645   8.253  -8.138  1.00  0.00     0.074 A 
ATOM     39  C   UNL     1       6.484   8.014  -9.560  1.00  0.00     0.031 C 
ATOM     40  C   UNL     1       7.150   9.387  -7.598  1.00  0.00     0.031 A 
BRANCH  27  41
ATOM     41  C   UNL     1       7.267   9.421  -1.401  1.00  0.00    -0.014 A 
ATOM     42  C   UNL     1       8.289   8.947  -0.559  1.00  0.00     0.009 A 
ATOM     43  C   UNL     1       6.494  10.513  -0.988  1.00  0.00     0.009 A 
ATOM     44  C   UNL     1       8.492   9.520   0.697  1.00  0.00     0.001 A 
ATOM     45  C   UNL     1       6.715  11.100   0.260  1.00  0.00     0.001 A 
ATOM     46  C   UNL     1       7.702  10.594   1.106  1.00  0.00     0.000 A 
ENDBRANCH  27  41
BRANCH  28  47
ATOM     47  C   UNL     1       5.105   4.031  -9.496  1.00  0.00    -0.014 A 
ATOM     48  C   UNL     1       6.010   3.228 -10.199  1.00  0.00     0.009 A 
ATOM     49  C   UNL     1       3.766   4.067  -9.915  1.00  0.00     0.009 A 
ATOM     50  C   UNL     1       5.574   2.463 -11.287  1.00  0.00     0.001 A 
ATOM     51  C   UNL     1       3.330   3.294 -10.992  1.00  0.00     0.001 A 
ATOM     52  C   UNL     1       4.235   2.489 -11.677  1.00  0.00     0.000 A 
ENDBRANCH  28  47
BRANCH  40  53
ATOM     53  C   UNL     1       7.639  10.426  -8.557  1.00  0.00    -0.014 A 
ATOM     54  C   UNL     1       6.755  11.288  -9.219  1.00  0.00     0.009 A 
ATOM     55  C   UNL     1       9.021  10.559  -8.768  1.00  0.00     0.009 A 
ATOM     56  C   UNL     1       7.250  12.257 -10.094  1.00  0.00     0.001 A 
ATOM     57  C   UNL     1       9.512  11.541  -9.626  1.00  0.00     0.001 A 
ATOM     58  C   UNL     1       8.626  12.386 -10.291  1.00  0.00     0.000 A 
ENDBRANCH  40  53
ENDBRANCH  14  15
ENDBRANCH   7   9
ENDBRANCH   6   7
ENDBRANCH   5   6
ENDBRANCH   4   5
ENDBRANCH   3   4
ENDBRANCH   1   3
BRANCH   1  59
ATOM     59  C   UNL     1       1.833  -0.626  -2.436  1.00  0.00     0.152 A 
ATOM     60  N   UNL     1       0.741   0.166  -2.204  1.00  0.00    -0.271 N 
ATOM     61  C   UNL     1       2.401  -0.163  -3.614  1.00  0.00     0.059 A 
ATOM     62  N   UNL     1       0.669   1.226  -3.022  1.00  0.00    -0.183 NA
ATOM     63  H   UNL     1       0.073  -0.024  -1.506  1.00  0.00     0.190 HD
ATOM     64  C   UNL     1       1.704   1.052  -3.842  1.00  0.00     0.145 A 
BRANCH  61  65
ATOM     65  C   UNL     1       3.517  -0.771  -4.410  1.00  0.00     0.303 C 
BRANCH  65  66
ATOM     66  N   UNL     1       3.095  -1.260  -5.740  1.00  0.00    -0.330 N 
ATOM     67  C   UNL     1       2.149  -2.371  -5.645  1.00  0.00     0.262 C 
ATOM     68  C   UNL     1       2.626  -0.191  -6.630  1.00  0.00     0.274 C 
ATOM     69  H   UNL     1       3.937  -1.629  -6.183  1.00  0.00     0.348 HD
ATOM     70  C   UNL     1       1.802  -2.901  -7.032  1.00  0.00     0.062 C 
ATOM     71  C   UNL     1       2.155  -0.598  -8.023  1.00  0.00     0.116 C 
ATOM     72  C   UNL     1       1.206  -1.802  -7.908  1.00  0.00     0.023 C 
BRANCH  71  73
ATOM     73  C   UNL     1       1.454   0.487  -8.880  1.00  0.00     0.171 C 
ATOM     74  O   UNL     1       1.154   0.218 -10.050  1.00  0.00    -0.294 OA
BRANCH  73  75
ATOM     75  C   UNL     1       1.036   1.851  -8.392  1.00  0.00     0.018 A 
ATOM     76  C   UNL     1      -0.108   2.432  -8.957  1.00  0.00     0.015 A 
ATOM     77  C   UNL     1       1.768   2.628  -7.496  1.00  0.00     0.015 A 
ATOM     78  C   UNL     1      -0.490   3.745  -8.632  1.00  0.00     0.048 A 
ATOM     79  C   UNL     1       1.382   3.930  -7.145  1.00  0.00     0.048 A 
ATOM     80  C   UNL     1       0.267   4.509  -7.741  1.00  0.00     0.127 A 
BRANCH  80  81
ATOM     81  O   UNL     1      -0.179   5.790  -7.500  1.00  0.00    -0.457 OA
BRANCH  81  82
ATOM     82  C   UNL     1       0.699   6.711  -6.974  1.00  0.00     0.127 A 
ATOM     83  C   UNL     1       0.364   7.305  -5.757  1.00  0.00     0.047 A 
ATOM     84  C   UNL     1       1.845   7.120  -7.660  1.00  0.00     0.047 A 
ATOM     85  C   UNL     1       1.203   8.271  -5.198  1.00  0.00     0.004 A 
ATOM     86  C   UNL     1       2.689   8.078  -7.093  1.00  0.00     0.004 A 
ATOM     87  C   UNL     1       2.371   8.649  -5.861  1.00  0.00     0.000 A 
ENDBRANCH  81  82
ENDBRANCH  80  81
ENDBRANCH  73  75
ENDBRANCH  71  73
ENDBRANCH  65  66
ENDBRANCH  61  65
ENDBRANCH   1  59
TORSDOF 17
