REMARK SMILES Cc1ccc(C)c(-n2nc(C)c(/C=C(/C#N)C(=O)OCCOC(=O)c3ccc(-c4c5nc(c(-c6ccccc6)c6ccc([nH]6)c(-c6ccccc6)c6nc(c(-c7ccccc7)c7ccc4[nH]7)C=C6)C=C5)cc3)c2Cl)c1
REMARK SMILES IDX 20 1 19 2 17 3 18 4 14 5 13 6 12 7 8 8 9 9 73 10 10 11 74 12
REMARK SMILES IDX 11 13 7 14 1 15 2 16 3 17 75 18 4 19 5 20 6 21 15 22 16 23
REMARK SMILES IDX 21 24 22 25 23 26 24 27 25 28 26 29 72 30 27 31 71 32 28 33
REMARK SMILES IDX 29 34 30 35 65 36 31 37 70 38 64 39 66 40 32 41 69 42 63 43
REMARK SMILES IDX 62 44 33 46 55 47 40 48 54 49 41 50 44 51 53 52 67 53 42 54
REMARK SMILES IDX 43 55 52 57 68 58 45 59 34 60 35 61 39 62 36 63 38 64 37 65
REMARK SMILES IDX 56 66 57 67 61 68 58 69 60 70 59 71 46 72 47 73 51 74 48 75
REMARK SMILES IDX 50 76 49 77
REMARK H PARENT 66 45 44 56
REMARK Flexibility Score: inf
ROOT
ATOM      1  C   UNL     1      -6.418   7.674  -0.311  1.00  0.00     0.275 C 
ENDROOT
BRANCH   1   2
ATOM      2  O   UNL     1      -5.328   6.950  -0.926  1.00  0.00    -0.458 OA
BRANCH   2   3
ATOM      3  C   UNL     1      -4.083   7.332  -0.532  1.00  0.00     0.349 C 
ATOM      4  O   UNL     1      -3.856   8.306   0.180  1.00  0.00    -0.245 OA
BRANCH   3   5
ATOM      5  C   UNL     1      -3.024   6.816  -1.421  1.00  0.00     0.138 C 
ATOM      6  C   UNL     1      -2.210   5.731  -1.394  1.00  0.00     0.040 C 
BRANCH   6   7
ATOM      7  C   UNL     1      -1.999   4.454  -0.640  1.00  0.00     0.037 A 
ATOM      8  N   UNL     1      -1.268   2.296  -0.505  1.00  0.00    -0.221 N 
ATOM      9  N   UNL     1      -1.972   2.492   0.594  1.00  0.00    -0.171 NA
ATOM     10  C   UNL     1      -1.239   3.442  -1.262  1.00  0.00     0.140 A 
ATOM     11  C   UNL     1      -2.250   3.793   0.651  1.00  0.00     0.069 A 
ATOM     12  Cl  UNL     1      -0.441   3.388  -2.780  1.00  0.00    -0.061 Cl
ATOM     13  C   UNL     1      -2.653   4.053   2.063  1.00  0.00     0.069 C 
BRANCH   8  14
ATOM     14  C   UNL     1      -0.580   1.058  -0.552  1.00  0.00     0.069 A 
ATOM     15  C   UNL     1       3.027  -0.102  -0.122  1.00  0.00     0.044 C 
ATOM     16  C   UNL     1       1.534  -0.106  -0.268  1.00  0.00    -0.049 A 
ATOM     17  C   UNL     1       0.833  -1.305  -0.086  1.00  0.00     0.004 A 
ATOM     18  C   UNL     1       0.825   1.074  -0.536  1.00  0.00     0.032 A 
ATOM     19  C   UNL     1      -0.560  -1.323  -0.105  1.00  0.00     0.006 A 
ATOM     20  C   UNL     1      -1.289  -0.142  -0.303  1.00  0.00    -0.025 A 
ATOM     21  C   UNL     1      -2.793  -0.241  -0.214  1.00  0.00     0.047 C 
ENDBRANCH   8  14
ENDBRANCH   6   7
BRANCH   5  22
ATOM     22  C   UNL     1      -3.058   7.979  -2.401  1.00  0.00     0.107 C 
ATOM     23  N   UNL     1      -3.086   8.943  -3.213  1.00  0.00    -0.192 NA
ENDBRANCH   5  22
ENDBRANCH   3   5
ENDBRANCH   2   3
ENDBRANCH   1   2
BRANCH   1  24
ATOM     24  C   UNL     1      -7.428   6.709   0.329  1.00  0.00     0.275 C 
BRANCH  24  25
ATOM     25  O   UNL     1      -6.975   5.941   1.461  1.00  0.00    -0.458 OA
BRANCH  25  26
ATOM     26  C   UNL     1      -5.652   5.645   1.489  1.00  0.00     0.338 C 
ATOM     27  O   UNL     1      -5.113   4.911   0.698  1.00  0.00    -0.246 OA
BRANCH  26  28
ATOM     28  C   UNL     1      -4.979   6.587   2.450  1.00  0.00     0.060 A 
ATOM     29  C   UNL     1      -3.594   6.847   2.377  1.00  0.00     0.016 A 
ATOM     30  C   UNL     1      -5.789   7.433   3.191  1.00  0.00     0.016 A 
ATOM     31  C   UNL     1      -3.026   7.957   2.973  1.00  0.00     0.010 A 
ATOM     32  C   UNL     1      -5.264   8.620   3.632  1.00  0.00     0.010 A 
ATOM     33  C   UNL     1      -3.890   8.870   3.544  1.00  0.00    -0.014 A 
BRANCH  33  34
ATOM     34  C   UNL     1      -3.378  10.150   3.985  1.00  0.00     0.031 A 
ATOM     35  C   UNL     1      -2.743  11.029   2.960  1.00  0.00     0.074 A 
ATOM     36  C   UNL     1      -3.684  10.559   5.230  1.00  0.00     0.049 A 
ATOM     37  N   UNL     1      -1.538  11.499   2.977  1.00  0.00    -0.248 NA
ATOM     38  C   UNL     1      -3.494  11.387   1.745  1.00  0.00     0.031 C 
ATOM     39  C   UNL     1      -4.529   9.864   6.212  1.00  0.00     0.029 A 
ATOM     40  N   UNL     1      -3.449  11.753   5.820  1.00  0.00    -0.354 N 
ATOM     41  C   UNL     1      -1.444  12.384   1.903  1.00  0.00     0.074 A 
ATOM     42  C   UNL     1      -2.622  12.168   1.102  1.00  0.00     0.031 C 
ATOM     43  C   UNL     1      -4.967  10.750   7.128  1.00  0.00     0.029 A 
ATOM     44  C   UNL     1      -4.263  11.998   6.915  1.00  0.00     0.049 A 
ATOM     45  H   UNL     1      -2.765  12.387   5.503  1.00  0.00     0.167 HD
ATOM     46  C   UNL     1      -0.538  13.404   1.920  1.00  0.00     0.031 A 
ATOM     47  C   UNL     1      -4.374  13.156   7.599  1.00  0.00     0.031 A 
ATOM     48  C   UNL     1       0.495  13.170   2.900  1.00  0.00     0.049 A 
ATOM     49  C   UNL     1      -3.143  13.931   7.338  1.00  0.00     0.074 A 
ATOM     50  C   UNL     1       1.437  12.187   3.123  1.00  0.00     0.029 A 
ATOM     51  N   UNL     1       0.384  13.860   4.082  1.00  0.00    -0.354 N 
ATOM     52  N   UNL     1      -1.963  13.544   7.732  1.00  0.00    -0.248 NA
ATOM     53  C   UNL     1      -3.152  14.905   6.261  1.00  0.00     0.031 C 
ATOM     54  C   UNL     1       1.476  12.036   4.543  1.00  0.00     0.029 A 
ATOM     55  C   UNL     1       0.624  12.988   5.108  1.00  0.00     0.049 A 
ATOM     56  H   UNL     1       0.168  14.816   4.176  1.00  0.00     0.167 HD
ATOM     57  C   UNL     1      -1.125  13.846   6.669  1.00  0.00     0.074 A 
ATOM     58  C   UNL     1      -1.880  14.807   5.864  1.00  0.00     0.031 C 
ATOM     59  C   UNL     1      -0.029  13.072   6.396  1.00  0.00     0.031 A 
BRANCH  46  60
ATOM     60  C   UNL     1      -0.853  14.812   1.442  1.00  0.00    -0.014 A 
ATOM     61  C   UNL     1       0.119  15.816   1.638  1.00  0.00     0.009 A 
ATOM     62  C   UNL     1      -2.151  15.252   1.131  1.00  0.00     0.009 A 
ATOM     63  C   UNL     1      -0.223  17.174   1.661  1.00  0.00     0.001 A 
ATOM     64  C   UNL     1      -2.487  16.611   1.112  1.00  0.00     0.001 A 
ATOM     65  C   UNL     1      -1.532  17.570   1.416  1.00  0.00     0.000 A 
ENDBRANCH  46  60
BRANCH  47  66
ATOM     66  C   UNL     1      -5.570  13.711   8.251  1.00  0.00    -0.014 A 
ATOM     67  C   UNL     1      -5.450  14.718   9.216  1.00  0.00     0.009 A 
ATOM     68  C   UNL     1      -6.852  13.435   7.736  1.00  0.00     0.009 A 
ATOM     69  C   UNL     1      -6.568  15.459   9.618  1.00  0.00     0.001 A 
ATOM     70  C   UNL     1      -7.969  14.171   8.141  1.00  0.00     0.001 A 
ATOM     71  C   UNL     1      -7.822  15.196   9.069  1.00  0.00     0.000 A 
ENDBRANCH  47  66
BRANCH  59  72
ATOM     72  C   UNL     1       0.393  12.056   7.431  1.00  0.00    -0.014 A 
ATOM     73  C   UNL     1      -0.427  10.999   7.864  1.00  0.00     0.009 A 
ATOM     74  C   UNL     1       1.718  12.093   7.890  1.00  0.00     0.009 A 
ATOM     75  C   UNL     1       0.051  10.037   8.761  1.00  0.00     0.001 A 
ATOM     76  C   UNL     1       2.204  11.121   8.767  1.00  0.00     0.001 A 
ATOM     77  C   UNL     1       1.368  10.099   9.211  1.00  0.00     0.000 A 
ENDBRANCH  59  72
ENDBRANCH  33  34
ENDBRANCH  26  28
ENDBRANCH  25  26
ENDBRANCH  24  25
ENDBRANCH   1  24
TORSDOF 14
