REMARK SMILES CC(C)(C)OC(=O)N1CCN(C(=O)c2ccc3c(c2)OCO3)[C@H](C(=O)OCCOC(=O)c2ccc(-c3c4nc(c(-c5ccccc5)c5ccc([nH]5)c(-c5ccccc5)c5nc(c(-c6ccccc6)c6ccc3[nH]6)C=C5)C=C4)cc2)C1
REMARK SMILES IDX 27 1 26 2 24 3 25 4 23 5 8 6 9 7 80 8 10 9 11 10 6 11 7 12
REMARK SMILES IDX 5 13 2 14 1 15 3 16 4 17 12 18 13 19 14 20 15 21 19 22 16 23
REMARK SMILES IDX 18 24 17 25 20 26 22 27 21 28 28 29 29 30 30 31 31 32 32 33
REMARK SMILES IDX 33 34 79 35 34 36 78 37 35 38 36 39 37 40 72 41 38 42 77 43
REMARK SMILES IDX 71 44 73 45 39 46 76 47 70 48 69 49 40 51 62 52 47 53 61 54
REMARK SMILES IDX 48 55 51 56 60 57 74 58 49 59 50 60 59 62 75 63 52 64 41 65
REMARK SMILES IDX 42 66 46 67 43 68 45 69 44 70 63 71 64 72 68 73 65 74 67 75
REMARK SMILES IDX 66 76 53 77 54 78 58 79 55 80 57 81 56 82
REMARK H PARENT 73 50 51 61
REMARK Flexibility Score: inf
ROOT
ATOM      1  C   UNL     1       5.994   5.648   1.421  1.00  0.00     0.274 C 
ENDROOT
BRANCH   1   2
ATOM      2  O   UNL     1       4.905   4.716   1.452  1.00  0.00    -0.460 OA
BRANCH   2   3
ATOM      3  C   UNL     1       4.476   4.252   2.664  1.00  0.00     0.330 C 
ATOM      4  O   UNL     1       5.188   4.117   3.649  1.00  0.00    -0.250 OA
BRANCH   3   5
ATOM      5  C   UNL     1       2.938   4.134   2.655  1.00  0.00     0.215 C 
ATOM      6  N   UNL     1       1.007   4.252   1.036  1.00  0.00    -0.304 N 
ATOM      7  C   UNL     1       0.392   5.332   1.792  1.00  0.00     0.144 C 
ATOM      8  C   UNL     1       2.451   4.173   1.179  1.00  0.00     0.160 C 
ATOM      9  C   UNL     1       0.777   5.188   3.290  1.00  0.00     0.142 C 
ATOM     10  N   UNL     1       2.247   5.132   3.529  1.00  0.00    -0.321 N 
BRANCH   6  11
ATOM     11  C   UNL     1       0.294   3.489   0.141  1.00  0.00     0.410 C 
ATOM     12  O   UNL     1      -0.825   3.780  -0.261  1.00  0.00    -0.224 OA
BRANCH  11  13
ATOM     13  O   UNL     1       0.960   2.350  -0.156  1.00  0.00    -0.444 OA
BRANCH  13  14
ATOM     14  C   UNL     1       0.402   1.237  -0.904  1.00  0.00     0.106 C 
ATOM     15  C   UNL     1       1.032  -0.001  -0.249  1.00  0.00     0.056 C 
ATOM     16  C   UNL     1       0.876   1.347  -2.353  1.00  0.00     0.056 C 
ATOM     17  C   UNL     1      -1.123   1.098  -0.831  1.00  0.00     0.056 C 
ENDBRANCH  13  14
ENDBRANCH  11  13
ENDBRANCH   6  11
BRANCH  10  18
ATOM     18  C   UNL     1       2.814   6.400   3.631  1.00  0.00     0.254 C 
ATOM     19  O   UNL     1       2.341   7.297   2.949  1.00  0.00    -0.269 OA
BRANCH  18  20
ATOM     20  C   UNL     1       3.966   6.741   4.516  1.00  0.00     0.044 A 
ATOM     21  C   UNL     1       4.916   7.636   3.976  1.00  0.00     0.018 A 
ATOM     22  C   UNL     1       4.093   6.373   5.853  1.00  0.00     0.064 A 
ATOM     23  C   UNL     1       6.009   8.133   4.673  1.00  0.00     0.051 A 
ATOM     24  C   UNL     1       5.172   6.910   6.555  1.00  0.00     0.166 A 
ATOM     25  C   UNL     1       6.102   7.752   5.976  1.00  0.00     0.165 A 
ATOM     26  O   UNL     1       5.447   6.720   7.878  1.00  0.00    -0.454 OA
ATOM     27  O   UNL     1       7.072   8.165   6.829  1.00  0.00    -0.454 OA
ATOM     28  C   UNL     1       6.644   7.519   8.038  1.00  0.00     0.468 C 
ENDBRANCH  18  20
ENDBRANCH  10  18
ENDBRANCH   3   5
ENDBRANCH   2   3
ENDBRANCH   1   2
BRANCH   1  29
ATOM     29  C   UNL     1       5.649   6.798   0.437  1.00  0.00     0.275 C 
BRANCH  29  30
ATOM     30  O   UNL     1       4.484   7.567   0.856  1.00  0.00    -0.458 OA
BRANCH  30  31
ATOM     31  C   UNL     1       4.486   8.905   0.558  1.00  0.00     0.338 C 
ATOM     32  O   UNL     1       5.273   9.458  -0.194  1.00  0.00    -0.246 OA
BRANCH  31  33
ATOM     33  C   UNL     1       3.593   9.670   1.491  1.00  0.00     0.060 A 
ATOM     34  C   UNL     1       2.220   9.442   1.587  1.00  0.00     0.016 A 
ATOM     35  C   UNL     1       4.187  10.570   2.391  1.00  0.00     0.016 A 
ATOM     36  C   UNL     1       1.477  10.002   2.652  1.00  0.00     0.010 A 
ATOM     37  C   UNL     1       3.440  11.153   3.436  1.00  0.00     0.010 A 
ATOM     38  C   UNL     1       2.074  10.864   3.591  1.00  0.00    -0.014 A 
BRANCH  38  39
ATOM     39  C   UNL     1       1.197  11.720   4.454  1.00  0.00     0.031 A 
ATOM     40  C   UNL     1       0.610  12.934   3.773  1.00  0.00     0.074 A 
ATOM     41  C   UNL     1       0.853  11.470   5.737  1.00  0.00     0.049 A 
ATOM     42  N   UNL     1      -0.236  13.826   4.221  1.00  0.00    -0.248 NA
ATOM     43  C   UNL     1       1.032  13.152   2.377  1.00  0.00     0.031 C 
ATOM     44  C   UNL     1       1.271  10.322   6.540  1.00  0.00     0.029 A 
ATOM     45  N   UNL     1       0.032  12.183   6.593  1.00  0.00    -0.354 N 
ATOM     46  C   UNL     1      -0.470  14.681   3.152  1.00  0.00     0.074 A 
ATOM     47  C   UNL     1       0.343  14.228   2.048  1.00  0.00     0.031 C 
ATOM     48  C   UNL     1       0.693  10.402   7.758  1.00  0.00     0.029 A 
ATOM     49  C   UNL     1      -0.124  11.615   7.840  1.00  0.00     0.049 A 
ATOM     50  H   UNL     1      -0.404  13.027   6.333  1.00  0.00     0.167 HD
ATOM     51  C   UNL     1      -1.287  15.755   3.072  1.00  0.00     0.031 A 
ATOM     52  C   UNL     1      -0.839  12.026   8.914  1.00  0.00     0.031 A 
ATOM     53  C   UNL     1      -2.048  16.284   4.162  1.00  0.00     0.049 A 
ATOM     54  C   UNL     1      -1.644  13.311   8.841  1.00  0.00     0.074 A 
ATOM     55  C   UNL     1      -2.830  17.424   4.191  1.00  0.00     0.029 A 
ATOM     56  N   UNL     1      -2.109  15.715   5.421  1.00  0.00    -0.354 N 
ATOM     57  N   UNL     1      -1.859  14.103   7.818  1.00  0.00    -0.248 NA
ATOM     58  C   UNL     1      -2.309  13.758  10.081  1.00  0.00     0.031 C 
ATOM     59  C   UNL     1      -3.337  17.567   5.486  1.00  0.00     0.029 A 
ATOM     60  C   UNL     1      -2.910  16.487   6.242  1.00  0.00     0.049 A 
ATOM     61  H   UNL     1      -1.651  14.886   5.692  1.00  0.00     0.167 HD
ATOM     62  C   UNL     1      -2.704  15.109   8.281  1.00  0.00     0.074 A 
ATOM     63  C   UNL     1      -2.981  14.824   9.670  1.00  0.00     0.031 C 
ATOM     64  C   UNL     1      -3.201  16.180   7.615  1.00  0.00     0.031 A 
BRANCH  51  65
ATOM     65  C   UNL     1      -1.338  16.450   1.745  1.00  0.00    -0.014 A 
ATOM     66  C   UNL     1      -2.021  15.876   0.661  1.00  0.00     0.009 A 
ATOM     67  C   UNL     1      -0.657  17.662   1.566  1.00  0.00     0.009 A 
ATOM     68  C   UNL     1      -1.990  16.488  -0.591  1.00  0.00     0.001 A 
ATOM     69  C   UNL     1      -0.650  18.285   0.319  1.00  0.00     0.001 A 
ATOM     70  C   UNL     1      -1.307  17.693  -0.760  1.00  0.00     0.000 A 
ENDBRANCH  51  65
BRANCH  52  71
ATOM     71  C   UNL     1      -0.840  11.259  10.200  1.00  0.00    -0.014 A 
ATOM     72  C   UNL     1      -2.029  10.698  10.704  1.00  0.00     0.009 A 
ATOM     73  C   UNL     1       0.314  11.199  10.997  1.00  0.00     0.009 A 
ATOM     74  C   UNL     1      -2.070  10.140  11.988  1.00  0.00     0.001 A 
ATOM     75  C   UNL     1       0.277  10.611  12.266  1.00  0.00     0.001 A 
ATOM     76  C   UNL     1      -0.917  10.096  12.767  1.00  0.00     0.000 A 
ENDBRANCH  52  71
BRANCH  64  77
ATOM     77  C   UNL     1      -4.134  17.105   8.348  1.00  0.00    -0.014 A 
ATOM     78  C   UNL     1      -3.663  17.997   9.323  1.00  0.00     0.009 A 
ATOM     79  C   UNL     1      -5.492  17.144   7.991  1.00  0.00     0.009 A 
ATOM     80  C   UNL     1      -4.538  18.893   9.942  1.00  0.00     0.001 A 
ATOM     81  C   UNL     1      -6.358  18.058   8.592  1.00  0.00     0.001 A 
ATOM     82  C   UNL     1      -5.882  18.928   9.571  1.00  0.00     0.000 A 
ENDBRANCH  64  77
ENDBRANCH  38  39
ENDBRANCH  31  33
ENDBRANCH  30  31
ENDBRANCH  29  30
ENDBRANCH   1  29
TORSDOF 16
