REMARK SMILES CCCCCCNC(=O)Oc1cccc(-c2ccc([C@@H](C)C(=O)OCCOC(=O)c3ccc(-c4c5nc(c(-c6ccccc6)c6ccc([nH]6)c(-c6ccccc6)c6nc(c(-c7ccccc7)c7ccc4[nH]7)C=C6)C=C5)cc3)cc2N)c1
REMARK SMILES IDX 20 1 21 2 19 3 16 4 17 5 79 6 18 7 78 8 15 9 11 10 12 11
REMARK SMILES IDX 81 12 13 13 14 14 10 15 8 16 7 17 9 19 6 20 5 21 4 22 3 23
REMARK SMILES IDX 2 24 1 25 80 26 22 29 23 30 24 31 25 32 26 33 27 34 28 35
REMARK SMILES IDX 29 36 30 37 31 38 77 39 32 40 76 41 33 42 34 43 35 44 70 45
REMARK SMILES IDX 36 46 75 47 69 48 71 49 37 50 74 51 68 52 67 53 38 55 60 56
REMARK SMILES IDX 45 57 59 58 46 59 49 60 58 61 72 62 47 63 48 64 57 66 73 67
REMARK SMILES IDX 50 68 39 69 40 70 44 71 41 72 43 73 42 74 61 75 62 76 66 77
REMARK SMILES IDX 63 78 65 79 64 80 51 81 52 82 56 83 53 84 55 85 54 86
REMARK H PARENT 7 18 80 27 80 28 71 54 49 65
REMARK Flexibility Score: inf
ROOT
ATOM      1  C   UNL     1      -4.921  -5.188  12.871  1.00  0.00     0.126 C 
ATOM      2  C   UNL     1      -6.236  -5.667  13.481  1.00  0.00     0.025 C 
ENDROOT
BRANCH   1   3
ATOM      3  C   UNL     1      -4.912  -5.286  11.353  1.00  0.00    -0.032 A 
ATOM      4  C   UNL     1      -4.970  -5.380   8.509  1.00  0.00     0.005 A 
ATOM      5  C   UNL     1      -5.135  -6.541   9.290  1.00  0.00     0.011 A 
ATOM      6  C   UNL     1      -4.738  -4.155   9.173  1.00  0.00     0.040 A 
ATOM      7  C   UNL     1      -5.114  -6.496  10.686  1.00  0.00     0.005 A 
ATOM      8  C   UNL     1      -4.731  -4.128  10.579  1.00  0.00     0.030 A 
BRANCH   4   9
ATOM      9  C   UNL     1      -5.068  -5.494   7.038  1.00  0.00    -0.013 A 
ATOM     10  C   UNL     1      -4.176  -5.151   4.808  1.00  0.00     0.133 A 
ATOM     11  C   UNL     1      -5.339  -5.659   4.233  1.00  0.00     0.047 A 
ATOM     12  C   UNL     1      -4.027  -5.072   6.194  1.00  0.00     0.056 A 
ATOM     13  C   UNL     1      -6.365  -6.109   5.057  1.00  0.00     0.004 A 
ATOM     14  C   UNL     1      -6.233  -6.020   6.445  1.00  0.00     0.009 A 
BRANCH  10  15
ATOM     15  O   UNL     1      -3.239  -4.583   3.925  1.00  0.00    -0.410 OA
BRANCH  15  16
ATOM     16  C   UNL     1      -1.897  -4.906   4.048  1.00  0.00     0.412 C 
ATOM     17  N   UNL     1      -1.100  -4.215   3.176  1.00  0.00    -0.321 N 
ATOM     18  H   UNL     1      -0.135  -4.405   3.216  1.00  0.00     0.167 HD
ATOM     19  O   UNL     1      -1.419  -5.722   4.826  1.00  0.00    -0.224 OA
BRANCH  17  20
ATOM     20  C   UNL     1      -1.527  -3.232   2.199  1.00  0.00     0.119 C 
BRANCH  20  21
ATOM     21  C   UNL     1      -0.934  -1.850   2.474  1.00  0.00     0.021 C 
BRANCH  21  22
ATOM     22  C   UNL     1       0.595  -1.772   2.380  1.00  0.00     0.002 C 
BRANCH  22  23
ATOM     23  C   UNL     1       1.199  -2.193   1.035  1.00  0.00    -0.000 C 
BRANCH  23  24
ATOM     24  C   UNL     1       0.715  -1.400  -0.182  1.00  0.00    -0.003 C 
ATOM     25  C   UNL     1       1.080   0.075  -0.125  1.00  0.00     0.004 C 
ENDBRANCH  23  24
ENDBRANCH  22  23
ENDBRANCH  21  22
ENDBRANCH  20  21
ENDBRANCH  17  20
ENDBRANCH  15  16
ENDBRANCH  10  15
ENDBRANCH   4   9
BRANCH   6  26
ATOM     26  N   UNL     1      -4.676  -2.934   8.498  1.00  0.00    -0.398 N 
ATOM     27  H   UNL     1      -4.679  -2.915   7.513  1.00  0.00     0.156 HD
ATOM     28  H   UNL     1      -4.630  -2.092   9.006  1.00  0.00     0.156 HD
ENDBRANCH   6  26
ENDBRANCH   1   3
BRANCH   1  29
ATOM     29  C   UNL     1      -3.744  -5.836  13.591  1.00  0.00     0.313 C 
ATOM     30  O   UNL     1      -3.308  -5.395  14.650  1.00  0.00    -0.252 OA
BRANCH  29  31
ATOM     31  O   UNL     1      -3.273  -6.951  12.976  1.00  0.00    -0.462 OA
BRANCH  31  32
ATOM     32  C   UNL     1      -2.128  -7.590  13.572  1.00  0.00     0.274 C 
BRANCH  32  33
ATOM     33  C   UNL     1      -0.833  -7.196  12.858  1.00  0.00     0.275 C 
BRANCH  33  34
ATOM     34  O   UNL     1      -0.497  -5.819  13.113  1.00  0.00    -0.458 OA
BRANCH  34  35
ATOM     35  C   UNL     1      -0.879  -4.951  12.149  1.00  0.00     0.338 C 
ATOM     36  O   UNL     1      -1.416  -5.207  11.087  1.00  0.00    -0.246 OA
BRANCH  35  37
ATOM     37  C   UNL     1      -0.653  -3.574  12.606  1.00  0.00     0.060 A 
ATOM     38  C   UNL     1      -1.769  -2.771  12.850  1.00  0.00     0.016 A 
ATOM     39  C   UNL     1       0.636  -3.047  12.688  1.00  0.00     0.016 A 
ATOM     40  C   UNL     1      -1.606  -1.423  13.155  1.00  0.00     0.010 A 
ATOM     41  C   UNL     1       0.800  -1.694  13.002  1.00  0.00     0.010 A 
ATOM     42  C   UNL     1      -0.321  -0.871  13.216  1.00  0.00    -0.014 A 
BRANCH  42  43
ATOM     43  C   UNL     1      -0.160   0.585  13.431  1.00  0.00     0.031 A 
ATOM     44  C   UNL     1       0.214   1.471  12.278  1.00  0.00     0.074 A 
ATOM     45  C   UNL     1      -0.381   1.116  14.648  1.00  0.00     0.049 A 
ATOM     46  N   UNL     1       0.459   2.757  12.268  1.00  0.00    -0.248 NA
ATOM     47  C   UNL     1       0.327   0.825  10.960  1.00  0.00     0.031 C 
ATOM     48  C   UNL     1      -0.801   0.369  15.834  1.00  0.00     0.029 A 
ATOM     49  N   UNL     1      -0.283   2.413  15.083  1.00  0.00    -0.354 N 
ATOM     50  C   UNL     1       0.775   3.070  10.953  1.00  0.00     0.074 A 
ATOM     51  C   UNL     1       0.705   1.839  10.194  1.00  0.00     0.031 C 
ATOM     52  C   UNL     1      -0.930   1.223  16.863  1.00  0.00     0.029 A 
ATOM     53  C   UNL     1      -0.560   2.564  16.419  1.00  0.00     0.049 A 
ATOM     54  H   UNL     1      -0.037   3.163  14.494  1.00  0.00     0.167 HD
ATOM     55  C   UNL     1       1.096   4.274  10.424  1.00  0.00     0.031 A 
ATOM     56  C   UNL     1      -0.499   3.658  17.202  1.00  0.00     0.031 A 
ATOM     57  C   UNL     1       1.165   5.499  11.176  1.00  0.00     0.049 A 
ATOM     58  C   UNL     1      -0.079   4.971  16.603  1.00  0.00     0.074 A 
ATOM     59  C   UNL     1       1.479   6.770  10.727  1.00  0.00     0.029 A 
ATOM     60  N   UNL     1       0.915   5.603  12.535  1.00  0.00    -0.354 N 
ATOM     61  N   UNL     1       0.226   5.252  15.360  1.00  0.00    -0.248 NA
ATOM     62  C   UNL     1       0.007   6.117  17.520  1.00  0.00     0.031 C 
ATOM     63  C   UNL     1       1.457   7.638  11.825  1.00  0.00     0.029 A 
ATOM     64  C   UNL     1       1.086   6.914  12.946  1.00  0.00     0.049 A 
ATOM     65  H   UNL     1       0.655   4.856  13.120  1.00  0.00     0.167 HD
ATOM     66  C   UNL     1       0.521   6.608  15.340  1.00  0.00     0.074 A 
ATOM     67  C   UNL     1       0.344   7.097  16.692  1.00  0.00     0.031 C 
ATOM     68  C   UNL     1       0.906   7.381  14.296  1.00  0.00     0.031 A 
BRANCH  55  69
ATOM     69  C   UNL     1       1.435   4.316   8.962  1.00  0.00    -0.014 A 
ATOM     70  C   UNL     1       0.439   4.214   7.979  1.00  0.00     0.009 A 
ATOM     71  C   UNL     1       2.771   4.488   8.565  1.00  0.00     0.009 A 
ATOM     72  C   UNL     1       0.778   4.255   6.625  1.00  0.00     0.001 A 
ATOM     73  C   UNL     1       3.104   4.551   7.211  1.00  0.00     0.001 A 
ATOM     74  C   UNL     1       2.109   4.427   6.242  1.00  0.00     0.000 A 
ENDBRANCH  55  69
BRANCH  56  75
ATOM     75  C   UNL     1      -0.816   3.553  18.649  1.00  0.00    -0.014 A 
ATOM     76  C   UNL     1      -1.988   4.122  19.168  1.00  0.00     0.009 A 
ATOM     77  C   UNL     1       0.062   2.889  19.521  1.00  0.00     0.009 A 
ATOM     78  C   UNL     1      -2.265   4.047  20.535  1.00  0.00     0.001 A 
ATOM     79  C   UNL     1      -0.230   2.793  20.883  1.00  0.00     0.001 A 
ATOM     80  C   UNL     1      -1.388   3.379  21.390  1.00  0.00     0.000 A 
ENDBRANCH  56  75
BRANCH  68  81
ATOM     81  C   UNL     1       1.132   8.839  14.571  1.00  0.00    -0.014 A 
ATOM     82  C   UNL     1       2.282   9.281  15.243  1.00  0.00     0.009 A 
ATOM     83  C   UNL     1       0.198   9.784  14.120  1.00  0.00     0.009 A 
ATOM     84  C   UNL     1       2.477  10.642  15.483  1.00  0.00     0.001 A 
ATOM     85  C   UNL     1       0.408  11.146  14.341  1.00  0.00     0.001 A 
ATOM     86  C   UNL     1       1.543  11.573  15.029  1.00  0.00     0.000 A 
ENDBRANCH  68  81
ENDBRANCH  42  43
ENDBRANCH  35  37
ENDBRANCH  34  35
ENDBRANCH  33  34
ENDBRANCH  32  33
ENDBRANCH  31  32
ENDBRANCH  29  31
ENDBRANCH   1  29
TORSDOF 21
