REMARK SMILES CCC(=O)Nc1ccc(-c2ccc(C(=O)OCCOC(=O)c3ccc(-c4c5nc(c(-c6ccccc6)c6ccc([nH]6)c(-c6ccccc6)c6nc(c(-c7ccccc7)c7ccc4[nH]7)C=C6)C=C5)cc3)cc2)nc1
REMARK SMILES IDX 17 1 16 2 14 3 15 4 13 5 10 6 11 7 71 8 12 9 70 10 9 11 6 12
REMARK SMILES IDX 7 13 73 14 8 15 72 16 5 17 3 18 4 19 2 21 1 22 18 23 19 24
REMARK SMILES IDX 20 25 21 26 22 27 23 28 69 29 24 30 68 31 25 32 26 33 27 34
REMARK SMILES IDX 62 35 28 36 67 37 61 38 63 39 29 40 66 41 60 42 59 43 30 45
REMARK SMILES IDX 52 46 37 47 51 48 38 49 41 50 50 51 64 52 39 53 40 54 49 56
REMARK SMILES IDX 65 57 42 58 31 59 32 60 36 61 33 62 35 63 34 64 53 65 54 66
REMARK SMILES IDX 58 67 55 68 57 69 56 70 43 71 44 72 48 73 45 74 47 75 46 76
REMARK H PARENT 5 20 63 44 41 55
REMARK Flexibility Score: inf
ROOT
ATOM      1  C   UNL     1      11.091   2.756   4.928  1.00  0.00     0.275 C 
ENDROOT
BRANCH   1   2
ATOM      2  O   UNL     1      10.126   2.176   4.027  1.00  0.00    -0.458 OA
BRANCH   2   3
ATOM      3  C   UNL     1       9.027   2.927   3.774  1.00  0.00     0.338 C 
ATOM      4  O   UNL     1       8.757   4.016   4.258  1.00  0.00    -0.246 OA
BRANCH   3   5
ATOM      5  C   UNL     1       8.199   2.289   2.727  1.00  0.00     0.060 A 
ATOM      6  C   UNL     1       6.486   1.170   0.790  1.00  0.00     0.000 A 
ATOM      7  C   UNL     1       6.791   2.534   0.765  1.00  0.00     0.011 A 
ATOM      8  C   UNL     1       7.088   0.369   1.780  1.00  0.00     0.011 A 
ATOM      9  C   UNL     1       7.602   3.092   1.749  1.00  0.00     0.016 A 
ATOM     10  C   UNL     1       7.951   0.918   2.735  1.00  0.00     0.016 A 
BRANCH   6  11
ATOM     11  C   UNL     1       5.463   0.644  -0.119  1.00  0.00     0.070 A 
ATOM     12  C   UNL     1       3.401  -0.045  -1.809  1.00  0.00     0.059 A 
ATOM     13  C   UNL     1       3.376  -0.470  -0.489  1.00  0.00     0.030 A 
ATOM     14  C   UNL     1       4.529   0.640  -2.241  1.00  0.00     0.137 A 
ATOM     15  C   UNL     1       4.405  -0.113   0.371  1.00  0.00     0.031 A 
ATOM     16  N   UNL     1       5.542   1.016  -1.422  1.00  0.00    -0.254 NA
BRANCH  12  17
ATOM     17  N   UNL     1       2.375  -0.383  -2.698  1.00  0.00    -0.325 N 
ATOM     18  C   UNL     1       1.024  -0.410  -2.463  1.00  0.00     0.224 C 
ATOM     19  O   UNL     1       0.304  -1.111  -3.176  1.00  0.00    -0.275 OA
ATOM     20  H   UNL     1       2.658  -0.632  -3.607  1.00  0.00     0.169 HD
BRANCH  18  21
ATOM     21  C   UNL     1       0.420   0.574  -1.467  1.00  0.00     0.097 C 
ATOM     22  C   UNL     1       0.288   0.107  -0.032  1.00  0.00     0.014 C 
ENDBRANCH  18  21
ENDBRANCH  12  17
ENDBRANCH   6  11
ENDBRANCH   3   5
ENDBRANCH   2   3
ENDBRANCH   1   2
BRANCH   1  23
ATOM     23  C   UNL     1      12.285   3.322   4.160  1.00  0.00     0.275 C 
BRANCH  23  24
ATOM     24  O   UNL     1      11.882   4.455   3.369  1.00  0.00    -0.458 OA
BRANCH  24  25
ATOM     25  C   UNL     1      11.855   4.253   2.031  1.00  0.00     0.338 C 
ATOM     26  O   UNL     1      12.181   3.251   1.421  1.00  0.00    -0.246 OA
BRANCH  25  27
ATOM     27  C   UNL     1      11.293   5.436   1.362  1.00  0.00     0.060 A 
ATOM     28  C   UNL     1       9.942   5.706   1.532  1.00  0.00     0.016 A 
ATOM     29  C   UNL     1      12.039   6.183   0.455  1.00  0.00     0.016 A 
ATOM     30  C   UNL     1       9.298   6.627   0.717  1.00  0.00     0.010 A 
ATOM     31  C   UNL     1      11.421   7.225  -0.251  1.00  0.00     0.010 A 
ATOM     32  C   UNL     1      10.035   7.449  -0.143  1.00  0.00    -0.014 A 
BRANCH  32  33
ATOM     33  C   UNL     1       9.363   8.569  -0.864  1.00  0.00     0.031 A 
ATOM     34  C   UNL     1       9.482   8.713  -2.359  1.00  0.00     0.074 A 
ATOM     35  C   UNL     1       8.644   9.476  -0.166  1.00  0.00     0.049 A 
ATOM     36  N   UNL     1       9.144   9.726  -3.120  1.00  0.00    -0.248 NA
ATOM     37  C   UNL     1      10.065   7.581  -3.097  1.00  0.00     0.031 C 
ATOM     38  C   UNL     1       8.395   9.439   1.280  1.00  0.00     0.029 A 
ATOM     39  N   UNL     1       7.984  10.610  -0.575  1.00  0.00    -0.354 N 
ATOM     40  C   UNL     1       9.513   9.373  -4.413  1.00  0.00     0.074 A 
ATOM     41  C   UNL     1      10.108   8.056  -4.336  1.00  0.00     0.031 C 
ATOM     42  C   UNL     1       7.606  10.464   1.625  1.00  0.00     0.029 A 
ATOM     43  C   UNL     1       7.398  11.306   0.457  1.00  0.00     0.049 A 
ATOM     44  H   UNL     1       7.936  10.897  -1.516  1.00  0.00     0.167 HD
ATOM     45  C   UNL     1       9.372  10.087  -5.556  1.00  0.00     0.031 A 
ATOM     46  C   UNL     1       6.820  12.520   0.491  1.00  0.00     0.031 A 
ATOM     47  C   UNL     1       8.760  11.390  -5.627  1.00  0.00     0.049 A 
ATOM     48  C   UNL     1       6.773  13.331  -0.769  1.00  0.00     0.074 A 
ATOM     49  C   UNL     1       8.565  12.192  -6.739  1.00  0.00     0.029 A 
ATOM     50  N   UNL     1       8.239  12.078  -4.543  1.00  0.00    -0.354 N 
ATOM     51  N   UNL     1       7.160  13.002  -1.977  1.00  0.00    -0.248 NA
ATOM     52  C   UNL     1       6.231  14.692  -0.657  1.00  0.00     0.031 C 
ATOM     53  C   UNL     1       7.981  13.390  -6.318  1.00  0.00     0.029 A 
ATOM     54  C   UNL     1       7.754  13.309  -4.954  1.00  0.00     0.049 A 
ATOM     55  H   UNL     1       8.216  11.742  -3.618  1.00  0.00     0.167 HD
ATOM     56  C   UNL     1       6.900  14.109  -2.770  1.00  0.00     0.074 A 
ATOM     57  C   UNL     1       6.291  15.106  -1.914  1.00  0.00     0.031 C 
ATOM     58  C   UNL     1       7.154  14.290  -4.088  1.00  0.00     0.031 A 
BRANCH  45  59
ATOM     59  C   UNL     1       9.922   9.501  -6.829  1.00  0.00    -0.014 A 
ATOM     60  C   UNL     1       9.299   8.422  -7.473  1.00  0.00     0.009 A 
ATOM     61  C   UNL     1      11.046  10.091  -7.432  1.00  0.00     0.009 A 
ATOM     62  C   UNL     1       9.802   7.933  -8.682  1.00  0.00     0.001 A 
ATOM     63  C   UNL     1      11.530   9.618  -8.653  1.00  0.00     0.001 A 
ATOM     64  C   UNL     1      10.912   8.535  -9.274  1.00  0.00     0.000 A 
ENDBRANCH  45  59
BRANCH  46  65
ATOM     65  C   UNL     1       6.330  13.083   1.779  1.00  0.00    -0.014 A 
ATOM     66  C   UNL     1       4.966  13.341   1.978  1.00  0.00     0.009 A 
ATOM     67  C   UNL     1       7.233  13.383   2.814  1.00  0.00     0.009 A 
ATOM     68  C   UNL     1       4.521  13.909   3.175  1.00  0.00     0.001 A 
ATOM     69  C   UNL     1       6.780  13.913   4.024  1.00  0.00     0.001 A 
ATOM     70  C   UNL     1       5.426  14.188   4.198  1.00  0.00     0.000 A 
ENDBRANCH  46  65
BRANCH  58  71
ATOM     71  C   UNL     1       6.748  15.607  -4.682  1.00  0.00    -0.014 A 
ATOM     72  C   UNL     1       7.455  16.783  -4.389  1.00  0.00     0.009 A 
ATOM     73  C   UNL     1       5.659  15.667  -5.565  1.00  0.00     0.009 A 
ATOM     74  C   UNL     1       7.059  18.000  -4.944  1.00  0.00     0.001 A 
ATOM     75  C   UNL     1       5.285  16.880  -6.144  1.00  0.00     0.001 A 
ATOM     76  C   UNL     1       5.978  18.046  -5.825  1.00  0.00     0.000 A 
ENDBRANCH  58  71
ENDBRANCH  32  33
ENDBRANCH  25  27
ENDBRANCH  24  25
ENDBRANCH  23  24
ENDBRANCH   1  23
TORSDOF 14
