REMARK SMILES CCOc1cc(N2CCOCC2)ccc1[C@H]([NH3+])C(=O)OCCOC(=O)c1ccc(-c2c3nc(c(-c4ccccc4)c4ccc([nH]4)c(-c4ccccc4)c4nc(c(-c5ccccc5)c5ccc2[nH]5)C=C4)C=C3)cc1
REMARK SMILES IDX 21 1 20 2 18 3 19 4 16 5 15 6 4 7 5 8 6 9 14 10 13 11 3 12
REMARK SMILES IDX 2 13 1 14 7 15 8 16 12 17 9 18 11 19 10 20 17 21 22 25 23 26
REMARK SMILES IDX 24 27 25 28 26 29 27 30 73 31 28 32 72 33 29 34 30 35 31 36
REMARK SMILES IDX 66 37 32 38 71 39 65 40 67 41 33 42 70 43 64 44 63 45 34 47
REMARK SMILES IDX 56 48 41 49 55 50 42 51 45 52 54 53 68 54 43 55 44 56 53 58
REMARK SMILES IDX 69 59 46 60 35 61 36 62 40 63 37 64 39 65 38 66 57 67 58 68
REMARK SMILES IDX 62 69 59 70 61 71 60 72 47 73 48 74 52 75 49 76 51 77 50 78
REMARK H PARENT 17 22 17 23 17 24 67 46 45 57
REMARK Flexibility Score: inf
ROOT
ATOM      1  C   UNL     1       5.235   1.382  -1.510  1.00  0.00     0.274 C 
ENDROOT
BRANCH   1   2
ATOM      2  O   UNL     1       4.443   0.715  -0.510  1.00  0.00    -0.457 OA
BRANCH   2   3
ATOM      3  C   UNL     1       3.264   1.329  -0.196  1.00  0.00     0.370 C 
ATOM      4  O   UNL     1       2.885   2.396  -0.671  1.00  0.00    -0.245 OA
BRANCH   3   5
ATOM      5  C   UNL     1       2.459   0.542   0.848  1.00  0.00     0.326 C 
BRANCH   5   6
ATOM      6  C   UNL     1       2.885   0.831   2.272  1.00  0.00     0.063 A 
ATOM      7  C   UNL     1       3.276  -0.134   3.208  1.00  0.00     0.131 A 
ATOM      8  C   UNL     1       3.282   0.167   4.575  1.00  0.00     0.072 A 
ATOM      9  C   UNL     1       2.943   1.448   5.028  1.00  0.00     0.040 A 
ATOM     10  C   UNL     1       2.713   2.151   2.723  1.00  0.00     0.016 A 
ATOM     11  C   UNL     1       2.753   2.454   4.081  1.00  0.00     0.027 A 
BRANCH   7  12
ATOM     12  O   UNL     1       3.466  -1.438   2.829  1.00  0.00    -0.493 OA
BRANCH  12  13
ATOM     13  C   UNL     1       4.854  -1.744   2.628  1.00  0.00     0.226 C 
ATOM     14  C   UNL     1       5.001  -2.574   1.360  1.00  0.00     0.049 C 
ENDBRANCH  12  13
ENDBRANCH   7  12
BRANCH   9  15
ATOM     15  N   UNL     1       2.674   1.651   6.370  1.00  0.00    -0.367 N 
ATOM     16  C   UNL     1       1.315   2.087   6.739  1.00  0.00     0.145 C 
ATOM     17  C   UNL     1       3.736   2.118   7.264  1.00  0.00     0.145 C 
ATOM     18  C   UNL     1       1.277   3.594   7.044  1.00  0.00     0.181 C 
ATOM     19  C   UNL     1       3.592   3.627   7.525  1.00  0.00     0.181 C 
ATOM     20  O   UNL     1       2.278   3.966   8.005  1.00  0.00    -0.378 OA
ENDBRANCH   9  15
ENDBRANCH   5   6
BRANCH   5  21
ATOM     21  N   UNL     1       2.304  -0.877   0.477  1.00  0.00    -0.342 N 
ATOM     22  H   UNL     1       3.220  -1.327   0.462  1.00  0.00     0.345 HD
ATOM     23  H   UNL     1       1.878  -0.943  -0.447  1.00  0.00     0.345 HD
ATOM     24  H   UNL     1       1.708  -1.344   1.160  1.00  0.00     0.345 HD
ENDBRANCH   5  21
ENDBRANCH   3   5
ENDBRANCH   2   3
ENDBRANCH   1   2
BRANCH   1  25
ATOM     25  C   UNL     1       5.087   0.726  -2.887  1.00  0.00     0.275 C 
BRANCH  25  26
ATOM     26  O   UNL     1       3.724   0.749  -3.356  1.00  0.00    -0.458 OA
BRANCH  26  27
ATOM     27  C   UNL     1       3.001  -0.348  -3.034  1.00  0.00     0.338 C 
ATOM     28  O   UNL     1       3.406  -1.344  -2.444  1.00  0.00    -0.246 OA
BRANCH  27  29
ATOM     29  C   UNL     1       1.578  -0.134  -3.346  1.00  0.00     0.060 A 
ATOM     30  C   UNL     1       0.673  -0.215  -2.289  1.00  0.00     0.016 A 
ATOM     31  C   UNL     1       1.110   0.050  -4.647  1.00  0.00     0.016 A 
ATOM     32  C   UNL     1      -0.690  -0.129  -2.500  1.00  0.00     0.010 A 
ATOM     33  C   UNL     1      -0.272   0.132  -4.870  1.00  0.00     0.010 A 
ATOM     34  C   UNL     1      -1.175   0.031  -3.795  1.00  0.00    -0.014 A 
BRANCH  34  35
ATOM     35  C   UNL     1      -2.638  -0.013  -3.989  1.00  0.00     0.031 A 
ATOM     36  C   UNL     1      -3.272  -1.271  -4.500  1.00  0.00     0.074 A 
ATOM     37  C   UNL     1      -3.396   1.021  -3.584  1.00  0.00     0.049 A 
ATOM     38  N   UNL     1      -4.523  -1.501  -4.798  1.00  0.00    -0.248 NA
ATOM     39  C   UNL     1      -2.381  -2.428  -4.686  1.00  0.00     0.031 C 
ATOM     40  C   UNL     1      -2.893   2.242  -2.950  1.00  0.00     0.029 A 
ATOM     41  N   UNL     1      -4.754   1.198  -3.625  1.00  0.00    -0.354 N 
ATOM     42  C   UNL     1      -4.567  -2.819  -5.233  1.00  0.00     0.074 A 
ATOM     43  C   UNL     1      -3.218  -3.338  -5.162  1.00  0.00     0.031 C 
ATOM     44  C   UNL     1      -3.932   3.042  -2.659  1.00  0.00     0.029 A 
ATOM     45  C   UNL     1      -5.160   2.415  -3.137  1.00  0.00     0.049 A 
ATOM     46  H   UNL     1      -5.377   0.519  -3.970  1.00  0.00     0.167 HD
ATOM     47  C   UNL     1      -5.639  -3.527  -5.659  1.00  0.00     0.031 A 
ATOM     48  C   UNL     1      -6.384   2.976  -3.117  1.00  0.00     0.031 A 
ATOM     49  C   UNL     1      -6.974  -2.999  -5.726  1.00  0.00     0.049 A 
ATOM     50  C   UNL     1      -7.541   2.206  -3.687  1.00  0.00     0.074 A 
ATOM     51  C   UNL     1      -8.123  -3.607  -6.199  1.00  0.00     0.029 A 
ATOM     52  N   UNL     1      -7.338  -1.733  -5.292  1.00  0.00    -0.354 N 
ATOM     53  N   UNL     1      -7.561   0.991  -4.180  1.00  0.00    -0.248 NA
ATOM     54  C   UNL     1      -8.842   2.889  -3.710  1.00  0.00     0.031 C 
ATOM     55  C   UNL     1      -9.178  -2.694  -6.083  1.00  0.00     0.029 A 
ATOM     56  C   UNL     1      -8.692  -1.536  -5.496  1.00  0.00     0.049 A 
ATOM     57  H   UNL     1      -6.724  -1.073  -4.897  1.00  0.00     0.167 HD
ATOM     58  C   UNL     1      -8.874   0.759  -4.564  1.00  0.00     0.074 A 
ATOM     59  C   UNL     1      -9.626   1.952  -4.225  1.00  0.00     0.031 C 
ATOM     60  C   UNL     1      -9.412  -0.338  -5.151  1.00  0.00     0.031 A 
BRANCH  47  61
ATOM     61  C   UNL     1      -5.388  -4.925  -6.141  1.00  0.00    -0.014 A 
ATOM     62  C   UNL     1      -5.139  -5.975  -5.244  1.00  0.00     0.009 A 
ATOM     63  C   UNL     1      -5.404  -5.195  -7.519  1.00  0.00     0.009 A 
ATOM     64  C   UNL     1      -4.885  -7.264  -5.721  1.00  0.00     0.001 A 
ATOM     65  C   UNL     1      -5.171  -6.487  -7.991  1.00  0.00     0.001 A 
ATOM     66  C   UNL     1      -4.903  -7.519  -7.092  1.00  0.00     0.000 A 
ENDBRANCH  47  61
BRANCH  48  67
ATOM     67  C   UNL     1      -6.559   4.360  -2.608  1.00  0.00    -0.014 A 
ATOM     68  C   UNL     1      -7.264   4.610  -1.422  1.00  0.00     0.009 A 
ATOM     69  C   UNL     1      -6.023   5.445  -3.320  1.00  0.00     0.009 A 
ATOM     70  C   UNL     1      -7.444   5.921  -0.971  1.00  0.00     0.001 A 
ATOM     71  C   UNL     1      -6.179   6.751  -2.853  1.00  0.00     0.001 A 
ATOM     72  C   UNL     1      -6.897   6.988  -1.683  1.00  0.00     0.000 A 
ENDBRANCH  48  67
BRANCH  60  73
ATOM     73  C   UNL     1     -10.883  -0.299  -5.438  1.00  0.00    -0.014 A 
ATOM     74  C   UNL     1     -11.391   0.446  -6.513  1.00  0.00     0.009 A 
ATOM     75  C   UNL     1     -11.766  -1.045  -4.643  1.00  0.00     0.009 A 
ATOM     76  C   UNL     1     -12.763   0.465  -6.768  1.00  0.00     0.001 A 
ATOM     77  C   UNL     1     -13.134  -1.041  -4.915  1.00  0.00     0.001 A 
ATOM     78  C   UNL     1     -13.632  -0.280  -5.972  1.00  0.00     0.000 A 
ENDBRANCH  60  73
ENDBRANCH  34  35
ENDBRANCH  27  29
ENDBRANCH  26  27
ENDBRANCH  25  26
ENDBRANCH   1  25
TORSDOF 16
