REMARK SMILES Cc1cc(C)n(CC(=O)N[C@@H]2C(=O)N3C(C(=O)OCCOC(=O)c4ccc(-c5c6nc(c(-c7ccccc7)c7ccc([nH]7)c(-c7ccccc7)c7nc(c(-c8ccccc8)c8ccc5[nH]8)C=C7)C=C6)cc4)=C(CSc4nnc(C)s4)CS[C@H]23)n1
REMARK SMILES IDX 19 1 18 2 16 3 17 4 15 5 11 6 12 7 83 8 13 9 14 10 82 11
REMARK SMILES IDX 81 12 72 13 10 14 8 15 9 16 7 18 6 19 1 20 2 21 3 22 84 23
REMARK SMILES IDX 4 24 5 25 73 26 74 27 75 28 76 29 80 30 77 31 78 32 79 33
REMARK SMILES IDX 20 34 21 35 22 36 23 37 24 38 25 39 71 40 26 41 70 42 27 43
REMARK SMILES IDX 28 44 29 45 64 46 30 47 69 48 63 49 65 50 31 51 68 52 62 53
REMARK SMILES IDX 61 54 32 56 54 57 39 58 53 59 40 60 43 61 52 62 66 63 41 64
REMARK SMILES IDX 42 65 51 67 67 68 44 69 33 70 34 71 38 72 35 73 37 74 36 75
REMARK SMILES IDX 55 76 56 77 60 78 57 79 59 80 58 81 45 82 46 83 50 84 47 85
REMARK SMILES IDX 49 86 48 87
REMARK H PARENT 10 17 65 55 43 66
REMARK Flexibility Score: inf
ROOT
ATOM      1  C   UNL     1      -0.262  -2.559   0.474  1.00  0.00     0.275 C 
ENDROOT
BRANCH   1   2
ATOM      2  O   UNL     1      -1.163  -1.600  -0.121  1.00  0.00    -0.457 OA
BRANCH   2   3
ATOM      3  C   UNL     1      -1.615  -0.604   0.672  1.00  0.00     0.355 C 
ATOM      4  O   UNL     1      -1.346  -0.478   1.861  1.00  0.00    -0.244 OA
BRANCH   3   5
ATOM      5  C   UNL     1      -2.546   0.352  -0.050  1.00  0.00     0.132 C 
ATOM      6  C   UNL     1      -2.532   3.602   1.012  1.00  0.00     0.205 C 
ATOM      7  C   UNL     1      -1.513   2.447   0.863  1.00  0.00     0.253 C 
ATOM      8  C   UNL     1      -3.587   2.558   0.546  1.00  0.00     0.181 C 
ATOM      9  O   UNL     1      -0.354   2.280   1.071  1.00  0.00    -0.272 OA
ATOM     10  N   UNL     1      -2.496   1.631   0.411  1.00  0.00    -0.289 N 
ATOM     11  S   UNL     1      -4.457   2.771  -0.982  1.00  0.00    -0.129 SA
ATOM     12  C   UNL     1      -4.370   1.088  -1.634  1.00  0.00     0.106 C 
ATOM     13  C   UNL     1      -3.392   0.061  -1.073  1.00  0.00    -0.019 C 
BRANCH   6  14
ATOM     14  N   UNL     1      -2.253   4.970   0.482  1.00  0.00    -0.340 N 
ATOM     15  C   UNL     1      -1.990   5.612  -0.688  1.00  0.00     0.242 C 
ATOM     16  O   UNL     1      -1.666   6.804  -0.556  1.00  0.00    -0.273 OA
ATOM     17  H   UNL     1      -2.261   5.620   1.222  1.00  0.00     0.164 HD
BRANCH  15  18
ATOM     18  C   UNL     1      -2.108   5.061  -2.078  1.00  0.00     0.244 C 
BRANCH  18  19
ATOM     19  N   UNL     1      -1.070   4.110  -2.374  1.00  0.00    -0.260 N 
ATOM     20  C   UNL     1      -0.194   0.741  -2.321  1.00  0.00     0.069 C 
ATOM     21  C   UNL     1      -0.230   2.188  -2.477  1.00  0.00     0.060 A 
ATOM     22  C   UNL     1       0.806   3.067  -2.805  1.00  0.00     0.048 A 
ATOM     23  N   UNL     1      -1.379   2.820  -2.257  1.00  0.00    -0.178 NA
ATOM     24  C   UNL     1       0.225   4.315  -2.776  1.00  0.00     0.036 A 
ATOM     25  C   UNL     1       0.818   5.637  -3.065  1.00  0.00     0.066 C 
ENDBRANCH  18  19
ENDBRANCH  15  18
ENDBRANCH   6  14
BRANCH  13  26
ATOM     26  C   UNL     1      -3.613  -1.300  -1.739  1.00  0.00     0.111 C 
BRANCH  26  27
ATOM     27  S   UNL     1      -2.402  -2.047  -2.856  1.00  0.00    -0.089 SA
BRANCH  27  28
ATOM     28  C   UNL     1      -2.143  -1.035  -4.261  1.00  0.00     0.174 A 
ATOM     29  N   UNL     1      -2.829   0.041  -4.574  1.00  0.00    -0.132 NA
ATOM     30  S   UNL     1      -0.804  -1.330  -5.319  1.00  0.00    -0.091 S 
ATOM     31  N   UNL     1      -2.248   0.747  -5.627  1.00  0.00    -0.143 NA
ATOM     32  C   UNL     1      -1.154   0.169  -6.083  1.00  0.00     0.115 A 
ATOM     33  C   UNL     1      -0.260   0.711  -7.149  1.00  0.00     0.081 C 
ENDBRANCH  27  28
ENDBRANCH  26  27
ENDBRANCH  13  26
ENDBRANCH   3   5
ENDBRANCH   2   3
ENDBRANCH   1   2
BRANCH   1  34
ATOM     34  C   UNL     1       1.183  -2.208   0.169  1.00  0.00     0.275 C 
BRANCH  34  35
ATOM     35  O   UNL     1       1.600  -1.100   0.973  1.00  0.00    -0.458 OA
BRANCH  35  36
ATOM     36  C   UNL     1       2.055  -0.072   0.237  1.00  0.00     0.338 C 
ATOM     37  O   UNL     1       2.104   0.012  -0.983  1.00  0.00    -0.246 OA
BRANCH  36  38
ATOM     38  C   UNL     1       2.853   0.849   1.024  1.00  0.00     0.060 A 
ATOM     39  C   UNL     1       2.650   2.198   0.733  1.00  0.00     0.016 A 
ATOM     40  C   UNL     1       4.118   0.327   1.318  1.00  0.00     0.016 A 
ATOM     41  C   UNL     1       3.743   2.985   0.495  1.00  0.00     0.010 A 
ATOM     42  C   UNL     1       5.218   1.121   1.090  1.00  0.00     0.010 A 
ATOM     43  C   UNL     1       5.014   2.413   0.603  1.00  0.00    -0.014 A 
BRANCH  43  44
ATOM     44  C   UNL     1       6.126   3.305   0.358  1.00  0.00     0.031 A 
ATOM     45  C   UNL     1       6.113   4.464   1.292  1.00  0.00     0.074 A 
ATOM     46  C   UNL     1       7.086   3.022  -0.540  1.00  0.00     0.049 A 
ATOM     47  N   UNL     1       6.148   5.724   1.011  1.00  0.00    -0.248 NA
ATOM     48  C   UNL     1       5.835   4.170   2.715  1.00  0.00     0.031 C 
ATOM     49  C   UNL     1       7.271   1.789  -1.312  1.00  0.00     0.029 A 
ATOM     50  N   UNL     1       8.204   3.733  -0.830  1.00  0.00    -0.354 N 
ATOM     51  C   UNL     1       6.064   6.379   2.237  1.00  0.00     0.074 A 
ATOM     52  C   UNL     1       5.703   5.393   3.219  1.00  0.00     0.031 C 
ATOM     53  C   UNL     1       8.556   1.724  -1.728  1.00  0.00     0.029 A 
ATOM     54  C   UNL     1       9.226   2.961  -1.365  1.00  0.00     0.049 A 
ATOM     55  H   UNL     1       8.284   4.702  -0.677  1.00  0.00     0.167 HD
ATOM     56  C   UNL     1       6.570   7.627   2.410  1.00  0.00     0.031 A 
ATOM     57  C   UNL     1      10.543   3.283  -1.390  1.00  0.00     0.031 A 
ATOM     58  C   UNL     1       6.661   8.342   1.167  1.00  0.00     0.049 A 
ATOM     59  C   UNL     1      10.654   4.740  -1.132  1.00  0.00     0.074 A 
ATOM     60  C   UNL     1       5.741   8.765   0.230  1.00  0.00     0.029 A 
ATOM     61  N   UNL     1       7.884   8.369   0.543  1.00  0.00    -0.354 N 
ATOM     62  N   UNL     1      10.231   5.649  -1.962  1.00  0.00    -0.248 NA
ATOM     63  C   UNL     1      10.797   5.176   0.250  1.00  0.00     0.031 C 
ATOM     64  C   UNL     1       6.383   8.570  -1.027  1.00  0.00     0.029 A 
ATOM     65  C   UNL     1       7.676   8.103  -0.784  1.00  0.00     0.049 A 
ATOM     66  H   UNL     1       8.752   8.548   0.972  1.00  0.00     0.167 HD
ATOM     67  C   UNL     1       9.644   6.617  -1.159  1.00  0.00     0.074 A 
ATOM     68  C   UNL     1      10.105   6.319   0.196  1.00  0.00     0.031 C 
ATOM     69  C   UNL     1       8.614   7.388  -1.620  1.00  0.00     0.031 A 
BRANCH  56  70
ATOM     70  C   UNL     1       7.417   7.965   3.613  1.00  0.00    -0.014 A 
ATOM     71  C   UNL     1       7.971   9.251   3.703  1.00  0.00     0.009 A 
ATOM     72  C   UNL     1       7.937   6.989   4.490  1.00  0.00     0.009 A 
ATOM     73  C   UNL     1       9.052   9.516   4.553  1.00  0.00     0.001 A 
ATOM     74  C   UNL     1       8.988   7.259   5.365  1.00  0.00     0.001 A 
ATOM     75  C   UNL     1       9.568   8.516   5.372  1.00  0.00     0.000 A 
ENDBRANCH  56  70
BRANCH  57  76
ATOM     76  C   UNL     1      11.700   2.368  -1.276  1.00  0.00    -0.014 A 
ATOM     77  C   UNL     1      12.984   2.774  -1.670  1.00  0.00     0.009 A 
ATOM     78  C   UNL     1      11.591   1.169  -0.544  1.00  0.00     0.009 A 
ATOM     79  C   UNL     1      14.115   2.019  -1.327  1.00  0.00     0.001 A 
ATOM     80  C   UNL     1      12.718   0.414  -0.205  1.00  0.00     0.001 A 
ATOM     81  C   UNL     1      13.983   0.846  -0.588  1.00  0.00     0.000 A 
ENDBRANCH  57  76
BRANCH  69  82
ATOM     82  C   UNL     1       8.261   7.293  -3.084  1.00  0.00    -0.014 A 
ATOM     83  C   UNL     1       7.786   6.112  -3.683  1.00  0.00     0.009 A 
ATOM     84  C   UNL     1       8.240   8.475  -3.836  1.00  0.00     0.009 A 
ATOM     85  C   UNL     1       7.327   6.114  -5.005  1.00  0.00     0.001 A 
ATOM     86  C   UNL     1       7.763   8.481  -5.148  1.00  0.00     0.001 A 
ATOM     87  C   UNL     1       7.310   7.301  -5.734  1.00  0.00     0.000 A 
ENDBRANCH  69  82
ENDBRANCH  43  44
ENDBRANCH  36  38
ENDBRANCH  35  36
ENDBRANCH  34  35
ENDBRANCH   1  34
TORSDOF 17
