REMARK SMILES O=C(CC[N@H+]1CCC[C@@H](C(=O)OCCOC(=O)c2ccc(-c3c4nc(c(-c5ccccc5)c5ccc([nH]5)c(-c5ccccc5)c5nc(c(-c6ccccc6)c6ccc3[nH]6)C=C5)C=C4)cc2)C1)Nc1cccc(F)c1
REMARK SMILES IDX 13 1 12 2 10 3 11 4 9 5 5 6 6 7 66 8 7 10 8 11 4 12 3 13
REMARK SMILES IDX 2 14 1 15 67 16 68 18 69 19 74 20 70 21 72 22 71 23 73 24
REMARK SMILES IDX 14 25 15 26 16 27 17 28 18 29 19 30 65 31 20 32 64 33 21 34
REMARK SMILES IDX 22 35 23 36 58 37 24 38 63 39 57 40 59 41 25 42 62 43 56 44
REMARK SMILES IDX 55 45 26 47 48 48 33 49 47 50 34 51 37 52 46 53 60 54 35 55
REMARK SMILES IDX 36 56 45 58 61 59 38 60 27 61 28 62 32 63 29 64 31 65 30 66
REMARK SMILES IDX 49 67 50 68 54 69 51 70 53 71 52 72 39 73 40 74 44 75 41 76
REMARK SMILES IDX 43 77 42 78
REMARK H PARENT 5 9 67 17 59 46 37 57
REMARK Flexibility Score: inf
ROOT
ATOM      1  C   UNL     1       6.194  -0.564  -4.542  1.00  0.00     0.274 C 
ENDROOT
BRANCH   1   2
ATOM      2  O   UNL     1       5.938  -1.155  -3.250  1.00  0.00    -0.462 OA
BRANCH   2   3
ATOM      3  C   UNL     1       6.803  -0.836  -2.250  1.00  0.00     0.314 C 
ATOM      4  O   UNL     1       7.751  -0.068  -2.358  1.00  0.00    -0.252 OA
BRANCH   3   5
ATOM      5  C   UNL     1       6.409  -1.465  -0.925  1.00  0.00     0.154 C 
ATOM      6  N   UNL     1       4.623  -1.153   0.852  1.00  0.00    -0.334 N 
ATOM      7  C   UNL     1       4.558  -2.585   1.082  1.00  0.00     0.262 C 
ATOM      8  C   UNL     1       5.394  -0.560  -0.226  1.00  0.00     0.277 C 
ATOM      9  H   UNL     1       5.540  -1.144   1.299  1.00  0.00     0.348 HD
ATOM     10  C   UNL     1       5.595  -3.424   0.333  1.00  0.00     0.062 C 
ATOM     11  C   UNL     1       5.880  -2.886  -1.063  1.00  0.00     0.027 C 
BRANCH   6  12
ATOM     12  C   UNL     1       3.689  -0.308   1.601  1.00  0.00     0.272 C 
BRANCH  12  13
ATOM     13  C   UNL     1       2.837   0.689   0.798  1.00  0.00     0.161 C 
BRANCH  13  14
ATOM     14  C   UNL     1       1.736   0.099  -0.077  1.00  0.00     0.230 C 
ATOM     15  O   UNL     1       0.648   0.663  -0.166  1.00  0.00    -0.275 OA
ATOM     16  N   UNL     1       2.111  -1.037  -0.756  1.00  0.00    -0.326 N 
ATOM     17  H   UNL     1       2.972  -1.431  -0.485  1.00  0.00     0.169 HD
BRANCH  16  18
ATOM     18  C   UNL     1       1.432  -1.711  -1.784  1.00  0.00     0.044 A 
ATOM     19  C   UNL     1       1.914  -2.980  -2.142  1.00  0.00     0.026 A 
ATOM     20  C   UNL     1       0.357  -1.172  -2.485  1.00  0.00     0.065 A 
ATOM     21  C   UNL     1       1.332  -3.704  -3.184  1.00  0.00     0.005 A 
ATOM     22  C   UNL     1      -0.210  -1.895  -3.531  1.00  0.00     0.125 A 
ATOM     23  C   UNL     1       0.265  -3.154  -3.886  1.00  0.00     0.039 A 
ATOM     24  F   UNL     1      -1.228  -1.367  -4.223  1.00  0.00    -0.207 F 
ENDBRANCH  16  18
ENDBRANCH  13  14
ENDBRANCH  12  13
ENDBRANCH   6  12
ENDBRANCH   3   5
ENDBRANCH   2   3
ENDBRANCH   1   2
BRANCH   1  25
ATOM     25  C   UNL     1       5.197   0.555  -4.827  1.00  0.00     0.275 C 
BRANCH  25  26
ATOM     26  O   UNL     1       5.407   1.625  -3.890  1.00  0.00    -0.458 OA
BRANCH  26  27
ATOM     27  C   UNL     1       4.327   1.986  -3.163  1.00  0.00     0.338 C 
ATOM     28  O   UNL     1       3.195   1.545  -3.239  1.00  0.00    -0.246 OA
BRANCH  27  29
ATOM     29  C   UNL     1       4.713   3.019  -2.189  1.00  0.00     0.060 A 
ATOM     30  C   UNL     1       5.727   2.763  -1.268  1.00  0.00     0.016 A 
ATOM     31  C   UNL     1       3.967   4.194  -2.108  1.00  0.00     0.016 A 
ATOM     32  C   UNL     1       5.930   3.633  -0.198  1.00  0.00     0.010 A 
ATOM     33  C   UNL     1       4.251   5.119  -1.100  1.00  0.00     0.010 A 
ATOM     34  C   UNL     1       5.211   4.834  -0.113  1.00  0.00    -0.014 A 
BRANCH  34  35
ATOM     35  C   UNL     1       5.445   5.795   1.000  1.00  0.00     0.031 A 
ATOM     36  C   UNL     1       4.306   6.211   1.893  1.00  0.00     0.074 A 
ATOM     37  C   UNL     1       6.668   6.326   1.195  1.00  0.00     0.049 A 
ATOM     38  N   UNL     1       4.249   7.198   2.752  1.00  0.00    -0.248 NA
ATOM     39  C   UNL     1       3.065   5.423   1.801  1.00  0.00     0.031 C 
ATOM     40  C   UNL     1       7.879   5.982   0.446  1.00  0.00     0.029 A 
ATOM     41  N   UNL     1       7.093   7.279   2.088  1.00  0.00    -0.354 N 
ATOM     42  C   UNL     1       2.951   7.192   3.249  1.00  0.00     0.074 A 
ATOM     43  C   UNL     1       2.257   6.095   2.610  1.00  0.00     0.031 C 
ATOM     44  C   UNL     1       8.912   6.689   0.928  1.00  0.00     0.029 A 
ATOM     45  C   UNL     1       8.422   7.602   1.953  1.00  0.00     0.049 A 
ATOM     46  H   UNL     1       6.503   7.692   2.759  1.00  0.00     0.167 HD
ATOM     47  C   UNL     1       2.386   8.035   4.146  1.00  0.00     0.031 A 
ATOM     48  C   UNL     1       9.159   8.562   2.543  1.00  0.00     0.031 A 
ATOM     49  C   UNL     1       3.088   9.097   4.818  1.00  0.00     0.049 A 
ATOM     50  C   UNL     1       8.501   9.510   3.501  1.00  0.00     0.074 A 
ATOM     51  C   UNL     1       2.606   9.985   5.764  1.00  0.00     0.029 A 
ATOM     52  N   UNL     1       4.424   9.403   4.624  1.00  0.00    -0.354 N 
ATOM     53  N   UNL     1       7.260   9.528   3.920  1.00  0.00    -0.248 NA
ATOM     54  C   UNL     1       9.340  10.587   4.045  1.00  0.00     0.031 C 
ATOM     55  C   UNL     1       3.645  10.851   6.120  1.00  0.00     0.029 A 
ATOM     56  C   UNL     1       4.781  10.477   5.421  1.00  0.00     0.049 A 
ATOM     57  H   UNL     1       5.030   8.928   4.011  1.00  0.00     0.167 HD
ATOM     58  C   UNL     1       7.171  10.610   4.785  1.00  0.00     0.074 A 
ATOM     59  C   UNL     1       8.485  11.215   4.841  1.00  0.00     0.031 C 
ATOM     60  C   UNL     1       6.093  11.062   5.468  1.00  0.00     0.031 A 
BRANCH  47  61
ATOM     61  C   UNL     1       0.920   7.877   4.425  1.00  0.00    -0.014 A 
ATOM     62  C   UNL     1       0.434   6.851   5.249  1.00  0.00     0.009 A 
ATOM     63  C   UNL     1       0.015   8.810   3.892  1.00  0.00     0.009 A 
ATOM     64  C   UNL     1      -0.933   6.751   5.516  1.00  0.00     0.001 A 
ATOM     65  C   UNL     1      -1.348   8.719   4.177  1.00  0.00     0.001 A 
ATOM     66  C   UNL     1      -1.822   7.687   4.984  1.00  0.00     0.000 A 
ENDBRANCH  47  61
BRANCH  48  67
ATOM     67  C   UNL     1      10.594   8.711   2.193  1.00  0.00    -0.014 A 
ATOM     68  C   UNL     1      11.590   8.354   3.113  1.00  0.00     0.009 A 
ATOM     69  C   UNL     1      10.973   9.201   0.933  1.00  0.00     0.009 A 
ATOM     70  C   UNL     1      12.939   8.494   2.781  1.00  0.00     0.001 A 
ATOM     71  C   UNL     1      12.322   9.315   0.594  1.00  0.00     0.001 A 
ATOM     72  C   UNL     1      13.304   8.968   1.521  1.00  0.00     0.000 A 
ENDBRANCH  48  67
BRANCH  60  73
ATOM     73  C   UNL     1       6.301  12.248   6.361  1.00  0.00    -0.014 A 
ATOM     74  C   UNL     1       6.362  13.546   5.834  1.00  0.00     0.009 A 
ATOM     75  C   UNL     1       6.395  12.065   7.749  1.00  0.00     0.009 A 
ATOM     76  C   UNL     1       6.535  14.641   6.683  1.00  0.00     0.001 A 
ATOM     77  C   UNL     1       6.550  13.162   8.596  1.00  0.00     0.001 A 
ATOM     78  C   UNL     1       6.625  14.448   8.062  1.00  0.00     0.000 A 
ENDBRANCH  60  73
ENDBRANCH  34  35
ENDBRANCH  27  29
ENDBRANCH  26  27
ENDBRANCH  25  26
ENDBRANCH   1  25
TORSDOF 15
