REMARK SMILES O=C(OCCOC(=O)[C@@H](CCCCO)c1cccc(Cl)c1)c1ccc(-c2c3nc(c(-c4ccccc4)c4ccc([nH]4)c(-c4ccccc4)c4nc(c(-c5ccccc5)c5ccc2[nH]5)C=C4)C=C3)cc1
REMARK SMILES IDX 6 1 5 2 4 3 3 4 2 5 1 6 22 7 23 8 69 9 24 10 68 11 25 12
REMARK SMILES IDX 26 13 27 14 62 15 28 16 67 17 61 18 63 19 29 20 66 21 60 22
REMARK SMILES IDX 59 23 30 25 52 26 37 27 51 28 38 29 41 30 50 31 64 32 39 33
REMARK SMILES IDX 40 34 49 36 65 37 42 38 31 39 32 40 36 41 33 42 35 43 34 44
REMARK SMILES IDX 53 45 54 46 58 47 55 48 57 49 56 50 43 51 44 52 48 53 45 54
REMARK SMILES IDX 47 55 46 56 7 57 8 58 9 59 10 60 11 61 12 62 13 63 14 64
REMARK SMILES IDX 15 66 16 67 21 68 17 69 19 70 18 71 20 72
REMARK H PARENT 63 24 41 35 14 65
REMARK Flexibility Score: inf
ROOT
ATOM      1  O   UNL     1       3.233  -0.047  -1.898  1.00  0.00    -0.462 OA
ENDROOT
BRANCH   1   2
ATOM      2  C   UNL     1       3.855  -1.340  -1.723  1.00  0.00     0.274 C 
BRANCH   2   3
ATOM      3  C   UNL     1       4.124  -1.753  -0.273  1.00  0.00     0.275 C 
BRANCH   3   4
ATOM      4  O   UNL     1       3.272  -1.128   0.684  1.00  0.00    -0.458 OA
BRANCH   4   5
ATOM      5  C   UNL     1       3.398   0.075   1.289  1.00  0.00     0.338 C 
ATOM      6  O   UNL     1       2.565   0.373   2.130  1.00  0.00    -0.246 OA
BRANCH   5   7
ATOM      7  C   UNL     1       4.422   1.119   0.919  1.00  0.00     0.060 A 
ATOM      8  C   UNL     1       5.571   0.994   0.121  1.00  0.00     0.016 A 
ATOM      9  C   UNL     1       4.107   2.405   1.374  1.00  0.00     0.016 A 
ATOM     10  C   UNL     1       6.321   2.119  -0.291  1.00  0.00     0.010 A 
ATOM     11  C   UNL     1       4.804   3.520   0.911  1.00  0.00     0.010 A 
ATOM     12  C   UNL     1       5.921   3.404   0.061  1.00  0.00    -0.014 A 
BRANCH  12  13
ATOM     13  C   UNL     1       6.606   4.667  -0.365  1.00  0.00     0.031 A 
ATOM     14  C   UNL     1       6.913   5.669   0.719  1.00  0.00     0.074 A 
ATOM     15  C   UNL     1       6.731   5.042  -1.660  1.00  0.00     0.049 A 
ATOM     16  N   UNL     1       7.131   6.954   0.632  1.00  0.00    -0.248 NA
ATOM     17  C   UNL     1       6.869   5.155   2.102  1.00  0.00     0.031 C 
ATOM     18  C   UNL     1       6.430   4.230  -2.843  1.00  0.00     0.029 A 
ATOM     19  N   UNL     1       7.013   6.284  -2.191  1.00  0.00    -0.354 N 
ATOM     20  C   UNL     1       7.242   7.380   1.947  1.00  0.00     0.074 A 
ATOM     21  C   UNL     1       6.834   6.282   2.790  1.00  0.00     0.031 C 
ATOM     22  C   UNL     1       6.390   5.024  -3.930  1.00  0.00     0.029 A 
ATOM     23  C   UNL     1       6.712   6.388  -3.534  1.00  0.00     0.049 A 
ATOM     24  H   UNL     1       7.393   7.024  -1.663  1.00  0.00     0.167 HD
ATOM     25  C   UNL     1       7.788   8.520   2.430  1.00  0.00     0.031 A 
ATOM     26  C   UNL     1       6.676   7.467  -4.342  1.00  0.00     0.031 A 
ATOM     27  C   UNL     1       8.279   9.571   1.593  1.00  0.00     0.049 A 
ATOM     28  C   UNL     1       7.180   8.784  -3.816  1.00  0.00     0.074 A 
ATOM     29  C   UNL     1       9.031  10.678   1.933  1.00  0.00     0.029 A 
ATOM     30  N   UNL     1       8.063   9.627   0.226  1.00  0.00    -0.354 N 
ATOM     31  N   UNL     1       7.491   9.118  -2.588  1.00  0.00    -0.248 NA
ATOM     32  C   UNL     1       7.427   9.842  -4.808  1.00  0.00     0.031 C 
ATOM     33  C   UNL     1       9.258  11.417   0.766  1.00  0.00     0.029 A 
ATOM     34  C   UNL     1       8.673  10.749  -0.300  1.00  0.00     0.049 A 
ATOM     35  H   UNL     1       7.551   8.966  -0.294  1.00  0.00     0.167 HD
ATOM     36  C   UNL     1       8.073  10.377  -2.675  1.00  0.00     0.074 A 
ATOM     37  C   UNL     1       8.019  10.770  -4.068  1.00  0.00     0.031 C 
ATOM     38  C   UNL     1       8.650  11.111  -1.693  1.00  0.00     0.031 A 
BRANCH  25  39
ATOM     39  C   UNL     1       7.996   8.570   3.919  1.00  0.00    -0.014 A 
ATOM     40  C   UNL     1       8.852   7.638   4.539  1.00  0.00     0.009 A 
ATOM     41  C   UNL     1       7.295   9.480   4.717  1.00  0.00     0.009 A 
ATOM     42  C   UNL     1       8.921   7.545   5.928  1.00  0.00     0.001 A 
ATOM     43  C   UNL     1       7.405   9.417   6.110  1.00  0.00     0.001 A 
ATOM     44  C   UNL     1       8.195   8.436   6.712  1.00  0.00     0.000 A 
ENDBRANCH  25  39
BRANCH  26  45
ATOM     45  C   UNL     1       6.245   7.361  -5.763  1.00  0.00    -0.014 A 
ATOM     46  C   UNL     1       7.198   7.223  -6.785  1.00  0.00     0.009 A 
ATOM     47  C   UNL     1       4.892   7.483  -6.113  1.00  0.00     0.009 A 
ATOM     48  C   UNL     1       6.810   7.249  -8.128  1.00  0.00     0.001 A 
ATOM     49  C   UNL     1       4.505   7.495  -7.458  1.00  0.00     0.001 A 
ATOM     50  C   UNL     1       5.465   7.388  -8.464  1.00  0.00     0.000 A 
ENDBRANCH  26  45
BRANCH  38  51
ATOM     51  C   UNL     1       9.397  12.347  -2.097  1.00  0.00    -0.014 A 
ATOM     52  C   UNL     1       8.738  13.524  -2.474  1.00  0.00     0.009 A 
ATOM     53  C   UNL     1      10.800  12.339  -2.027  1.00  0.00     0.009 A 
ATOM     54  C   UNL     1       9.475  14.667  -2.790  1.00  0.00     0.001 A 
ATOM     55  C   UNL     1      11.531  13.490  -2.314  1.00  0.00     0.001 A 
ATOM     56  C   UNL     1      10.868  14.652  -2.700  1.00  0.00     0.000 A 
ENDBRANCH  38  51
ENDBRANCH  12  13
ENDBRANCH   5   7
ENDBRANCH   4   5
ENDBRANCH   3   4
ENDBRANCH   2   3
ENDBRANCH   1   2
BRANCH   1  57
ATOM     57  C   UNL     1       1.939  -0.073  -2.342  1.00  0.00     0.313 C 
ATOM     58  O   UNL     1       1.275  -1.102  -2.424  1.00  0.00    -0.252 OA
BRANCH  57  59
ATOM     59  C   UNL     1       1.401   1.284  -2.830  1.00  0.00     0.129 C 
BRANCH  59  60
ATOM     60  C   UNL     1       1.275   2.349  -1.713  1.00  0.00     0.020 C 
BRANCH  60  61
ATOM     61  C   UNL     1       2.542   3.093  -1.305  1.00  0.00     0.004 C 
BRANCH  61  62
ATOM     62  C   UNL     1       3.167   4.169  -2.191  1.00  0.00     0.028 C 
BRANCH  62  63
ATOM     63  C   UNL     1       2.491   5.529  -2.216  1.00  0.00     0.156 C 
BRANCH  63  64
ATOM     64  O   UNL     1       2.712   6.255  -1.012  1.00  0.00    -0.396 OA
ATOM     65  H   UNL     1       2.339   5.762  -0.264  1.00  0.00     0.210 HD
ENDBRANCH  63  64
ENDBRANCH  62  63
ENDBRANCH  61  62
ENDBRANCH  60  61
ENDBRANCH  59  60
BRANCH  59  66
ATOM     66  C   UNL     1       1.987   1.832  -4.127  1.00  0.00    -0.032 A 
ATOM     67  C   UNL     1       3.113   1.289  -4.760  1.00  0.00     0.005 A 
ATOM     68  C   UNL     1       1.419   3.003  -4.676  1.00  0.00     0.025 A 
ATOM     69  C   UNL     1       3.708   1.945  -5.844  1.00  0.00     0.002 A 
ATOM     70  C   UNL     1       2.040   3.674  -5.729  1.00  0.00     0.041 A 
ATOM     71  C   UNL     1       3.190   3.154  -6.309  1.00  0.00     0.020 A 
ATOM     72  Cl  UNL     1       1.430   5.199  -6.241  1.00  0.00    -0.084 Cl
ENDBRANCH  59  66
ENDBRANCH  57  59
ENDBRANCH   1  57
TORSDOF 17
