REMARK SMILES O=C(OCCOC(=O)c1cc(-c2ccccn2)nc2ccc(F)cc12)c1ccc(-c2c3nc(c(-c4ccccc4)c4ccc([nH]4)c(-c4ccccc4)c4nc(c(-c5ccccc5)c5ccc2[nH]5)C=C4)C=C3)cc1
REMARK SMILES IDX 4 1 3 2 2 3 1 4 26 5 27 6 73 7 28 8 72 9 29 10 30 11 31 12
REMARK SMILES IDX 66 13 32 14 71 15 65 16 67 17 33 18 70 19 64 20 63 21 34 23
REMARK SMILES IDX 56 24 41 25 55 26 42 27 45 28 54 29 68 30 43 31 44 32 53 34
REMARK SMILES IDX 69 35 46 36 35 37 36 38 40 39 37 40 39 41 38 42 57 43 58 44
REMARK SMILES IDX 62 45 59 46 61 47 60 48 47 49 48 50 52 51 49 52 51 53 50 54
REMARK SMILES IDX 5 55 6 56 7 57 8 58 9 59 10 60 25 61 11 62 19 63 24 64 18 65
REMARK SMILES IDX 20 66 22 67 21 68 23 69 12 70 13 71 17 72 14 73 16 74 15 75
REMARK H PARENT 67 22 45 33
REMARK Flexibility Score: inf
ROOT
ATOM      1  C   UNL     1       4.051  -1.473  -0.232  1.00  0.00     0.275 C 
ENDROOT
BRANCH   1   2
ATOM      2  O   UNL     1       3.030  -1.042   0.689  1.00  0.00    -0.458 OA
BRANCH   2   3
ATOM      3  C   UNL     1       2.964   0.137   1.362  1.00  0.00     0.338 C 
ATOM      4  O   UNL     1       2.164   0.301   2.276  1.00  0.00    -0.246 OA
BRANCH   3   5
ATOM      5  C   UNL     1       3.694   1.305   0.826  1.00  0.00     0.060 A 
ATOM      6  C   UNL     1       2.932   2.444   0.554  1.00  0.00     0.016 A 
ATOM      7  C   UNL     1       5.054   1.292   0.517  1.00  0.00     0.016 A 
ATOM      8  C   UNL     1       3.461   3.443  -0.253  1.00  0.00     0.010 A 
ATOM      9  C   UNL     1       5.584   2.282  -0.301  1.00  0.00     0.010 A 
ATOM     10  C   UNL     1       4.764   3.314  -0.751  1.00  0.00    -0.014 A 
BRANCH  10  11
ATOM     11  C   UNL     1       5.259   4.250  -1.762  1.00  0.00     0.031 A 
ATOM     12  C   UNL     1       5.426   3.805  -3.174  1.00  0.00     0.074 A 
ATOM     13  C   UNL     1       5.469   5.543  -1.437  1.00  0.00     0.049 A 
ATOM     14  N   UNL     1       5.537   4.630  -4.146  1.00  0.00    -0.248 NA
ATOM     15  C   UNL     1       5.470   2.430  -3.603  1.00  0.00     0.031 C 
ATOM     16  C   UNL     1       5.409   6.074  -0.079  1.00  0.00     0.029 A 
ATOM     17  N   UNL     1       5.825   6.630  -2.210  1.00  0.00    -0.354 N 
ATOM     18  C   UNL     1       5.161   4.046  -5.517  1.00  0.00     0.074 A 
ATOM     19  C   UNL     1       5.416   2.537  -4.936  1.00  0.00     0.031 C 
ATOM     20  C   UNL     1       5.835   7.344  -0.098  1.00  0.00     0.029 A 
ATOM     21  C   UNL     1       6.186   7.726  -1.471  1.00  0.00     0.049 A 
ATOM     22  H   UNL     1       5.820   6.618  -3.195  1.00  0.00     0.167 HD
ATOM     23  C   UNL     1       4.584   4.921  -7.070  1.00  0.00     0.031 A 
ATOM     24  C   UNL     1       6.780   8.893  -1.800  1.00  0.00     0.031 A 
ATOM     25  C   UNL     1       4.649   6.594  -7.572  1.00  0.00     0.049 A 
ATOM     26  C   UNL     1       6.943   9.335  -3.236  1.00  0.00     0.074 A 
ATOM     27  C   UNL     1       4.846   7.135  -8.851  1.00  0.00     0.029 A 
ATOM     28  N   UNL     1       4.758   7.779  -6.762  1.00  0.00    -0.354 N 
ATOM     29  N   UNL     1       6.366   8.890  -4.329  1.00  0.00    -0.248 NA
ATOM     30  C   UNL     1       7.829  10.486  -3.464  1.00  0.00     0.031 C 
ATOM     31  C   UNL     1       5.608   8.317  -8.709  1.00  0.00     0.029 A 
ATOM     32  C   UNL     1       5.697   8.630  -7.362  1.00  0.00     0.049 A 
ATOM     33  H   UNL     1       4.261   7.959  -5.931  1.00  0.00     0.167 HD
ATOM     34  C   UNL     1       6.806   9.700  -5.375  1.00  0.00     0.074 A 
ATOM     35  C   UNL     1       7.673  10.697  -4.765  1.00  0.00     0.031 C 
ATOM     36  C   UNL     1       6.543   9.625  -6.712  1.00  0.00     0.031 A 
BRANCH  23  37
ATOM     37  C   UNL     1       3.979   4.426  -8.653  1.00  0.00    -0.014 A 
ATOM     38  C   UNL     1       4.874   4.178  -9.730  1.00  0.00     0.009 A 
ATOM     39  C   UNL     1       2.599   4.423  -8.946  1.00  0.00     0.009 A 
ATOM     40  C   UNL     1       4.415   3.841 -11.006  1.00  0.00     0.001 A 
ATOM     41  C   UNL     1       2.145   4.072 -10.229  1.00  0.00     0.001 A 
ATOM     42  C   UNL     1       3.049   3.769 -11.250  1.00  0.00     0.000 A 
ENDBRANCH  23  37
BRANCH  24  43
ATOM     43  C   UNL     1       7.364   9.682  -0.666  1.00  0.00    -0.014 A 
ATOM     44  C   UNL     1       8.354   9.091   0.151  1.00  0.00     0.009 A 
ATOM     45  C   UNL     1       6.888  10.951  -0.320  1.00  0.00     0.009 A 
ATOM     46  C   UNL     1       8.790   9.713   1.322  1.00  0.00     0.001 A 
ATOM     47  C   UNL     1       7.357  11.590   0.834  1.00  0.00     0.001 A 
ATOM     48  C   UNL     1       8.288  10.963   1.665  1.00  0.00     0.000 A 
ENDBRANCH  24  43
BRANCH  36  49
ATOM     49  C   UNL     1       7.272  10.611  -7.616  1.00  0.00    -0.014 A 
ATOM     50  C   UNL     1       6.528  11.479  -8.431  1.00  0.00     0.009 A 
ATOM     51  C   UNL     1       8.677  10.641  -7.732  1.00  0.00     0.009 A 
ATOM     52  C   UNL     1       7.161  12.349  -9.326  1.00  0.00     0.001 A 
ATOM     53  C   UNL     1       9.311  11.541  -8.600  1.00  0.00     0.001 A 
ATOM     54  C   UNL     1       8.551  12.387  -9.403  1.00  0.00     0.000 A 
ENDBRANCH  36  49
ENDBRANCH  10  11
ENDBRANCH   3   5
ENDBRANCH   2   3
ENDBRANCH   1   2
BRANCH   1  55
ATOM     55  C   UNL     1       3.783  -1.183  -1.718  1.00  0.00     0.275 C 
BRANCH  55  56
ATOM     56  O   UNL     1       3.353   0.162  -2.043  1.00  0.00    -0.458 OA
BRANCH  56  57
ATOM     57  C   UNL     1       2.142   0.265  -2.665  1.00  0.00     0.339 C 
ATOM     58  O   UNL     1       1.365  -0.652  -2.874  1.00  0.00    -0.246 OA
BRANCH  57  59
ATOM     59  C   UNL     1       1.826   1.667  -3.068  1.00  0.00     0.071 A 
ATOM     60  C   UNL     1       2.413   2.214  -4.218  1.00  0.00     0.047 A 
ATOM     61  C   UNL     1       0.882   2.415  -2.370  1.00  0.00     0.018 A 
ATOM     62  C   UNL     1       2.233   3.571  -4.583  1.00  0.00     0.090 A 
ATOM     63  C   UNL     1       0.656   3.736  -2.840  1.00  0.00     0.072 A 
ATOM     64  C   UNL     1       0.174   1.905  -1.251  1.00  0.00     0.050 A 
ATOM     65  N   UNL     1       1.334   4.304  -3.886  1.00  0.00    -0.246 NA
ATOM     66  C   UNL     1      -0.314   4.472  -2.163  1.00  0.00     0.032 A 
ATOM     67  C   UNL     1      -0.758   2.692  -0.601  1.00  0.00     0.123 A 
ATOM     68  C   UNL     1      -1.018   3.970  -1.055  1.00  0.00     0.041 A 
ATOM     69  F   UNL     1      -1.398   2.215   0.473  1.00  0.00    -0.207 F 
BRANCH  62  70
ATOM     70  C   UNL     1       3.139   4.224  -5.699  1.00  0.00     0.089 A 
ATOM     71  C   UNL     1       3.905   2.932  -6.771  1.00  0.00     0.030 A 
ATOM     72  N   UNL     1       4.110   5.722  -5.284  1.00  0.00    -0.255 NA
ATOM     73  C   UNL     1       5.672   3.106  -7.327  1.00  0.00     0.004 A 
ATOM     74  C   UNL     1       5.901   5.861  -5.813  1.00  0.00     0.112 A 
ATOM     75  C   UNL     1       6.673   4.567  -6.848  1.00  0.00     0.020 A 
ENDBRANCH  62  70
ENDBRANCH  57  59
ENDBRANCH  56  57
ENDBRANCH  55  56
ENDBRANCH   1  55
TORSDOF 12
