REMARK SMILES O=C(OCCOC(=O)c1cccc(Nc2ccc([N+](=O)[O-])cc2)c1)c1ccc(-c2c3nc(c(-c4ccccc4)c4ccc([nH]4)c(-c4ccccc4)c4nc(c(-c5ccccc5)c5ccc2[nH]5)C=C4)C=C3)cc1
REMARK SMILES IDX 5 1 4 2 3 3 2 4 1 5 25 6 26 7 72 8 27 9 71 10 28 11 29 12
REMARK SMILES IDX 30 13 65 14 31 15 70 16 64 17 66 18 32 19 69 20 63 21 62 22
REMARK SMILES IDX 33 24 55 25 40 26 54 27 41 28 44 29 53 30 67 31 42 32 43 33
REMARK SMILES IDX 52 35 68 36 45 37 34 38 35 39 39 40 36 41 38 42 37 43 56 44
REMARK SMILES IDX 57 45 61 46 58 47 60 48 59 49 46 50 47 51 51 52 48 53 50 54
REMARK SMILES IDX 49 55 6 56 7 57 8 58 9 59 10 60 24 61 11 62 13 63 12 64
REMARK SMILES IDX 14 65 15 67 16 68 23 69 17 70 22 71 18 72 19 73 20 74 21 75
REMARK H PARENT 66 23 44 34 14 66
REMARK Flexibility Score: inf
ROOT
ATOM      1  C   UNL     1       4.081   2.188   0.507  1.00  0.00     0.275 C 
ENDROOT
BRANCH   1   2
ATOM      2  C   UNL     1       4.063   1.470  -0.849  1.00  0.00     0.275 C 
BRANCH   2   3
ATOM      3  O   UNL     1       2.930   0.610  -1.071  1.00  0.00    -0.458 OA
BRANCH   3   4
ATOM      4  C   UNL     1       2.717  -0.681  -0.725  1.00  0.00     0.338 C 
ATOM      5  O   UNL     1       1.720  -1.251  -1.166  1.00  0.00    -0.246 OA
BRANCH   4   6
ATOM      6  C   UNL     1       3.554  -1.433   0.264  1.00  0.00     0.060 A 
ATOM      7  C   UNL     1       4.881  -1.152   0.589  1.00  0.00     0.016 A 
ATOM      8  C   UNL     1       2.931  -2.508   0.931  1.00  0.00     0.016 A 
ATOM      9  C   UNL     1       5.540  -1.856   1.592  1.00  0.00     0.010 A 
ATOM     10  C   UNL     1       3.583  -3.214   1.948  1.00  0.00     0.010 A 
ATOM     11  C   UNL     1       4.896  -2.881   2.285  1.00  0.00    -0.014 A 
BRANCH  11  12
ATOM     12  C   UNL     1       5.683  -3.643   3.274  1.00  0.00     0.031 A 
ATOM     13  C   UNL     1       6.263  -4.960   2.867  1.00  0.00     0.074 A 
ATOM     14  C   UNL     1       6.008  -3.076   4.450  1.00  0.00     0.049 A 
ATOM     15  N   UNL     1       7.121  -5.708   3.507  1.00  0.00    -0.248 NA
ATOM     16  C   UNL     1       5.865  -5.479   1.548  1.00  0.00     0.031 C 
ATOM     17  C   UNL     1       5.587  -1.745   4.882  1.00  0.00     0.029 A 
ATOM     18  N   UNL     1       6.786  -3.526   5.484  1.00  0.00    -0.354 N 
ATOM     19  C   UNL     1       7.408  -6.756   2.646  1.00  0.00     0.074 A 
ATOM     20  C   UNL     1       6.583  -6.589   1.470  1.00  0.00     0.031 C 
ATOM     21  C   UNL     1       6.084  -1.495   6.104  1.00  0.00     0.029 A 
ATOM     22  C   UNL     1       6.854  -2.650   6.540  1.00  0.00     0.049 A 
ATOM     23  H   UNL     1       7.252  -4.393   5.471  1.00  0.00     0.167 HD
ATOM     24  C   UNL     1       8.309  -7.751   2.811  1.00  0.00     0.031 A 
ATOM     25  C   UNL     1       7.470  -2.770   7.730  1.00  0.00     0.031 A 
ATOM     26  C   UNL     1       9.082  -7.934   4.009  1.00  0.00     0.049 A 
ATOM     27  C   UNL     1       8.325  -3.982   7.960  1.00  0.00     0.074 A 
ATOM     28  C   UNL     1       9.976  -8.943   4.315  1.00  0.00     0.029 A 
ATOM     29  N   UNL     1       9.035  -7.089   5.109  1.00  0.00    -0.354 N 
ATOM     30  N   UNL     1       8.594  -4.966   7.135  1.00  0.00    -0.248 NA
ATOM     31  C   UNL     1       8.990  -4.083   9.264  1.00  0.00     0.031 C 
ATOM     32  C   UNL     1      10.426  -8.739   5.624  1.00  0.00     0.029 A 
ATOM     33  C   UNL     1       9.863  -7.568   6.109  1.00  0.00     0.049 A 
ATOM     34  H   UNL     1       8.492  -6.270   5.170  1.00  0.00     0.167 HD
ATOM     35  C   UNL     1       9.489  -5.786   7.804  1.00  0.00     0.074 A 
ATOM     36  C   UNL     1       9.730  -5.170   9.096  1.00  0.00     0.031 C 
ATOM     37  C   UNL     1      10.069  -6.939   7.389  1.00  0.00     0.031 A 
BRANCH  24  38
ATOM     38  C   UNL     1       8.462  -8.720   1.675  1.00  0.00    -0.014 A 
ATOM     39  C   UNL     1       9.084  -8.337   0.475  1.00  0.00     0.009 A 
ATOM     40  C   UNL     1       7.963 -10.025   1.796  1.00  0.00     0.009 A 
ATOM     41  C   UNL     1       9.171  -9.232  -0.594  1.00  0.00     0.001 A 
ATOM     42  C   UNL     1       8.075 -10.925   0.736  1.00  0.00     0.001 A 
ATOM     43  C   UNL     1       8.669 -10.526  -0.461  1.00  0.00     0.000 A 
ENDBRANCH  24  38
BRANCH  25  44
ATOM     44  C   UNL     1       7.279  -1.744   8.790  1.00  0.00    -0.014 A 
ATOM     45  C   UNL     1       8.336  -0.936   9.235  1.00  0.00     0.009 A 
ATOM     46  C   UNL     1       6.021  -1.603   9.401  1.00  0.00     0.009 A 
ATOM     47  C   UNL     1       8.146  -0.040  10.292  1.00  0.00     0.001 A 
ATOM     48  C   UNL     1       5.827  -0.688  10.436  1.00  0.00     0.001 A 
ATOM     49  C   UNL     1       6.893   0.084  10.891  1.00  0.00     0.000 A 
ENDBRANCH  25  44
BRANCH  37  50
ATOM     50  C   UNL     1      11.038  -7.581   8.339  1.00  0.00    -0.014 A 
ATOM     51  C   UNL     1      10.602  -8.183   9.530  1.00  0.00     0.009 A 
ATOM     52  C   UNL     1      12.406  -7.592   8.029  1.00  0.00     0.009 A 
ATOM     53  C   UNL     1      11.526  -8.741  10.415  1.00  0.00     0.001 A 
ATOM     54  C   UNL     1      13.323  -8.183   8.897  1.00  0.00     0.001 A 
ATOM     55  C   UNL     1      12.884  -8.744  10.095  1.00  0.00     0.000 A 
ENDBRANCH  37  50
ENDBRANCH  11  12
ENDBRANCH   4   6
ENDBRANCH   3   4
ENDBRANCH   2   3
ENDBRANCH   1   2
BRANCH   1  56
ATOM     56  O   UNL     1       3.643   1.374   1.606  1.00  0.00    -0.458 OA
BRANCH  56  57
ATOM     57  C   UNL     1       2.315   1.463   1.878  1.00  0.00     0.338 C 
ATOM     58  O   UNL     1       1.508   2.197   1.330  1.00  0.00    -0.246 OA
BRANCH  57  59
ATOM     59  C   UNL     1       1.924   0.429   2.857  1.00  0.00     0.062 A 
ATOM     60  C   UNL     1       0.858  -0.408   2.526  1.00  0.00     0.016 A 
ATOM     61  C   UNL     1       2.563   0.303   4.096  1.00  0.00     0.041 A 
ATOM     62  C   UNL     1       0.461  -1.402   3.416  1.00  0.00     0.003 A 
ATOM     63  C   UNL     1       2.131  -0.659   5.029  1.00  0.00     0.039 A 
ATOM     64  C   UNL     1       1.095  -1.524   4.655  1.00  0.00     0.026 A 
BRANCH  63  65
ATOM     65  N   UNL     1       2.739  -0.697   6.300  1.00  0.00    -0.355 N 
ATOM     66  H   UNL     1       3.466  -0.045   6.421  1.00  0.00     0.167 HD
BRANCH  65  67
ATOM     67  C   UNL     1       2.491  -1.502   7.426  1.00  0.00     0.039 A 
ATOM     68  C   UNL     1       2.258  -0.868   8.656  1.00  0.00     0.033 A 
ATOM     69  C   UNL     1       2.393  -2.898   7.364  1.00  0.00     0.033 A 
ATOM     70  C   UNL     1       1.913  -1.600   9.795  1.00  0.00     0.088 A 
ATOM     71  C   UNL     1       2.058  -3.648   8.500  1.00  0.00     0.088 A 
ATOM     72  C   UNL     1       1.807  -2.992   9.711  1.00  0.00     0.269 A 
BRANCH  72  73
ATOM     73  N   UNL     1       1.418  -3.761  10.900  1.00  0.00     0.062 N 
ATOM     74  O   UNL     1       1.263  -3.140  11.961  1.00  0.00    -0.258 OA
ATOM     75  O   UNL     1       1.265  -4.984  10.773  1.00  0.00    -0.258 OA
ENDBRANCH  72  73
ENDBRANCH  65  67
ENDBRANCH  63  65
ENDBRANCH  57  59
ENDBRANCH  56  57
ENDBRANCH   1  56
TORSDOF 14
