REMARK SMILES CN(c1ccc(C(N)=O)nn1)[C@H]1COC[C@@H]1C(=O)OCCOC(=O)c1ccc(-c2c3nc(c(-c4ccccc4)c4ccc([nH]4)c(-c4ccccc4)c4nc(c(-c5ccccc5)c5ccc2[nH]5)C=C4)C=C3)cc1
REMARK SMILES IDX 20 1 19 2 17 3 18 4 16 5 12 6 13 7 14 8 15 9 2 10 1 11 3 12
REMARK SMILES IDX 4 13 11 14 5 15 10 16 6 17 7 18 8 19 9 20 21 23 22 24 23 25
REMARK SMILES IDX 24 26 25 27 26 28 72 29 27 30 71 31 28 32 29 33 30 34 65 35
REMARK SMILES IDX 31 36 70 37 64 38 66 39 32 40 69 41 63 42 62 43 33 45 55 46
REMARK SMILES IDX 40 47 54 48 41 49 44 50 53 51 67 52 42 53 43 54 52 56 68 57
REMARK SMILES IDX 45 58 34 59 35 60 39 61 36 62 38 63 37 64 56 65 57 66 61 67
REMARK SMILES IDX 58 68 60 69 59 70 46 71 47 72 51 73 48 74 50 75 49 76
REMARK H PARENT 8 21 8 22 66 44 44 55
REMARK Flexibility Score: inf
ROOT
ATOM      1  C   UNL     1      -2.057   2.744  -2.951  1.00  0.00     0.274 C 
ENDROOT
BRANCH   1   2
ATOM      2  O   UNL     1      -1.188   3.055  -1.843  1.00  0.00    -0.462 OA
BRANCH   2   3
ATOM      3  C   UNL     1       0.129   2.760  -2.009  1.00  0.00     0.313 C 
ATOM      4  O   UNL     1       0.592   2.224  -3.009  1.00  0.00    -0.252 OA
BRANCH   3   5
ATOM      5  C   UNL     1       0.979   3.131  -0.811  1.00  0.00     0.150 C 
ATOM      6  C   UNL     1       0.877   2.048   0.244  1.00  0.00     0.125 C 
ATOM      7  C   UNL     1      -0.235   2.599   1.143  1.00  0.00     0.186 C 
ATOM      8  O   UNL     1      -0.141   4.031   1.105  1.00  0.00    -0.378 OA
ATOM      9  C   UNL     1       0.528   4.399  -0.112  1.00  0.00     0.177 C 
BRANCH   6  10
ATOM     10  N   UNL     1       2.151   1.817   0.966  1.00  0.00    -0.352 N 
ATOM     11  C   UNL     1       2.536   2.616   2.122  1.00  0.00     0.145 C 
BRANCH  10  12
ATOM     12  C   UNL     1       3.119   1.046   0.335  1.00  0.00     0.151 A 
ATOM     13  C   UNL     1       4.011   0.265   1.066  1.00  0.00     0.051 A 
ATOM     14  N   UNL     1       3.212   1.046  -1.015  1.00  0.00    -0.132 NA
ATOM     15  C   UNL     1       5.007  -0.465   0.418  1.00  0.00     0.040 A 
ATOM     16  N   UNL     1       4.214   0.363  -1.673  1.00  0.00    -0.143 NA
ATOM     17  C   UNL     1       5.090  -0.371  -0.956  1.00  0.00     0.150 A 
BRANCH  17  18
ATOM     18  C   UNL     1       6.177  -1.056  -1.709  1.00  0.00     0.269 C 
ATOM     19  N   UNL     1       6.277  -0.751  -3.040  1.00  0.00    -0.364 N 
ATOM     20  O   UNL     1       6.955  -1.833  -1.168  1.00  0.00    -0.268 OA
ATOM     21  H   UNL     1       5.639  -0.124  -3.451  1.00  0.00     0.160 HD
ATOM     22  H   UNL     1       6.987  -1.160  -3.587  1.00  0.00     0.160 HD
ENDBRANCH  17  18
ENDBRANCH  10  12
ENDBRANCH   6  10
ENDBRANCH   3   5
ENDBRANCH   2   3
ENDBRANCH   1   2
BRANCH   1  23
ATOM     23  C   UNL     1      -2.327   3.975  -3.820  1.00  0.00     0.275 C 
BRANCH  23  24
ATOM     24  O   UNL     1      -1.126   4.436  -4.464  1.00  0.00    -0.458 OA
BRANCH  24  25
ATOM     25  C   UNL     1      -0.526   5.495  -3.875  1.00  0.00     0.338 C 
ATOM     26  O   UNL     1      -0.905   6.124  -2.903  1.00  0.00    -0.246 OA
BRANCH  25  27
ATOM     27  C   UNL     1       0.772   5.739  -4.514  1.00  0.00     0.060 A 
ATOM     28  C   UNL     1       1.928   5.339  -3.840  1.00  0.00     0.016 A 
ATOM     29  C   UNL     1       0.855   6.448  -5.712  1.00  0.00     0.016 A 
ATOM     30  C   UNL     1       3.181   5.650  -4.356  1.00  0.00     0.010 A 
ATOM     31  C   UNL     1       2.114   6.755  -6.234  1.00  0.00     0.010 A 
ATOM     32  C   UNL     1       3.282   6.370  -5.551  1.00  0.00    -0.014 A 
BRANCH  32  33
ATOM     33  C   UNL     1       4.613   6.768  -6.059  1.00  0.00     0.031 A 
ATOM     34  C   UNL     1       5.063   8.193  -5.932  1.00  0.00     0.074 A 
ATOM     35  C   UNL     1       5.416   5.850  -6.625  1.00  0.00     0.049 A 
ATOM     36  N   UNL     1       6.144   8.763  -6.400  1.00  0.00    -0.248 NA
ATOM     37  C   UNL     1       4.178   9.097  -5.181  1.00  0.00     0.031 C 
ATOM     38  C   UNL     1       5.108   4.426  -6.762  1.00  0.00     0.029 A 
ATOM     39  N   UNL     1       6.652   5.986  -7.202  1.00  0.00    -0.354 N 
ATOM     40  C   UNL     1       6.059  10.096  -6.023  1.00  0.00     0.074 A 
ATOM     41  C   UNL     1       4.816  10.253  -5.297  1.00  0.00     0.031 C 
ATOM     42  C   UNL     1       6.126   3.820  -7.394  1.00  0.00     0.029 A 
ATOM     43  C   UNL     1       7.132   4.820  -7.743  1.00  0.00     0.049 A 
ATOM     44  H   UNL     1       7.147   6.837  -7.225  1.00  0.00     0.167 HD
ATOM     45  C   UNL     1       6.937  11.099  -6.262  1.00  0.00     0.031 A 
ATOM     46  C   UNL     1       8.241   4.590  -8.469  1.00  0.00     0.031 A 
ATOM     47  C   UNL     1       8.169  10.941  -6.987  1.00  0.00     0.049 A 
ATOM     48  C   UNL     1       9.171   5.729  -8.774  1.00  0.00     0.074 A 
ATOM     49  C   UNL     1       9.130  11.895  -7.276  1.00  0.00     0.029 A 
ATOM     50  N   UNL     1       8.609   9.748  -7.539  1.00  0.00    -0.354 N 
ATOM     51  N   UNL     1       9.078   6.988  -8.418  1.00  0.00    -0.248 NA
ATOM     52  C   UNL     1      10.357   5.416  -9.583  1.00  0.00     0.031 C 
ATOM     53  C   UNL     1      10.133  11.286  -8.040  1.00  0.00     0.029 A 
ATOM     54  C   UNL     1       9.817   9.945  -8.187  1.00  0.00     0.049 A 
ATOM     55  H   UNL     1       8.133   8.889  -7.480  1.00  0.00     0.167 HD
ATOM     56  C   UNL     1      10.197   7.615  -8.948  1.00  0.00     0.074 A 
ATOM     57  C   UNL     1      10.963   6.595  -9.635  1.00  0.00     0.031 C 
ATOM     58  C   UNL     1      10.558   8.919  -8.873  1.00  0.00     0.031 A 
BRANCH  45  59
ATOM     59  C   UNL     1       6.563  12.466  -5.768  1.00  0.00    -0.014 A 
ATOM     60  C   UNL     1       6.626  12.793  -4.405  1.00  0.00     0.009 A 
ATOM     61  C   UNL     1       6.151  13.446  -6.685  1.00  0.00     0.009 A 
ATOM     62  C   UNL     1       6.248  14.063  -3.965  1.00  0.00     0.001 A 
ATOM     63  C   UNL     1       5.795  14.722  -6.245  1.00  0.00     0.001 A 
ATOM     64  C   UNL     1       5.835  15.027  -4.886  1.00  0.00     0.000 A 
ENDBRANCH  45  59
BRANCH  46  65
ATOM     65  C   UNL     1       8.506   3.227  -8.992  1.00  0.00    -0.014 A 
ATOM     66  C   UNL     1       9.522   2.433  -8.441  1.00  0.00     0.009 A 
ATOM     67  C   UNL     1       7.727   2.708 -10.039  1.00  0.00     0.009 A 
ATOM     68  C   UNL     1       9.762   1.150  -8.938  1.00  0.00     0.001 A 
ATOM     69  C   UNL     1       7.954   1.416 -10.517  1.00  0.00     0.001 A 
ATOM     70  C   UNL     1       8.975   0.641  -9.971  1.00  0.00     0.000 A 
ENDBRANCH  46  65
BRANCH  58  71
ATOM     71  C   UNL     1      11.848   9.308  -9.536  1.00  0.00    -0.014 A 
ATOM     72  C   UNL     1      11.935   9.434 -10.930  1.00  0.00     0.009 A 
ATOM     73  C   UNL     1      12.978   9.585  -8.752  1.00  0.00     0.009 A 
ATOM     74  C   UNL     1      13.140   9.805 -11.529  1.00  0.00     0.001 A 
ATOM     75  C   UNL     1      14.175   9.977  -9.352  1.00  0.00     0.001 A 
ATOM     76  C   UNL     1      14.257  10.079 -10.740  1.00  0.00     0.000 A 
ENDBRANCH  58  71
ENDBRANCH  32  33
ENDBRANCH  25  27
ENDBRANCH  24  25
ENDBRANCH  23  24
ENDBRANCH   1  23
TORSDOF 14
