REMARK SMILES C[C@H]1Oc2ccccc2C=C1/C=C/C(=O)N[C@H](C(=O)OCCOC(=O)c1ccc(-c2c3nc(c(-c4ccccc4)c4ccc([nH]4)c(-c4ccccc4)c4nc(c(-c5ccccc5)c5ccc2[nH]5)C=C4)C=C3)cc1)c1ccccc1
REMARK SMILES IDX 21 1 20 2 18 3 19 4 17 5 16 6 14 7 15 8 13 10 12 11 11 12
REMARK SMILES IDX 1 13 2 14 3 15 4 16 10 17 5 18 9 19 6 20 8 21 7 22 74 23
REMARK SMILES IDX 75 24 79 25 76 26 78 27 77 28 22 29 23 30 24 31 25 32 26 33
REMARK SMILES IDX 27 34 73 35 28 36 72 37 29 38 30 39 31 40 66 41 32 42 71 43
REMARK SMILES IDX 65 44 67 45 33 46 70 47 64 48 63 49 34 51 56 52 41 53 55 54
REMARK SMILES IDX 42 55 45 56 54 57 68 58 43 59 44 60 53 62 69 63 46 64 35 65
REMARK SMILES IDX 36 66 40 67 37 68 39 69 38 70 57 71 58 72 62 73 59 74 61 75
REMARK SMILES IDX 60 76 47 77 48 78 52 79 49 80 51 81 50 82
REMARK H PARENT 16 9 67 50 45 61
REMARK Flexibility Score: inf
ROOT
ATOM      1  C   UNL     1       1.704   1.983   6.020  1.00  0.00     0.274 C 
ENDROOT
BRANCH   1   2
ATOM      2  O   UNL     1       1.202   1.168   4.939  1.00  0.00    -0.460 OA
BRANCH   2   3
ATOM      3  C   UNL     1       1.748  -0.079   4.838  1.00  0.00     0.333 C 
ATOM      4  O   UNL     1       2.604  -0.531   5.594  1.00  0.00    -0.249 OA
BRANCH   3   5
ATOM      5  C   UNL     1       1.187  -0.865   3.633  1.00  0.00     0.223 C 
BRANCH   5   6
ATOM      6  N   UNL     1       2.291  -1.745   3.204  1.00  0.00    -0.335 N 
ATOM      7  C   UNL     1       2.462  -2.594   2.163  1.00  0.00     0.244 C 
ATOM      8  O   UNL     1       3.546  -3.151   2.012  1.00  0.00    -0.270 OA
ATOM      9  H   UNL     1       3.071  -1.706   3.804  1.00  0.00     0.165 HD
BRANCH   7  10
ATOM     10  C   UNL     1       1.323  -2.997   1.313  1.00  0.00     0.071 C 
ATOM     11  C   UNL     1       0.428  -2.162   0.771  1.00  0.00     0.013 C 
BRANCH  11  12
ATOM     12  C   UNL     1      -0.754  -2.591   0.034  1.00  0.00    -0.007 C 
ATOM     13  C   UNL     1      -2.011  -0.374   0.006  1.00  0.00     0.058 C 
ATOM     14  C   UNL     1      -2.061  -1.866   0.340  1.00  0.00     0.200 C 
ATOM     15  O   UNL     1      -3.251  -2.376  -0.294  1.00  0.00    -0.485 OA
ATOM     16  C   UNL     1      -3.111  -3.294  -1.292  1.00  0.00     0.127 A 
ATOM     17  C   UNL     1      -0.697  -3.577  -0.873  1.00  0.00     0.019 C 
ATOM     18  C   UNL     1      -4.269  -3.596  -2.011  1.00  0.00     0.047 A 
ATOM     19  C   UNL     1      -1.908  -3.928  -1.598  1.00  0.00     0.017 A 
ATOM     20  C   UNL     1      -4.228  -4.534  -3.041  1.00  0.00     0.004 A 
ATOM     21  C   UNL     1      -1.875  -4.887  -2.615  1.00  0.00     0.012 A 
ATOM     22  C   UNL     1      -3.032  -5.186  -3.338  1.00  0.00     0.001 A 
ENDBRANCH  11  12
ENDBRANCH   7  10
ENDBRANCH   5   6
BRANCH   5  23
ATOM     23  C   UNL     1      -0.131  -1.560   3.946  1.00  0.00    -0.014 A 
ATOM     24  C   UNL     1      -0.245  -2.953   4.101  1.00  0.00     0.006 A 
ATOM     25  C   UNL     1      -1.305  -0.793   4.059  1.00  0.00     0.006 A 
ATOM     26  C   UNL     1      -1.488  -3.561   4.300  1.00  0.00     0.000 A 
ATOM     27  C   UNL     1      -2.544  -1.399   4.289  1.00  0.00     0.000 A 
ATOM     28  C   UNL     1      -2.638  -2.784   4.394  1.00  0.00     0.000 A 
ENDBRANCH   5  23
ENDBRANCH   3   5
ENDBRANCH   2   3
ENDBRANCH   1   2
BRANCH   1  29
ATOM     29  C   UNL     1       0.704   2.031   7.172  1.00  0.00     0.275 C 
BRANCH  29  30
ATOM     30  O   UNL     1       0.444   0.694   7.627  1.00  0.00    -0.458 OA
BRANCH  30  31
ATOM     31  C   UNL     1      -0.851   0.302   7.602  1.00  0.00     0.338 C 
ATOM     32  O   UNL     1      -1.825   0.981   7.329  1.00  0.00    -0.246 OA
BRANCH  31  33
ATOM     33  C   UNL     1      -0.930  -1.124   7.965  1.00  0.00     0.060 A 
ATOM     34  C   UNL     1      -1.910  -1.556   8.855  1.00  0.00     0.016 A 
ATOM     35  C   UNL     1      -0.099  -2.053   7.344  1.00  0.00     0.016 A 
ATOM     36  C   UNL     1      -2.031  -2.921   9.134  1.00  0.00     0.010 A 
ATOM     37  C   UNL     1      -0.310  -3.418   7.527  1.00  0.00     0.010 A 
ATOM     38  C   UNL     1      -1.256  -3.875   8.447  1.00  0.00    -0.014 A 
BRANCH  38  39
ATOM     39  C   UNL     1      -1.438  -5.334   8.691  1.00  0.00     0.031 A 
ATOM     40  C   UNL     1      -0.284  -6.205   9.126  1.00  0.00     0.074 A 
ATOM     41  C   UNL     1      -2.655  -5.891   8.514  1.00  0.00     0.049 A 
ATOM     42  N   UNL     1      -0.299  -7.463   9.495  1.00  0.00    -0.248 NA
ATOM     43  C   UNL     1       1.064  -5.612   9.114  1.00  0.00     0.031 C 
ATOM     44  C   UNL     1      -3.834  -5.199   7.988  1.00  0.00     0.029 A 
ATOM     45  N   UNL     1      -3.112  -7.157   8.791  1.00  0.00    -0.354 N 
ATOM     46  C   UNL     1       1.026  -7.805   9.736  1.00  0.00     0.074 A 
ATOM     47  C   UNL     1       1.829  -6.654   9.399  1.00  0.00     0.031 C 
ATOM     48  C   UNL     1      -4.897  -6.013   8.076  1.00  0.00     0.029 A 
ATOM     49  C   UNL     1      -4.471  -7.295   8.629  1.00  0.00     0.049 A 
ATOM     50  H   UNL     1      -2.525  -7.893   9.079  1.00  0.00     0.167 HD
ATOM     51  C   UNL     1       1.533  -8.955  10.238  1.00  0.00     0.031 A 
ATOM     52  C   UNL     1      -5.293  -8.321   8.928  1.00  0.00     0.031 A 
ATOM     53  C   UNL     1       0.735 -10.085  10.623  1.00  0.00     0.049 A 
ATOM     54  C   UNL     1      -4.724  -9.564   9.554  1.00  0.00     0.074 A 
ATOM     55  C   UNL     1       1.146 -11.262  11.223  1.00  0.00     0.029 A 
ATOM     56  N   UNL     1      -0.637 -10.174  10.455  1.00  0.00    -0.354 N 
ATOM     57  N   UNL     1      -3.482  -9.828   9.878  1.00  0.00    -0.248 NA
ATOM     58  C   UNL     1      -5.671 -10.643   9.872  1.00  0.00     0.031 C 
ATOM     59  C   UNL     1       0.027 -12.082  11.380  1.00  0.00     0.029 A 
ATOM     60  C   UNL     1      -1.087 -11.393  10.928  1.00  0.00     0.049 A 
ATOM     61  H   UNL     1      -1.206  -9.475  10.059  1.00  0.00     0.167 HD
ATOM     62  C   UNL     1      -3.499 -11.092  10.450  1.00  0.00     0.074 A 
ATOM     63  C   UNL     1      -4.878 -11.536  10.450  1.00  0.00     0.031 C 
ATOM     64  C   UNL     1      -2.462 -11.820  10.929  1.00  0.00     0.031 A 
BRANCH  51  65
ATOM     65  C   UNL     1       3.021  -9.037  10.447  1.00  0.00    -0.014 A 
ATOM     66  C   UNL     1       3.790  -9.938   9.693  1.00  0.00     0.009 A 
ATOM     67  C   UNL     1       3.652  -8.276  11.444  1.00  0.00     0.009 A 
ATOM     68  C   UNL     1       5.158 -10.075   9.934  1.00  0.00     0.001 A 
ATOM     69  C   UNL     1       5.027  -8.391  11.661  1.00  0.00     0.001 A 
ATOM     70  C   UNL     1       5.777  -9.296  10.912  1.00  0.00     0.000 A 
ENDBRANCH  51  65
BRANCH  52  71
ATOM     71  C   UNL     1      -6.757  -8.171   8.716  1.00  0.00    -0.014 A 
ATOM     72  C   UNL     1      -7.298  -8.139   7.421  1.00  0.00     0.009 A 
ATOM     73  C   UNL     1      -7.617  -8.010   9.814  1.00  0.00     0.009 A 
ATOM     74  C   UNL     1      -8.667  -7.931   7.231  1.00  0.00     0.001 A 
ATOM     75  C   UNL     1      -8.989  -7.830   9.621  1.00  0.00     0.001 A 
ATOM     76  C   UNL     1      -9.511  -7.782   8.330  1.00  0.00     0.000 A 
ENDBRANCH  52  71
BRANCH  64  77
ATOM     77  C   UNL     1      -2.755 -13.175  11.506  1.00  0.00    -0.014 A 
ATOM     78  C   UNL     1      -2.601 -13.392  12.885  1.00  0.00     0.009 A 
ATOM     79  C   UNL     1      -3.056 -14.263  10.673  1.00  0.00     0.009 A 
ATOM     80  C   UNL     1      -2.724 -14.676  13.417  1.00  0.00     0.001 A 
ATOM     81  C   UNL     1      -3.204 -15.542  11.213  1.00  0.00     0.001 A 
ATOM     82  C   UNL     1      -3.028 -15.749  12.581  1.00  0.00     0.000 A 
ENDBRANCH  64  77
ENDBRANCH  38  39
ENDBRANCH  31  33
ENDBRANCH  30  31
ENDBRANCH  29  30
ENDBRANCH   1  29
TORSDOF 15
