REMARK SMILES CC(=O)N[C@H](C(=O)NC1(CC(=O)OCCOC(=O)c2ccc(-c3c4nc(c(-c5ccccc5)c5ccc([nH]5)c(-c5ccccc5)c5nc(c(-c6ccccc6)c6ccc3[nH]6)C=C5)C=C4)cc2)CCC1)C(C)C
REMARK SMILES IDX 14 1 13 2 11 3 12 4 10 5 9 6 67 7 69 8 68 9 8 10 6 11 7 12
REMARK SMILES IDX 5 14 4 15 1 16 2 17 3 18 70 20 71 21 72 22 15 23 16 24 17 25
REMARK SMILES IDX 18 26 19 27 20 28 66 29 21 30 65 31 22 32 23 33 24 34 59 35
REMARK SMILES IDX 25 36 64 37 58 38 60 39 26 40 63 41 57 42 56 43 27 45 49 46
REMARK SMILES IDX 34 47 48 48 35 49 38 50 47 51 61 52 36 53 37 54 46 56 62 57
REMARK SMILES IDX 39 58 28 59 29 60 33 61 30 62 32 63 31 64 50 65 51 66 55 67
REMARK SMILES IDX 52 68 54 69 53 70 40 71 41 72 45 73 42 74 44 75 43 76
REMARK H PARENT 8 13 4 19 60 44 38 55
REMARK Flexibility Score: inf
ROOT
ATOM      1  C   UNL     1       3.440   0.778  -2.449  1.00  0.00     0.274 C 
ENDROOT
BRANCH   1   2
ATOM      2  O   UNL     1       3.587  -0.419  -1.653  1.00  0.00    -0.462 OA
BRANCH   2   3
ATOM      3  C   UNL     1       3.852  -0.183  -0.350  1.00  0.00     0.308 C 
ATOM      4  O   UNL     1       3.939   0.941   0.141  1.00  0.00    -0.252 OA
BRANCH   3   5
ATOM      5  C   UNL     1       4.145  -1.387   0.486  1.00  0.00     0.151 C 
BRANCH   5   6
ATOM      6  C   UNL     1       3.578  -2.791   0.226  1.00  0.00     0.051 C 
ATOM      7  C   UNL     1       3.905  -3.660   1.524  1.00  0.00     0.029 C 
ATOM      8  C   UNL     1       4.493  -3.823  -0.497  1.00  0.00     0.029 C 
ATOM      9  C   UNL     1       5.202  -4.106   0.841  1.00  0.00     0.005 C 
BRANCH   6  10
ATOM     10  N   UNL     1       2.104  -2.871   0.041  1.00  0.00    -0.348 N 
ATOM     11  C   UNL     1       1.267  -3.185  -1.005  1.00  0.00     0.243 C 
ATOM     12  O   UNL     1       0.138  -3.573  -0.678  1.00  0.00    -0.273 OA
ATOM     13  H   UNL     1       1.610  -2.646   0.863  1.00  0.00     0.164 HD
BRANCH  11  14
ATOM     14  C   UNL     1       1.700  -3.094  -2.492  1.00  0.00     0.173 C 
BRANCH  14  15
ATOM     15  N   UNL     1       2.684  -4.125  -2.855  1.00  0.00    -0.344 N 
ATOM     16  C   UNL     1       1.548  -6.105  -1.892  1.00  0.00     0.114 C 
ATOM     17  C   UNL     1       2.570  -5.483  -2.804  1.00  0.00     0.217 C 
ATOM     18  O   UNL     1       3.369  -6.168  -3.442  1.00  0.00    -0.275 OA
ATOM     19  H   UNL     1       3.550  -3.786  -3.180  1.00  0.00     0.164 HD
ENDBRANCH  14  15
BRANCH  14  20
ATOM     20  C   UNL     1       0.575  -3.073  -3.583  1.00  0.00     0.015 C 
ATOM     21  C   UNL     1      -0.686  -2.247  -3.303  1.00  0.00     0.010 C 
ATOM     22  C   UNL     1       1.161  -2.542  -4.909  1.00  0.00     0.010 C 
ENDBRANCH  14  20
ENDBRANCH  11  14
ENDBRANCH   6  10
ENDBRANCH   5   6
ENDBRANCH   3   5
ENDBRANCH   2   3
ENDBRANCH   1   2
BRANCH   1  23
ATOM     23  C   UNL     1       2.005   1.320  -2.513  1.00  0.00     0.275 C 
BRANCH  23  24
ATOM     24  O   UNL     1       1.407   1.527  -1.217  1.00  0.00    -0.458 OA
BRANCH  24  25
ATOM     25  C   UNL     1       0.695   0.463  -0.786  1.00  0.00     0.338 C 
ATOM     26  O   UNL     1       0.549  -0.588  -1.376  1.00  0.00    -0.246 OA
BRANCH  25  27
ATOM     27  C   UNL     1       0.132   0.640   0.549  1.00  0.00     0.060 A 
ATOM     28  C   UNL     1       0.884   0.229   1.649  1.00  0.00     0.016 A 
ATOM     29  C   UNL     1      -1.198   1.032   0.696  1.00  0.00     0.016 A 
ATOM     30  C   UNL     1       0.324   0.251   2.918  1.00  0.00     0.010 A 
ATOM     31  C   UNL     1      -1.748   1.101   1.976  1.00  0.00     0.010 A 
ATOM     32  C   UNL     1      -0.978   0.738   3.093  1.00  0.00    -0.014 A 
BRANCH  32  33
ATOM     33  C   UNL     1      -1.446   1.055   4.458  1.00  0.00     0.031 A 
ATOM     34  C   UNL     1      -2.502   0.250   5.142  1.00  0.00     0.074 A 
ATOM     35  C   UNL     1      -0.892   2.127   5.056  1.00  0.00     0.049 A 
ATOM     36  N   UNL     1      -3.047   0.450   6.314  1.00  0.00    -0.248 NA
ATOM     37  C   UNL     1      -3.017  -0.925   4.425  1.00  0.00     0.031 C 
ATOM     38  C   UNL     1       0.153   2.973   4.467  1.00  0.00     0.029 A 
ATOM     39  N   UNL     1      -1.123   2.689   6.282  1.00  0.00    -0.354 N 
ATOM     40  C   UNL     1      -3.982  -0.563   6.474  1.00  0.00     0.074 A 
ATOM     41  C   UNL     1      -3.936  -1.372   5.273  1.00  0.00     0.031 C 
ATOM     42  C   UNL     1       0.487   3.931   5.341  1.00  0.00     0.029 A 
ATOM     43  C   UNL     1      -0.358   3.803   6.520  1.00  0.00     0.049 A 
ATOM     44  H   UNL     1      -1.773   2.330   6.928  1.00  0.00     0.167 HD
ATOM     45  C   UNL     1      -4.805  -0.784   7.528  1.00  0.00     0.031 A 
ATOM     46  C   UNL     1      -0.355   4.650   7.563  1.00  0.00     0.031 A 
ATOM     47  C   UNL     1      -4.851   0.044   8.706  1.00  0.00     0.049 A 
ATOM     48  C   UNL     1      -1.304   4.402   8.692  1.00  0.00     0.074 A 
ATOM     49  C   UNL     1      -5.639  -0.102   9.835  1.00  0.00     0.029 A 
ATOM     50  N   UNL     1      -4.081   1.182   8.904  1.00  0.00    -0.354 N 
ATOM     51  N   UNL     1      -2.173   3.431   8.836  1.00  0.00    -0.248 NA
ATOM     52  C   UNL     1      -1.276   5.365   9.798  1.00  0.00     0.031 C 
ATOM     53  C   UNL     1      -5.378   0.972  10.695  1.00  0.00     0.029 A 
ATOM     54  C   UNL     1      -4.392   1.760  10.123  1.00  0.00     0.049 A 
ATOM     55  H   UNL     1      -3.411   1.526   8.270  1.00  0.00     0.167 HD
ATOM     56  C   UNL     1      -2.793   3.660  10.055  1.00  0.00     0.074 A 
ATOM     57  C   UNL     1      -2.180   4.848  10.618  1.00  0.00     0.031 C 
ATOM     58  C   UNL     1      -3.783   2.954  10.652  1.00  0.00     0.031 A 
BRANCH  45  59
ATOM     59  C   UNL     1      -5.751  -1.948   7.437  1.00  0.00    -0.014 A 
ATOM     60  C   UNL     1      -5.298  -3.269   7.575  1.00  0.00     0.009 A 
ATOM     61  C   UNL     1      -7.124  -1.717   7.256  1.00  0.00     0.009 A 
ATOM     62  C   UNL     1      -6.198  -4.336   7.508  1.00  0.00     0.001 A 
ATOM     63  C   UNL     1      -8.024  -2.784   7.210  1.00  0.00     0.001 A 
ATOM     64  C   UNL     1      -7.559  -4.092   7.329  1.00  0.00     0.000 A 
ENDBRANCH  45  59
BRANCH  46  65
ATOM     65  C   UNL     1       0.567   5.812   7.561  1.00  0.00    -0.014 A 
ATOM     66  C   UNL     1       1.683   5.837   8.408  1.00  0.00     0.009 A 
ATOM     67  C   UNL     1       0.357   6.883   6.677  1.00  0.00     0.009 A 
ATOM     68  C   UNL     1       2.564   6.919   8.381  1.00  0.00     0.001 A 
ATOM     69  C   UNL     1       1.255   7.951   6.633  1.00  0.00     0.001 A 
ATOM     70  C   UNL     1       2.354   7.971   7.489  1.00  0.00     0.000 A 
ENDBRANCH  46  65
BRANCH  58  71
ATOM     71  C   UNL     1      -4.245   3.456  11.988  1.00  0.00    -0.014 A 
ATOM     72  C   UNL     1      -5.041   4.608  12.091  1.00  0.00     0.009 A 
ATOM     73  C   UNL     1      -3.876   2.772  13.155  1.00  0.00     0.009 A 
ATOM     74  C   UNL     1      -5.427   5.086  13.344  1.00  0.00     0.001 A 
ATOM     75  C   UNL     1      -4.285   3.239  14.405  1.00  0.00     0.001 A 
ATOM     76  C   UNL     1      -5.050   4.400  14.498  1.00  0.00     0.000 A 
ENDBRANCH  58  71
ENDBRANCH  32  33
ENDBRANCH  25  27
ENDBRANCH  24  25
ENDBRANCH  23  24
ENDBRANCH   1  23
TORSDOF 16
