REMARK SMILES Cc1c(C[NH2+]C2CCCCCC2)c(C(=O)OCCOC(=O)c2ccc(-c3c4nc(c(-c5ccccc5)c5ccc([nH]5)c(-c5ccccc5)c5nc(c(-c6ccccc6)c6ccc3[nH]6)C=C5)C=C4)cc2)c(C)n1Cc1cccc(F)c1
REMARK SMILES IDX 14 1 15 2 13 3 1 4 2 5 3 6 72 7 70 8 71 9 4 10 5 11 6 14
REMARK SMILES IDX 7 15 8 16 12 18 11 19 10 20 9 21 73 23 74 24 75 25 80 26
REMARK SMILES IDX 76 27 78 28 77 29 79 30 16 31 17 32 18 33 19 34 20 35 21 36
REMARK SMILES IDX 22 37 23 38 69 39 24 40 68 41 25 42 26 43 27 44 62 45 28 46
REMARK SMILES IDX 67 47 61 48 63 49 29 50 66 51 60 52 59 53 30 55 52 56 37 57
REMARK SMILES IDX 51 58 38 59 41 60 50 61 64 62 39 63 40 64 49 66 65 67 42 68
REMARK SMILES IDX 31 69 32 70 36 71 33 72 35 73 34 74 53 75 54 76 58 77 55 78
REMARK SMILES IDX 57 79 56 80 43 81 44 82 48 83 45 84 47 85 46 86
REMARK H PARENT 5 12 5 13 63 54 41 65
REMARK Flexibility Score: 80.00
ROOT
ATOM      1  C   UNL     1      -1.141  -0.304  -5.002  1.00  0.00     0.340 C 
ATOM      2  O   UNL     1      -2.223  -0.906  -5.083  1.00  0.00    -0.246 OA
ENDROOT
BRANCH   1   3
ATOM      3  C   UNL     1      -0.566   0.174  -3.741  1.00  0.00     0.089 A 
ATOM      4  C   UNL     1       0.866  -0.071  -0.287  1.00  0.00     0.065 C 
ATOM      5  C   UNL     1       0.352   0.238  -1.657  1.00  0.00     0.025 A 
ATOM      6  C   UNL     1      -0.180  -0.632  -2.614  1.00  0.00     0.042 A 
ATOM      7  N   UNL     1       0.348   1.531  -2.188  1.00  0.00    -0.343 N 
ATOM      8  C   UNL     1      -0.403   1.508  -3.358  1.00  0.00     0.030 A 
ATOM      9  C   UNL     1      -0.958   2.716  -4.033  1.00  0.00     0.065 C 
BRANCH   6  10
ATOM     10  C   UNL     1      -0.340  -2.144  -2.545  1.00  0.00     0.300 C 
BRANCH  10  11
ATOM     11  N   UNL     1      -1.763  -2.449  -2.623  1.00  0.00    -0.340 N 
ATOM     12  H   UNL     1      -2.141  -1.919  -3.409  1.00  0.00     0.346 HD
ATOM     13  H   UNL     1      -2.120  -2.205  -1.700  1.00  0.00     0.346 HD
BRANCH  11  14
ATOM     14  C   UNL     1      -2.176  -3.849  -2.807  1.00  0.00     0.182 C 
BRANCH  14  15
ATOM     15  C   UNL     1      -1.965  -4.361  -4.252  1.00  0.00     0.065 C 
BRANCH  15  16
ATOM     16  C   UNL     1      -1.141  -5.634  -4.460  1.00  0.00     0.006 CG0
ATOM     17  G   UNL     1      -1.840  -6.923  -4.031  1.00  0.00     0.000 G0
ENDBRANCH  15  16
ENDBRANCH  14  15
BRANCH  14  18
ATOM     18  C   UNL     1      -1.700  -4.779  -1.685  1.00  0.00     0.065 C 
BRANCH  18  19
ATOM     19  C   UNL     1      -2.454  -6.113  -1.670  1.00  0.00     0.006 C 
BRANCH  19  20
ATOM     20  C   UNL     1      -1.818  -7.196  -2.532  1.00  0.00     0.000 C 
BRANCH  20  21
ATOM     21  C   UNL     1      -1.840  -6.923  -4.031  1.00  0.00     0.000 CG0
ATOM     22  G   UNL     1      -1.141  -5.634  -4.460  1.00  0.00     0.000 G0
ENDBRANCH  20  21
ENDBRANCH  19  20
ENDBRANCH  18  19
ENDBRANCH  14  18
ENDBRANCH  11  14
ENDBRANCH  10  11
ENDBRANCH   6  10
BRANCH   7  23
ATOM     23  C   UNL     1       0.847   2.739  -1.492  1.00  0.00     0.157 C 
BRANCH  23  24
ATOM     24  C   UNL     1       2.081   3.415  -2.079  1.00  0.00    -0.025 A 
ATOM     25  C   UNL     1       3.233   3.608  -1.289  1.00  0.00     0.006 A 
ATOM     26  C   UNL     1       2.083   3.999  -3.353  1.00  0.00     0.044 A 
ATOM     27  C   UNL     1       4.336   4.337  -1.766  1.00  0.00     0.003 A 
ATOM     28  C   UNL     1       3.183   4.715  -3.824  1.00  0.00     0.123 A 
ATOM     29  C   UNL     1       4.311   4.890  -3.043  1.00  0.00     0.039 A 
ATOM     30  F   UNL     1       3.131   5.265  -5.045  1.00  0.00    -0.207 F 
ENDBRANCH  23  24
ENDBRANCH   7  23
ENDBRANCH   1   3
BRANCH   1  31
ATOM     31  O   UNL     1      -0.355  -0.036  -6.082  1.00  0.00    -0.458 OA
BRANCH  31  32
ATOM     32  C   UNL     1      -0.807  -0.525  -7.373  1.00  0.00     0.275 C 
BRANCH  32  33
ATOM     33  C   UNL     1       0.300  -1.354  -8.098  1.00  0.00     0.275 C 
BRANCH  33  34
ATOM     34  O   UNL     1       0.187  -2.837  -8.241  1.00  0.00    -0.458 OA
BRANCH  34  35
ATOM     35  C   UNL     1       1.128  -3.617  -7.601  1.00  0.00     0.338 C 
ATOM     36  O   UNL     1       1.778  -3.174  -6.656  1.00  0.00    -0.246 OA
BRANCH  35  37
ATOM     37  C   UNL     1       1.380  -5.101  -8.076  1.00  0.00     0.060 A 
ATOM     38  C   UNL     1       1.920  -5.970  -7.144  1.00  0.00     0.016 A 
ATOM     39  C   UNL     1       1.304  -5.720  -9.348  1.00  0.00     0.016 A 
ATOM     40  C   UNL     1       2.318  -7.338  -7.468  1.00  0.00     0.010 A 
ATOM     41  C   UNL     1       1.706  -7.179  -9.658  1.00  0.00     0.010 A 
ATOM     42  C   UNL     1       2.219  -8.091  -8.711  1.00  0.00    -0.014 A 
BRANCH  42  43
ATOM     43  C   UNL     1       2.573  -9.812  -8.709  1.00  0.00     0.031 A 
ATOM     44  C   UNL     1       2.520 -10.132  -7.266  1.00  0.00     0.074 A 
ATOM     45  C   UNL     1       3.087 -10.998  -9.358  1.00  0.00     0.049 A 
ATOM     46  N   UNL     1       3.629  -9.906  -6.652  1.00  0.00    -0.248 NA
ATOM     47  C   UNL     1       1.348 -10.217  -6.395  1.00  0.00     0.031 C 
ATOM     48  C   UNL     1       3.630 -11.183 -10.724  1.00  0.00     0.029 A 
ATOM     49  N   UNL     1       3.348 -12.390  -8.880  1.00  0.00    -0.354 N 
ATOM     50  C   UNL     1       3.322  -9.628  -5.346  1.00  0.00     0.074 A 
ATOM     51  C   UNL     1       1.909  -9.946  -5.202  1.00  0.00     0.031 C 
ATOM     52  C   UNL     1       3.960 -12.489 -11.015  1.00  0.00     0.029 A 
ATOM     53  C   UNL     1       3.775 -13.402  -9.873  1.00  0.00     0.049 A 
ATOM     54  H   UNL     1       3.240 -12.627  -7.930  1.00  0.00     0.167 HD
ATOM     55  C   UNL     1       4.386  -9.615  -4.507  1.00  0.00     0.031 A 
ATOM     56  C   UNL     1       4.082 -14.796  -9.793  1.00  0.00     0.031 A 
ATOM     57  C   UNL     1       4.713 -11.005  -4.287  1.00  0.00     0.049 A 
ATOM     58  C   UNL     1       4.680 -14.984  -8.468  1.00  0.00     0.074 A 
ATOM     59  C   UNL     1       3.857 -12.068  -4.032  1.00  0.00     0.029 A 
ATOM     60  N   UNL     1       5.814 -11.516  -4.942  1.00  0.00    -0.354 N 
ATOM     61  N   UNL     1       5.928 -14.683  -8.265  1.00  0.00    -0.248 NA
ATOM     62  C   UNL     1       4.025 -15.689  -7.374  1.00  0.00     0.031 C 
ATOM     63  C   UNL     1       4.208 -13.026  -5.003  1.00  0.00     0.029 A 
ATOM     64  C   UNL     1       5.490 -12.750  -5.462  1.00  0.00     0.049 A 
ATOM     65  H   UNL     1       6.689 -11.072  -5.025  1.00  0.00     0.167 HD
ATOM     66  C   UNL     1       5.967 -14.561  -6.916  1.00  0.00     0.074 A 
ATOM     67  C   UNL     1       4.928 -15.450  -6.419  1.00  0.00     0.031 C 
ATOM     68  C   UNL     1       6.339 -13.339  -6.461  1.00  0.00     0.031 A 
BRANCH  55  69
ATOM     69  C   UNL     1       5.405  -8.556  -4.975  1.00  0.00    -0.014 A 
ATOM     70  C   UNL     1       5.697  -7.481  -4.129  1.00  0.00     0.009 A 
ATOM     71  C   UNL     1       5.904  -8.475  -6.303  1.00  0.00     0.009 A 
ATOM     72  C   UNL     1       6.373  -6.347  -4.615  1.00  0.00     0.001 A 
ATOM     73  C   UNL     1       6.514  -7.323  -6.803  1.00  0.00     0.001 A 
ATOM     74  C   UNL     1       6.743  -6.251  -5.957  1.00  0.00     0.000 A 
ENDBRANCH  55  69
BRANCH  56  75
ATOM     75  C   UNL     1       4.387 -16.218 -10.528  1.00  0.00    -0.014 A 
ATOM     76  C   UNL     1       5.440 -17.100 -10.053  1.00  0.00     0.009 A 
ATOM     77  C   UNL     1       3.417 -16.913 -11.271  1.00  0.00     0.009 A 
ATOM     78  C   UNL     1       5.460 -18.517 -10.200  1.00  0.00     0.001 A 
ATOM     79  C   UNL     1       3.452 -18.341 -11.450  1.00  0.00     0.001 A 
ATOM     80  C   UNL     1       4.444 -19.146 -10.889  1.00  0.00     0.000 A 
ENDBRANCH  56  75
BRANCH  68  81
ATOM     81  C   UNL     1       7.429 -12.604  -7.224  1.00  0.00    -0.014 A 
ATOM     82  C   UNL     1       7.447 -12.391  -8.622  1.00  0.00     0.009 A 
ATOM     83  C   UNL     1       8.531 -12.139  -6.499  1.00  0.00     0.009 A 
ATOM     84  C   UNL     1       8.537 -11.792  -9.267  1.00  0.00     0.001 A 
ATOM     85  C   UNL     1       9.600 -11.496  -7.133  1.00  0.00     0.001 A 
ATOM     86  C   UNL     1       9.612 -11.336  -8.517  1.00  0.00     0.000 A 
ENDBRANCH  68  81
ENDBRANCH  42  43
ENDBRANCH  35  37
ENDBRANCH  34  35
ENDBRANCH  33  34
ENDBRANCH  32  33
ENDBRANCH  31  32
ENDBRANCH   1  31
TORSDOF 16
