REMARK SMILES O=C(CC[NH+]1CCC(CC(=O)OCCOC(=O)c2ccc(-c3c4nc(c(-c5ccccc5)c5ccc([nH]5)c(-c5ccccc5)c5nc(c(-c6ccccc6)c6ccc3[nH]6)C=C5)C=C4)cc2)CC1)NC1CC1
REMARK SMILES IDX 12 1 10 2 11 3 9 4 8 5 5 6 6 7 67 8 7 10 66 11 4 12 3 13
REMARK SMILES IDX 2 14 1 15 68 16 69 18 70 19 71 20 13 21 14 22 15 23 16 24
REMARK SMILES IDX 17 25 18 26 19 27 65 28 20 29 64 30 21 31 22 32 23 33 58 34
REMARK SMILES IDX 24 35 63 36 57 37 59 38 25 39 62 40 56 41 55 42 26 44 48 45
REMARK SMILES IDX 33 46 47 47 34 48 37 49 46 50 60 51 35 52 36 53 45 55 61 56
REMARK SMILES IDX 38 57 27 58 28 59 32 60 29 61 31 62 30 63 49 64 50 65 54 66
REMARK SMILES IDX 51 67 53 68 52 69 39 70 40 71 44 72 41 73 43 74 42 75
REMARK H PARENT 5 9 68 17 59 43 37 54
REMARK Flexibility Score: inf
ROOT
ATOM      1  O   UNL     1       5.996  -5.527  -0.480  1.00  0.00    -0.462 OA
ENDROOT
BRANCH   1   2
ATOM      2  C   UNL     1       6.929  -4.912  -1.248  1.00  0.00     0.306 C 
ATOM      3  O   UNL     1       7.495  -5.435  -2.202  1.00  0.00    -0.252 OA
BRANCH   2   4
ATOM      4  C   UNL     1       7.281  -3.517  -0.765  1.00  0.00     0.126 C 
BRANCH   4   5
ATOM      5  C   UNL     1       6.124  -2.578  -0.385  1.00  0.00     0.011 C 
ATOM      6  N   UNL     1       4.794  -0.543   1.278  1.00  0.00    -0.334 N 
ATOM      7  C   UNL     1       4.379  -1.943   1.324  1.00  0.00     0.262 C 
ATOM      8  C   UNL     1       5.512  -0.143   0.072  1.00  0.00     0.262 C 
ATOM      9  H   UNL     1       5.522  -0.459   1.988  1.00  0.00     0.348 HD
ATOM     10  C   UNL     1       5.515  -2.906   0.981  1.00  0.00     0.066 C 
ATOM     11  C   UNL     1       6.619  -1.120  -0.338  1.00  0.00     0.066 C 
BRANCH   6  12
ATOM     12  C   UNL     1       3.727   0.379   1.709  1.00  0.00     0.272 C 
BRANCH  12  13
ATOM     13  C   UNL     1       2.747   0.963   0.684  1.00  0.00     0.161 C 
BRANCH  13  14
ATOM     14  C   UNL     1       1.697  -0.006   0.180  1.00  0.00     0.225 C 
ATOM     15  O   UNL     1       0.591  -0.103   0.705  1.00  0.00    -0.275 OA
ATOM     16  N   UNL     1       2.087  -0.718  -0.934  1.00  0.00    -0.353 N 
ATOM     17  H   UNL     1       3.002  -0.583  -1.270  1.00  0.00     0.163 HD
BRANCH  16  18
ATOM     18  C   UNL     1       1.249  -1.637  -1.630  1.00  0.00     0.082 C 
ATOM     19  C   UNL     1       1.812  -2.383  -2.811  1.00  0.00     0.027 C 
ATOM     20  C   UNL     1       1.483  -3.118  -1.544  1.00  0.00     0.027 C 
ENDBRANCH  16  18
ENDBRANCH  13  14
ENDBRANCH  12  13
ENDBRANCH   6  12
ENDBRANCH   4   5
ENDBRANCH   2   4
ENDBRANCH   1   2
BRANCH   1  21
ATOM     21  C   UNL     1       5.634  -6.877  -0.841  1.00  0.00     0.274 C 
BRANCH  21  22
ATOM     22  C   UNL     1       4.348  -6.938  -1.674  1.00  0.00     0.275 C 
BRANCH  22  23
ATOM     23  O   UNL     1       4.554  -6.518  -3.037  1.00  0.00    -0.458 OA
BRANCH  23  24
ATOM     24  C   UNL     1       4.470  -5.182  -3.223  1.00  0.00     0.338 C 
ATOM     25  O   UNL     1       4.217  -4.342  -2.379  1.00  0.00    -0.246 OA
BRANCH  24  26
ATOM     26  C   UNL     1       4.855  -4.811  -4.589  1.00  0.00     0.060 A 
ATOM     27  C   UNL     1       5.884  -3.876  -4.742  1.00  0.00     0.016 A 
ATOM     28  C   UNL     1       4.162  -5.302  -5.696  1.00  0.00     0.016 A 
ATOM     29  C   UNL     1       6.235  -3.433  -6.013  1.00  0.00     0.010 A 
ATOM     30  C   UNL     1       4.519  -4.860  -6.971  1.00  0.00     0.010 A 
ATOM     31  C   UNL     1       5.558  -3.926  -7.136  1.00  0.00    -0.014 A 
BRANCH  31  32
ATOM     32  C   UNL     1       5.956  -3.490  -8.492  1.00  0.00     0.031 A 
ATOM     33  C   UNL     1       5.098  -2.536  -9.265  1.00  0.00     0.074 A 
ATOM     34  C   UNL     1       7.088  -3.981  -9.030  1.00  0.00     0.049 A 
ATOM     35  N   UNL     1       5.226  -2.131 -10.503  1.00  0.00    -0.248 NA
ATOM     36  C   UNL     1       3.945  -1.962  -8.556  1.00  0.00     0.031 C 
ATOM     37  C   UNL     1       8.022  -4.883  -8.353  1.00  0.00     0.029 A 
ATOM     38  N   UNL     1       7.636  -3.799 -10.273  1.00  0.00    -0.354 N 
ATOM     39  C   UNL     1       4.161  -1.269 -10.729  1.00  0.00     0.074 A 
ATOM     40  C   UNL     1       3.391  -1.218  -9.504  1.00  0.00     0.031 C 
ATOM     41  C   UNL     1       9.026  -5.181  -9.193  1.00  0.00     0.029 A 
ATOM     42  C   UNL     1       8.777  -4.535 -10.478  1.00  0.00     0.049 A 
ATOM     43  H   UNL     1       7.250  -3.200 -10.952  1.00  0.00     0.167 HD
ATOM     44  C   UNL     1       3.856  -0.588 -11.859  1.00  0.00     0.031 A 
ATOM     45  C   UNL     1       9.518  -4.701 -11.588  1.00  0.00     0.031 A 
ATOM     46  C   UNL     1       4.621  -0.654 -13.076  1.00  0.00     0.049 A 
ATOM     47  C   UNL     1       9.111  -3.997 -12.851  1.00  0.00     0.074 A 
ATOM     48  C   UNL     1       4.399   0.008 -14.272  1.00  0.00     0.029 A 
ATOM     49  N   UNL     1       5.752  -1.436 -13.255  1.00  0.00    -0.354 N 
ATOM     50  N   UNL     1       8.106  -3.180 -13.052  1.00  0.00    -0.248 NA
ATOM     51  C   UNL     1       9.938  -4.242 -14.040  1.00  0.00     0.031 C 
ATOM     52  C   UNL     1       5.369  -0.412 -15.189  1.00  0.00     0.029 A 
ATOM     53  C   UNL     1       6.224  -1.294 -14.549  1.00  0.00     0.049 A 
ATOM     54  H   UNL     1       6.159  -2.007 -12.564  1.00  0.00     0.167 HD
ATOM     55  C   UNL     1       8.192  -2.795 -14.383  1.00  0.00     0.074 A 
ATOM     56  C   UNL     1       9.354  -3.460 -14.938  1.00  0.00     0.031 C 
ATOM     57  C   UNL     1       7.381  -1.965 -15.082  1.00  0.00     0.031 A 
BRANCH  44  58
ATOM     58  C   UNL     1       2.614   0.258 -11.843  1.00  0.00    -0.014 A 
ATOM     59  C   UNL     1       2.567   1.474 -11.143  1.00  0.00     0.009 A 
ATOM     60  C   UNL     1       1.487  -0.151 -12.573  1.00  0.00     0.009 A 
ATOM     61  C   UNL     1       1.404   2.248 -11.152  1.00  0.00     0.001 A 
ATOM     62  C   UNL     1       0.335   0.637 -12.599  1.00  0.00     0.001 A 
ATOM     63  C   UNL     1       0.291   1.831 -11.883  1.00  0.00     0.000 A 
ENDBRANCH  44  58
BRANCH  45  64
ATOM     64  C   UNL     1      10.698  -5.601 -11.561  1.00  0.00    -0.014 A 
ATOM     65  C   UNL     1      11.997  -5.078 -11.634  1.00  0.00     0.009 A 
ATOM     66  C   UNL     1      10.529  -6.991 -11.454  1.00  0.00     0.009 A 
ATOM     67  C   UNL     1      13.103  -5.931 -11.617  1.00  0.00     0.001 A 
ATOM     68  C   UNL     1      11.637  -7.839 -11.409  1.00  0.00     0.001 A 
ATOM     69  C   UNL     1      12.923  -7.309 -11.499  1.00  0.00     0.000 A 
ENDBRANCH  45  64
BRANCH  57  70
ATOM     70  C   UNL     1       7.745  -1.701 -16.515  1.00  0.00    -0.014 A 
ATOM     71  C   UNL     1       7.522  -2.664 -17.511  1.00  0.00     0.009 A 
ATOM     72  C   UNL     1       8.277  -0.454 -16.877  1.00  0.00     0.009 A 
ATOM     73  C   UNL     1       7.850  -2.391 -18.840  1.00  0.00     0.001 A 
ATOM     74  C   UNL     1       8.581  -0.175 -18.210  1.00  0.00     0.001 A 
ATOM     75  C   UNL     1       8.374  -1.146 -19.189  1.00  0.00     0.000 A 
ENDBRANCH  57  70
ENDBRANCH  31  32
ENDBRANCH  24  26
ENDBRANCH  23  24
ENDBRANCH  22  23
ENDBRANCH  21  22
ENDBRANCH   1  21
TORSDOF 16
