REMARK SMILES Cc1ccc(F)c(C(=O)N[C@@H]2C=C[C@@H](C(=O)OCCOC(=O)c3ccc(-c4c5nc(c(-c6ccccc6)c6ccc([nH]6)c(-c6ccccc6)c6nc(c(-c7ccccc7)c7ccc4[nH]7)C=C6)C=C5)cc3)C2)c1
REMARK SMILES IDX 18 1 17 2 15 3 16 4 14 5 11 6 12 7 71 8 13 9 10 10 8 11 9 12
REMARK SMILES IDX 7 14 1 15 2 16 3 17 72 18 4 19 5 20 6 21 19 22 20 23 21 24
REMARK SMILES IDX 22 25 23 26 24 27 70 28 25 29 69 30 26 31 27 32 28 33 63 34
REMARK SMILES IDX 29 35 68 36 62 37 64 38 30 39 67 40 61 41 60 42 31 44 53 45
REMARK SMILES IDX 38 46 52 47 39 48 42 49 51 50 65 51 40 52 41 53 50 55 66 56
REMARK SMILES IDX 43 57 32 58 33 59 37 60 34 61 36 62 35 63 54 64 55 65 59 66
REMARK SMILES IDX 56 67 58 68 57 69 44 70 45 71 49 72 46 73 48 74 47 75
REMARK H PARENT 10 13 64 43 42 54
REMARK Flexibility Score: inf
ROOT
ATOM      1  C   UNL     1       1.794  -5.712   5.109  1.00  0.00     0.274 C 
ENDROOT
BRANCH   1   2
ATOM      2  O   UNL     1       1.691  -5.097   3.812  1.00  0.00    -0.462 OA
BRANCH   2   3
ATOM      3  C   UNL     1       2.579  -4.118   3.503  1.00  0.00     0.312 C 
ATOM      4  O   UNL     1       3.342  -3.595   4.308  1.00  0.00    -0.252 OA
BRANCH   3   5
ATOM      5  C   UNL     1       2.566  -3.750   2.018  1.00  0.00     0.124 C 
ATOM      6  C   UNL     1       0.841  -3.773   0.237  1.00  0.00     0.106 C 
ATOM      7  C   UNL     1       1.103  -2.400   0.768  1.00  0.00    -0.006 C 
ATOM      8  C   UNL     1       1.744  -4.660   1.095  1.00  0.00     0.048 C 
ATOM      9  C   UNL     1       2.009  -2.389   1.752  1.00  0.00    -0.014 C 
BRANCH   6  10
ATOM     10  N   UNL     1       1.123  -3.804  -1.183  1.00  0.00    -0.346 N 
ATOM     11  C   UNL     1       1.114  -4.839  -2.094  1.00  0.00     0.254 C 
ATOM     12  O   UNL     1       1.232  -4.560  -3.286  1.00  0.00    -0.269 OA
ATOM     13  H   UNL     1       1.365  -2.931  -1.567  1.00  0.00     0.164 HD
BRANCH  11  14
ATOM     14  C   UNL     1       1.022  -6.262  -1.684  1.00  0.00     0.075 A 
ATOM     15  C   UNL     1      -0.617  -8.476   0.944  1.00  0.00     0.044 C 
ATOM     16  C   UNL     1       0.208  -8.041  -0.233  1.00  0.00    -0.050 A 
ATOM     17  C   UNL     1       1.061  -8.950  -0.870  1.00  0.00     0.006 A 
ATOM     18  C   UNL     1       0.145  -6.715  -0.692  1.00  0.00     0.020 A 
ATOM     19  C   UNL     1       1.877  -8.526  -1.916  1.00  0.00     0.040 A 
ATOM     20  C   UNL     1       1.867  -7.187  -2.304  1.00  0.00     0.135 A 
ATOM     21  F   UNL     1       2.726  -6.813  -3.265  1.00  0.00    -0.206 F 
ENDBRANCH  11  14
ENDBRANCH   6  10
ENDBRANCH   3   5
ENDBRANCH   2   3
ENDBRANCH   1   2
BRANCH   1  22
ATOM     22  C   UNL     1       1.995  -7.221   4.944  1.00  0.00     0.275 C 
BRANCH  22  23
ATOM     23  O   UNL     1       3.255  -7.507   4.298  1.00  0.00    -0.458 OA
BRANCH  23  24
ATOM     24  C   UNL     1       3.184  -7.652   2.956  1.00  0.00     0.338 C 
ATOM     25  O   UNL     1       2.181  -7.604   2.262  1.00  0.00    -0.246 OA
BRANCH  24  26
ATOM     26  C   UNL     1       4.529  -7.774   2.378  1.00  0.00     0.060 A 
ATOM     27  C   UNL     1       4.962  -6.781   1.497  1.00  0.00     0.016 A 
ATOM     28  C   UNL     1       5.316  -8.901   2.618  1.00  0.00     0.016 A 
ATOM     29  C   UNL     1       6.186  -6.905   0.847  1.00  0.00     0.010 A 
ATOM     30  C   UNL     1       6.550  -9.023   1.970  1.00  0.00     0.010 A 
ATOM     31  C   UNL     1       6.988  -8.028   1.078  1.00  0.00    -0.014 A 
BRANCH  31  32
ATOM     32  C   UNL     1       8.292  -8.145   0.388  1.00  0.00     0.031 A 
ATOM     33  C   UNL     1       8.454  -9.072  -0.780  1.00  0.00     0.074 A 
ATOM     34  C   UNL     1       9.328  -7.400   0.815  1.00  0.00     0.049 A 
ATOM     35  N   UNL     1       9.534  -9.349  -1.466  1.00  0.00    -0.248 NA
ATOM     36  C   UNL     1       7.249  -9.783  -1.235  1.00  0.00     0.031 C 
ATOM     37  C   UNL     1       9.279  -6.439   1.919  1.00  0.00     0.029 A 
ATOM     38  N   UNL     1      10.624  -7.338   0.373  1.00  0.00    -0.354 N 
ATOM     39  C   UNL     1       9.146 -10.281  -2.420  1.00  0.00     0.074 A 
ATOM     40  C   UNL     1       7.734 -10.527  -2.221  1.00  0.00     0.031 C 
ATOM     41  C   UNL     1      10.493  -5.886   2.070  1.00  0.00     0.029 A 
ATOM     42  C   UNL     1      11.410  -6.481   1.103  1.00  0.00     0.049 A 
ATOM     43  H   UNL     1      10.959  -7.857  -0.394  1.00  0.00     0.167 HD
ATOM     44  C   UNL     1       9.904 -10.877  -3.371  1.00  0.00     0.031 A 
ATOM     45  C   UNL     1      12.729  -6.225   1.022  1.00  0.00     0.031 A 
ATOM     46  C   UNL     1      11.305 -10.619  -3.574  1.00  0.00     0.049 A 
ATOM     47  C   UNL     1      13.550  -6.928  -0.021  1.00  0.00     0.074 A 
ATOM     48  C   UNL     1      12.149 -11.153  -4.534  1.00  0.00     0.029 A 
ATOM     49  N   UNL     1      12.068  -9.755  -2.807  1.00  0.00    -0.354 N 
ATOM     50  N   UNL     1      13.166  -7.794  -0.927  1.00  0.00    -0.248 NA
ATOM     51  C   UNL     1      14.987  -6.619  -0.051  1.00  0.00     0.031 C 
ATOM     52  C   UNL     1      13.434 -10.645  -4.318  1.00  0.00     0.029 A 
ATOM     53  C   UNL     1      13.379  -9.761  -3.252  1.00  0.00     0.049 A 
ATOM     54  H   UNL     1      11.729  -9.216  -2.055  1.00  0.00     0.167 HD
ATOM     55  C   UNL     1      14.308  -8.120  -1.645  1.00  0.00     0.074 A 
ATOM     56  C   UNL     1      15.395  -7.346  -1.081  1.00  0.00     0.031 C 
ATOM     57  C   UNL     1      14.446  -8.986  -2.678  1.00  0.00     0.031 A 
BRANCH  44  58
ATOM     58  C   UNL     1       9.244 -11.900  -4.248  1.00  0.00    -0.014 A 
ATOM     59  C   UNL     1       8.400 -11.523  -5.303  1.00  0.00     0.009 A 
ATOM     60  C   UNL     1       9.529 -13.261  -4.056  1.00  0.00     0.009 A 
ATOM     61  C   UNL     1       7.840 -12.492  -6.138  1.00  0.00     0.001 A 
ATOM     62  C   UNL     1       8.983 -14.226  -4.903  1.00  0.00     0.001 A 
ATOM     63  C   UNL     1       8.136 -13.841  -5.941  1.00  0.00     0.000 A 
ENDBRANCH  44  58
BRANCH  45  64
ATOM     64  C   UNL     1      13.364  -5.289   1.983  1.00  0.00    -0.014 A 
ATOM     65  C   UNL     1      13.830  -4.034   1.564  1.00  0.00     0.009 A 
ATOM     66  C   UNL     1      13.517  -5.657   3.329  1.00  0.00     0.009 A 
ATOM     67  C   UNL     1      14.459  -3.177   2.470  1.00  0.00     0.001 A 
ATOM     68  C   UNL     1      14.121  -4.786   4.238  1.00  0.00     0.001 A 
ATOM     69  C   UNL     1      14.600  -3.551   3.805  1.00  0.00     0.000 A 
ENDBRANCH  45  64
BRANCH  57  70
ATOM     70  C   UNL     1      15.816  -9.122  -3.274  1.00  0.00    -0.014 A 
ATOM     71  C   UNL     1      16.823  -9.844  -2.615  1.00  0.00     0.009 A 
ATOM     72  C   UNL     1      16.092  -8.547  -4.524  1.00  0.00     0.009 A 
ATOM     73  C   UNL     1      18.091  -9.961  -3.184  1.00  0.00     0.001 A 
ATOM     74  C   UNL     1      17.355  -8.686  -5.100  1.00  0.00     0.001 A 
ATOM     75  C   UNL     1      18.355  -9.386  -4.427  1.00  0.00     0.000 A 
ENDBRANCH  57  70
ENDBRANCH  31  32
ENDBRANCH  24  26
ENDBRANCH  23  24
ENDBRANCH  22  23
ENDBRANCH   1  22
TORSDOF 13
