REMARK SMILES Cc1oc2cc3c(cc2c1C)[C@H](C)[C@@H](CC(=O)N[C@H](CC1=c2ccccc2=NC1)C(=O)OCCOC(=O)c1ccc(-c2c4nc(c(-c5ccccc5)c5ccc([nH]5)c(-c5ccccc5)c5nc(c(-c6ccccc6)c6ccc2[nH]6)C=C5)C=C4)cc1)C(=O)O3
REMARK SMILES IDX 33 1 32 2 30 3 31 4 19 5 18 6 16 7 17 8 15 10 14 11 1 12
REMARK SMILES IDX 2 13 3 14 10 15 4 16 9 17 11 18 5 19 8 20 6 21 7 22 88 23
REMARK SMILES IDX 12 24 86 25 13 26 87 27 20 28 21 29 22 30 29 31 23 32 27 33
REMARK SMILES IDX 28 34 24 35 26 36 25 37 34 38 35 39 36 40 37 41 38 42 39 43
REMARK SMILES IDX 85 44 40 45 84 46 41 47 42 48 43 49 78 50 44 51 83 52 77 53
REMARK SMILES IDX 79 54 45 55 82 56 76 57 75 58 46 60 68 61 53 62 67 63 54 64
REMARK SMILES IDX 57 65 66 66 80 67 55 68 56 69 65 71 81 72 58 73 47 74 48 75
REMARK SMILES IDX 52 76 49 77 51 78 50 79 69 80 70 81 74 82 71 83 73 84 72 85
REMARK SMILES IDX 59 86 60 87 64 88 61 89 63 90 62 91
REMARK H PARENT 18 9 79 59 57 70
REMARK Flexibility Score: inf
ROOT
ATOM      1  C   UNL     1       0.349  -5.834  12.021  1.00  0.00     0.274 C 
ENDROOT
BRANCH   1   2
ATOM      2  O   UNL     1      -0.681  -6.192  11.079  1.00  0.00    -0.461 OA
BRANCH   2   3
ATOM      3  C   UNL     1      -0.814  -5.381  10.002  1.00  0.00     0.329 C 
ATOM      4  O   UNL     1      -0.287  -4.272   9.909  1.00  0.00    -0.250 OA
BRANCH   3   5
ATOM      5  C   UNL     1      -1.597  -6.016   8.837  1.00  0.00     0.196 C 
BRANCH   5   6
ATOM      6  N   UNL     1      -2.190  -4.837   8.120  1.00  0.00    -0.342 N 
ATOM      7  C   UNL     1      -2.699  -4.636   6.881  1.00  0.00     0.221 C 
ATOM      8  O   UNL     1      -2.962  -3.476   6.549  1.00  0.00    -0.275 OA
ATOM      9  H   UNL     1      -2.214  -4.026   8.677  1.00  0.00     0.164 HD
BRANCH   7  10
ATOM     10  C   UNL     1      -2.959  -5.762   5.906  1.00  0.00     0.116 C 
BRANCH  10  11
ATOM     11  C   UNL     1      -1.872  -5.863   4.832  1.00  0.00     0.116 C 
ATOM     12  C   UNL     1       2.698 -10.043  -0.979  1.00  0.00     0.088 C 
ATOM     13  C   UNL     1       1.759  -9.364  -0.064  1.00  0.00     0.105 A 
ATOM     14  O   UNL     1       2.325  -8.659   0.954  1.00  0.00    -0.461 OA
ATOM     15  C   UNL     1       0.379  -9.278  -0.009  1.00  0.00    -0.002 A 
ATOM     16  C   UNL     1       1.311  -8.122   1.681  1.00  0.00     0.138 A 
ATOM     17  C   UNL     1       0.085  -8.481   1.137  1.00  0.00     0.024 A 
ATOM     18  C   UNL     1      -0.611  -9.880  -0.933  1.00  0.00     0.049 C 
ATOM     19  C   UNL     1       1.467  -7.342   2.816  1.00  0.00     0.095 A 
ATOM     20  C   UNL     1      -1.095  -8.037   1.765  1.00  0.00     0.020 A 
ATOM     21  C   UNL     1       0.281  -6.932   3.429  1.00  0.00     0.138 A 
ATOM     22  C   UNL     1      -0.999  -7.240   2.918  1.00  0.00    -0.001 A 
ATOM     23  O   UNL     1       0.455  -6.235   4.627  1.00  0.00    -0.426 OA
ATOM     24  C   UNL     1      -2.255  -6.803   3.670  1.00  0.00     0.035 C 
ATOM     25  C   UNL     1      -0.640  -6.526   5.394  1.00  0.00     0.315 C 
ATOM     26  C   UNL     1      -3.304  -6.191   2.735  1.00  0.00     0.014 C 
ATOM     27  O   UNL     1      -0.621  -7.342   6.301  1.00  0.00    -0.251 OA
ENDBRANCH  10  11
ENDBRANCH   7  10
ENDBRANCH   5   6
BRANCH   5  28
ATOM     28  C   UNL     1      -2.664  -7.083   9.208  1.00  0.00     0.070 C 
BRANCH  28  29
ATOM     29  C   UNL     1      -2.341  -8.562   9.506  1.00  0.00    -0.037 C 
ATOM     30  C   UNL     1      -1.154  -9.083   9.842  1.00  0.00     0.001 A 
ATOM     31  C   UNL     1      -2.998  -9.559   8.572  1.00  0.00     0.174 C 
ATOM     32  C   UNL     1      -0.669  -9.556  11.125  1.00  0.00     0.010 A 
ATOM     33  C   UNL     1      -0.911 -10.049   8.741  1.00  0.00     0.065 A 
ATOM     34  N   UNL     1      -1.902 -10.340   7.960  1.00  0.00    -0.280 NA
ATOM     35  C   UNL     1       0.406 -10.371  11.134  1.00  0.00     0.001 A 
ATOM     36  C   UNL     1       0.458 -10.608   8.703  1.00  0.00     0.028 A 
ATOM     37  C   UNL     1       1.080 -10.726   9.889  1.00  0.00     0.002 A 
ENDBRANCH  28  29
ENDBRANCH   5  28
ENDBRANCH   3   5
ENDBRANCH   2   3
ENDBRANCH   1   2
BRANCH   1  38
ATOM     38  C   UNL     1       1.464  -6.881  12.005  1.00  0.00     0.275 C 
BRANCH  38  39
ATOM     39  O   UNL     1       2.405  -6.689  10.940  1.00  0.00    -0.458 OA
BRANCH  39  40
ATOM     40  C   UNL     1       2.007  -7.061   9.700  1.00  0.00     0.338 C 
ATOM     41  O   UNL     1       0.955  -7.500   9.330  1.00  0.00    -0.246 OA
BRANCH  40  42
ATOM     42  C   UNL     1       3.056  -6.682   8.775  1.00  0.00     0.060 A 
ATOM     43  C   UNL     1       4.305  -7.287   8.879  1.00  0.00     0.016 A 
ATOM     44  C   UNL     1       2.782  -5.630   7.901  1.00  0.00     0.016 A 
ATOM     45  C   UNL     1       5.350  -6.740   8.165  1.00  0.00     0.010 A 
ATOM     46  C   UNL     1       3.834  -5.075   7.203  1.00  0.00     0.010 A 
ATOM     47  C   UNL     1       5.123  -5.599   7.378  1.00  0.00    -0.014 A 
BRANCH  47  48
ATOM     48  C   UNL     1       6.307  -4.895   6.875  1.00  0.00     0.031 A 
ATOM     49  C   UNL     1       6.203  -4.394   5.474  1.00  0.00     0.074 A 
ATOM     50  C   UNL     1       7.035  -4.216   7.790  1.00  0.00     0.049 A 
ATOM     51  N   UNL     1       5.533  -3.323   5.158  1.00  0.00    -0.248 NA
ATOM     52  C   UNL     1       6.581  -5.215   4.325  1.00  0.00     0.031 C 
ATOM     53  C   UNL     1       6.459  -3.626   9.015  1.00  0.00     0.029 A 
ATOM     54  N   UNL     1       8.317  -3.736   7.760  1.00  0.00    -0.354 N 
ATOM     55  C   UNL     1       5.361  -3.335   3.787  1.00  0.00     0.074 A 
ATOM     56  C   UNL     1       6.045  -4.518   3.310  1.00  0.00     0.031 C 
ATOM     57  C   UNL     1       7.319  -2.715   9.506  1.00  0.00     0.029 A 
ATOM     58  C   UNL     1       8.544  -2.749   8.720  1.00  0.00     0.049 A 
ATOM     59  H   UNL     1       9.004  -4.053   7.130  1.00  0.00     0.167 HD
ATOM     60  C   UNL     1       4.659  -2.383   3.117  1.00  0.00     0.031 A 
ATOM     61  C   UNL     1       9.371  -1.689   8.517  1.00  0.00     0.031 A 
ATOM     62  C   UNL     1       4.046  -1.370   3.925  1.00  0.00     0.049 A 
ATOM     63  C   UNL     1       8.517  -0.865   7.575  1.00  0.00     0.074 A 
ATOM     64  C   UNL     1       2.797  -1.095   4.440  1.00  0.00     0.029 A 
ATOM     65  N   UNL     1       4.842  -0.369   4.427  1.00  0.00    -0.354 N 
ATOM     66  N   UNL     1       7.483  -0.133   7.899  1.00  0.00    -0.248 NA
ATOM     67  C   UNL     1       8.616  -1.172   6.146  1.00  0.00     0.031 C 
ATOM     68  C   UNL     1       3.029  -0.247   5.572  1.00  0.00     0.029 A 
ATOM     69  C   UNL     1       4.410  -0.107   5.704  1.00  0.00     0.049 A 
ATOM     70  H   UNL     1       5.584   0.077   3.958  1.00  0.00     0.167 HD
ATOM     71  C   UNL     1       6.650  -0.136   6.775  1.00  0.00     0.074 A 
ATOM     72  C   UNL     1       7.425  -0.769   5.726  1.00  0.00     0.031 C 
ATOM     73  C   UNL     1       5.321   0.196   6.794  1.00  0.00     0.031 A 
BRANCH  60  74
ATOM     74  C   UNL     1       4.679  -2.258   1.646  1.00  0.00    -0.014 A 
ATOM     75  C   UNL     1       3.785  -2.928   0.806  1.00  0.00     0.009 A 
ATOM     76  C   UNL     1       5.566  -1.319   1.095  1.00  0.00     0.009 A 
ATOM     77  C   UNL     1       3.773  -2.642  -0.565  1.00  0.00     0.001 A 
ATOM     78  C   UNL     1       5.546  -1.029  -0.267  1.00  0.00     0.001 A 
ATOM     79  C   UNL     1       4.644  -1.688  -1.096  1.00  0.00     0.000 A 
ENDBRANCH  60  74
BRANCH  61  80
ATOM     80  C   UNL     1      10.788  -2.081   8.217  1.00  0.00    -0.014 A 
ATOM     81  C   UNL     1      11.543  -1.585   7.147  1.00  0.00     0.009 A 
ATOM     82  C   UNL     1      11.398  -3.052   9.042  1.00  0.00     0.009 A 
ATOM     83  C   UNL     1      12.776  -2.158   6.812  1.00  0.00     0.001 A 
ATOM     84  C   UNL     1      12.639  -3.607   8.725  1.00  0.00     0.001 A 
ATOM     85  C   UNL     1      13.312  -3.184   7.586  1.00  0.00     0.000 A 
ENDBRANCH  61  80
BRANCH  73  86
ATOM     86  C   UNL     1       4.770   0.674   8.107  1.00  0.00    -0.014 A 
ATOM     87  C   UNL     1       3.715  -0.010   8.737  1.00  0.00     0.009 A 
ATOM     88  C   UNL     1       5.265   1.835   8.717  1.00  0.00     0.009 A 
ATOM     89  C   UNL     1       3.136   0.481   9.910  1.00  0.00     0.001 A 
ATOM     90  C   UNL     1       4.707   2.310   9.907  1.00  0.00     0.001 A 
ATOM     91  C   UNL     1       3.632   1.644  10.493  1.00  0.00     0.000 A 
ENDBRANCH  73  86
ENDBRANCH  47  48
ENDBRANCH  40  42
ENDBRANCH  39  40
ENDBRANCH  38  39
ENDBRANCH   1  38
TORSDOF 16
