REMARK SMILES Cc1ccccc1NC(=O)CSc1nc(C(=O)OCCOC(=O)c2ccc(-c3c4nc(c(-c5ccccc5)c5ccc([nH]5)c(-c5ccccc5)c5nc(c(-c6ccccc6)c6ccc3[nH]6)C=C5)C=C4)cc2)c2ccccc2n1
REMARK SMILES IDX 19 1 18 2 16 3 17 4 15 5 13 6 14 7 78 8 77 9 72 10 76 11
REMARK SMILES IDX 73 12 75 13 74 14 12 15 11 16 9 17 8 18 10 20 7 21 1 22 2 23
REMARK SMILES IDX 3 24 4 25 6 26 5 27 20 28 21 29 22 30 23 31 24 32 25 33
REMARK SMILES IDX 71 34 26 35 70 36 27 37 28 38 29 39 64 40 30 41 69 42 63 43
REMARK SMILES IDX 65 44 31 45 68 46 62 47 61 48 32 50 54 51 39 52 53 53 40 54
REMARK SMILES IDX 43 55 52 56 66 57 41 58 42 59 51 61 67 62 44 63 33 64 34 65
REMARK SMILES IDX 38 66 35 67 37 68 36 69 55 70 56 71 60 72 57 73 59 74 58 75
REMARK SMILES IDX 45 76 46 77 50 78 47 79 49 80 48 81
REMARK H PARENT 8 19 65 49 43 60
REMARK Flexibility Score: inf
ROOT
ATOM      1  C   UNL     1      -3.097   7.963  -6.832  1.00  0.00     0.275 C 
ENDROOT
BRANCH   1   2
ATOM      2  O   UNL     1      -2.895   6.653  -6.277  1.00  0.00    -0.457 OA
BRANCH   2   3
ATOM      3  C   UNL     1      -1.580   6.344  -6.131  1.00  0.00     0.357 C 
ATOM      4  O   UNL     1      -0.651   7.069  -6.465  1.00  0.00    -0.244 OA
BRANCH   3   5
ATOM      5  C   UNL     1      -1.337   4.960  -5.653  1.00  0.00     0.160 A 
ATOM      6  C   UNL     1      -1.364   3.441  -3.959  1.00  0.00     0.189 A 
ATOM      7  N   UNL     1      -1.806   4.615  -4.426  1.00  0.00    -0.215 NA
ATOM      8  N   UNL     1      -0.549   2.611  -4.629  1.00  0.00    -0.222 NA
ATOM      9  C   UNL     1      -0.128   2.973  -5.848  1.00  0.00     0.076 A 
ATOM     10  C   UNL     1      -0.499   4.173  -6.444  1.00  0.00     0.034 A 
ATOM     11  C   UNL     1       0.719   2.131  -6.559  1.00  0.00     0.029 A 
ATOM     12  C   UNL     1      -0.019   4.508  -7.741  1.00  0.00     0.013 A 
ATOM     13  C   UNL     1       1.209   2.465  -7.828  1.00  0.00     0.002 A 
ATOM     14  C   UNL     1       0.840   3.661  -8.422  1.00  0.00     0.001 A 
BRANCH   6  15
ATOM     15  S   UNL     1      -2.085   2.767  -2.485  1.00  0.00    -0.076 SA
BRANCH  15  16
ATOM     16  C   UNL     1      -1.369   3.789  -1.169  1.00  0.00     0.178 C 
BRANCH  16  17
ATOM     17  C   UNL     1       0.085   3.527  -0.843  1.00  0.00     0.234 C 
ATOM     18  N   UNL     1       0.597   2.358  -0.363  1.00  0.00    -0.325 N 
ATOM     19  H   UNL     1       1.562   2.416  -0.178  1.00  0.00     0.169 HD
ATOM     20  O   UNL     1       0.895   4.458  -0.974  1.00  0.00    -0.274 OA
BRANCH  18  21
ATOM     21  C   UNL     1       0.065   1.086  -0.070  1.00  0.00     0.044 A 
ATOM     22  C   UNL     1       2.435   0.031  -0.143  1.00  0.00     0.046 C 
ATOM     23  C   UNL     1       0.933  -0.031  -0.030  1.00  0.00    -0.027 A 
ATOM     24  C   UNL     1       0.382  -1.326   0.069  1.00  0.00     0.005 A 
ATOM     25  C   UNL     1      -0.988  -1.519   0.202  1.00  0.00     0.000 A 
ATOM     26  C   UNL     1      -1.295   0.874   0.172  1.00  0.00     0.026 A 
ATOM     27  C   UNL     1      -1.822  -0.415   0.291  1.00  0.00     0.002 A 
ENDBRANCH  18  21
ENDBRANCH  16  17
ENDBRANCH  15  16
ENDBRANCH   6  15
ENDBRANCH   3   5
ENDBRANCH   2   3
ENDBRANCH   1   2
BRANCH   1  28
ATOM     28  C   UNL     1      -4.341   8.667  -6.280  1.00  0.00     0.275 C 
BRANCH  28  29
ATOM     29  O   UNL     1      -4.902   8.186  -5.025  1.00  0.00    -0.458 OA
BRANCH  29  30
ATOM     30  C   UNL     1      -4.273   7.845  -3.871  1.00  0.00     0.338 C 
ATOM     31  O   UNL     1      -4.832   7.191  -2.995  1.00  0.00    -0.246 OA
BRANCH  30  32
ATOM     32  C   UNL     1      -2.873   8.261  -3.702  1.00  0.00     0.060 A 
ATOM     33  C   UNL     1      -1.949   7.383  -3.115  1.00  0.00     0.016 A 
ATOM     34  C   UNL     1      -2.461   9.482  -4.211  1.00  0.00     0.016 A 
ATOM     35  C   UNL     1      -0.588   7.682  -3.135  1.00  0.00     0.010 A 
ATOM     36  C   UNL     1      -1.121   9.693  -4.406  1.00  0.00     0.010 A 
ATOM     37  C   UNL     1      -0.186   8.833  -3.811  1.00  0.00    -0.014 A 
BRANCH  37  38
ATOM     38  C   UNL     1       1.131   9.438  -3.674  1.00  0.00     0.031 A 
ATOM     39  C   UNL     1       2.331   8.899  -4.326  1.00  0.00     0.074 A 
ATOM     40  C   UNL     1       1.102  10.554  -2.912  1.00  0.00     0.049 A 
ATOM     41  N   UNL     1       3.516   8.972  -3.826  1.00  0.00    -0.248 NA
ATOM     42  C   UNL     1       2.303   8.199  -5.607  1.00  0.00     0.031 C 
ATOM     43  C   UNL     1       2.098  11.566  -2.625  1.00  0.00     0.029 A 
ATOM     44  N   UNL     1       0.054  10.897  -2.065  1.00  0.00    -0.354 N 
ATOM     45  C   UNL     1       4.402   8.663  -4.839  1.00  0.00     0.074 A 
ATOM     46  C   UNL     1       3.606   8.041  -5.867  1.00  0.00     0.031 C 
ATOM     47  C   UNL     1       1.732  12.207  -1.491  1.00  0.00     0.029 A 
ATOM     48  C   UNL     1       0.550  11.534  -0.949  1.00  0.00     0.049 A 
ATOM     49  H   UNL     1      -0.897  10.713  -2.237  1.00  0.00     0.167 HD
ATOM     50  C   UNL     1       5.666   9.173  -4.788  1.00  0.00     0.031 A 
ATOM     51  C   UNL     1       0.474  10.842   0.228  1.00  0.00     0.031 A 
ATOM     52  C   UNL     1       5.839   9.955  -3.565  1.00  0.00     0.049 A 
ATOM     53  C   UNL     1       1.852  10.403   0.669  1.00  0.00     0.074 A 
ATOM     54  C   UNL     1       5.697  11.312  -3.325  1.00  0.00     0.029 A 
ATOM     55  N   UNL     1       5.758   9.321  -2.330  1.00  0.00    -0.354 N 
ATOM     56  N   UNL     1       2.856  10.200  -0.141  1.00  0.00    -0.248 NA
ATOM     57  C   UNL     1       2.207  10.209   2.069  1.00  0.00     0.031 C 
ATOM     58  C   UNL     1       5.400  11.477  -1.945  1.00  0.00     0.029 A 
ATOM     59  C   UNL     1       5.398  10.227  -1.348  1.00  0.00     0.049 A 
ATOM     60  H   UNL     1       5.931   8.365  -2.177  1.00  0.00     0.167 HD
ATOM     61  C   UNL     1       3.982   9.944   0.590  1.00  0.00     0.074 A 
ATOM     62  C   UNL     1       3.520   9.943   1.969  1.00  0.00     0.031 C 
ATOM     63  C   UNL     1       5.215   9.781   0.027  1.00  0.00     0.031 A 
BRANCH  50  64
ATOM     64  C   UNL     1       6.593   9.280  -5.979  1.00  0.00    -0.014 A 
ATOM     65  C   UNL     1       7.526  10.336  -6.028  1.00  0.00     0.009 A 
ATOM     66  C   UNL     1       6.583   8.420  -7.091  1.00  0.00     0.009 A 
ATOM     67  C   UNL     1       8.341  10.569  -7.144  1.00  0.00     0.001 A 
ATOM     68  C   UNL     1       7.381   8.661  -8.224  1.00  0.00     0.001 A 
ATOM     69  C   UNL     1       8.254   9.741  -8.253  1.00  0.00     0.000 A 
ENDBRANCH  50  64
BRANCH  51  70
ATOM     70  C   UNL     1      -0.786  10.025   0.400  1.00  0.00    -0.014 A 
ATOM     71  C   UNL     1      -2.038  10.667   0.229  1.00  0.00     0.009 A 
ATOM     72  C   UNL     1      -0.787   8.624   0.461  1.00  0.00     0.009 A 
ATOM     73  C   UNL     1      -3.217   9.942   0.012  1.00  0.00     0.001 A 
ATOM     74  C   UNL     1      -1.980   7.898   0.281  1.00  0.00     0.001 A 
ATOM     75  C   UNL     1      -3.185   8.553   0.022  1.00  0.00     0.000 A 
ENDBRANCH  51  70
BRANCH  63  76
ATOM     76  C   UNL     1       6.423   9.265   0.758  1.00  0.00    -0.014 A 
ATOM     77  C   UNL     1       6.353   8.455   1.897  1.00  0.00     0.009 A 
ATOM     78  C   UNL     1       7.705   9.483   0.205  1.00  0.00     0.009 A 
ATOM     79  C   UNL     1       7.511   7.957   2.502  1.00  0.00     0.001 A 
ATOM     80  C   UNL     1       8.855   8.932   0.767  1.00  0.00     0.001 A 
ATOM     81  C   UNL     1       8.759   8.188   1.932  1.00  0.00     0.000 A 
ENDBRANCH  63  76
ENDBRANCH  37  38
ENDBRANCH  30  32
ENDBRANCH  29  30
ENDBRANCH  28  29
ENDBRANCH   1  28
TORSDOF 15
