REMARK SMILES Cc1c(C(=O)OCCOC(=O)c2ccc(-c3c4nc(c(-c5ccccc5)c5ccc([nH]5)c(-c5ccccc5)c5nc(c(-c6ccccc6)c6ccc3[nH]6)C=C5)C=C4)cc2)sc2ncnc(NCc3cn4c(n3)SCC4)c12
REMARK SMILES IDX 7 1 6 2 4 3 5 4 3 5 1 6 2 7 76 8 60 9 61 10 65 11 62 12
REMARK SMILES IDX 64 13 63 14 66 15 67 17 68 18 69 19 72 20 70 21 71 22 75 23
REMARK SMILES IDX 73 24 74 25 8 26 9 27 10 28 11 29 12 30 13 31 59 32 14 33
REMARK SMILES IDX 58 34 15 35 16 36 17 37 52 38 18 39 57 40 51 41 53 42 19 43
REMARK SMILES IDX 56 44 50 45 49 46 20 48 42 49 27 50 41 51 28 52 31 53 40 54
REMARK SMILES IDX 54 55 29 56 30 57 39 59 55 60 32 61 21 62 22 63 26 64 23 65
REMARK SMILES IDX 25 66 24 67 43 68 44 69 48 70 45 71 47 72 46 73 33 74 34 75
REMARK SMILES IDX 38 76 35 77 37 78 36 79
REMARK H PARENT 66 16 53 47 31 58
REMARK Flexibility Score: inf
ROOT
ATOM      1  C   UNL     1      -1.355   3.423   3.692  1.00  0.00     0.275 C 
ENDROOT
BRANCH   1   2
ATOM      2  O   UNL     1      -1.155   2.003   3.634  1.00  0.00    -0.458 OA
BRANCH   2   3
ATOM      3  C   UNL     1      -1.262   1.450   2.391  1.00  0.00     0.348 C 
ATOM      4  O   UNL     1      -1.685   2.074   1.419  1.00  0.00    -0.245 OA
BRANCH   3   5
ATOM      5  C   UNL     1      -0.745   0.086   2.352  1.00  0.00     0.118 A 
ATOM      6  C   UNL     1      -0.166   0.021  -0.104  1.00  0.00     0.047 C 
ATOM      7  C   UNL     1      -0.243  -0.613   1.248  1.00  0.00    -0.012 A 
ATOM      8  C   UNL     1       0.190  -1.980   1.601  1.00  0.00     0.058 A 
ATOM      9  S   UNL     1      -0.706  -0.854   3.768  1.00  0.00    -0.108 S 
ATOM     10  C   UNL     1      -0.071  -2.195   2.953  1.00  0.00     0.129 A 
ATOM     11  C   UNL     1       0.755  -3.110   0.933  1.00  0.00     0.138 A 
ATOM     12  N   UNL     1       0.111  -3.320   3.663  1.00  0.00    -0.225 NA
ATOM     13  N   UNL     1       0.905  -4.263   1.636  1.00  0.00    -0.219 NA
ATOM     14  C   UNL     1       0.591  -4.311   2.929  1.00  0.00     0.225 A 
BRANCH  11  15
ATOM     15  N   UNL     1       1.151  -3.305  -0.363  1.00  0.00    -0.364 N 
ATOM     16  H   UNL     1       1.093  -4.238  -0.674  1.00  0.00     0.162 HD
BRANCH  15  17
ATOM     17  C   UNL     1       1.634  -2.378  -1.341  1.00  0.00     0.172 C 
BRANCH  17  18
ATOM     18  C   UNL     1       3.097  -2.114  -1.460  1.00  0.00     0.079 A 
ATOM     19  C   UNL     1       3.681  -1.125  -2.243  1.00  0.00     0.113 A 
ATOM     20  N   UNL     1       4.054  -2.960  -0.919  1.00  0.00    -0.226 NA
ATOM     21  N   UNL     1       4.994  -1.431  -2.216  1.00  0.00    -0.325 N 
ATOM     22  C   UNL     1       5.176  -2.504  -1.401  1.00  0.00     0.168 A 
ATOM     23  C   UNL     1       6.079  -1.099  -3.114  1.00  0.00     0.135 C 
ATOM     24  S   UNL     1       6.725  -3.230  -1.617  1.00  0.00    -0.086 SA
ATOM     25  C   UNL     1       6.883  -2.393  -3.249  1.00  0.00     0.100 C 
ENDBRANCH  17  18
ENDBRANCH  15  17
ENDBRANCH  11  15
ENDBRANCH   3   5
ENDBRANCH   2   3
ENDBRANCH   1   2
BRANCH   1  26
ATOM     26  C   UNL     1      -0.029   4.168   3.604  1.00  0.00     0.275 C 
BRANCH  26  27
ATOM     27  O   UNL     1       0.568   4.093   2.304  1.00  0.00    -0.458 OA
BRANCH  27  28
ATOM     28  C   UNL     1       1.471   3.098   2.150  1.00  0.00     0.338 C 
ATOM     29  O   UNL     1       1.556   2.077   2.810  1.00  0.00    -0.246 OA
BRANCH  28  30
ATOM     30  C   UNL     1       2.516   3.512   1.201  1.00  0.00     0.060 A 
ATOM     31  C   UNL     1       3.513   2.579   0.899  1.00  0.00     0.016 A 
ATOM     32  C   UNL     1       2.639   4.857   0.824  1.00  0.00     0.016 A 
ATOM     33  C   UNL     1       4.697   3.025   0.344  1.00  0.00     0.010 A 
ATOM     34  C   UNL     1       3.824   5.301   0.270  1.00  0.00     0.010 A 
ATOM     35  C   UNL     1       4.865   4.394   0.097  1.00  0.00    -0.014 A 
BRANCH  35  36
ATOM     36  C   UNL     1       6.141   4.832  -0.441  1.00  0.00     0.031 A 
ATOM     37  C   UNL     1       6.391   4.350  -1.824  1.00  0.00     0.074 A 
ATOM     38  C   UNL     1       6.970   5.661   0.224  1.00  0.00     0.049 A 
ATOM     39  N   UNL     1       7.296   3.517  -2.221  1.00  0.00    -0.248 NA
ATOM     40  C   UNL     1       5.416   4.717  -2.865  1.00  0.00     0.031 C 
ATOM     41  C   UNL     1       6.713   6.399   1.465  1.00  0.00     0.029 A 
ATOM     42  N   UNL     1       8.207   6.102  -0.135  1.00  0.00    -0.354 N 
ATOM     43  C   UNL     1       7.133   3.405  -3.598  1.00  0.00     0.074 A 
ATOM     44  C   UNL     1       5.875   4.032  -3.913  1.00  0.00     0.031 C 
ATOM     45  C   UNL     1       7.650   7.365   1.614  1.00  0.00     0.029 A 
ATOM     46  C   UNL     1       8.643   7.221   0.564  1.00  0.00     0.049 A 
ATOM     47  H   UNL     1       8.747   5.664  -0.832  1.00  0.00     0.167 HD
ATOM     48  C   UNL     1       8.163   3.023  -4.403  1.00  0.00     0.031 A 
ATOM     49  C   UNL     1       9.707   8.007   0.254  1.00  0.00     0.031 A 
ATOM     50  C   UNL     1       9.225   2.406  -3.654  1.00  0.00     0.049 A 
ATOM     51  C   UNL     1      10.589   7.222  -0.640  1.00  0.00     0.074 A 
ATOM     52  C   UNL     1       9.375   1.255  -2.912  1.00  0.00     0.029 A 
ATOM     53  N   UNL     1      10.287   3.211  -3.321  1.00  0.00    -0.354 N 
ATOM     54  N   UNL     1      11.242   6.164  -0.254  1.00  0.00    -0.248 NA
ATOM     55  C   UNL     1      10.379   7.342  -2.074  1.00  0.00     0.031 C 
ATOM     56  C   UNL     1      10.225   1.623  -1.832  1.00  0.00     0.029 A 
ATOM     57  C   UNL     1      10.623   2.947  -2.023  1.00  0.00     0.049 A 
ATOM     58  H   UNL     1      10.728   3.863  -3.913  1.00  0.00     0.167 HD
ATOM     59  C   UNL     1      11.137   5.281  -1.317  1.00  0.00     0.074 A 
ATOM     60  C   UNL     1      10.674   6.092  -2.442  1.00  0.00     0.031 C 
ATOM     61  C   UNL     1      11.159   3.932  -1.113  1.00  0.00     0.031 A 
BRANCH  48  62
ATOM     62  C   UNL     1       8.417   3.628  -5.763  1.00  0.00    -0.014 A 
ATOM     63  C   UNL     1       9.557   3.206  -6.473  1.00  0.00     0.009 A 
ATOM     64  C   UNL     1       7.785   4.799  -6.221  1.00  0.00     0.009 A 
ATOM     65  C   UNL     1      10.096   3.975  -7.510  1.00  0.00     0.001 A 
ATOM     66  C   UNL     1       8.297   5.548  -7.283  1.00  0.00     0.001 A 
ATOM     67  C   UNL     1       9.473   5.154  -7.905  1.00  0.00     0.000 A 
ENDBRANCH  48  62
BRANCH  49  68
ATOM     68  C   UNL     1       9.828   9.479   0.379  1.00  0.00    -0.014 A 
ATOM     69  C   UNL     1      11.074  10.118   0.252  1.00  0.00     0.009 A 
ATOM     70  C   UNL     1       8.677  10.288   0.337  1.00  0.00     0.009 A 
ATOM     71  C   UNL     1      11.159  11.505   0.055  1.00  0.00     0.001 A 
ATOM     72  C   UNL     1       8.762  11.672   0.143  1.00  0.00     0.001 A 
ATOM     73  C   UNL     1      10.002  12.279  -0.013  1.00  0.00     0.000 A 
ENDBRANCH  49  68
BRANCH  61  74
ATOM     74  C   UNL     1      11.535   3.416   0.253  1.00  0.00    -0.014 A 
ATOM     75  C   UNL     1      10.744   3.626   1.397  1.00  0.00     0.009 A 
ATOM     76  C   UNL     1      12.601   2.507   0.334  1.00  0.00     0.009 A 
ATOM     77  C   UNL     1      11.017   2.939   2.585  1.00  0.00     0.001 A 
ATOM     78  C   UNL     1      12.859   1.808   1.513  1.00  0.00     0.001 A 
ATOM     79  C   UNL     1      12.066   2.021   2.638  1.00  0.00     0.000 A 
ENDBRANCH  61  74
ENDBRANCH  35  36
ENDBRANCH  28  30
ENDBRANCH  27  28
ENDBRANCH  26  27
ENDBRANCH   1  26
TORSDOF 14
