REMARK SMILES CS(=O)(=O)N(Cc1ccc(Cl)cc1)c1ccc(C(=O)Nc2ccccc2C(=O)OCCOC(=O)c2ccc(-c3c4nc(c(-c5ccccc5)c5ccc([nH]5)c(-c5ccccc5)c5nc(c(-c6ccccc6)c6ccc3[nH]6)C=C5)C=C4)cc2)cc1
REMARK SMILES IDX 29 1 27 2 28 3 26 4 21 5 22 6 23 7 25 8 24 9 20 10 18 11
REMARK SMILES IDX 19 12 17 14 14 15 15 16 84 17 16 18 83 19 5 20 2 21 1 22
REMARK SMILES IDX 3 23 4 24 6 25 7 26 8 27 13 28 9 29 12 30 10 31 11 32 30 33
REMARK SMILES IDX 31 34 32 35 33 36 34 37 35 38 36 39 82 40 37 41 81 42 38 43
REMARK SMILES IDX 39 44 40 45 75 46 41 47 80 48 74 49 76 50 42 51 79 52 73 53
REMARK SMILES IDX 72 54 43 56 65 57 50 58 64 59 51 60 54 61 63 62 77 63 52 64
REMARK SMILES IDX 53 65 62 67 78 68 55 69 44 70 45 71 49 72 46 73 48 74 47 75
REMARK SMILES IDX 66 76 67 77 71 78 68 79 70 80 69 81 56 82 57 83 61 84 58 85
REMARK SMILES IDX 60 86 59 87
REMARK H PARENT 20 13 76 55 54 66
REMARK Flexibility Score: inf
ROOT
ATOM      1  O   UNL     1      -1.794   0.854   8.030  1.00  0.00    -0.458 OA
ENDROOT
BRANCH   1   2
ATOM      2  C   UNL     1      -2.130   1.212   6.767  1.00  0.00     0.340 C 
ATOM      3  O   UNL     1      -1.786   0.642   5.745  1.00  0.00    -0.246 OA
BRANCH   2   4
ATOM      4  C   UNL     1      -3.030   2.384   6.748  1.00  0.00     0.083 A 
ATOM      5  C   UNL     1      -2.732   3.631   7.320  1.00  0.00     0.056 A 
ATOM      6  C   UNL     1      -3.733   4.619   7.329  1.00  0.00     0.027 A 
ATOM      7  C   UNL     1      -4.958   4.419   6.687  1.00  0.00     0.002 A 
ATOM      8  C   UNL     1      -4.268   2.194   6.107  1.00  0.00     0.018 A 
ATOM      9  C   UNL     1      -5.220   3.210   6.060  1.00  0.00     0.001 A 
BRANCH   5  10
ATOM     10  N   UNL     1      -1.508   4.035   7.888  1.00  0.00    -0.321 N 
ATOM     11  C   UNL     1      -0.204   3.705   7.603  1.00  0.00     0.255 C 
ATOM     12  O   UNL     1       0.682   3.989   8.408  1.00  0.00    -0.269 OA
ATOM     13  H   UNL     1      -1.604   4.676   8.629  1.00  0.00     0.170 HD
BRANCH  11  14
ATOM     14  C   UNL     1       0.182   3.094   6.312  1.00  0.00     0.040 A 
ATOM     15  C   UNL     1       0.861   1.695   3.923  1.00  0.00     0.052 A 
ATOM     16  C   UNL     1       1.486   1.424   5.157  1.00  0.00     0.028 A 
ATOM     17  C   UNL     1      -0.036   2.773   3.914  1.00  0.00     0.028 A 
ATOM     18  C   UNL     1       1.164   2.112   6.331  1.00  0.00     0.016 A 
ATOM     19  C   UNL     1      -0.381   3.464   5.091  1.00  0.00     0.016 A 
BRANCH  15  20
ATOM     20  N   UNL     1       1.296   0.987   2.692  1.00  0.00    -0.266 N 
BRANCH  20  21
ATOM     21  S   UNL     1       0.266   1.080   1.328  1.00  0.00     0.232 S 
ATOM     22  C   UNL     1       1.166   0.268   0.016  1.00  0.00     0.183 C 
ATOM     23  O   UNL     1       0.158   2.469   0.924  1.00  0.00    -0.207 OA
ATOM     24  O   UNL     1      -0.917   0.289   1.595  1.00  0.00    -0.207 OA
ENDBRANCH  20  21
BRANCH  20  25
ATOM     25  C   UNL     1       1.954  -0.344   2.901  1.00  0.00     0.170 C 
BRANCH  25  26
ATOM     26  C   UNL     1       3.430  -0.238   3.273  1.00  0.00    -0.027 A 
ATOM     27  C   UNL     1       4.071  -1.330   3.879  1.00  0.00     0.007 A 
ATOM     28  C   UNL     1       4.153   0.955   3.095  1.00  0.00     0.007 A 
ATOM     29  C   UNL     1       5.378  -1.205   4.359  1.00  0.00     0.021 A 
ATOM     30  C   UNL     1       5.452   1.084   3.590  1.00  0.00     0.021 A 
ATOM     31  C   UNL     1       6.054   0.006   4.231  1.00  0.00     0.041 A 
ATOM     32  Cl  UNL     1       7.635   0.180   4.887  1.00  0.00    -0.084 Cl
ENDBRANCH  25  26
ENDBRANCH  20  25
ENDBRANCH  15  20
ENDBRANCH  11  14
ENDBRANCH   5  10
ENDBRANCH   2   4
ENDBRANCH   1   2
BRANCH   1  33
ATOM     33  C   UNL     1      -0.823  -0.210   8.125  1.00  0.00     0.275 C 
BRANCH  33  34
ATOM     34  C   UNL     1      -1.454  -1.592   8.276  1.00  0.00     0.275 C 
BRANCH  34  35
ATOM     35  O   UNL     1      -2.123  -1.984   7.064  1.00  0.00    -0.458 OA
BRANCH  35  36
ATOM     36  C   UNL     1      -3.468  -2.059   7.149  1.00  0.00     0.338 C 
ATOM     37  O   UNL     1      -4.163  -1.885   8.136  1.00  0.00    -0.246 OA
BRANCH  36  38
ATOM     38  C   UNL     1      -4.050  -2.383   5.839  1.00  0.00     0.060 A 
ATOM     39  C   UNL     1      -4.091  -1.405   4.849  1.00  0.00     0.016 A 
ATOM     40  C   UNL     1      -4.743  -3.580   5.670  1.00  0.00     0.016 A 
ATOM     41  C   UNL     1      -4.923  -1.555   3.748  1.00  0.00     0.010 A 
ATOM     42  C   UNL     1      -5.501  -3.774   4.512  1.00  0.00     0.010 A 
ATOM     43  C   UNL     1      -5.642  -2.740   3.567  1.00  0.00    -0.014 A 
BRANCH  43  44
ATOM     44  C   UNL     1      -6.607  -2.871   2.446  1.00  0.00     0.031 A 
ATOM     45  C   UNL     1      -8.060  -3.119   2.748  1.00  0.00     0.074 A 
ATOM     46  C   UNL     1      -6.204  -2.744   1.168  1.00  0.00     0.049 A 
ATOM     47  N   UNL     1      -9.017  -3.510   1.947  1.00  0.00    -0.248 NA
ATOM     48  C   UNL     1      -8.490  -2.911   4.141  1.00  0.00     0.031 C 
ATOM     49  C   UNL     1      -4.850  -2.403   0.728  1.00  0.00     0.029 A 
ATOM     50  N   UNL     1      -6.908  -2.884  -0.002  1.00  0.00    -0.354 N 
ATOM     51  C   UNL     1     -10.139  -3.669   2.751  1.00  0.00     0.074 A 
ATOM     52  C   UNL     1      -9.752  -3.314   4.099  1.00  0.00     0.031 C 
ATOM     53  C   UNL     1      -4.828  -2.332  -0.611  1.00  0.00     0.029 A 
ATOM     54  C   UNL     1      -6.137  -2.716  -1.125  1.00  0.00     0.049 A 
ATOM     55  H   UNL     1      -7.871  -3.086  -0.032  1.00  0.00     0.167 HD
ATOM     56  C   UNL     1     -11.376  -4.090   2.396  1.00  0.00     0.031 A 
ATOM     57  C   UNL     1      -6.433  -2.904  -2.424  1.00  0.00     0.031 A 
ATOM     58  C   UNL     1     -11.765  -4.391   1.045  1.00  0.00     0.049 A 
ATOM     59  C   UNL     1      -7.797  -3.407  -2.795  1.00  0.00     0.074 A 
ATOM     60  C   UNL     1     -12.986  -4.843   0.575  1.00  0.00     0.029 A 
ATOM     61  N   UNL     1     -10.940  -4.243  -0.059  1.00  0.00    -0.354 N 
ATOM     62  N   UNL     1      -8.819  -3.669  -2.017  1.00  0.00    -0.248 NA
ATOM     63  C   UNL     1      -8.039  -3.669  -4.221  1.00  0.00     0.031 C 
ATOM     64  C   UNL     1     -12.890  -4.992  -0.813  1.00  0.00     0.029 A 
ATOM     65  C   UNL     1     -11.621  -4.597  -1.209  1.00  0.00     0.049 A 
ATOM     66  H   UNL     1     -10.006  -3.931  -0.029  1.00  0.00     0.167 HD
ATOM     67  C   UNL     1      -9.825  -4.125  -2.856  1.00  0.00     0.074 A 
ATOM     68  C   UNL     1      -9.298  -4.085  -4.205  1.00  0.00     0.031 C 
ATOM     69  C   UNL     1     -11.072  -4.550  -2.537  1.00  0.00     0.031 A 
BRANCH  56  70
ATOM     70  C   UNL     1     -12.373  -4.309   3.497  1.00  0.00    -0.014 A 
ATOM     71  C   UNL     1     -13.014  -3.237   4.136  1.00  0.00     0.009 A 
ATOM     72  C   UNL     1     -12.685  -5.621   3.889  1.00  0.00     0.009 A 
ATOM     73  C   UNL     1     -13.925  -3.477   5.168  1.00  0.00     0.001 A 
ATOM     74  C   UNL     1     -13.612  -5.857   4.905  1.00  0.00     0.001 A 
ATOM     75  C   UNL     1     -14.225  -4.785   5.550  1.00  0.00     0.000 A 
ENDBRANCH  56  70
BRANCH  57  76
ATOM     76  C   UNL     1      -5.388  -2.687  -3.456  1.00  0.00    -0.014 A 
ATOM     77  C   UNL     1      -5.456  -1.586  -4.321  1.00  0.00     0.009 A 
ATOM     78  C   UNL     1      -4.300  -3.569  -3.561  1.00  0.00     0.009 A 
ATOM     79  C   UNL     1      -4.458  -1.377  -5.276  1.00  0.00     0.001 A 
ATOM     80  C   UNL     1      -3.291  -3.343  -4.498  1.00  0.00     0.001 A 
ATOM     81  C   UNL     1      -3.374  -2.250  -5.359  1.00  0.00     0.000 A 
ENDBRANCH  57  76
BRANCH  69  82
ATOM     82  C   UNL     1     -11.951  -4.980  -3.672  1.00  0.00    -0.014 A 
ATOM     83  C   UNL     1     -11.793  -6.240  -4.268  1.00  0.00     0.009 A 
ATOM     84  C   UNL     1     -12.970  -4.128  -4.125  1.00  0.00     0.009 A 
ATOM     85  C   UNL     1     -12.628  -6.630  -5.316  1.00  0.00     0.001 A 
ATOM     86  C   UNL     1     -13.814  -4.530  -5.160  1.00  0.00     0.001 A 
ATOM     87  C   UNL     1     -13.639  -5.777  -5.758  1.00  0.00     0.000 A 
ENDBRANCH  69  82
ENDBRANCH  43  44
ENDBRANCH  36  38
ENDBRANCH  35  36
ENDBRANCH  34  35
ENDBRANCH  33  34
ENDBRANCH   1  33
TORSDOF 17
