REMARK SMILES NC(=O)c1cc(NC(=O)/C=C\C(=O)OCCOC(=O)c2ccc(-c3c4nc(c(-c5ccccc5)c5ccc([nH]5)c(-c5ccccc5)c5nc(c(-c6ccccc6)c6ccc3[nH]6)C=C5)C=C4)cc2)ccc1N1CCOCC1
REMARK SMILES IDX 15 1 14 2 12 3 13 4 11 5 10 6 8 7 7 8 9 10 6 11 4 12 5 13
REMARK SMILES IDX 70 14 69 15 68 16 2 17 1 18 3 21 71 22 72 23 76 24 73 25
REMARK SMILES IDX 75 26 74 27 16 28 17 29 18 30 19 31 20 32 21 33 67 34 22 35
REMARK SMILES IDX 66 36 23 37 24 38 25 39 60 40 26 41 65 42 59 43 61 44 27 45
REMARK SMILES IDX 64 46 58 47 57 48 28 50 50 51 35 52 49 53 36 54 39 55 48 56
REMARK SMILES IDX 62 57 37 58 38 59 47 61 63 62 40 63 29 64 30 65 34 66 31 67
REMARK SMILES IDX 33 68 32 69 51 70 52 71 56 72 53 73 55 74 54 75 41 76 42 77
REMARK SMILES IDX 46 78 43 79 45 80 44 81
REMARK H PARENT 7 9 1 19 1 20 61 49 39 60
REMARK Flexibility Score: inf
ROOT
ATOM      1  C   UNL     1       3.214   1.530  -4.829  1.00  0.00     0.275 C 
ENDROOT
BRANCH   1   2
ATOM      2  O   UNL     1       1.955   2.217  -4.966  1.00  0.00    -0.459 OA
BRANCH   2   3
ATOM      3  C   UNL     1       1.039   1.888  -4.033  1.00  0.00     0.331 C 
ATOM      4  O   UNL     1       1.254   1.252  -3.013  1.00  0.00    -0.247 OA
BRANCH   3   5
ATOM      5  C   UNL     1      -0.302   2.396  -4.316  1.00  0.00     0.099 C 
ATOM      6  C   UNL     1      -1.096   1.988  -5.317  1.00  0.00     0.079 C 
BRANCH   6   7
ATOM      7  C   UNL     1      -0.764   1.115  -6.466  1.00  0.00     0.248 C 
ATOM      8  N   UNL     1      -0.124  -0.084  -6.354  1.00  0.00    -0.322 N 
ATOM      9  H   UNL     1       0.164  -0.462  -7.216  1.00  0.00     0.170 HD
ATOM     10  O   UNL     1      -1.056   1.531  -7.589  1.00  0.00    -0.270 OA
BRANCH   8  11
ATOM     11  C   UNL     1       0.205  -0.882  -5.249  1.00  0.00     0.042 A 
ATOM     12  C   UNL     1       0.083  -1.390  -2.887  1.00  0.00     0.064 A 
ATOM     13  C   UNL     1      -0.512  -0.887  -4.062  1.00  0.00     0.042 A 
ATOM     14  C   UNL     1       1.389  -1.936  -2.896  1.00  0.00     0.050 A 
ATOM     15  C   UNL     1       1.975  -2.122  -4.159  1.00  0.00     0.029 A 
ATOM     16  C   UNL     1       1.385  -1.619  -5.326  1.00  0.00     0.028 A 
BRANCH  12  17
ATOM     17  C   UNL     1      -0.649  -1.010  -1.655  1.00  0.00     0.250 C 
ATOM     18  N   UNL     1       0.085  -0.372  -0.706  1.00  0.00    -0.366 N 
ATOM     19  H   UNL     1      -0.338  -0.091   0.138  1.00  0.00     0.159 HD
ATOM     20  H   UNL     1       1.040  -0.191  -0.862  1.00  0.00     0.159 HD
ATOM     21  O   UNL     1      -1.860  -1.150  -1.545  1.00  0.00    -0.269 OA
ENDBRANCH  12  17
BRANCH  14  22
ATOM     22  N   UNL     1       2.125  -2.181  -1.744  1.00  0.00    -0.366 N 
ATOM     23  C   UNL     1       1.674  -3.188  -0.772  1.00  0.00     0.145 C 
ATOM     24  C   UNL     1       3.559  -1.857  -1.678  1.00  0.00     0.145 C 
ATOM     25  C   UNL     1       2.165  -2.808   0.638  1.00  0.00     0.181 C 
ATOM     26  C   UNL     1       3.950  -1.538  -0.226  1.00  0.00     0.181 C 
ATOM     27  O   UNL     1       3.589  -2.602   0.668  1.00  0.00    -0.378 OA
ENDBRANCH  14  22
ENDBRANCH   8  11
ENDBRANCH   6   7
ENDBRANCH   3   5
ENDBRANCH   2   3
ENDBRANCH   1   2
BRANCH   1  28
ATOM     28  C   UNL     1       4.216   2.123  -3.824  1.00  0.00     0.275 C 
BRANCH  28  29
ATOM     29  O   UNL     1       3.814   1.988  -2.448  1.00  0.00    -0.458 OA
BRANCH  29  30
ATOM     30  C   UNL     1       3.074   3.021  -1.965  1.00  0.00     0.338 C 
ATOM     31  O   UNL     1       2.802   4.055  -2.544  1.00  0.00    -0.246 OA
BRANCH  30  32
ATOM     32  C   UNL     1       2.476   2.646  -0.662  1.00  0.00     0.060 A 
ATOM     33  C   UNL     1       1.106   2.877  -0.474  1.00  0.00     0.016 A 
ATOM     34  C   UNL     1       3.245   2.108   0.370  1.00  0.00     0.016 A 
ATOM     35  C   UNL     1       0.498   2.581   0.745  1.00  0.00     0.010 A 
ATOM     36  C   UNL     1       2.641   1.823   1.599  1.00  0.00     0.010 A 
ATOM     37  C   UNL     1       1.273   2.084   1.799  1.00  0.00    -0.014 A 
BRANCH  37  38
ATOM     38  C   UNL     1       0.730   2.111   3.177  1.00  0.00     0.031 A 
ATOM     39  C   UNL     1       0.980   3.356   3.981  1.00  0.00     0.074 A 
ATOM     40  C   UNL     1       0.046   1.081   3.704  1.00  0.00     0.049 A 
ATOM     41  N   UNL     1       0.685   3.613   5.227  1.00  0.00    -0.248 NA
ATOM     42  C   UNL     1       1.671   4.456   3.283  1.00  0.00     0.031 C 
ATOM     43  C   UNL     1      -0.290  -0.159   3.013  1.00  0.00     0.029 A 
ATOM     44  N   UNL     1      -0.481   0.914   4.960  1.00  0.00    -0.354 N 
ATOM     45  C   UNL     1       1.170   4.893   5.466  1.00  0.00     0.074 A 
ATOM     46  C   UNL     1       1.796   5.352   4.248  1.00  0.00     0.031 C 
ATOM     47  C   UNL     1      -0.971  -0.962   3.849  1.00  0.00     0.029 A 
ATOM     48  C   UNL     1      -1.064  -0.316   5.154  1.00  0.00     0.049 A 
ATOM     49  H   UNL     1      -0.445   1.609   5.656  1.00  0.00     0.167 HD
ATOM     50  C   UNL     1       1.105   5.619   6.604  1.00  0.00     0.031 A 
ATOM     51  C   UNL     1      -1.579  -0.870   6.269  1.00  0.00     0.031 A 
ATOM     52  C   UNL     1       0.508   5.143   7.820  1.00  0.00     0.049 A 
ATOM     53  C   UNL     1      -1.570  -0.070   7.545  1.00  0.00     0.074 A 
ATOM     54  C   UNL     1       0.379   5.799   9.030  1.00  0.00     0.029 A 
ATOM     55  N   UNL     1      -0.048   3.883   7.981  1.00  0.00    -0.354 N 
ATOM     56  N   UNL     1      -1.136   1.151   7.753  1.00  0.00    -0.248 NA
ATOM     57  C   UNL     1      -2.124  -0.722   8.740  1.00  0.00     0.031 C 
ATOM     58  C   UNL     1      -0.195   4.910   9.943  1.00  0.00     0.029 A 
ATOM     59  C   UNL     1      -0.492   3.729   9.281  1.00  0.00     0.049 A 
ATOM     60  H   UNL     1      -0.115   3.200   7.275  1.00  0.00     0.167 HD
ATOM     61  C   UNL     1      -1.396   1.424   9.090  1.00  0.00     0.074 A 
ATOM     62  C   UNL     1      -2.038   0.247   9.639  1.00  0.00     0.031 C 
ATOM     63  C   UNL     1      -1.130   2.547   9.802  1.00  0.00     0.031 A 
BRANCH  50  64
ATOM     64  C   UNL     1       1.749   6.976   6.591  1.00  0.00    -0.014 A 
ATOM     65  C   UNL     1       1.208   8.039   5.851  1.00  0.00     0.009 A 
ATOM     66  C   UNL     1       2.918   7.192   7.336  1.00  0.00     0.009 A 
ATOM     67  C   UNL     1       1.847   9.281   5.830  1.00  0.00     0.001 A 
ATOM     68  C   UNL     1       3.537   8.443   7.339  1.00  0.00     0.001 A 
ATOM     69  C   UNL     1       3.006   9.483   6.578  1.00  0.00     0.000 A 
ENDBRANCH  50  64
BRANCH  51  70
ATOM     70  C   UNL     1      -2.105  -2.263   6.248  1.00  0.00    -0.014 A 
ATOM     71  C   UNL     1      -3.469  -2.522   6.452  1.00  0.00     0.009 A 
ATOM     72  C   UNL     1      -1.236  -3.350   6.056  1.00  0.00     0.009 A 
ATOM     73  C   UNL     1      -3.945  -3.836   6.495  1.00  0.00     0.001 A 
ATOM     74  C   UNL     1      -1.719  -4.660   6.065  1.00  0.00     0.001 A 
ATOM     75  C   UNL     1      -3.071  -4.903   6.297  1.00  0.00     0.000 A 
ENDBRANCH  51  70
BRANCH  63  76
ATOM     76  C   UNL     1      -1.577   2.575  11.237  1.00  0.00    -0.014 A 
ATOM     77  C   UNL     1      -0.939   1.804  12.220  1.00  0.00     0.009 A 
ATOM     78  C   UNL     1      -2.621   3.434  11.615  1.00  0.00     0.009 A 
ATOM     79  C   UNL     1      -1.364   1.866  13.548  1.00  0.00     0.001 A 
ATOM     80  C   UNL     1      -3.019   3.521  12.948  1.00  0.00     0.001 A 
ATOM     81  C   UNL     1      -2.398   2.729  13.912  1.00  0.00     0.000 A 
ENDBRANCH  63  76
ENDBRANCH  37  38
ENDBRANCH  30  32
ENDBRANCH  29  30
ENDBRANCH  28  29
ENDBRANCH   1  28
TORSDOF 15
