REMARK SMILES C[C@@H](CC(=O)OCCOC(=O)c1ccc(-c2c3nc(c(-c4ccccc4)c4ccc([nH]4)c(-c4ccccc4)c4nc(c(-c5ccccc5)c5ccc2[nH]5)C=C4)C=C3)cc1)N1C(=O)CCCC1=O
REMARK SMILES IDX 7 1 6 2 4 3 5 4 3 5 2 6 1 7 60 8 61 9 66 10 62 11 63 12
REMARK SMILES IDX 65 13 67 14 64 15 8 16 9 17 10 18 11 19 12 20 13 21 59 22
REMARK SMILES IDX 14 23 58 24 15 25 16 26 17 27 52 28 18 29 57 30 51 31 53 32
REMARK SMILES IDX 19 33 56 34 50 35 49 36 20 38 42 39 27 40 41 41 28 42 31 43
REMARK SMILES IDX 40 44 54 45 29 46 30 47 39 49 55 50 32 51 21 52 22 53 26 54
REMARK SMILES IDX 23 55 25 56 24 57 43 58 44 59 48 60 45 61 47 62 46 63 33 64
REMARK SMILES IDX 34 65 38 66 35 67 37 68 36 69
REMARK H PARENT 53 37 31 48
REMARK Flexibility Score: inf
ROOT
ATOM      1  C   UNL     1       0.514   3.782   1.249  1.00  0.00     0.274 C 
ENDROOT
BRANCH   1   2
ATOM      2  O   UNL     1       0.663   2.392   0.896  1.00  0.00    -0.462 OA
BRANCH   2   3
ATOM      3  C   UNL     1       1.069   1.569   1.886  1.00  0.00     0.308 C 
ATOM      4  O   UNL     1       1.286   1.931   3.039  1.00  0.00    -0.252 OA
BRANCH   3   5
ATOM      5  C   UNL     1       1.343   0.154   1.451  1.00  0.00     0.148 C 
BRANCH   5   6
ATOM      6  C   UNL     1       0.656  -0.441   0.206  1.00  0.00     0.101 C 
ATOM      7  C   UNL     1       1.278   0.072  -1.099  1.00  0.00     0.032 C 
BRANCH   6   8
ATOM      8  N   UNL     1      -0.824  -0.530   0.268  1.00  0.00    -0.279 N 
ATOM      9  C   UNL     1      -1.335  -1.468   1.176  1.00  0.00     0.229 C 
ATOM     10  C   UNL     1      -1.628   0.288  -0.536  1.00  0.00     0.229 C 
ATOM     11  O   UNL     1      -0.624  -2.140   1.927  1.00  0.00    -0.274 OA
ATOM     12  C   UNL     1      -2.834  -1.612   1.268  1.00  0.00     0.101 C 
ATOM     13  C   UNL     1      -3.127   0.050  -0.500  1.00  0.00     0.101 C 
ATOM     14  O   UNL     1      -1.201   1.194  -1.254  1.00  0.00    -0.274 OA
ATOM     15  C   UNL     1      -3.478  -1.353  -0.070  1.00  0.00     0.020 C 
ENDBRANCH   6   8
ENDBRANCH   5   6
ENDBRANCH   3   5
ENDBRANCH   2   3
ENDBRANCH   1   2
BRANCH   1  16
ATOM     16  C   UNL     1      -0.919   4.147   1.647  1.00  0.00     0.275 C 
BRANCH  16  17
ATOM     17  O   UNL     1      -1.300   3.592   2.923  1.00  0.00    -0.458 OA
BRANCH  17  18
ATOM     18  C   UNL     1      -1.880   2.377   2.846  1.00  0.00     0.338 C 
ATOM     19  O   UNL     1      -2.118   1.730   1.841  1.00  0.00    -0.246 OA
BRANCH  18  20
ATOM     20  C   UNL     1      -2.188   1.822   4.163  1.00  0.00     0.060 A 
ATOM     21  C   UNL     1      -1.515   0.661   4.553  1.00  0.00     0.016 A 
ATOM     22  C   UNL     1      -3.284   2.298   4.885  1.00  0.00     0.016 A 
ATOM     23  C   UNL     1      -1.954  -0.048   5.663  1.00  0.00     0.010 A 
ATOM     24  C   UNL     1      -3.722   1.586   6.003  1.00  0.00     0.010 A 
ATOM     25  C   UNL     1      -3.073   0.399   6.380  1.00  0.00    -0.014 A 
BRANCH  25  26
ATOM     26  C   UNL     1      -3.563  -0.405   7.517  1.00  0.00     0.031 A 
ATOM     27  C   UNL     1      -4.700  -1.366   7.335  1.00  0.00     0.074 A 
ATOM     28  C   UNL     1      -2.942  -0.298   8.704  1.00  0.00     0.049 A 
ATOM     29  N   UNL     1      -5.245  -2.170   8.213  1.00  0.00    -0.248 NA
ATOM     30  C   UNL     1      -5.302  -1.436   5.995  1.00  0.00     0.031 C 
ATOM     31  C   UNL     1      -1.809   0.584   8.985  1.00  0.00     0.029 A 
ATOM     32  N   UNL     1      -3.169  -0.949   9.886  1.00  0.00    -0.354 N 
ATOM     33  C   UNL     1      -6.259  -2.833   7.537  1.00  0.00     0.074 A 
ATOM     34  C   UNL     1      -6.260  -2.336   6.177  1.00  0.00     0.031 C 
ATOM     35  C   UNL     1      -1.427   0.406  10.259  1.00  0.00     0.029 A 
ATOM     36  C   UNL     1      -2.298  -0.587  10.882  1.00  0.00     0.049 A 
ATOM     37  H   UNL     1      -3.886  -1.613  10.010  1.00  0.00     0.167 HD
ATOM     38  C   UNL     1      -7.114  -3.771   8.011  1.00  0.00     0.031 A 
ATOM     39  C   UNL     1      -2.211  -1.010  12.154  1.00  0.00     0.031 A 
ATOM     40  C   UNL     1      -7.116  -4.264   9.362  1.00  0.00     0.049 A 
ATOM     41  C   UNL     1      -3.165  -2.054  12.651  1.00  0.00     0.074 A 
ATOM     42  C   UNL     1      -7.960  -5.197   9.941  1.00  0.00     0.029 A 
ATOM     43  N   UNL     1      -6.223  -3.868  10.344  1.00  0.00    -0.354 N 
ATOM     44  N   UNL     1      -4.131  -2.659  12.005  1.00  0.00    -0.248 NA
ATOM     45  C   UNL     1      -3.013  -2.474  14.050  1.00  0.00     0.031 C 
ATOM     46  C   UNL     1      -7.585  -5.354  11.281  1.00  0.00     0.029 A 
ATOM     47  C   UNL     1      -6.495  -4.535  11.526  1.00  0.00     0.049 A 
ATOM     48  H   UNL     1      -5.501  -3.210  10.219  1.00  0.00     0.167 HD
ATOM     49  C   UNL     1      -4.703  -3.534  12.917  1.00  0.00     0.074 A 
ATOM     50  C   UNL     1      -3.963  -3.393  14.156  1.00  0.00     0.031 C 
ATOM     51  C   UNL     1      -5.751  -4.374  12.746  1.00  0.00     0.031 A 
BRANCH  38  52
ATOM     52  C   UNL     1      -8.141  -4.304   7.059  1.00  0.00    -0.014 A 
ATOM     53  C   UNL     1      -7.815  -5.313   6.140  1.00  0.00     0.009 A 
ATOM     54  C   UNL     1      -9.456  -3.818   7.105  1.00  0.00     0.009 A 
ATOM     55  C   UNL     1      -8.787  -5.814   5.272  1.00  0.00     0.001 A 
ATOM     56  C   UNL     1     -10.428  -4.329   6.243  1.00  0.00     0.001 A 
ATOM     57  C   UNL     1     -10.092  -5.324   5.325  1.00  0.00     0.000 A 
ENDBRANCH  38  52
BRANCH  39  58
ATOM     58  C   UNL     1      -1.170  -0.441  13.039  1.00  0.00    -0.014 A 
ATOM     59  C   UNL     1       0.004  -1.158  13.307  1.00  0.00     0.009 A 
ATOM     60  C   UNL     1      -1.332   0.841  13.586  1.00  0.00     0.009 A 
ATOM     61  C   UNL     1       0.996  -0.603  14.118  1.00  0.00     0.001 A 
ATOM     62  C   UNL     1      -0.332   1.398  14.383  1.00  0.00     0.001 A 
ATOM     63  C   UNL     1       0.830   0.675  14.651  1.00  0.00     0.000 A 
ENDBRANCH  39  58
BRANCH  51  64
ATOM     64  C   UNL     1      -6.151  -5.199  13.931  1.00  0.00    -0.014 A 
ATOM     65  C   UNL     1      -6.942  -4.648  14.950  1.00  0.00     0.009 A 
ATOM     66  C   UNL     1      -5.744  -6.537  14.022  1.00  0.00     0.009 A 
ATOM     67  C   UNL     1      -7.298  -5.420  16.056  1.00  0.00     0.001 A 
ATOM     68  C   UNL     1      -6.112  -7.309  15.125  1.00  0.00     0.001 A 
ATOM     69  C   UNL     1      -6.883  -6.749  16.143  1.00  0.00     0.000 A 
ENDBRANCH  51  64
ENDBRANCH  25  26
ENDBRANCH  18  20
ENDBRANCH  17  18
ENDBRANCH  16  17
ENDBRANCH   1  16
TORSDOF 13
