REMARK SMILES CCOc1cc2c(cc1OCC)[C@@H](C(=O)OCCOC(=O)c1ccc(-c3c4nc(c(-c5ccccc5)c5ccc([nH]5)c(-c5ccccc5)c5nc(c(-c6ccccc6)c6ccc3[nH]6)C=C5)C=C4)cc1)[C@H](c1ccc(F)cc1Cl)N(C)C2=O
REMARK SMILES IDX 17 1 16 2 14 3 15 4 13 5 4 6 5 7 9 8 6 9 8 10 7 11 81 12
REMARK SMILES IDX 79 13 82 14 70 15 80 16 3 17 2 18 1 19 10 20 11 21 12 22
REMARK SMILES IDX 71 23 72 24 77 25 73 26 76 27 78 28 74 29 75 30 18 31 19 32
REMARK SMILES IDX 20 33 21 34 22 35 23 36 69 37 24 38 68 39 25 40 26 41 27 42
REMARK SMILES IDX 62 43 28 44 67 45 61 46 63 47 29 48 66 49 60 50 59 51 30 53
REMARK SMILES IDX 52 54 37 55 51 56 38 57 41 58 50 59 64 60 39 61 40 62 49 64
REMARK SMILES IDX 65 65 42 66 31 67 32 68 36 69 33 70 35 71 34 72 53 73 54 74
REMARK SMILES IDX 58 75 55 76 57 77 56 78 43 79 44 80 48 81 45 82 47 83 46 84
REMARK H PARENT 63 52 41 63
REMARK Flexibility Score: inf
ROOT
ATOM      1  C   UNL     1       8.205  -2.192  -1.817  1.00  0.00     0.274 C 
ENDROOT
BRANCH   1   2
ATOM      2  O   UNL     1       7.555  -1.945  -0.554  1.00  0.00    -0.462 OA
BRANCH   2   3
ATOM      3  C   UNL     1       7.011  -3.017   0.071  1.00  0.00     0.316 C 
ATOM      4  O   UNL     1       7.067  -4.166  -0.361  1.00  0.00    -0.251 OA
BRANCH   3   5
ATOM      5  C   UNL     1       6.261  -2.686   1.355  1.00  0.00     0.157 C 
ATOM      6  C   UNL     1       2.078  -1.979   0.663  1.00  0.00     0.161 A 
ATOM      7  C   UNL     1       2.995  -0.915   0.677  1.00  0.00     0.064 A 
ATOM      8  C   UNL     1       2.522  -3.294   0.866  1.00  0.00     0.161 A 
ATOM      9  C   UNL     1       4.354  -1.152   0.858  1.00  0.00     0.048 A 
ATOM     10  C   UNL     1       3.890  -3.515   1.062  1.00  0.00     0.056 A 
ATOM     11  C   UNL     1       4.801  -2.454   1.074  1.00  0.00    -0.015 A 
ATOM     12  C   UNL     1       5.328  -0.024   0.835  1.00  0.00     0.254 C 
ATOM     13  N   UNL     1       6.544  -0.246   1.482  1.00  0.00    -0.333 N 
ATOM     14  O   UNL     1       5.043   1.014   0.247  1.00  0.00    -0.269 OA
ATOM     15  C   UNL     1       6.812  -1.497   2.198  1.00  0.00     0.135 C 
ATOM     16  C   UNL     1       7.585   0.764   1.394  1.00  0.00     0.147 C 
BRANCH   6  17
ATOM     17  O   UNL     1       0.747  -1.677   0.562  1.00  0.00    -0.490 OA
BRANCH  17  18
ATOM     18  C   UNL     1       0.388  -1.119  -0.710  1.00  0.00     0.226 C 
ATOM     19  C   UNL     1       0.270   0.395  -0.643  1.00  0.00     0.049 C 
ENDBRANCH  17  18
ENDBRANCH   6  17
BRANCH   8  20
ATOM     20  O   UNL     1       1.819  -4.463   0.919  1.00  0.00    -0.490 OA
BRANCH  20  21
ATOM     21  C   UNL     1       0.412  -4.491   0.730  1.00  0.00     0.226 C 
ATOM     22  C   UNL     1      -0.312  -4.267   2.044  1.00  0.00     0.049 C 
ENDBRANCH  20  21
ENDBRANCH   8  20
BRANCH  15  23
ATOM     23  C   UNL     1       6.296  -1.567   3.667  1.00  0.00    -0.005 A 
ATOM     24  C   UNL     1       6.622  -2.753   4.381  1.00  0.00     0.010 A 
ATOM     25  C   UNL     1       5.513  -0.619   4.365  1.00  0.00     0.049 A 
ATOM     26  C   UNL     1       6.118  -3.025   5.656  1.00  0.00     0.040 A 
ATOM     27  C   UNL     1       5.013  -0.898   5.649  1.00  0.00     0.060 A 
ATOM     28  Cl  UNL     1       5.096   0.957   3.802  1.00  0.00    -0.084 Cl
ATOM     29  C   UNL     1       5.301  -2.098   6.271  1.00  0.00     0.124 A 
ATOM     30  F   UNL     1       4.799  -2.355   7.485  1.00  0.00    -0.207 F 
ENDBRANCH  15  23
ENDBRANCH   3   5
ENDBRANCH   2   3
ENDBRANCH   1   2
BRANCH   1  31
ATOM     31  C   UNL     1       9.726  -2.316  -1.669  1.00  0.00     0.275 C 
BRANCH  31  32
ATOM     32  O   UNL     1      10.105  -3.500  -0.941  1.00  0.00    -0.458 OA
BRANCH  32  33
ATOM     33  C   UNL     1      10.180  -3.337   0.399  1.00  0.00     0.338 C 
ATOM     34  O   UNL     1      10.017  -2.305   1.029  1.00  0.00    -0.246 OA
BRANCH  33  35
ATOM     35  C   UNL     1      10.289  -4.643   1.068  1.00  0.00     0.060 A 
ATOM     36  C   UNL     1       9.296  -4.955   1.999  1.00  0.00     0.016 A 
ATOM     37  C   UNL     1      11.370  -5.502   0.874  1.00  0.00     0.016 A 
ATOM     38  C   UNL     1       9.376  -6.113   2.756  1.00  0.00     0.010 A 
ATOM     39  C   UNL     1      11.455  -6.671   1.640  1.00  0.00     0.010 A 
ATOM     40  C   UNL     1      10.468  -6.971   2.597  1.00  0.00    -0.014 A 
BRANCH  40  41
ATOM     41  C   UNL     1      10.585  -8.130   3.509  1.00  0.00     0.031 A 
ATOM     42  C   UNL     1      11.544  -8.074   4.662  1.00  0.00     0.074 A 
ATOM     43  C   UNL     1       9.765  -9.185   3.356  1.00  0.00     0.049 A 
ATOM     44  N   UNL     1      11.768  -8.965   5.593  1.00  0.00    -0.248 NA
ATOM     45  C   UNL     1      12.352  -6.851   4.789  1.00  0.00     0.031 C 
ATOM     46  C   UNL     1       8.752  -9.323   2.309  1.00  0.00     0.029 A 
ATOM     47  N   UNL     1       9.643 -10.332   4.098  1.00  0.00    -0.354 N 
ATOM     48  C   UNL     1      12.759  -8.424   6.401  1.00  0.00     0.074 A 
ATOM     49  C   UNL     1      13.101  -7.132   5.846  1.00  0.00     0.031 C 
ATOM     50  C   UNL     1       8.099 -10.483   2.486  1.00  0.00     0.029 A 
ATOM     51  C   UNL     1       8.672 -11.183   3.632  1.00  0.00     0.049 A 
ATOM     52  H   UNL     1      10.197 -10.525   4.888  1.00  0.00     0.167 HD
ATOM     53  C   UNL     1      13.334  -8.957   7.505  1.00  0.00     0.031 A 
ATOM     54  C   UNL     1       8.297 -12.398   4.072  1.00  0.00     0.031 A 
ATOM     55  C   UNL     1      12.991 -10.241   8.057  1.00  0.00     0.049 A 
ATOM     56  C   UNL     1       8.977 -12.985   5.276  1.00  0.00     0.074 A 
ATOM     57  C   UNL     1      13.516 -10.868   9.174  1.00  0.00     0.029 A 
ATOM     58  N   UNL     1      12.033 -11.094   7.531  1.00  0.00    -0.354 N 
ATOM     59  N   UNL     1       9.917 -12.464   6.028  1.00  0.00    -0.248 NA
ATOM     60  C   UNL     1       8.539 -14.323   5.696  1.00  0.00     0.031 C 
ATOM     61  C   UNL     1      12.904 -12.121   9.298  1.00  0.00     0.029 A 
ATOM     62  C   UNL     1      11.963 -12.250   8.289  1.00  0.00     0.049 A 
ATOM     63  H   UNL     1      11.483 -10.905   6.737  1.00  0.00     0.167 HD
ATOM     64  C   UNL     1      10.171 -13.403   7.019  1.00  0.00     0.074 A 
ATOM     65  C   UNL     1       9.273 -14.515   6.783  1.00  0.00     0.031 C 
ATOM     66  C   UNL     1      11.067 -13.348   8.035  1.00  0.00     0.031 A 
BRANCH  53  67
ATOM     67  C   UNL     1      14.433  -8.166   8.155  1.00  0.00    -0.014 A 
ATOM     68  C   UNL     1      14.162  -7.010   8.903  1.00  0.00     0.009 A 
ATOM     69  C   UNL     1      15.763  -8.596   8.024  1.00  0.00     0.009 A 
ATOM     70  C   UNL     1      15.205  -6.281   9.477  1.00  0.00     0.001 A 
ATOM     71  C   UNL     1      16.801  -7.879   8.620  1.00  0.00     0.001 A 
ATOM     72  C   UNL     1      16.523  -6.717   9.338  1.00  0.00     0.000 A 
ENDBRANCH  53  67
BRANCH  54  73
ATOM     73  C   UNL     1       7.232 -13.146   3.355  1.00  0.00    -0.014 A 
ATOM     74  C   UNL     1       5.967 -13.326   3.933  1.00  0.00     0.009 A 
ATOM     75  C   UNL     1       7.479 -13.676   2.078  1.00  0.00     0.009 A 
ATOM     76  C   UNL     1       4.975 -14.036   3.252  1.00  0.00     0.001 A 
ATOM     77  C   UNL     1       6.478 -14.362   1.389  1.00  0.00     0.001 A 
ATOM     78  C   UNL     1       5.229 -14.547   1.979  1.00  0.00     0.000 A 
ENDBRANCH  54  73
BRANCH  66  79
ATOM     79  C   UNL     1      11.097 -14.514   8.981  1.00  0.00    -0.014 A 
ATOM     80  C   UNL     1      11.657 -15.744   8.602  1.00  0.00     0.009 A 
ATOM     81  C   UNL     1      10.583 -14.369  10.278  1.00  0.00     0.009 A 
ATOM     82  C   UNL     1      11.669 -16.817   9.496  1.00  0.00     0.001 A 
ATOM     83  C   UNL     1      10.620 -15.435  11.177  1.00  0.00     0.001 A 
ATOM     84  C   UNL     1      11.154 -16.661  10.782  1.00  0.00     0.000 A 
ENDBRANCH  66  79
ENDBRANCH  40  41
ENDBRANCH  33  35
ENDBRANCH  32  33
ENDBRANCH  31  32
ENDBRANCH   1  31
TORSDOF 16
