REMARK SMILES CC[C@@]1(C)NC(=O)N(/N=C/c2ccccc2C(=O)OCCOC(=O)c2ccc(-c3c4nc(c(-c5ccccc5)c5ccc([nH]5)c(-c5ccccc5)c5nc(c(-c6ccccc6)c6ccc3[nH]6)C=C5)C=C4)cc2)C1=O
REMARK SMILES IDX 20 1 19 2 17 3 18 4 16 5 11 6 12 7 13 8 15 9 14 10 10 11
REMARK SMILES IDX 9 12 8 13 3 14 4 15 5 16 73 17 6 18 74 20 7 21 2 22 1 23
REMARK SMILES IDX 21 24 22 25 23 26 24 27 25 28 26 29 72 30 27 31 71 32 28 33
REMARK SMILES IDX 29 34 30 35 65 36 31 37 70 38 64 39 66 40 32 41 69 42 63 43
REMARK SMILES IDX 62 44 33 46 55 47 40 48 54 49 41 50 44 51 53 52 67 53 42 54
REMARK SMILES IDX 43 55 52 57 68 58 45 59 34 60 35 61 39 62 36 63 38 64 37 65
REMARK SMILES IDX 56 66 57 67 61 68 58 69 60 70 59 71 46 72 47 73 51 74 48 75
REMARK SMILES IDX 50 76 49 77
REMARK H PARENT 5 19 66 45 44 56
REMARK Flexibility Score: inf
ROOT
ATOM      1  C   UNL     1      -2.285   5.409   2.943  1.00  0.00     0.275 C 
ENDROOT
BRANCH   1   2
ATOM      2  O   UNL     1      -2.447   4.768   4.225  1.00  0.00    -0.458 OA
BRANCH   2   3
ATOM      3  C   UNL     1      -2.055   5.487   5.306  1.00  0.00     0.338 C 
ATOM      4  O   UNL     1      -1.817   6.683   5.339  1.00  0.00    -0.246 OA
BRANCH   3   5
ATOM      5  C   UNL     1      -2.127   4.664   6.537  1.00  0.00     0.068 A 
ATOM      6  C   UNL     1      -1.630   3.361   6.651  1.00  0.00     0.009 A 
ATOM      7  C   UNL     1      -1.816   2.644   7.846  1.00  0.00     0.010 A 
ATOM      8  C   UNL     1      -2.477   3.229   8.928  1.00  0.00     0.001 A 
ATOM      9  C   UNL     1      -2.752   5.255   7.651  1.00  0.00     0.016 A 
ATOM     10  C   UNL     1      -2.942   4.537   8.832  1.00  0.00     0.001 A 
BRANCH   6  11
ATOM     11  C   UNL     1      -0.878   2.664   5.587  1.00  0.00     0.143 C 
ATOM     12  N   UNL     1      -0.194   3.312   4.706  1.00  0.00    -0.169 NA
BRANCH  12  13
ATOM     13  N   UNL     1       0.436   2.637   3.695  1.00  0.00    -0.146 N 
ATOM     14  C   UNL     1       1.386   1.058   2.214  1.00  0.00     0.120 C 
ATOM     15  C   UNL     1       2.795   0.550   2.507  1.00  0.00     0.045 C 
ATOM     16  N   UNL     1       1.434   2.406   1.708  1.00  0.00    -0.322 N 
ATOM     17  C   UNL     1       0.651   1.280   3.553  1.00  0.00     0.276 C 
ATOM     18  C   UNL     1       0.930   3.325   2.606  1.00  0.00     0.346 C 
ATOM     19  H   UNL     1       1.787   2.645   0.820  1.00  0.00     0.166 HD
ATOM     20  O   UNL     1       0.366   0.369   4.323  1.00  0.00    -0.270 OA
ATOM     21  O   UNL     1       0.939   4.525   2.380  1.00  0.00    -0.246 OA
BRANCH  14  22
ATOM     22  C   UNL     1       0.557   0.118   1.326  1.00  0.00     0.035 C 
ATOM     23  C   UNL     1       1.046   0.017  -0.112  1.00  0.00     0.007 C 
ENDBRANCH  14  22
ENDBRANCH  12  13
ENDBRANCH   6  11
ENDBRANCH   3   5
ENDBRANCH   2   3
ENDBRANCH   1   2
BRANCH   1  24
ATOM     24  C   UNL     1      -3.600   5.426   2.172  1.00  0.00     0.275 C 
BRANCH  24  25
ATOM     25  O   UNL     1      -4.552   6.250   2.861  1.00  0.00    -0.458 OA
BRANCH  25  26
ATOM     26  C   UNL     1      -5.447   5.578   3.611  1.00  0.00     0.338 C 
ATOM     27  O   UNL     1      -5.636   4.370   3.675  1.00  0.00    -0.246 OA
BRANCH  26  28
ATOM     28  C   UNL     1      -6.145   6.537   4.465  1.00  0.00     0.060 A 
ATOM     29  C   UNL     1      -5.560   6.873   5.684  1.00  0.00     0.016 A 
ATOM     30  C   UNL     1      -7.406   7.015   4.120  1.00  0.00     0.016 A 
ATOM     31  C   UNL     1      -6.263   7.641   6.605  1.00  0.00     0.010 A 
ATOM     32  C   UNL     1      -8.085   7.840   5.020  1.00  0.00     0.010 A 
ATOM     33  C   UNL     1      -7.535   8.133   6.284  1.00  0.00    -0.014 A 
BRANCH  33  34
ATOM     34  C   UNL     1      -8.322   8.898   7.286  1.00  0.00     0.031 A 
ATOM     35  C   UNL     1      -9.637   8.354   7.776  1.00  0.00     0.074 A 
ATOM     36  C   UNL     1      -7.864  10.070   7.765  1.00  0.00     0.049 A 
ATOM     37  N   UNL     1     -10.557   8.940   8.500  1.00  0.00    -0.248 NA
ATOM     38  C   UNL     1      -9.966   6.973   7.389  1.00  0.00     0.031 C 
ATOM     39  C   UNL     1      -6.581  10.687   7.424  1.00  0.00     0.029 A 
ATOM     40  N   UNL     1      -8.432  10.953   8.650  1.00  0.00    -0.354 N 
ATOM     41  C   UNL     1     -11.597   8.024   8.601  1.00  0.00     0.074 A 
ATOM     42  C   UNL     1     -11.195   6.843   7.867  1.00  0.00     0.031 C 
ATOM     43  C   UNL     1      -6.447  11.831   8.114  1.00  0.00     0.029 A 
ATOM     44  C   UNL     1      -7.665  12.069   8.880  1.00  0.00     0.049 A 
ATOM     45  H   UNL     1      -9.305  10.801   9.079  1.00  0.00     0.167 HD
ATOM     46  C   UNL     1     -12.783   8.158   9.241  1.00  0.00     0.031 A 
ATOM     47  C   UNL     1      -7.927  13.180   9.593  1.00  0.00     0.031 A 
ATOM     48  C   UNL     1     -13.162   9.317  10.005  1.00  0.00     0.049 A 
ATOM     49  C   UNL     1      -9.261  13.321  10.269  1.00  0.00     0.074 A 
ATOM     50  C   UNL     1     -14.338   9.545  10.700  1.00  0.00     0.029 A 
ATOM     51  N   UNL     1     -12.364  10.435  10.188  1.00  0.00    -0.354 N 
ATOM     52  N   UNL     1     -10.259  12.472  10.309  1.00  0.00    -0.248 NA
ATOM     53  C   UNL     1      -9.509  14.581  10.984  1.00  0.00     0.031 C 
ATOM     54  C   UNL     1     -14.264  10.819  11.275  1.00  0.00     0.029 A 
ATOM     55  C   UNL     1     -13.025  11.361  10.977  1.00  0.00     0.049 A 
ATOM     56  H   UNL     1     -11.462  10.553   9.814  1.00  0.00     0.167 HD
ATOM     57  C   UNL     1     -11.249  13.089  11.062  1.00  0.00     0.074 A 
ATOM     58  C   UNL     1     -10.723  14.374  11.475  1.00  0.00     0.031 C 
ATOM     59  C   UNL     1     -12.485  12.633  11.378  1.00  0.00     0.031 A 
BRANCH  46  60
ATOM     60  C   UNL     1     -13.776   7.039   9.104  1.00  0.00    -0.014 A 
ATOM     61  C   UNL     1     -13.605   5.816   9.771  1.00  0.00     0.009 A 
ATOM     62  C   UNL     1     -14.921   7.228   8.314  1.00  0.00     0.009 A 
ATOM     63  C   UNL     1     -14.545   4.794   9.622  1.00  0.00     0.001 A 
ATOM     64  C   UNL     1     -15.872   6.214   8.188  1.00  0.00     0.001 A 
ATOM     65  C   UNL     1     -15.680   4.995   8.835  1.00  0.00     0.000 A 
ENDBRANCH  46  60
BRANCH  47  66
ATOM     66  C   UNL     1      -6.919  14.270   9.662  1.00  0.00    -0.014 A 
ATOM     67  C   UNL     1      -6.237  14.536  10.859  1.00  0.00     0.009 A 
ATOM     68  C   UNL     1      -6.626  15.043   8.527  1.00  0.00     0.009 A 
ATOM     69  C   UNL     1      -5.291  15.562  10.919  1.00  0.00     0.001 A 
ATOM     70  C   UNL     1      -5.659  16.048   8.583  1.00  0.00     0.001 A 
ATOM     71  C   UNL     1      -4.998  16.311   9.781  1.00  0.00     0.000 A 
ENDBRANCH  47  66
BRANCH  59  72
ATOM     72  C   UNL     1     -13.338  13.517  12.241  1.00  0.00    -0.014 A 
ATOM     73  C   UNL     1     -13.961  14.659  11.717  1.00  0.00     0.009 A 
ATOM     74  C   UNL     1     -13.546  13.181  13.587  1.00  0.00     0.009 A 
ATOM     75  C   UNL     1     -14.756  15.464  12.535  1.00  0.00     0.001 A 
ATOM     76  C   UNL     1     -14.360  13.974  14.396  1.00  0.00     0.001 A 
ATOM     77  C   UNL     1     -14.957  15.120  13.871  1.00  0.00     0.000 A 
ENDBRANCH  59  72
ENDBRANCH  33  34
ENDBRANCH  26  28
ENDBRANCH  25  26
ENDBRANCH  24  25
ENDBRANCH   1  24
TORSDOF 14
