REMARK SMILES Cn1c(=O)c2c(-c3ccc(Cl)cc3)n(CC(=O)OCCOC(=O)c3ccc(-c4c5nc(c(-c6ccccc6)c6ccc([nH]6)c(-c6ccccc6)c6nc(c(-c7ccccc7)c7ccc4[nH]7)C=C6)C=C5)cc3)cc2n(C)c1=O
REMARK SMILES IDX 19 1 18 2 16 3 17 4 15 5 14 6 1 7 2 8 3 9 76 10 4 11 5 12
REMARK SMILES IDX 74 13 77 14 6 15 73 16 75 17 72 18 7 19 8 20 13 21 9 22
REMARK SMILES IDX 12 23 10 24 11 25 20 26 21 27 22 28 23 29 24 30 25 31 71 32
REMARK SMILES IDX 26 33 70 34 27 35 28 36 29 37 64 38 30 39 69 40 63 41 65 42
REMARK SMILES IDX 31 43 68 44 62 45 61 46 32 48 54 49 39 50 53 51 40 52 43 53
REMARK SMILES IDX 52 54 66 55 41 56 42 57 51 59 67 60 44 61 33 62 34 63 38 64
REMARK SMILES IDX 35 65 37 66 36 67 55 68 56 69 60 70 57 71 59 72 58 73 45 74
REMARK SMILES IDX 46 75 50 76 47 77 49 78 48 79
REMARK H PARENT 65 47 43 58
REMARK Flexibility Score: inf
ROOT
ATOM      1  C   UNL     1      -5.029  -1.006  -6.530  1.00  0.00     0.274 C 
ENDROOT
BRANCH   1   2
ATOM      2  O   UNL     1      -3.667  -1.282  -6.134  1.00  0.00    -0.461 OA
BRANCH   2   3
ATOM      3  C   UNL     1      -2.762  -1.370  -7.144  1.00  0.00     0.326 C 
ATOM      4  O   UNL     1      -3.055  -1.267  -8.335  1.00  0.00    -0.250 OA
BRANCH   3   5
ATOM      5  C   UNL     1      -1.358  -1.709  -6.714  1.00  0.00     0.244 C 
BRANCH   5   6
ATOM      6  N   UNL     1      -0.912  -1.205  -5.417  1.00  0.00    -0.333 N 
ATOM      7  C   UNL     1       0.885  -0.090   0.114  1.00  0.00     0.158 C 
ATOM      8  N   UNL     1       0.459  -0.001  -1.269  1.00  0.00    -0.263 N 
ATOM      9  C   UNL     1       0.111  -1.199  -1.911  1.00  0.00     0.265 A 
ATOM     10  C   UNL     1       0.463   1.288  -1.838  1.00  0.00     0.330 A 
ATOM     11  O   UNL     1       0.123  -2.299  -1.360  1.00  0.00    -0.268 OA
ATOM     12  C   UNL     1      -0.258  -1.023  -3.295  1.00  0.00     0.090 A 
ATOM     13  N   UNL     1       0.106   1.393  -3.186  1.00  0.00    -0.295 N 
ATOM     14  O   UNL     1       0.778   2.280  -1.172  1.00  0.00    -0.248 OA
ATOM     15  C   UNL     1      -0.641  -1.941  -4.271  1.00  0.00     0.064 A 
ATOM     16  C   UNL     1      -0.220   0.245  -3.885  1.00  0.00     0.076 A 
ATOM     17  C   UNL     1       0.043   2.707  -3.812  1.00  0.00     0.155 C 
ATOM     18  C   UNL     1      -0.515   0.095  -5.211  1.00  0.00     0.114 A 
BRANCH  15  19
ATOM     19  C   UNL     1      -0.752  -3.395  -4.202  1.00  0.00    -0.001 A 
ATOM     20  C   UNL     1       0.088  -4.199  -4.986  1.00  0.00     0.012 A 
ATOM     21  C   UNL     1      -1.694  -3.999  -3.364  1.00  0.00     0.012 A 
ATOM     22  C   UNL     1      -0.038  -5.588  -4.962  1.00  0.00     0.021 A 
ATOM     23  C   UNL     1      -1.809  -5.391  -3.325  1.00  0.00     0.021 A 
ATOM     24  C   UNL     1      -0.987  -6.178  -4.130  1.00  0.00     0.041 A 
ATOM     25  Cl  UNL     1      -1.143  -7.891  -4.099  1.00  0.00    -0.084 Cl
ENDBRANCH  15  19
ENDBRANCH   5   6
ENDBRANCH   3   5
ENDBRANCH   2   3
ENDBRANCH   1   2
BRANCH   1  26
ATOM     26  C   UNL     1      -5.376   0.484  -6.558  1.00  0.00     0.275 C 
BRANCH  26  27
ATOM     27  O   UNL     1      -4.654   1.223  -7.550  1.00  0.00    -0.458 OA
BRANCH  27  28
ATOM     28  C   UNL     1      -3.474   1.688  -7.091  1.00  0.00     0.338 C 
ATOM     29  O   UNL     1      -2.933   1.383  -6.041  1.00  0.00    -0.246 OA
BRANCH  28  30
ATOM     30  C   UNL     1      -2.942   2.773  -7.912  1.00  0.00     0.060 A 
ATOM     31  C   UNL     1      -1.568   3.021  -7.831  1.00  0.00     0.016 A 
ATOM     32  C   UNL     1      -3.824   3.703  -8.468  1.00  0.00     0.016 A 
ATOM     33  C   UNL     1      -1.090   4.268  -8.169  1.00  0.00     0.010 A 
ATOM     34  C   UNL     1      -3.342   4.952  -8.814  1.00  0.00     0.010 A 
ATOM     35  C   UNL     1      -1.994   5.243  -8.599  1.00  0.00    -0.014 A 
BRANCH  35  36
ATOM     36  C   UNL     1      -1.449   6.556  -8.891  1.00  0.00     0.031 A 
ATOM     37  C   UNL     1      -0.562   6.607 -10.076  1.00  0.00     0.074 A 
ATOM     38  C   UNL     1      -1.791   7.669  -8.218  1.00  0.00     0.049 A 
ATOM     39  N   UNL     1       0.681   6.953 -10.128  1.00  0.00    -0.248 NA
ATOM     40  C   UNL     1      -1.114   6.116 -11.347  1.00  0.00     0.031 C 
ATOM     41  C   UNL     1      -2.860   7.832  -7.231  1.00  0.00     0.029 A 
ATOM     42  N   UNL     1      -1.315   8.934  -8.381  1.00  0.00    -0.354 N 
ATOM     43  C   UNL     1       1.033   6.884 -11.472  1.00  0.00     0.074 A 
ATOM     44  C   UNL     1      -0.063   6.242 -12.154  1.00  0.00     0.031 C 
ATOM     45  C   UNL     1      -3.106   9.151  -7.066  1.00  0.00     0.029 A 
ATOM     46  C   UNL     1      -2.128   9.911  -7.829  1.00  0.00     0.049 A 
ATOM     47  H   UNL     1      -0.471   9.136  -8.847  1.00  0.00     0.167 HD
ATOM     48  C   UNL     1       2.102   7.557 -11.972  1.00  0.00     0.031 A 
ATOM     49  C   UNL     1      -2.047  11.243  -8.054  1.00  0.00     0.031 A 
ATOM     50  C   UNL     1       3.028   7.956 -10.948  1.00  0.00     0.049 A 
ATOM     51  C   UNL     1      -0.697  11.538  -8.585  1.00  0.00     0.074 A 
ATOM     52  C   UNL     1       3.803   7.296 -10.017  1.00  0.00     0.029 A 
ATOM     53  N   UNL     1       3.010   9.274 -10.562  1.00  0.00    -0.354 N 
ATOM     54  N   UNL     1       0.394  11.456  -7.881  1.00  0.00    -0.248 NA
ATOM     55  C   UNL     1      -0.506  11.591 -10.026  1.00  0.00     0.031 C 
ATOM     56  C   UNL     1       3.840   8.159  -8.883  1.00  0.00     0.029 A 
ATOM     57  C   UNL     1       3.107   9.305  -9.197  1.00  0.00     0.049 A 
ATOM     58  H   UNL     1       2.939  10.053 -11.159  1.00  0.00     0.167 HD
ATOM     59  C   UNL     1       1.361  11.023  -8.776  1.00  0.00     0.074 A 
ATOM     60  C   UNL     1       0.786  11.260 -10.095  1.00  0.00     0.031 C 
ATOM     61  C   UNL     1       2.410  10.256  -8.358  1.00  0.00     0.031 A 
BRANCH  48  62
ATOM     62  C   UNL     1       2.094   8.197 -13.338  1.00  0.00    -0.014 A 
ATOM     63  C   UNL     1       3.263   8.825 -13.801  1.00  0.00     0.009 A 
ATOM     64  C   UNL     1       0.909   8.454 -14.056  1.00  0.00     0.009 A 
ATOM     65  C   UNL     1       3.230   9.714 -14.882  1.00  0.00     0.001 A 
ATOM     66  C   UNL     1       0.882   9.305 -15.163  1.00  0.00     0.001 A 
ATOM     67  C   UNL     1       2.039   9.958 -15.558  1.00  0.00     0.000 A 
ENDBRANCH  48  62
BRANCH  49  68
ATOM     68  C   UNL     1      -3.136  12.240  -8.084  1.00  0.00    -0.014 A 
ATOM     69  C   UNL     1      -2.846  13.613  -8.040  1.00  0.00     0.009 A 
ATOM     70  C   UNL     1      -4.447  11.857  -8.422  1.00  0.00     0.009 A 
ATOM     71  C   UNL     1      -3.821  14.564  -8.366  1.00  0.00     0.001 A 
ATOM     72  C   UNL     1      -5.423  12.807  -8.738  1.00  0.00     0.001 A 
ATOM     73  C   UNL     1      -5.104  14.160  -8.727  1.00  0.00     0.000 A 
ENDBRANCH  49  68
BRANCH  61  74
ATOM     74  C   UNL     1       2.667  10.154  -6.875  1.00  0.00    -0.014 A 
ATOM     75  C   UNL     1       1.726   9.625  -5.974  1.00  0.00     0.009 A 
ATOM     76  C   UNL     1       3.951  10.456  -6.397  1.00  0.00     0.009 A 
ATOM     77  C   UNL     1       2.054   9.434  -4.628  1.00  0.00     0.001 A 
ATOM     78  C   UNL     1       4.285  10.242  -5.058  1.00  0.00     0.001 A 
ATOM     79  C   UNL     1       3.335   9.736  -4.173  1.00  0.00     0.000 A 
ENDBRANCH  61  74
ENDBRANCH  35  36
ENDBRANCH  28  30
ENDBRANCH  27  28
ENDBRANCH  26  27
ENDBRANCH   1  26
TORSDOF 13
