REMARK SMILES CCOCCn1nc(C)cc1C(=O)N1CCc2nc[nH]c2[C@H]1C(=O)OCCOC(=O)c1ccc(-c2c3nc(c(-c4ccccc4)c4ccc([nH]4)c(-c4ccccc4)c4nc(c(-c5ccccc5)c5ccc2[nH]5)C=C4)C=C3)cc1
REMARK SMILES IDX 23 1 24 2 22 3 14 4 15 5 16 6 21 7 17 8 20 9 18 10 19 11
REMARK SMILES IDX 12 13 13 14 11 15 6 16 7 17 8 18 10 19 9 20 5 21 4 22 3 23
REMARK SMILES IDX 2 24 1 25 25 26 26 27 27 28 28 29 29 30 30 31 31 32 32 33
REMARK SMILES IDX 78 34 33 35 77 36 34 37 35 38 36 39 71 40 37 41 76 42 70 43
REMARK SMILES IDX 72 44 38 45 75 46 69 47 68 48 39 50 61 51 46 52 60 53 47 54
REMARK SMILES IDX 50 55 59 56 73 57 48 58 49 59 58 61 74 62 51 63 40 64 41 65
REMARK SMILES IDX 45 66 42 67 44 68 43 69 62 70 63 71 67 72 64 73 66 74 65 75
REMARK SMILES IDX 52 76 53 77 57 78 54 79 56 80 55 81
REMARK H PARENT 20 12 72 49 50 60
REMARK Flexibility Score: inf
ROOT
ATOM      1  C   UNL     1      -0.188  -0.505  -2.744  1.00  0.00     0.335 C 
ATOM      2  O   UNL     1      -0.970  -1.362  -3.140  1.00  0.00    -0.249 OA
ENDROOT
BRANCH   1   3
ATOM      3  C   UNL     1      -0.020  -0.083  -1.248  1.00  0.00     0.244 C 
ATOM      4  N   UNL     1       1.306   0.558  -0.994  1.00  0.00    -0.318 N 
ATOM      5  C   UNL     1       1.518   1.951  -1.538  1.00  0.00     0.127 C 
ATOM      6  C   UNL     1       0.249   2.732  -1.996  1.00  0.00     0.080 C 
ATOM      7  C   UNL     1      -0.997   0.977  -0.803  1.00  0.00     0.072 A 
ATOM      8  C   UNL     1      -0.843   2.314  -1.101  1.00  0.00     0.066 A 
ATOM      9  N   UNL     1      -1.823   0.971   0.292  1.00  0.00    -0.346 N 
ATOM     10  N   UNL     1      -1.418   3.114  -0.159  1.00  0.00    -0.242 NA
ATOM     11  C   UNL     1      -1.901   2.274   0.728  1.00  0.00     0.197 A 
ATOM     12  H   UNL     1      -2.272   0.189   0.688  1.00  0.00     0.167 HD
BRANCH   4  13
ATOM     13  C   UNL     1       2.360  -0.020  -0.257  1.00  0.00     0.273 C 
ATOM     14  O   UNL     1       3.364   0.655  -0.017  1.00  0.00    -0.267 OA
BRANCH  13  15
ATOM     15  C   UNL     1       2.283  -1.387   0.269  1.00  0.00     0.126 A 
ATOM     16  N   UNL     1       2.888  -1.835   1.440  1.00  0.00    -0.257 N 
ATOM     17  N   UNL     1       2.823  -3.179   1.587  1.00  0.00    -0.177 NA
ATOM     18  C   UNL     1       2.196  -3.623   0.505  1.00  0.00     0.060 A 
ATOM     19  C   UNL     1       1.786  -2.553  -0.312  1.00  0.00     0.059 A 
ATOM     20  C   UNL     1       2.065  -5.084   0.293  1.00  0.00     0.069 C 
BRANCH  16  21
ATOM     21  C   UNL     1       3.662  -1.149   2.464  1.00  0.00     0.173 C 
BRANCH  21  22
ATOM     22  C   UNL     1       3.045   0.006   3.255  1.00  0.00     0.183 C 
BRANCH  22  23
ATOM     23  O   UNL     1       1.948  -0.305   4.123  1.00  0.00    -0.380 OA
BRANCH  23  24
ATOM     24  C   UNL     1       0.780  -0.830   3.515  1.00  0.00     0.157 C 
ATOM     25  C   UNL     1       0.258   0.024   2.387  1.00  0.00     0.035 C 
ENDBRANCH  23  24
ENDBRANCH  22  23
ENDBRANCH  21  22
ENDBRANCH  16  21
ENDBRANCH  13  15
ENDBRANCH   4  13
ENDBRANCH   1   3
BRANCH   1  26
ATOM     26  O   UNL     1       0.613   0.239  -3.563  1.00  0.00    -0.460 OA
BRANCH  26  27
ATOM     27  C   UNL     1       0.879  -0.184  -4.916  1.00  0.00     0.274 C 
BRANCH  27  28
ATOM     28  C   UNL     1       2.327   0.218  -5.249  1.00  0.00     0.275 C 
BRANCH  28  29
ATOM     29  O   UNL     1       3.365  -0.749  -4.985  1.00  0.00    -0.458 OA
BRANCH  29  30
ATOM     30  C   UNL     1       3.435  -1.255  -3.740  1.00  0.00     0.338 C 
ATOM     31  O   UNL     1       2.492  -1.436  -2.982  1.00  0.00    -0.246 OA
BRANCH  30  32
ATOM     32  C   UNL     1       4.832  -1.407  -3.302  1.00  0.00     0.060 A 
ATOM     33  C   UNL     1       5.045  -1.614  -1.937  1.00  0.00     0.016 A 
ATOM     34  C   UNL     1       5.918  -1.228  -4.162  1.00  0.00     0.016 A 
ATOM     35  C   UNL     1       6.307  -1.495  -1.400  1.00  0.00     0.010 A 
ATOM     36  C   UNL     1       7.201  -1.165  -3.635  1.00  0.00     0.010 A 
ATOM     37  C   UNL     1       7.381  -1.240  -2.251  1.00  0.00    -0.014 A 
BRANCH  37  38
ATOM     38  C   UNL     1       8.709  -1.282  -1.653  1.00  0.00     0.031 A 
ATOM     39  C   UNL     1       9.006  -2.606  -1.026  1.00  0.00     0.074 A 
ATOM     40  C   UNL     1       9.593  -0.270  -1.754  1.00  0.00     0.049 A 
ATOM     41  N   UNL     1       9.312  -2.851   0.205  1.00  0.00    -0.248 NA
ATOM     42  C   UNL     1       8.756  -3.819  -1.831  1.00  0.00     0.031 C 
ATOM     43  C   UNL     1       9.463   0.965  -2.530  1.00  0.00     0.029 A 
ATOM     44  N   UNL     1      10.864  -0.180  -1.272  1.00  0.00    -0.354 N 
ATOM     45  C   UNL     1       9.478  -4.232   0.287  1.00  0.00     0.074 A 
ATOM     46  C   UNL     1       8.960  -4.784  -0.936  1.00  0.00     0.031 C 
ATOM     47  C   UNL     1      10.687   1.517  -2.698  1.00  0.00     0.029 A 
ATOM     48  C   UNL     1      11.659   0.749  -1.938  1.00  0.00     0.049 A 
ATOM     49  H   UNL     1      11.192  -0.724  -0.520  1.00  0.00     0.167 HD
ATOM     50  C   UNL     1      10.287  -4.790   1.228  1.00  0.00     0.031 A 
ATOM     51  C   UNL     1      13.017   0.819  -1.928  1.00  0.00     0.031 A 
ATOM     52  C   UNL     1      10.497  -3.899   2.339  1.00  0.00     0.049 A 
ATOM     53  C   UNL     1      13.499   0.022  -0.775  1.00  0.00     0.074 A 
ATOM     54  C   UNL     1       9.676  -3.301   3.273  1.00  0.00     0.029 A 
ATOM     55  N   UNL     1      11.674  -3.192   2.357  1.00  0.00    -0.354 N 
ATOM     56  N   UNL     1      13.318   0.379   0.462  1.00  0.00    -0.248 NA
ATOM     57  C   UNL     1      13.739  -1.397  -0.993  1.00  0.00     0.031 C 
ATOM     58  C   UNL     1      10.211  -1.990   3.442  1.00  0.00     0.029 A 
ATOM     59  C   UNL     1      11.373  -1.895   2.677  1.00  0.00     0.049 A 
ATOM     60  H   UNL     1      12.571  -3.552   2.173  1.00  0.00     0.167 HD
ATOM     61  C   UNL     1      12.952  -0.792   1.108  1.00  0.00     0.074 A 
ATOM     62  C   UNL     1      13.303  -1.867   0.179  1.00  0.00     0.031 C 
ATOM     63  C   UNL     1      12.132  -0.765   2.198  1.00  0.00     0.031 A 
BRANCH  50  64
ATOM     64  C   UNL     1      11.264  -5.893   0.888  1.00  0.00    -0.014 A 
ATOM     65  C   UNL     1      12.132  -6.354   1.895  1.00  0.00     0.009 A 
ATOM     66  C   UNL     1      11.582  -6.262  -0.434  1.00  0.00     0.009 A 
ATOM     67  C   UNL     1      13.305  -7.051   1.581  1.00  0.00     0.001 A 
ATOM     68  C   UNL     1      12.731  -6.991  -0.747  1.00  0.00     0.001 A 
ATOM     69  C   UNL     1      13.610  -7.357   0.259  1.00  0.00     0.000 A 
ENDBRANCH  50  64
BRANCH  51  70
ATOM     70  C   UNL     1      13.942   1.228  -3.014  1.00  0.00    -0.014 A 
ATOM     71  C   UNL     1      15.299   1.483  -2.747  1.00  0.00     0.009 A 
ATOM     72  C   UNL     1      13.563   1.084  -4.361  1.00  0.00     0.009 A 
ATOM     73  C   UNL     1      16.242   1.549  -3.784  1.00  0.00     0.001 A 
ATOM     74  C   UNL     1      14.503   1.152  -5.396  1.00  0.00     0.001 A 
ATOM     75  C   UNL     1      15.846   1.368  -5.107  1.00  0.00     0.000 A 
ENDBRANCH  51  70
BRANCH  63  76
ATOM     76  C   UNL     1      11.824   0.572   2.824  1.00  0.00    -0.014 A 
ATOM     77  C   UNL     1      11.200   1.632   2.141  1.00  0.00     0.009 A 
ATOM     78  C   UNL     1      12.059   0.713   4.198  1.00  0.00     0.009 A 
ATOM     79  C   UNL     1      10.862   2.813   2.813  1.00  0.00     0.001 A 
ATOM     80  C   UNL     1      11.702   1.880   4.873  1.00  0.00     0.001 A 
ATOM     81  C   UNL     1      11.112   2.934   4.179  1.00  0.00     0.000 A 
ENDBRANCH  63  76
ENDBRANCH  37  38
ENDBRANCH  30  32
ENDBRANCH  29  30
ENDBRANCH  28  29
ENDBRANCH  27  28
ENDBRANCH  26  27
ENDBRANCH   1  26
TORSDOF 17
