REMARK SMILES CC(C)[C@H](C(=O)OCCOC(=O)c1ccc(-c2c3nc(c(-c4ccccc4)c4ccc([nH]4)c(-c4ccccc4)c4nc(c(-c5ccccc5)c5ccc2[nH]5)C=C4)C=C3)cc1)N1C(=O)/C(=C/c2ccccc2Cl)SC1=S
REMARK SMILES IDX 8 1 7 2 5 3 6 4 4 5 2 6 1 7 3 8 61 9 62 10 74 11 63 12 64 13
REMARK SMILES IDX 73 14 75 15 65 16 66 17 67 18 71 19 68 20 70 21 72 22 69 23
REMARK SMILES IDX 9 24 10 25 11 26 12 27 13 28 14 29 60 30 15 31 59 32 16 33
REMARK SMILES IDX 17 34 18 35 53 36 19 37 58 38 52 39 54 40 20 41 57 42 51 43
REMARK SMILES IDX 50 44 21 46 43 47 28 48 42 49 29 50 32 51 41 52 55 53 30 54
REMARK SMILES IDX 31 55 40 57 56 58 33 59 22 60 23 61 27 62 24 63 26 64 25 65
REMARK SMILES IDX 44 66 45 67 49 68 46 69 48 70 47 71 34 72 35 73 39 74 36 75
REMARK SMILES IDX 38 76 37 77
REMARK H PARENT 54 45 32 56
REMARK Flexibility Score: inf
ROOT
ATOM      1  C   UNL     1       2.398   0.274   0.410  1.00  0.00     0.274 C 
ENDROOT
BRANCH   1   2
ATOM      2  O   UNL     1       0.959   0.367   0.466  1.00  0.00    -0.461 OA
BRANCH   2   3
ATOM      3  C   UNL     1       0.301  -0.616   1.152  1.00  0.00     0.329 C 
ATOM      4  O   UNL     1       0.851  -1.519   1.764  1.00  0.00    -0.250 OA
BRANCH   3   5
ATOM      5  C   UNL     1      -1.222  -0.427   1.022  1.00  0.00     0.204 C 
BRANCH   5   6
ATOM      6  C   UNL     1      -1.866  -1.502   0.090  1.00  0.00     0.017 C 
ATOM      7  C   UNL     1      -1.165  -1.492  -1.282  1.00  0.00     0.010 C 
ATOM      8  C   UNL     1      -1.893  -2.948   0.587  1.00  0.00     0.010 C 
ENDBRANCH   5   6
BRANCH   5   9
ATOM      9  N   UNL     1      -1.889  -0.144   2.327  1.00  0.00    -0.278 N 
ATOM     10  C   UNL     1      -2.113  -1.128   3.273  1.00  0.00     0.267 C 
ATOM     11  C   UNL     1      -2.191   1.141   2.758  1.00  0.00     0.149 C 
ATOM     12  O   UNL     1      -1.680  -2.270   3.263  1.00  0.00    -0.268 OA
ATOM     13  C   UNL     1      -2.854  -0.591   4.453  1.00  0.00     0.081 C 
ATOM     14  S   UNL     1      -2.813   1.114   4.409  1.00  0.00    -0.054 SA
ATOM     15  S   UNL     1      -2.040   2.584   1.931  1.00  0.00    -0.052 S 
ATOM     16  C   UNL     1      -3.353  -1.419   5.384  1.00  0.00     0.031 C 
BRANCH  16  17
ATOM     17  C   UNL     1      -3.959  -1.132   6.702  1.00  0.00    -0.006 A 
ATOM     18  C   UNL     1      -3.427  -1.870   7.777  1.00  0.00     0.010 A 
ATOM     19  C   UNL     1      -5.037  -0.275   6.976  1.00  0.00     0.048 A 
ATOM     20  C   UNL     1      -3.900  -1.712   9.082  1.00  0.00     0.001 A 
ATOM     21  C   UNL     1      -5.490  -0.094   8.293  1.00  0.00     0.021 A 
ATOM     22  Cl  UNL     1      -5.936   0.523   5.733  1.00  0.00    -0.084 Cl
ATOM     23  C   UNL     1      -4.916  -0.804   9.346  1.00  0.00     0.002 A 
ENDBRANCH  16  17
ENDBRANCH   5   9
ENDBRANCH   3   5
ENDBRANCH   2   3
ENDBRANCH   1   2
BRANCH   1  24
ATOM     24  C   UNL     1       3.048   1.220   1.415  1.00  0.00     0.275 C 
BRANCH  24  25
ATOM     25  O   UNL     1       2.732   0.776   2.744  1.00  0.00    -0.458 OA
BRANCH  25  26
ATOM     26  C   UNL     1       2.160   1.685   3.559  1.00  0.00     0.338 C 
ATOM     27  O   UNL     1       1.955   2.871   3.332  1.00  0.00    -0.246 OA
BRANCH  26  28
ATOM     28  C   UNL     1       1.766   1.028   4.812  1.00  0.00     0.060 A 
ATOM     29  C   UNL     1       0.923  -0.079   4.768  1.00  0.00     0.016 A 
ATOM     30  C   UNL     1       2.140   1.571   6.040  1.00  0.00     0.016 A 
ATOM     31  C   UNL     1       0.385  -0.597   5.939  1.00  0.00     0.010 A 
ATOM     32  C   UNL     1       1.661   0.997   7.223  1.00  0.00     0.010 A 
ATOM     33  C   UNL     1       0.742  -0.067   7.184  1.00  0.00    -0.014 A 
BRANCH  33  34
ATOM     34  C   UNL     1       0.075  -0.565   8.418  1.00  0.00     0.031 A 
ATOM     35  C   UNL     1      -0.742   0.382   9.260  1.00  0.00     0.074 A 
ATOM     36  C   UNL     1       0.095  -1.876   8.736  1.00  0.00     0.049 A 
ATOM     37  N   UNL     1      -1.284   0.186  10.436  1.00  0.00    -0.248 NA
ATOM     38  C   UNL     1      -0.974   1.728   8.711  1.00  0.00     0.031 C 
ATOM     39  C   UNL     1       0.720  -2.937   7.945  1.00  0.00     0.029 A 
ATOM     40  N   UNL     1      -0.499  -2.549   9.775  1.00  0.00    -0.354 N 
ATOM     41  C   UNL     1      -1.846   1.405  10.799  1.00  0.00     0.074 A 
ATOM     42  C   UNL     1      -1.595   2.329   9.715  1.00  0.00     0.031 C 
ATOM     43  C   UNL     1       0.372  -4.128   8.455  1.00  0.00     0.029 A 
ATOM     44  C   UNL     1      -0.403  -3.916   9.672  1.00  0.00     0.049 A 
ATOM     45  H   UNL     1      -0.951  -2.096  10.523  1.00  0.00     0.167 HD
ATOM     46  C   UNL     1      -2.502   1.727  11.938  1.00  0.00     0.031 A 
ATOM     47  C   UNL     1      -0.876  -4.890  10.473  1.00  0.00     0.031 A 
ATOM     48  C   UNL     1      -2.835   0.786  12.973  1.00  0.00     0.049 A 
ATOM     49  C   UNL     1      -1.581  -4.513  11.744  1.00  0.00     0.074 A 
ATOM     50  C   UNL     1      -3.455   1.020  14.188  1.00  0.00     0.029 A 
ATOM     51  N   UNL     1      -2.609  -0.577  12.893  1.00  0.00    -0.354 N 
ATOM     52  N   UNL     1      -1.964  -3.329  12.155  1.00  0.00    -0.248 NA
ATOM     53  C   UNL     1      -1.883  -5.606  12.678  1.00  0.00     0.031 C 
ATOM     54  C   UNL     1      -3.587  -0.205  14.853  1.00  0.00     0.029 A 
ATOM     55  C   UNL     1      -3.083  -1.201  14.033  1.00  0.00     0.049 A 
ATOM     56  H   UNL     1      -2.176  -1.035  12.136  1.00  0.00     0.167 HD
ATOM     57  C   UNL     1      -2.536  -3.533  13.404  1.00  0.00     0.074 A 
ATOM     58  C   UNL     1      -2.494  -4.958  13.660  1.00  0.00     0.031 C 
ATOM     59  C   UNL     1      -3.030  -2.618  14.272  1.00  0.00     0.031 A 
BRANCH  46  60
ATOM     60  C   UNL     1      -2.838   3.173  12.157  1.00  0.00    -0.014 A 
ATOM     61  C   UNL     1      -3.908   3.796  11.498  1.00  0.00     0.009 A 
ATOM     62  C   UNL     1      -2.071   3.918  13.068  1.00  0.00     0.009 A 
ATOM     63  C   UNL     1      -4.184   5.146  11.730  1.00  0.00     0.001 A 
ATOM     64  C   UNL     1      -2.364   5.259  13.315  1.00  0.00     0.001 A 
ATOM     65  C   UNL     1      -3.416   5.875  12.639  1.00  0.00     0.000 A 
ENDBRANCH  46  60
BRANCH  47  66
ATOM     66  C   UNL     1      -0.673  -6.320  10.120  1.00  0.00    -0.014 A 
ATOM     67  C   UNL     1      -1.772  -7.131   9.797  1.00  0.00     0.009 A 
ATOM     68  C   UNL     1       0.611  -6.886  10.113  1.00  0.00     0.009 A 
ATOM     69  C   UNL     1      -1.589  -8.480   9.484  1.00  0.00     0.001 A 
ATOM     70  C   UNL     1       0.795  -8.226   9.768  1.00  0.00     0.001 A 
ATOM     71  C   UNL     1      -0.305  -9.024   9.462  1.00  0.00     0.000 A 
ENDBRANCH  47  66
BRANCH  59  72
ATOM     72  C   UNL     1      -3.566  -3.134  15.575  1.00  0.00    -0.014 A 
ATOM     73  C   UNL     1      -2.696  -3.550  16.595  1.00  0.00     0.009 A 
ATOM     74  C   UNL     1      -4.950  -3.170  15.799  1.00  0.00     0.009 A 
ATOM     75  C   UNL     1      -3.205  -4.020  17.807  1.00  0.00     0.001 A 
ATOM     76  C   UNL     1      -5.455  -3.620  17.020  1.00  0.00     0.001 A 
ATOM     77  C   UNL     1      -4.583  -4.052  18.019  1.00  0.00     0.000 A 
ENDBRANCH  59  72
ENDBRANCH  33  34
ENDBRANCH  26  28
ENDBRANCH  25  26
ENDBRANCH  24  25
ENDBRANCH   1  24
TORSDOF 14
