REMARK SMILES CCOc1ccc(-c2csc3ncn([C@H](C)C(=O)OCCOC(=O)c4ccc(-c5c6nc(c(-c7ccccc7)c7ccc([nH]7)c(-c7ccccc7)c7nc(c(-c8ccccc8)c8ccc5[nH]8)C=C7)C=C6)cc4)c(=O)c23)cc1
REMARK SMILES IDX 20 1 19 2 17 3 18 4 15 5 16 6 14 7 8 8 9 9 75 10 10 11 11 12
REMARK SMILES IDX 73 13 12 14 74 15 13 16 7 17 4 18 5 19 77 20 6 21 76 22 3 23
REMARK SMILES IDX 2 24 1 25 21 26 22 27 23 28 24 29 25 30 26 31 72 32 27 33
REMARK SMILES IDX 71 34 28 35 29 36 30 37 65 38 31 39 70 40 64 41 66 42 32 43
REMARK SMILES IDX 69 44 63 45 62 46 33 48 55 49 40 50 54 51 41 52 44 53 53 54
REMARK SMILES IDX 67 55 42 56 43 57 52 59 68 60 45 61 34 62 35 63 39 64 36 65
REMARK SMILES IDX 38 66 37 67 56 68 57 69 61 70 58 71 60 72 59 73 46 74 47 75
REMARK SMILES IDX 51 76 48 77 50 78 49 79
REMARK H PARENT 66 47 44 58
REMARK Flexibility Score: inf
ROOT
ATOM      1  C   UNL     1       5.325   5.255  -0.131  1.00  0.00     0.274 C 
ENDROOT
BRANCH   1   2
ATOM      2  O   UNL     1       6.003   4.990  -1.377  1.00  0.00    -0.461 OA
BRANCH   2   3
ATOM      3  C   UNL     1       6.970   5.893  -1.711  1.00  0.00     0.329 C 
ATOM      4  O   UNL     1       7.155   6.945  -1.108  1.00  0.00    -0.250 OA
BRANCH   3   5
ATOM      5  C   UNL     1       7.715   5.527  -2.999  1.00  0.00     0.198 C 
ATOM      6  C   UNL     1       8.053   4.055  -3.214  1.00  0.00     0.044 C 
BRANCH   5   7
ATOM      7  N   UNL     1       6.928   6.140  -4.066  1.00  0.00    -0.284 N 
ATOM      8  C   UNL     1       5.949   9.477  -5.530  1.00  0.00     0.007 A 
ATOM      9  C   UNL     1       4.952   9.592  -6.484  1.00  0.00     0.076 A 
ATOM     10  C   UNL     1       6.187   8.098  -5.214  1.00  0.00     0.085 A 
ATOM     11  S   UNL     1       4.269   8.086  -6.914  1.00  0.00    -0.123 S 
ATOM     12  C   UNL     1       5.280   7.257  -5.824  1.00  0.00     0.131 A 
ATOM     13  C   UNL     1       7.149   7.503  -4.303  1.00  0.00     0.263 A 
ATOM     14  N   UNL     1       5.127   5.928  -5.605  1.00  0.00    -0.227 NA
ATOM     15  O   UNL     1       8.069   8.122  -3.802  1.00  0.00    -0.268 OA
ATOM     16  C   UNL     1       5.928   5.443  -4.713  1.00  0.00     0.204 A 
BRANCH   8  17
ATOM     17  C   UNL     1       6.528  10.672  -4.922  1.00  0.00    -0.016 A 
ATOM     18  C   UNL     1       7.566  12.977  -3.704  1.00  0.00     0.119 A 
ATOM     19  C   UNL     1       8.427  12.027  -4.250  1.00  0.00     0.047 A 
ATOM     20  C   UNL     1       6.189  12.796  -3.789  1.00  0.00     0.047 A 
ATOM     21  C   UNL     1       7.910  10.878  -4.860  1.00  0.00     0.012 A 
ATOM     22  C   UNL     1       5.673  11.640  -4.375  1.00  0.00     0.012 A 
BRANCH  18  23
ATOM     23  O   UNL     1       8.106  14.132  -3.214  1.00  0.00    -0.494 OA
BRANCH  23  24
ATOM     24  C   UNL     1       7.901  14.317  -1.808  1.00  0.00     0.226 C 
ATOM     25  C   UNL     1       6.632  15.104  -1.514  1.00  0.00     0.049 C 
ENDBRANCH  23  24
ENDBRANCH  18  23
ENDBRANCH   8  17
ENDBRANCH   5   7
ENDBRANCH   3   5
ENDBRANCH   2   3
ENDBRANCH   1   2
BRANCH   1  26
ATOM     26  C   UNL     1       6.034   4.608   1.056  1.00  0.00     0.275 C 
BRANCH  26  27
ATOM     27  O   UNL     1       7.340   5.151   1.258  1.00  0.00    -0.458 OA
BRANCH  27  28
ATOM     28  C   UNL     1       8.305   4.529   0.548  1.00  0.00     0.338 C 
ATOM     29  O   UNL     1       8.147   3.683  -0.318  1.00  0.00    -0.246 OA
BRANCH  28  30
ATOM     30  C   UNL     1       9.630   4.859   1.062  1.00  0.00     0.060 A 
ATOM     31  C   UNL     1      10.726   4.428   0.303  1.00  0.00     0.016 A 
ATOM     32  C   UNL     1       9.743   5.218   2.407  1.00  0.00     0.016 A 
ATOM     33  C   UNL     1      11.902   4.141   0.958  1.00  0.00     0.010 A 
ATOM     34  C   UNL     1      10.907   4.907   3.062  1.00  0.00     0.010 A 
ATOM     35  C   UNL     1      11.935   4.294   2.345  1.00  0.00    -0.014 A 
BRANCH  35  36
ATOM     36  C   UNL     1      13.091   3.802   3.060  1.00  0.00     0.031 A 
ATOM     37  C   UNL     1      14.259   4.704   3.023  1.00  0.00     0.074 A 
ATOM     38  C   UNL     1      13.017   2.701   3.829  1.00  0.00     0.049 A 
ATOM     39  N   UNL     1      15.443   4.458   2.575  1.00  0.00    -0.248 NA
ATOM     40  C   UNL     1      14.040   6.099   3.440  1.00  0.00     0.031 C 
ATOM     41  C   UNL     1      11.820   1.927   4.176  1.00  0.00     0.029 A 
ATOM     42  N   UNL     1      13.989   2.131   4.588  1.00  0.00    -0.354 N 
ATOM     43  C   UNL     1      16.174   5.616   2.811  1.00  0.00     0.074 A 
ATOM     44  C   UNL     1      15.228   6.637   3.179  1.00  0.00     0.031 C 
ATOM     45  C   UNL     1      12.094   1.154   5.250  1.00  0.00     0.029 A 
ATOM     46  C   UNL     1      13.503   1.292   5.579  1.00  0.00     0.049 A 
ATOM     47  H   UNL     1      14.949   2.298   4.448  1.00  0.00     0.167 HD
ATOM     48  C   UNL     1      17.527   5.595   2.945  1.00  0.00     0.031 A 
ATOM     49  C   UNL     1      14.195   0.820   6.643  1.00  0.00     0.031 A 
ATOM     50  C   UNL     1      18.106   4.395   2.404  1.00  0.00     0.049 A 
ATOM     51  C   UNL     1      15.639   0.990   6.361  1.00  0.00     0.074 A 
ATOM     52  C   UNL     1      18.141   3.809   1.155  1.00  0.00     0.029 A 
ATOM     53  N   UNL     1      18.471   3.414   3.294  1.00  0.00    -0.354 N 
ATOM     54  N   UNL     1      16.280   0.315   5.452  1.00  0.00    -0.248 NA
ATOM     55  C   UNL     1      16.292   2.215   6.798  1.00  0.00     0.031 C 
ATOM     56  C   UNL     1      18.079   2.406   1.401  1.00  0.00     0.029 A 
ATOM     57  C   UNL     1      18.049   2.214   2.784  1.00  0.00     0.049 A 
ATOM     58  H   UNL     1      18.948   3.548   4.144  1.00  0.00     0.167 HD
ATOM     59  C   UNL     1      17.171   1.222   4.896  1.00  0.00     0.074 A 
ATOM     60  C   UNL     1      17.222   2.330   5.845  1.00  0.00     0.031 C 
ATOM     61  C   UNL     1      17.557   1.117   3.589  1.00  0.00     0.031 A 
BRANCH  48  62
ATOM     62  C   UNL     1      18.252   6.468   3.937  1.00  0.00    -0.014 A 
ATOM     63  C   UNL     1      19.655   6.426   3.975  1.00  0.00     0.009 A 
ATOM     64  C   UNL     1      17.609   7.114   5.013  1.00  0.00     0.009 A 
ATOM     65  C   UNL     1      20.367   6.944   5.064  1.00  0.00     0.001 A 
ATOM     66  C   UNL     1      18.318   7.673   6.077  1.00  0.00     0.001 A 
ATOM     67  C   UNL     1      19.698   7.562   6.116  1.00  0.00     0.000 A 
ENDBRANCH  48  62
BRANCH  49  68
ATOM     68  C   UNL     1      13.680   0.485   7.986  1.00  0.00    -0.014 A 
ATOM     69  C   UNL     1      14.402  -0.349   8.850  1.00  0.00     0.009 A 
ATOM     70  C   UNL     1      12.577   1.182   8.515  1.00  0.00     0.009 A 
ATOM     71  C   UNL     1      14.047  -0.463  10.201  1.00  0.00     0.001 A 
ATOM     72  C   UNL     1      12.219   1.065   9.861  1.00  0.00     0.001 A 
ATOM     73  C   UNL     1      12.962   0.251  10.707  1.00  0.00     0.000 A 
ENDBRANCH  49  68
BRANCH  61  74
ATOM     74  C   UNL     1      17.175  -0.141   2.847  1.00  0.00    -0.014 A 
ATOM     75  C   UNL     1      15.837  -0.521   2.636  1.00  0.00     0.009 A 
ATOM     76  C   UNL     1      18.183  -0.882   2.213  1.00  0.00     0.009 A 
ATOM     77  C   UNL     1      15.520  -1.629   1.845  1.00  0.00     0.001 A 
ATOM     78  C   UNL     1      17.865  -1.976   1.404  1.00  0.00     0.001 A 
ATOM     79  C   UNL     1      16.535  -2.353   1.225  1.00  0.00     0.000 A 
ENDBRANCH  61  74
ENDBRANCH  35  36
ENDBRANCH  28  30
ENDBRANCH  27  28
ENDBRANCH  26  27
ENDBRANCH   1  26
TORSDOF 15
