REMARK SMILES CCc1ccc2c(CC(=O)OCCOC(=O)c3ccc(-c4c5nc(c(-c6ccccc6)c6ccc([nH]6)c(-c6ccccc6)c6nc(c(-c7ccccc7)c7ccc4[nH]7)C=C6)C=C5)cc3)c(C(=O)c3cc(C)ccn3)[nH]c2c1
REMARK SMILES IDX 12 1 11 2 9 3 10 4 8 5 7 6 3 7 4 8 77 9 5 10 76 11 6 12
REMARK SMILES IDX 75 13 65 14 2 16 1 17 66 18 67 19 68 20 69 21 74 22 70 23
REMARK SMILES IDX 73 24 71 25 72 26 13 27 14 28 15 29 16 30 17 31 18 32 64 33
REMARK SMILES IDX 19 34 63 35 20 36 21 37 22 38 57 39 23 40 62 41 56 42 58 43
REMARK SMILES IDX 24 44 61 45 55 46 54 47 25 49 47 50 32 51 46 52 33 53 36 54
REMARK SMILES IDX 45 55 59 56 34 57 35 58 44 60 60 61 37 62 26 63 27 64 31 65
REMARK SMILES IDX 28 66 30 67 29 68 48 69 49 70 53 71 50 72 52 73 51 74 38 75
REMARK SMILES IDX 39 76 43 77 40 78 42 79 41 80
REMARK H PARENT 75 15 58 48 36 59
REMARK Flexibility Score: inf
ROOT
ATOM      1  C   UNL     1      -0.443   1.651   9.171  1.00  0.00     0.274 C 
ENDROOT
BRANCH   1   2
ATOM      2  O   UNL     1       0.457   1.304   8.097  1.00  0.00    -0.462 OA
BRANCH   2   3
ATOM      3  C   UNL     1       1.295   2.296   7.695  1.00  0.00     0.310 C 
ATOM      4  O   UNL     1       1.278   3.439   8.149  1.00  0.00    -0.252 OA
BRANCH   3   5
ATOM      5  C   UNL     1       2.317   1.888   6.659  1.00  0.00     0.161 C 
BRANCH   5   6
ATOM      6  C   UNL     1       2.154   0.538   6.028  1.00  0.00     0.000 A 
ATOM      7  C   UNL     1       0.587  -0.699   2.325  1.00  0.00    -0.046 A 
ATOM      8  C   UNL     1       0.310   0.623   2.693  1.00  0.00     0.004 A 
ATOM      9  C   UNL     1       1.208  -1.564   3.242  1.00  0.00     0.030 A 
ATOM     10  C   UNL     1       0.721   1.132   3.929  1.00  0.00     0.011 A 
ATOM     11  C   UNL     1       1.630  -1.030   4.467  1.00  0.00     0.046 A 
ATOM     12  C   UNL     1       1.438   0.302   4.811  1.00  0.00     0.004 A 
ATOM     13  N   UNL     1       2.298  -1.619   5.514  1.00  0.00    -0.352 N 
ATOM     14  C   UNL     1       2.795  -0.656   6.367  1.00  0.00     0.093 A 
ATOM     15  H   UNL     1       2.407  -2.590   5.637  1.00  0.00     0.167 HD
BRANCH   7  16
ATOM     16  C   UNL     1       0.237  -1.190   0.940  1.00  0.00     0.032 C 
ATOM     17  C   UNL     1       0.940  -0.397  -0.158  1.00  0.00     0.009 C 
ENDBRANCH   7  16
BRANCH  14  18
ATOM     18  C   UNL     1       3.860  -0.885   7.333  1.00  0.00     0.227 C 
ATOM     19  O   UNL     1       4.630  -0.003   7.707  1.00  0.00    -0.285 OA
BRANCH  18  20
ATOM     20  C   UNL     1       4.128  -2.264   7.811  1.00  0.00     0.113 A 
ATOM     21  C   UNL     1       5.171  -2.994   7.252  1.00  0.00     0.036 A 
ATOM     22  N   UNL     1       3.356  -2.705   8.828  1.00  0.00    -0.253 NA
ATOM     23  C   UNL     1       5.445  -4.260   7.777  1.00  0.00    -0.047 A 
ATOM     24  C   UNL     1       3.679  -3.900   9.359  1.00  0.00     0.112 A 
ATOM     25  C   UNL     1       6.535  -5.120   7.213  1.00  0.00     0.044 C 
ATOM     26  C   UNL     1       4.698  -4.705   8.872  1.00  0.00     0.023 A 
ENDBRANCH  18  20
ENDBRANCH  14  18
ENDBRANCH   5   6
ENDBRANCH   3   5
ENDBRANCH   2   3
ENDBRANCH   1   2
BRANCH   1  27
ATOM     27  C   UNL     1       0.071   1.112  10.503  1.00  0.00     0.275 C 
BRANCH  27  28
ATOM     28  O   UNL     1       1.444   1.500  10.685  1.00  0.00    -0.458 OA
BRANCH  28  29
ATOM     29  C   UNL     1       2.319   0.473  10.784  1.00  0.00     0.338 C 
ATOM     30  O   UNL     1       2.044  -0.717  10.859  1.00  0.00    -0.246 OA
BRANCH  29  31
ATOM     31  C   UNL     1       3.701   0.978  10.868  1.00  0.00     0.060 A 
ATOM     32  C   UNL     1       4.174   1.970  10.008  1.00  0.00     0.016 A 
ATOM     33  C   UNL     1       4.570   0.374  11.778  1.00  0.00     0.016 A 
ATOM     34  C   UNL     1       5.532   2.293   9.998  1.00  0.00     0.010 A 
ATOM     35  C   UNL     1       5.906   0.772  11.837  1.00  0.00     0.010 A 
ATOM     36  C   UNL     1       6.410   1.718  10.929  1.00  0.00    -0.014 A 
BRANCH  36  37
ATOM     37  C   UNL     1       7.844   2.111  10.976  1.00  0.00     0.031 A 
ATOM     38  C   UNL     1       8.931   1.087  10.784  1.00  0.00     0.074 A 
ATOM     39  C   UNL     1       8.178   3.393  11.224  1.00  0.00     0.049 A 
ATOM     40  N   UNL     1      10.222   1.208  10.979  1.00  0.00    -0.248 NA
ATOM     41  C   UNL     1       8.517  -0.248  10.326  1.00  0.00     0.031 C 
ATOM     42  C   UNL     1       7.235   4.499  11.399  1.00  0.00     0.029 A 
ATOM     43  N   UNL     1       9.410   3.981  11.374  1.00  0.00    -0.354 N 
ATOM     44  C   UNL     1      10.766  -0.042  10.714  1.00  0.00     0.074 A 
ATOM     45  C   UNL     1       9.666  -0.910  10.346  1.00  0.00     0.031 C 
ATOM     46  C   UNL     1       7.920   5.635  11.595  1.00  0.00     0.029 A 
ATOM     47  C   UNL     1       9.344   5.326  11.642  1.00  0.00     0.049 A 
ATOM     48  H   UNL     1      10.258   3.487  11.296  1.00  0.00     0.167 HD
ATOM     49  C   UNL     1      12.062  -0.432  10.775  1.00  0.00     0.031 A 
ATOM     50  C   UNL     1      10.312   6.212  11.936  1.00  0.00     0.031 A 
ATOM     51  C   UNL     1      13.163   0.436  11.104  1.00  0.00     0.049 A 
ATOM     52  C   UNL     1      11.734   5.749  12.033  1.00  0.00     0.074 A 
ATOM     53  C   UNL     1      14.512   0.130  11.178  1.00  0.00     0.029 A 
ATOM     54  N   UNL     1      13.045   1.785  11.399  1.00  0.00    -0.354 N 
ATOM     55  N   UNL     1      12.226   4.551  11.834  1.00  0.00    -0.248 NA
ATOM     56  C   UNL     1      12.732   6.758  12.413  1.00  0.00     0.031 C 
ATOM     57  C   UNL     1      15.207   1.287  11.548  1.00  0.00     0.029 A 
ATOM     58  C   UNL     1      14.294   2.322  11.667  1.00  0.00     0.049 A 
ATOM     59  H   UNL     1      12.199   2.288  11.416  1.00  0.00     0.167 HD
ATOM     60  C   UNL     1      13.590   4.662  12.059  1.00  0.00     0.074 A 
ATOM     61  C   UNL     1      13.851   6.048  12.390  1.00  0.00     0.031 C 
ATOM     62  C   UNL     1      14.539   3.698  12.003  1.00  0.00     0.031 A 
BRANCH  49  63
ATOM     63  C   UNL     1      12.367  -1.878  10.507  1.00  0.00    -0.014 A 
ATOM     64  C   UNL     1      12.371  -2.395   9.203  1.00  0.00     0.009 A 
ATOM     65  C   UNL     1      12.712  -2.722  11.576  1.00  0.00     0.009 A 
ATOM     66  C   UNL     1      12.693  -3.736   8.977  1.00  0.00     0.001 A 
ATOM     67  C   UNL     1      13.054  -4.055  11.345  1.00  0.00     0.001 A 
ATOM     68  C   UNL     1      13.038  -4.563  10.047  1.00  0.00     0.000 A 
ENDBRANCH  49  63
BRANCH  50  69
ATOM     69  C   UNL     1       9.954   7.627  12.207  1.00  0.00    -0.014 A 
ATOM     70  C   UNL     1      10.253   8.627  11.271  1.00  0.00     0.009 A 
ATOM     71  C   UNL     1       9.291   7.978  13.393  1.00  0.00     0.009 A 
ATOM     72  C   UNL     1       9.903   9.955  11.523  1.00  0.00     0.001 A 
ATOM     73  C   UNL     1       8.920   9.302  13.631  1.00  0.00     0.001 A 
ATOM     74  C   UNL     1       9.232  10.290  12.699  1.00  0.00     0.000 A 
ENDBRANCH  50  69
BRANCH  62  75
ATOM     75  C   UNL     1      15.950   4.122  12.285  1.00  0.00    -0.014 A 
ATOM     76  C   UNL     1      16.383   4.358  13.599  1.00  0.00     0.009 A 
ATOM     77  C   UNL     1      16.858   4.276  11.226  1.00  0.00     0.009 A 
ATOM     78  C   UNL     1      17.695   4.770  13.844  1.00  0.00     0.001 A 
ATOM     79  C   UNL     1      18.173   4.669  11.477  1.00  0.00     0.001 A 
ATOM     80  C   UNL     1      18.588   4.923  12.783  1.00  0.00     0.000 A 
ENDBRANCH  62  75
ENDBRANCH  36  37
ENDBRANCH  29  31
ENDBRANCH  28  29
ENDBRANCH  27  28
ENDBRANCH   1  27
TORSDOF 15
