REMARK SMILES [NH3+][C@H](c1cc(F)c(F)cc1C(=O)OCCOC(=O)c1ccc(-c2c3nc(c(-c4ccccc4)c4ccc([nH]4)c(-c4ccccc4)c4nc(c(-c5ccccc5)c5ccc2[nH]5)C=C4)C=C3)cc1)C(F)(F)F
REMARK SMILES IDX 14 1 13 2 11 3 12 4 10 5 3 6 4 7 5 8 9 9 6 10 7 11 8 12 2 13
REMARK SMILES IDX 1 14 67 18 68 19 69 20 70 21 15 22 16 23 17 24 18 25 19 26
REMARK SMILES IDX 20 27 66 28 21 29 65 30 22 31 23 32 24 33 59 34 25 35 64 36
REMARK SMILES IDX 58 37 60 38 26 39 63 40 57 41 56 42 27 44 49 45 34 46 48 47
REMARK SMILES IDX 35 48 38 49 47 50 61 51 36 52 37 53 46 55 62 56 39 57 28 58
REMARK SMILES IDX 29 59 33 60 30 61 32 62 31 63 50 64 51 65 55 66 52 67 54 68
REMARK SMILES IDX 53 69 40 70 41 71 45 72 42 73 44 74 43 75
REMARK H PARENT 1 15 1 16 1 17 60 43 38 54
REMARK Flexibility Score: inf
ROOT
ATOM      1  C   UNL     1       1.742   1.372   3.841  1.00  0.00     0.275 C 
ENDROOT
BRANCH   1   2
ATOM      2  O   UNL     1       1.442   0.786   2.554  1.00  0.00    -0.458 OA
BRANCH   2   3
ATOM      3  C   UNL     1       2.493   0.451   1.766  1.00  0.00     0.338 C 
ATOM      4  O   UNL     1       3.672   0.521   2.053  1.00  0.00    -0.246 OA
BRANCH   3   5
ATOM      5  C   UNL     1       2.015  -0.125   0.478  1.00  0.00     0.072 A 
ATOM      6  C   UNL     1       1.012   0.461  -0.325  1.00  0.00     0.036 A 
ATOM      7  C   UNL     1       0.657  -0.194  -1.530  1.00  0.00     0.053 A 
ATOM      8  C   UNL     1       1.276  -1.379  -1.916  1.00  0.00     0.159 A 
ATOM      9  C   UNL     1       2.665  -1.293   0.037  1.00  0.00     0.058 A 
ATOM     10  F   UNL     1       0.918  -1.967  -3.065  1.00  0.00    -0.204 F 
ATOM     11  C   UNL     1       2.277  -1.925  -1.136  1.00  0.00     0.159 A 
ATOM     12  F   UNL     1       2.893  -3.055  -1.508  1.00  0.00    -0.204 F 
BRANCH   6  13
ATOM     13  C   UNL     1       0.354   1.798   0.012  1.00  0.00     0.319 C 
BRANCH  13  14
ATOM     14  N   UNL     1       0.799   2.819  -0.976  1.00  0.00    -0.344 N 
ATOM     15  H   UNL     1       0.363   3.715  -0.757  1.00  0.00     0.345 HD
ATOM     16  H   UNL     1       0.524   2.527  -1.914  1.00  0.00     0.345 HD
ATOM     17  H   UNL     1       1.813   2.914  -0.933  1.00  0.00     0.345 HD
ENDBRANCH  13  14
BRANCH  13  18
ATOM     18  C   UNL     1      -1.187   1.640   0.220  1.00  0.00     0.445 C 
ATOM     19  F   UNL     1      -1.472   0.640   1.084  1.00  0.00    -0.165 F 
ATOM     20  F   UNL     1      -1.732   2.772   0.724  1.00  0.00    -0.165 F 
ATOM     21  F   UNL     1      -1.821   1.368  -0.946  1.00  0.00    -0.165 F 
ENDBRANCH  13  18
ENDBRANCH   6  13
ENDBRANCH   3   5
ENDBRANCH   2   3
ENDBRANCH   1   2
BRANCH   1  22
ATOM     22  C   UNL     1       1.258   0.477   4.983  1.00  0.00     0.275 C 
BRANCH  22  23
ATOM     23  O   UNL     1       2.072  -0.704   5.074  1.00  0.00    -0.458 OA
BRANCH  23  24
ATOM     24  C   UNL     1       1.616  -1.750   4.353  1.00  0.00     0.338 C 
ATOM     25  O   UNL     1       0.587  -1.823   3.701  1.00  0.00    -0.246 OA
BRANCH  24  26
ATOM     26  C   UNL     1       2.635  -2.799   4.321  1.00  0.00     0.060 A 
ATOM     27  C   UNL     1       3.508  -2.802   3.239  1.00  0.00     0.016 A 
ATOM     28  C   UNL     1       2.629  -3.847   5.232  1.00  0.00     0.016 A 
ATOM     29  C   UNL     1       4.299  -3.910   2.979  1.00  0.00     0.010 A 
ATOM     30  C   UNL     1       3.512  -4.913   5.035  1.00  0.00     0.010 A 
ATOM     31  C   UNL     1       4.327  -4.974   3.886  1.00  0.00    -0.014 A 
BRANCH  31  32
ATOM     32  C   UNL     1       5.190  -6.158   3.638  1.00  0.00     0.031 A 
ATOM     33  C   UNL     1       4.576  -7.530   3.581  1.00  0.00     0.074 A 
ATOM     34  C   UNL     1       6.522  -6.009   3.490  1.00  0.00     0.049 A 
ATOM     35  N   UNL     1       5.159  -8.700   3.631  1.00  0.00    -0.248 NA
ATOM     36  C   UNL     1       3.109  -7.594   3.478  1.00  0.00     0.031 C 
ATOM     37  C   UNL     1       7.240  -4.733   3.452  1.00  0.00     0.029 A 
ATOM     38  N   UNL     1       7.514  -6.948   3.356  1.00  0.00    -0.354 N 
ATOM     39  C   UNL     1       4.130  -9.635   3.629  1.00  0.00     0.074 A 
ATOM     40  C   UNL     1       2.887  -8.896   3.581  1.00  0.00     0.031 C 
ATOM     41  C   UNL     1       8.550  -4.967   3.286  1.00  0.00     0.029 A 
ATOM     42  C   UNL     1       8.776  -6.405   3.313  1.00  0.00     0.049 A 
ATOM     43  H   UNL     1       7.339  -7.915   3.296  1.00  0.00     0.167 HD
ATOM     44  C   UNL     1       4.220 -10.986   3.673  1.00  0.00     0.031 A 
ATOM     45  C   UNL     1       9.986  -6.992   3.357  1.00  0.00     0.031 A 
ATOM     46  C   UNL     1       5.467 -11.706   3.693  1.00  0.00     0.049 A 
ATOM     47  C   UNL     1      10.060  -8.486   3.479  1.00  0.00     0.074 A 
ATOM     48  C   UNL     1       5.673 -13.073   3.726  1.00  0.00     0.029 A 
ATOM     49  N   UNL     1       6.720 -11.111   3.673  1.00  0.00    -0.354 N 
ATOM     50  N   UNL     1       9.084  -9.360   3.527  1.00  0.00    -0.248 NA
ATOM     51  C   UNL     1      11.403  -9.075   3.562  1.00  0.00     0.031 C 
ATOM     52  C   UNL     1       7.051 -13.305   3.784  1.00  0.00     0.029 A 
ATOM     53  C   UNL     1       7.704 -12.084   3.713  1.00  0.00     0.049 A 
ATOM     54  H   UNL     1       6.885 -10.141   3.636  1.00  0.00     0.167 HD
ATOM     55  C   UNL     1       9.694 -10.604   3.611  1.00  0.00     0.074 A 
ATOM     56  C   UNL     1      11.124 -10.370   3.599  1.00  0.00     0.031 C 
ATOM     57  C   UNL     1       9.122 -11.830   3.688  1.00  0.00     0.031 A 
BRANCH  44  58
ATOM     58  C   UNL     1       2.938 -11.770   3.755  1.00  0.00    -0.014 A 
ATOM     59  C   UNL     1       2.047 -11.852   2.674  1.00  0.00     0.009 A 
ATOM     60  C   UNL     1       2.634 -12.470   4.935  1.00  0.00     0.009 A 
ATOM     61  C   UNL     1       0.862 -12.584   2.787  1.00  0.00     0.001 A 
ATOM     62  C   UNL     1       1.465 -13.227   5.034  1.00  0.00     0.001 A 
ATOM     63  C   UNL     1       0.575 -13.275   3.964  1.00  0.00     0.000 A 
ENDBRANCH  44  58
BRANCH  45  64
ATOM     64  C   UNL     1      11.218  -6.160   3.344  1.00  0.00    -0.014 A 
ATOM     65  C   UNL     1      12.091  -6.195   2.247  1.00  0.00     0.009 A 
ATOM     66  C   UNL     1      11.523  -5.316   4.425  1.00  0.00     0.009 A 
ATOM     67  C   UNL     1      13.254  -5.421   2.243  1.00  0.00     0.001 A 
ATOM     68  C   UNL     1      12.667  -4.516   4.403  1.00  0.00     0.001 A 
ATOM     69  C   UNL     1      13.537  -4.577   3.317  1.00  0.00     0.000 A 
ENDBRANCH  45  64
BRANCH  57  70
ATOM     70  C   UNL     1      10.042 -13.017   3.695  1.00  0.00    -0.014 A 
ATOM     71  C   UNL     1      10.825 -13.335   4.815  1.00  0.00     0.009 A 
ATOM     72  C   UNL     1      10.087 -13.856   2.571  1.00  0.00     0.009 A 
ATOM     73  C   UNL     1      11.658 -14.455   4.795  1.00  0.00     0.001 A 
ATOM     74  C   UNL     1      10.896 -14.992   2.566  1.00  0.00     0.001 A 
ATOM     75  C   UNL     1      11.687 -15.286   3.675  1.00  0.00     0.000 A 
ENDBRANCH  57  70
ENDBRANCH  31  32
ENDBRANCH  24  26
ENDBRANCH  23  24
ENDBRANCH  22  23
ENDBRANCH   1  22
TORSDOF 14
