REMARK SMILES CCNS(=O)(=O)c1ccc(CC(=O)OCCOC(=O)c2ccc(-c3c4nc(c(-c5ccccc5)c5ccc([nH]5)c(-c5ccccc5)c5nc(c(-c6ccccc6)c6ccc3[nH]6)C=C5)C=C4)cc2)cc1
REMARK SMILES IDX 15 1 14 2 12 3 13 4 11 5 10 6 7 7 8 8 69 9 9 10 68 11 4 12
REMARK SMILES IDX 5 13 6 14 3 15 2 17 1 18 16 19 17 20 18 21 19 22 20 23 21 24
REMARK SMILES IDX 67 25 22 26 66 27 23 28 24 29 25 30 60 31 26 32 65 33 59 34
REMARK SMILES IDX 61 35 27 36 64 37 58 38 57 39 28 41 50 42 35 43 49 44 36 45
REMARK SMILES IDX 39 46 48 47 62 48 37 49 38 50 47 52 63 53 40 54 29 55 30 56
REMARK SMILES IDX 34 57 31 58 33 59 32 60 51 61 52 62 56 63 53 64 55 65 54 66
REMARK SMILES IDX 41 67 42 68 46 69 43 70 45 71 44 72
REMARK H PARENT 3 16 61 40 39 51
REMARK Flexibility Score: inf
ROOT
ATOM      1  C   UNL     1      -6.259  -0.569   7.457  1.00  0.00     0.274 C 
ENDROOT
BRANCH   1   2
ATOM      2  O   UNL     1      -5.567  -1.097   6.308  1.00  0.00    -0.462 OA
BRANCH   2   3
ATOM      3  C   UNL     1      -6.336  -1.338   5.215  1.00  0.00     0.310 C 
ATOM      4  O   UNL     1      -7.553  -1.183   5.175  1.00  0.00    -0.252 OA
BRANCH   3   5
ATOM      5  C   UNL     1      -5.574  -1.855   4.018  1.00  0.00     0.158 C 
BRANCH   5   6
ATOM      6  C   UNL     1      -4.075  -1.671   3.994  1.00  0.00    -0.037 A 
ATOM      7  C   UNL     1      -1.292  -1.399   3.860  1.00  0.00     0.082 A 
ATOM      8  C   UNL     1      -2.100  -0.270   3.721  1.00  0.00     0.022 A 
ATOM      9  C   UNL     1      -1.859  -2.659   4.062  1.00  0.00     0.022 A 
ATOM     10  C   UNL     1      -3.490  -0.412   3.780  1.00  0.00     0.006 A 
ATOM     11  C   UNL     1      -3.244  -2.791   4.136  1.00  0.00     0.006 A 
BRANCH   7  12
ATOM     12  S   UNL     1       0.469  -1.256   3.747  1.00  0.00     0.240 S 
ATOM     13  O   UNL     1       1.026  -2.569   3.497  1.00  0.00    -0.207 OA
ATOM     14  O   UNL     1       0.917  -0.442   4.852  1.00  0.00    -0.207 OA
BRANCH  12  15
ATOM     15  N   UNL     1       0.713  -0.342   2.352  1.00  0.00    -0.211 NA
ATOM     16  H   UNL     1       0.105   0.475   2.415  1.00  0.00     0.141 HD
BRANCH  15  17
ATOM     17  C   UNL     1       0.457  -0.975   1.055  1.00  0.00     0.095 C 
ATOM     18  C   UNL     1       0.935  -0.053  -0.054  1.00  0.00     0.022 C 
ENDBRANCH  15  17
ENDBRANCH  12  15
ENDBRANCH   7  12
ENDBRANCH   5   6
ENDBRANCH   3   5
ENDBRANCH   2   3
ENDBRANCH   1   2
BRANCH   1  19
ATOM     19  C   UNL     1      -6.110   0.949   7.539  1.00  0.00     0.275 C 
BRANCH  19  20
ATOM     20  O   UNL     1      -6.665   1.569   6.364  1.00  0.00    -0.458 OA
BRANCH  20  21
ATOM     21  C   UNL     1      -5.765   2.114   5.517  1.00  0.00     0.338 C 
ATOM     22  O   UNL     1      -4.557   2.198   5.652  1.00  0.00    -0.246 OA
BRANCH  21  23
ATOM     23  C   UNL     1      -6.458   2.621   4.326  1.00  0.00     0.060 A 
ATOM     24  C   UNL     1      -6.917   1.733   3.352  1.00  0.00     0.016 A 
ATOM     25  C   UNL     1      -6.558   3.997   4.134  1.00  0.00     0.016 A 
ATOM     26  C   UNL     1      -7.463   2.218   2.167  1.00  0.00     0.010 A 
ATOM     27  C   UNL     1      -7.166   4.482   2.976  1.00  0.00     0.010 A 
ATOM     28  C   UNL     1      -7.622   3.597   1.982  1.00  0.00    -0.014 A 
BRANCH  28  29
ATOM     29  C   UNL     1      -8.316   4.127   0.784  1.00  0.00     0.031 A 
ATOM     30  C   UNL     1      -7.587   5.000  -0.195  1.00  0.00     0.074 A 
ATOM     31  C   UNL     1      -9.628   3.871   0.620  1.00  0.00     0.049 A 
ATOM     32  N   UNL     1      -8.067   5.702  -1.190  1.00  0.00    -0.248 NA
ATOM     33  C   UNL     1      -6.129   5.107  -0.028  1.00  0.00     0.031 C 
ATOM     34  C   UNL     1     -10.439   3.010   1.485  1.00  0.00     0.029 A 
ATOM     35  N   UNL     1     -10.517   4.330  -0.318  1.00  0.00    -0.354 N 
ATOM     36  C   UNL     1      -6.978   6.359  -1.749  1.00  0.00     0.074 A 
ATOM     37  C   UNL     1      -5.814   5.982  -0.975  1.00  0.00     0.031 C 
ATOM     38  C   UNL     1     -11.703   3.004   1.039  1.00  0.00     0.029 A 
ATOM     39  C   UNL     1     -11.808   3.918  -0.092  1.00  0.00     0.049 A 
ATOM     40  H   UNL     1     -10.256   4.898  -1.079  1.00  0.00     0.167 HD
ATOM     41  C   UNL     1      -6.958   7.203  -2.808  1.00  0.00     0.031 A 
ATOM     42  C   UNL     1     -12.959   4.276  -0.691  1.00  0.00     0.031 A 
ATOM     43  C   UNL     1      -8.124   7.575  -3.567  1.00  0.00     0.049 A 
ATOM     44  C   UNL     1     -12.919   5.283  -1.804  1.00  0.00     0.074 A 
ATOM     45  C   UNL     1      -8.202   8.399  -4.677  1.00  0.00     0.029 A 
ATOM     46  N   UNL     1      -9.416   7.158  -3.287  1.00  0.00    -0.354 N 
ATOM     47  N   UNL     1     -11.882   5.880  -2.340  1.00  0.00    -0.248 NA
ATOM     48  C   UNL     1     -14.209   5.672  -2.389  1.00  0.00     0.031 C 
ATOM     49  C   UNL     1      -9.550   8.534  -5.026  1.00  0.00     0.029 A 
ATOM     50  C   UNL     1     -10.304   7.741  -4.176  1.00  0.00     0.049 A 
ATOM     51  H   UNL     1      -9.665   6.539  -2.563  1.00  0.00     0.167 HD
ATOM     52  C   UNL     1     -12.392   6.701  -3.336  1.00  0.00     0.074 A 
ATOM     53  C   UNL     1     -13.828   6.507  -3.345  1.00  0.00     0.031 C 
ATOM     54  C   UNL     1     -11.730   7.542  -4.167  1.00  0.00     0.031 A 
BRANCH  41  55
ATOM     55  C   UNL     1      -5.639   7.820  -3.185  1.00  0.00    -0.014 A 
ATOM     56  C   UNL     1      -4.613   7.064  -3.772  1.00  0.00     0.009 A 
ATOM     57  C   UNL     1      -5.441   9.198  -2.996  1.00  0.00     0.009 A 
ATOM     58  C   UNL     1      -3.406   7.668  -4.132  1.00  0.00     0.001 A 
ATOM     59  C   UNL     1      -4.245   9.805  -3.384  1.00  0.00     0.001 A 
ATOM     60  C   UNL     1      -3.225   9.038  -3.943  1.00  0.00     0.000 A 
ENDBRANCH  41  55
BRANCH  42  61
ATOM     61  C   UNL     1     -14.251   3.717  -0.212  1.00  0.00    -0.014 A 
ATOM     62  C   UNL     1     -14.995   2.845  -1.020  1.00  0.00     0.009 A 
ATOM     63  C   UNL     1     -14.748   4.056   1.057  1.00  0.00     0.009 A 
ATOM     64  C   UNL     1     -16.221   2.343  -0.576  1.00  0.00     0.001 A 
ATOM     65  C   UNL     1     -15.957   3.526   1.512  1.00  0.00     0.001 A 
ATOM     66  C   UNL     1     -16.697   2.679   0.691  1.00  0.00     0.000 A 
ENDBRANCH  42  61
BRANCH  54  67
ATOM     67  C   UNL     1     -12.551   8.300  -5.173  1.00  0.00    -0.014 A 
ATOM     68  C   UNL     1     -13.383   9.360  -4.782  1.00  0.00     0.009 A 
ATOM     69  C   UNL     1     -12.451   7.979  -6.536  1.00  0.00     0.009 A 
ATOM     70  C   UNL     1     -14.120  10.066  -5.735  1.00  0.00     0.001 A 
ATOM     71  C   UNL     1     -13.164   8.708  -7.489  1.00  0.00     0.001 A 
ATOM     72  C   UNL     1     -14.003   9.745  -7.087  1.00  0.00     0.000 A 
ENDBRANCH  54  67
ENDBRANCH  28  29
ENDBRANCH  21  23
ENDBRANCH  20  21
ENDBRANCH  19  20
ENDBRANCH   1  19
TORSDOF 15
