REMARK SMILES Cc1ccc2c(c1)=C1S[C@H](C(=O)OCCOC(=O)c3ccc(-c4c5nc(c(-c6ccccc6)c6ccc([nH]6)c(-c6ccccc6)c6nc(c(-c7ccccc7)c7ccc4[nH]7)C=C6)C=C5)cc3)C=C1C(=O)N=2
REMARK SMILES IDX 15 1 14 2 13 3 11 4 12 5 10 6 1 7 2 8 3 9 7 10 4 11 6 12
REMARK SMILES IDX 5 13 8 14 71 15 9 16 68 17 69 18 67 19 70 20 16 21 17 22
REMARK SMILES IDX 18 23 19 24 20 25 66 26 21 27 65 28 22 29 23 30 24 31 59 32
REMARK SMILES IDX 25 33 64 34 58 35 60 36 26 37 63 38 57 39 56 40 27 42 49 43
REMARK SMILES IDX 34 44 48 45 35 46 38 47 47 48 61 49 36 50 37 51 46 53 62 54
REMARK SMILES IDX 39 55 28 56 29 57 33 58 30 59 32 60 31 61 50 62 51 63 55 64
REMARK SMILES IDX 52 65 54 66 53 67 40 68 41 69 45 70 42 71 44 72 43 73
REMARK H PARENT 60 41 38 52
REMARK Flexibility Score: inf
ROOT
ATOM      1  C   UNL     1       2.378  -4.511  -6.908  1.00  0.00     0.275 C 
ENDROOT
BRANCH   1   2
ATOM      2  C   UNL     1       2.173  -2.995  -7.027  1.00  0.00     0.274 C 
BRANCH   2   3
ATOM      3  O   UNL     1       1.061  -2.589  -6.206  1.00  0.00    -0.461 OA
BRANCH   3   4
ATOM      4  C   UNL     1      -0.184  -2.682  -6.758  1.00  0.00     0.323 C 
ATOM      5  O   UNL     1      -0.428  -2.517  -7.948  1.00  0.00    -0.251 OA
BRANCH   4   6
ATOM      6  C   UNL     1      -1.243  -3.119  -5.730  1.00  0.00     0.185 C 
ATOM      7  C   UNL     1       1.549  -0.029   0.218  1.00  0.00     0.044 C 
ATOM      8  C   UNL     1       1.063  -1.312  -0.383  1.00  0.00    -0.050 A 
ATOM      9  C   UNL     1       0.541  -2.337   0.528  1.00  0.00     0.005 A 
ATOM     10  C   UNL     1       0.903  -1.491  -1.713  1.00  0.00     0.015 A 
ATOM     11  C   UNL     1      -0.547  -3.057   0.186  1.00  0.00     0.029 A 
ATOM     12  C   UNL     1       0.054  -2.619  -2.133  1.00  0.00     0.015 A 
ATOM     13  C   UNL     1      -1.087  -2.676  -1.143  1.00  0.00     0.076 A 
ATOM     14  C   UNL     1      -0.463  -2.689  -3.360  1.00  0.00     0.030 C 
ATOM     15  N   UNL     1      -2.291  -2.236  -1.327  1.00  0.00    -0.209 NA
ATOM     16  S   UNL     1      -0.391  -4.107  -4.366  1.00  0.00    -0.105 SA
ATOM     17  C   UNL     1      -1.704  -2.034  -3.666  1.00  0.00     0.054 C 
ATOM     18  C   UNL     1      -2.581  -1.621  -2.536  1.00  0.00     0.278 C 
ATOM     19  C   UNL     1      -2.040  -2.094  -4.965  1.00  0.00     0.014 C 
ATOM     20  O   UNL     1      -3.519  -0.855  -2.713  1.00  0.00    -0.267 OA
ENDBRANCH   4   6
ENDBRANCH   3   4
ENDBRANCH   2   3
ENDBRANCH   1   2
BRANCH   1  21
ATOM     21  O   UNL     1       1.298  -5.175  -7.589  1.00  0.00    -0.458 OA
BRANCH  21  22
ATOM     22  C   UNL     1       0.863  -6.339  -7.050  1.00  0.00     0.338 C 
ATOM     23  O   UNL     1       1.274  -6.912  -6.062  1.00  0.00    -0.246 OA
BRANCH  22  24
ATOM     24  C   UNL     1      -0.192  -6.852  -7.938  1.00  0.00     0.060 A 
ATOM     25  C   UNL     1       0.084  -7.942  -8.758  1.00  0.00     0.016 A 
ATOM     26  C   UNL     1      -1.444  -6.236  -7.974  1.00  0.00     0.016 A 
ATOM     27  C   UNL     1      -0.885  -8.372  -9.664  1.00  0.00     0.010 A 
ATOM     28  C   UNL     1      -2.429  -6.693  -8.846  1.00  0.00     0.010 A 
ATOM     29  C   UNL     1      -2.145  -7.747  -9.719  1.00  0.00    -0.014 A 
BRANCH  29  30
ATOM     30  C   UNL     1      -3.171  -8.214 -10.680  1.00  0.00     0.031 A 
ATOM     31  C   UNL     1      -3.573  -7.359 -11.848  1.00  0.00     0.074 A 
ATOM     32  C   UNL     1      -3.735  -9.422 -10.493  1.00  0.00     0.049 A 
ATOM     33  N   UNL     1      -4.395  -7.644 -12.826  1.00  0.00    -0.248 NA
ATOM     34  C   UNL     1      -2.988  -6.010 -11.930  1.00  0.00     0.031 C 
ATOM     35  C   UNL     1      -3.446 -10.314  -9.369  1.00  0.00     0.029 A 
ATOM     36  N   UNL     1      -4.651 -10.113 -11.244  1.00  0.00    -0.354 N 
ATOM     37  C   UNL     1      -4.410  -6.523 -13.646  1.00  0.00     0.074 A 
ATOM     38  C   UNL     1      -3.566  -5.528 -13.022  1.00  0.00     0.031 C 
ATOM     39  C   UNL     1      -4.139 -11.452  -9.526  1.00  0.00     0.029 A 
ATOM     40  C   UNL     1      -4.948 -11.355 -10.739  1.00  0.00     0.049 A 
ATOM     41  H   UNL     1      -5.056  -9.753 -12.066  1.00  0.00     0.167 HD
ATOM     42  C   UNL     1      -5.049  -6.354 -14.827  1.00  0.00     0.031 A 
ATOM     43  C   UNL     1      -5.774 -12.314 -11.201  1.00  0.00     0.031 A 
ATOM     44  C   UNL     1      -5.894  -7.349 -15.433  1.00  0.00     0.049 A 
ATOM     45  C   UNL     1      -6.495 -12.091 -12.500  1.00  0.00     0.074 A 
ATOM     46  C   UNL     1      -6.562  -7.283 -16.643  1.00  0.00     0.029 A 
ATOM     47  N   UNL     1      -6.186  -8.585 -14.878  1.00  0.00    -0.354 N 
ATOM     48  N   UNL     1      -6.443 -11.053 -13.300  1.00  0.00    -0.248 NA
ATOM     49  C   UNL     1      -7.372 -13.171 -12.973  1.00  0.00     0.031 C 
ATOM     50  C   UNL     1      -7.311  -8.451 -16.790  1.00  0.00     0.029 A 
ATOM     51  C   UNL     1      -7.047  -9.280 -15.710  1.00  0.00     0.049 A 
ATOM     52  H   UNL     1      -5.835  -8.919 -14.021  1.00  0.00     0.167 HD
ATOM     53  C   UNL     1      -7.262 -11.361 -14.378  1.00  0.00     0.074 A 
ATOM     54  C   UNL     1      -7.785 -12.691 -14.140  1.00  0.00     0.031 C 
ATOM     55  C   UNL     1      -7.554 -10.606 -15.464  1.00  0.00     0.031 A 
BRANCH  42  56
ATOM     56  C   UNL     1      -4.850  -5.061 -15.569  1.00  0.00    -0.014 A 
ATOM     57  C   UNL     1      -5.932  -4.188 -15.769  1.00  0.00     0.009 A 
ATOM     58  C   UNL     1      -3.621  -4.767 -16.181  1.00  0.00     0.009 A 
ATOM     59  C   UNL     1      -5.794  -3.062 -16.583  1.00  0.00     0.001 A 
ATOM     60  C   UNL     1      -3.478  -3.624 -16.971  1.00  0.00     0.001 A 
ATOM     61  C   UNL     1      -4.567  -2.780 -17.182  1.00  0.00     0.000 A 
ENDBRANCH  42  56
BRANCH  43  62
ATOM     62  C   UNL     1      -5.919 -13.577 -10.430  1.00  0.00    -0.014 A 
ATOM     63  C   UNL     1      -6.521 -13.569  -9.159  1.00  0.00     0.009 A 
ATOM     64  C   UNL     1      -5.396 -14.783 -10.920  1.00  0.00     0.009 A 
ATOM     65  C   UNL     1      -6.568 -14.730  -8.386  1.00  0.00     0.001 A 
ATOM     66  C   UNL     1      -5.476 -15.952 -10.158  1.00  0.00     0.001 A 
ATOM     67  C   UNL     1      -6.050 -15.922  -8.887  1.00  0.00     0.000 A 
ENDBRANCH  43  62
BRANCH  55  68
ATOM     68  C   UNL     1      -8.475 -11.181 -16.505  1.00  0.00    -0.014 A 
ATOM     69  C   UNL     1      -7.978 -11.472 -17.787  1.00  0.00     0.009 A 
ATOM     70  C   UNL     1      -9.853 -11.293 -16.268  1.00  0.00     0.009 A 
ATOM     71  C   UNL     1      -8.846 -11.833 -18.818  1.00  0.00     0.001 A 
ATOM     72  C   UNL     1     -10.715 -11.685 -17.294  1.00  0.00     0.001 A 
ATOM     73  C   UNL     1     -10.213 -11.940 -18.571  1.00  0.00     0.000 A 
ENDBRANCH  55  68
ENDBRANCH  29  30
ENDBRANCH  22  24
ENDBRANCH  21  22
ENDBRANCH   1  21
TORSDOF 11
