REMARK SMILES C[C@@H]1CN(S(=O)(=O)c2ccc(Cl)c(C(=O)OCCOC(=O)c3ccc(-c4c5nc(c(-c6ccccc6)c6ccc([nH]6)c(-c6ccccc6)c6nc(c(-c7ccccc7)c7ccc4[nH]7)C=C6)C=C5)cc3)c2Cl)C[C@H]1C
REMARK SMILES IDX 17 1 16 2 14 3 15 4 13 5 8 6 9 7 70 8 10 9 71 10 11 11 12 12
REMARK SMILES IDX 5 13 6 14 7 15 4 16 1 17 2 18 3 19 73 20 72 21 74 22 18 23
REMARK SMILES IDX 19 24 20 25 21 26 22 27 23 28 69 29 24 30 68 31 25 32 26 33
REMARK SMILES IDX 27 34 62 35 28 36 67 37 61 38 63 39 29 40 66 41 60 42 59 43
REMARK SMILES IDX 30 45 52 46 37 47 51 48 38 49 41 50 50 51 64 52 39 53 40 54
REMARK SMILES IDX 49 56 65 57 42 58 31 59 32 60 36 61 33 62 35 63 34 64 53 65
REMARK SMILES IDX 54 66 58 67 55 68 57 69 56 70 43 71 44 72 48 73 45 74 47 75
REMARK SMILES IDX 46 76
REMARK H PARENT 63 44 41 55
REMARK Flexibility Score: inf
ROOT
ATOM      1  C   UNL     1       0.506  11.043   0.701  1.00  0.00     0.275 C 
ENDROOT
BRANCH   1   2
ATOM      2  O   UNL     1       0.038   9.685   0.576  1.00  0.00    -0.458 OA
BRANCH   2   3
ATOM      3  C   UNL     1       0.967   8.726   0.329  1.00  0.00     0.341 C 
ATOM      4  O   UNL     1       2.173   8.872   0.265  1.00  0.00    -0.246 OA
BRANCH   3   5
ATOM      5  C   UNL     1       0.249   7.439   0.173  1.00  0.00     0.098 A 
ATOM      6  C   UNL     1      -0.380   5.248   1.012  1.00  0.00     0.102 A 
ATOM      7  C   UNL     1      -1.394   5.181   0.043  1.00  0.00     0.025 A 
ATOM      8  C   UNL     1       0.483   6.358   1.055  1.00  0.00     0.077 A 
ATOM      9  C   UNL     1      -1.543   6.200  -0.892  1.00  0.00     0.023 A 
ATOM     10  Cl  UNL     1       1.846   6.401   2.127  1.00  0.00    -0.082 Cl
ATOM     11  C   UNL     1      -0.733   7.332  -0.826  1.00  0.00     0.057 A 
ATOM     12  Cl  UNL     1      -0.970   8.534  -2.049  1.00  0.00    -0.083 Cl
BRANCH   6  13
ATOM     13  S   UNL     1      -0.393   3.981   2.268  1.00  0.00     0.244 S 
ATOM     14  O   UNL     1      -1.617   3.219   2.112  1.00  0.00    -0.207 OA
ATOM     15  O   UNL     1      -0.093   4.593   3.539  1.00  0.00    -0.207 OA
BRANCH  13  16
ATOM     16  N   UNL     1       0.886   2.953   1.844  1.00  0.00    -0.197 NA
ATOM     17  C   UNL     1       1.116  -0.223  -0.117  1.00  0.00     0.009 C 
ATOM     18  C   UNL     1       0.712   0.711   1.011  1.00  0.00     0.005 C 
ATOM     19  C   UNL     1       0.727   2.177   0.584  1.00  0.00     0.106 C 
ATOM     20  C   UNL     1       1.672   0.712   2.200  1.00  0.00     0.005 C 
ATOM     21  C   UNL     1       1.264   1.992   2.930  1.00  0.00     0.106 C 
ATOM     22  C   UNL     1       1.564  -0.526   3.078  1.00  0.00     0.009 C 
ENDBRANCH  13  16
ENDBRANCH   6  13
ENDBRANCH   3   5
ENDBRANCH   2   3
ENDBRANCH   1   2
BRANCH   1  23
ATOM     23  C   UNL     1      -0.444  11.832   1.608  1.00  0.00     0.275 C 
BRANCH  23  24
ATOM     24  O   UNL     1      -0.416  11.281   2.939  1.00  0.00    -0.458 OA
BRANCH  24  25
ATOM     25  C   UNL     1      -1.375  10.359   3.186  1.00  0.00     0.338 C 
ATOM     26  O   UNL     1      -2.325  10.061   2.481  1.00  0.00    -0.246 OA
BRANCH  25  27
ATOM     27  C   UNL     1      -0.989   9.568   4.361  1.00  0.00     0.060 A 
ATOM     28  C   UNL     1      -0.561   8.268   4.116  1.00  0.00     0.016 A 
ATOM     29  C   UNL     1      -1.129  10.031   5.669  1.00  0.00     0.016 A 
ATOM     30  C   UNL     1      -0.295   7.410   5.175  1.00  0.00     0.010 A 
ATOM     31  C   UNL     1      -0.859   9.159   6.737  1.00  0.00     0.010 A 
ATOM     32  C   UNL     1      -0.464   7.830   6.496  1.00  0.00    -0.014 A 
BRANCH  32  33
ATOM     33  C   UNL     1      -0.349   6.819   7.583  1.00  0.00     0.031 A 
ATOM     34  C   UNL     1      -1.586   6.372   8.316  1.00  0.00     0.074 A 
ATOM     35  C   UNL     1       0.825   6.210   7.844  1.00  0.00     0.049 A 
ATOM     36  N   UNL     1      -1.700   5.557   9.335  1.00  0.00    -0.248 NA
ATOM     37  C   UNL     1      -2.867   6.912   7.833  1.00  0.00     0.031 C 
ATOM     38  C   UNL     1       2.082   6.448   7.134  1.00  0.00     0.029 A 
ATOM     39  N   UNL     1       1.143   5.243   8.768  1.00  0.00    -0.354 N 
ATOM     40  C   UNL     1      -3.055   5.517   9.638  1.00  0.00     0.074 A 
ATOM     41  C   UNL     1      -3.723   6.398   8.704  1.00  0.00     0.031 C 
ATOM     42  C   UNL     1       3.027   5.633   7.631  1.00  0.00     0.029 A 
ATOM     43  C   UNL     1       2.462   4.864   8.736  1.00  0.00     0.049 A 
ATOM     44  H   UNL     1       0.486   4.859   9.393  1.00  0.00     0.167 HD
ATOM     45  C   UNL     1      -3.689   4.812  10.605  1.00  0.00     0.031 A 
ATOM     46  C   UNL     1       3.150   4.015   9.525  1.00  0.00     0.031 A 
ATOM     47  C   UNL     1      -3.036   3.912  11.518  1.00  0.00     0.049 A 
ATOM     48  C   UNL     1       2.442   3.314  10.652  1.00  0.00     0.074 A 
ATOM     49  C   UNL     1      -3.595   3.169  12.544  1.00  0.00     0.029 A 
ATOM     50  N   UNL     1      -1.681   3.620  11.504  1.00  0.00    -0.354 N 
ATOM     51  N   UNL     1       1.171   3.336  10.972  1.00  0.00    -0.248 NA
ATOM     52  C   UNL     1       3.269   2.475  11.533  1.00  0.00     0.031 C 
ATOM     53  C   UNL     1      -2.569   2.464  13.183  1.00  0.00     0.029 A 
ATOM     54  C   UNL     1      -1.382   2.724  12.517  1.00  0.00     0.049 A 
ATOM     55  H   UNL     1      -1.029   3.993  10.869  1.00  0.00     0.167 HD
ATOM     56  C   UNL     1       1.043   2.499  12.074  1.00  0.00     0.074 A 
ATOM     57  C   UNL     1       2.360   1.970  12.357  1.00  0.00     0.031 C 
ATOM     58  C   UNL     1      -0.070   2.198  12.787  1.00  0.00     0.031 A 
BRANCH  45  59
ATOM     59  C   UNL     1      -5.167   5.034  10.764  1.00  0.00    -0.014 A 
ATOM     60  C   UNL     1      -6.094   4.523   9.843  1.00  0.00     0.009 A 
ATOM     61  C   UNL     1      -5.638   5.749  11.877  1.00  0.00     0.009 A 
ATOM     62  C   UNL     1      -7.461   4.754  10.017  1.00  0.00     0.001 A 
ATOM     63  C   UNL     1      -7.005   5.954  12.064  1.00  0.00     0.001 A 
ATOM     64  C   UNL     1      -7.915   5.465  11.129  1.00  0.00     0.000 A 
ENDBRANCH  45  59
BRANCH  46  65
ATOM     65  C   UNL     1       4.611   3.820   9.318  1.00  0.00    -0.014 A 
ATOM     66  C   UNL     1       5.120   2.584   8.892  1.00  0.00     0.009 A 
ATOM     67  C   UNL     1       5.508   4.870   9.576  1.00  0.00     0.009 A 
ATOM     68  C   UNL     1       6.498   2.398   8.750  1.00  0.00     0.001 A 
ATOM     69  C   UNL     1       6.881   4.691   9.402  1.00  0.00     0.001 A 
ATOM     70  C   UNL     1       7.376   3.453   8.999  1.00  0.00     0.000 A 
ENDBRANCH  46  65
BRANCH  58  71
ATOM     71  C   UNL     1       0.080   1.218  13.917  1.00  0.00    -0.014 A 
ATOM     72  C   UNL     1       0.720   1.574  15.114  1.00  0.00     0.009 A 
ATOM     73  C   UNL     1      -0.464  -0.070  13.794  1.00  0.00     0.009 A 
ATOM     74  C   UNL     1       0.840   0.647  16.152  1.00  0.00     0.001 A 
ATOM     75  C   UNL     1      -0.367  -0.985  14.843  1.00  0.00     0.001 A 
ATOM     76  C   UNL     1       0.293  -0.628  16.018  1.00  0.00     0.000 A 
ENDBRANCH  58  71
ENDBRANCH  32  33
ENDBRANCH  25  27
ENDBRANCH  24  25
ENDBRANCH  23  24
ENDBRANCH   1  23
TORSDOF 13
