REMARK SMILES C[C@@H]1CN(C(=O)Nc2ccc(O)c(C(=O)OCCOC(=O)c3ccc(-c4c5nc(c(-c6ccccc6)c6ccc([nH]6)c(-c6ccccc6)c6nc(c(-c7ccccc7)c7ccc4[nH]7)C=C6)C=C5)cc3)c2)C[C@@H]1C
REMARK SMILES IDX 17 1 16 2 14 3 15 4 13 5 8 6 9 7 70 8 10 9 11 10 7 11 5 12
REMARK SMILES IDX 6 13 4 15 1 16 2 17 3 18 72 19 71 20 73 21 12 22 18 24 19 25
REMARK SMILES IDX 20 26 21 27 22 28 23 29 69 30 24 31 68 32 25 33 26 34 27 35
REMARK SMILES IDX 62 36 28 37 67 38 61 39 63 40 29 41 66 42 60 43 59 44 30 46
REMARK SMILES IDX 52 47 37 48 51 49 38 50 41 51 50 52 64 53 39 54 40 55 49 57
REMARK SMILES IDX 65 58 42 59 31 60 32 61 36 62 33 63 35 64 34 65 53 66 54 67
REMARK SMILES IDX 58 68 55 69 57 70 56 71 43 72 44 73 48 74 45 75 47 76 46 77
REMARK H PARENT 7 14 12 23 63 45 41 56
REMARK Flexibility Score: inf
ROOT
ATOM      1  C   UNL     1       1.275   2.178  -8.169  1.00  0.00     0.275 C 
ENDROOT
BRANCH   1   2
ATOM      2  O   UNL     1       0.492   2.248  -6.963  1.00  0.00    -0.458 OA
BRANCH   2   3
ATOM      3  C   UNL     1       1.179   2.347  -5.800  1.00  0.00     0.342 C 
ATOM      4  O   UNL     1       2.388   2.397  -5.674  1.00  0.00    -0.246 OA
BRANCH   3   5
ATOM      5  C   UNL     1       0.255   2.581  -4.664  1.00  0.00     0.103 A 
ATOM      6  C   UNL     1      -0.098   3.766  -2.576  1.00  0.00     0.044 A 
ATOM      7  C   UNL     1      -1.372   3.212  -2.473  1.00  0.00     0.030 A 
ATOM      8  C   UNL     1       0.701   3.466  -3.673  1.00  0.00     0.045 A 
ATOM      9  C   UNL     1      -1.813   2.298  -3.436  1.00  0.00     0.049 A 
ATOM     10  C   UNL     1      -0.993   1.968  -4.519  1.00  0.00     0.130 A 
BRANCH   6  11
ATOM     11  N   UNL     1       0.405   4.660  -1.632  1.00  0.00    -0.308 N 
ATOM     12  C   UNL     1       0.530   4.572  -0.281  1.00  0.00     0.321 C 
ATOM     13  O   UNL     1       0.742   5.622   0.333  1.00  0.00    -0.248 OA
ATOM     14  H   UNL     1       0.729   5.508  -2.012  1.00  0.00     0.171 HD
BRANCH  12  15
ATOM     15  N   UNL     1       0.584   3.353   0.340  1.00  0.00    -0.324 N 
ATOM     16  C   UNL     1       1.310  -0.280   0.456  1.00  0.00     0.010 C 
ATOM     17  C   UNL     1       0.761   1.058   0.920  1.00  0.00     0.010 C 
ATOM     18  C   UNL     1       0.530   2.020  -0.242  1.00  0.00     0.125 C 
ATOM     19  C   UNL     1       1.631   1.879   1.882  1.00  0.00     0.010 C 
ATOM     20  C   UNL     1       1.016   3.278   1.730  1.00  0.00     0.125 C 
ATOM     21  C   UNL     1       3.121   1.883   1.537  1.00  0.00     0.010 C 
ENDBRANCH  12  15
ENDBRANCH   6  11
BRANCH  10  22
ATOM     22  O   UNL     1      -1.401   1.008  -5.401  1.00  0.00    -0.507 OA
ATOM     23  H   UNL     1      -2.239   0.603  -5.296  1.00  0.00     0.293 HD
ENDBRANCH  10  22
ENDBRANCH   3   5
ENDBRANCH   2   3
ENDBRANCH   1   2
BRANCH   1  24
ATOM     24  C   UNL     1       1.079   3.450  -8.990  1.00  0.00     0.275 C 
BRANCH  24  25
ATOM     25  O   UNL     1       1.698   4.566  -8.319  1.00  0.00    -0.458 OA
BRANCH  25  26
ATOM     26  C   UNL     1       0.847   5.477  -7.801  1.00  0.00     0.338 C 
ATOM     27  O   UNL     1      -0.372   5.498  -7.879  1.00  0.00    -0.246 OA
BRANCH  26  28
ATOM     28  C   UNL     1       1.597   6.476  -7.028  1.00  0.00     0.060 A 
ATOM     29  C   UNL     1       1.973   6.152  -5.728  1.00  0.00     0.016 A 
ATOM     30  C   UNL     1       1.752   7.776  -7.501  1.00  0.00     0.016 A 
ATOM     31  C   UNL     1       2.394   7.149  -4.850  1.00  0.00     0.010 A 
ATOM     32  C   UNL     1       2.260   8.761  -6.644  1.00  0.00     0.010 A 
ATOM     33  C   UNL     1       2.526   8.474  -5.291  1.00  0.00    -0.014 A 
BRANCH  33  34
ATOM     34  C   UNL     1       2.826   9.567  -4.319  1.00  0.00     0.031 A 
ATOM     35  C   UNL     1       1.838  10.693  -4.125  1.00  0.00     0.074 A 
ATOM     36  C   UNL     1       3.946   9.547  -3.569  1.00  0.00     0.049 A 
ATOM     37  N   UNL     1       1.968  11.804  -3.441  1.00  0.00    -0.248 NA
ATOM     38  C   UNL     1       0.538  10.558  -4.801  1.00  0.00     0.031 C 
ATOM     39  C   UNL     1       4.971   8.502  -3.592  1.00  0.00     0.029 A 
ATOM     40  N   UNL     1       4.398  10.432  -2.619  1.00  0.00    -0.354 N 
ATOM     41  C   UNL     1       0.798  12.523  -3.658  1.00  0.00     0.074 A 
ATOM     42  C   UNL     1      -0.028  11.728  -4.541  1.00  0.00     0.031 C 
ATOM     43  C   UNL     1       5.902   8.779  -2.664  1.00  0.00     0.029 A 
ATOM     44  C   UNL     1       5.583  10.057  -2.034  1.00  0.00     0.049 A 
ATOM     45  H   UNL     1       3.917  11.257  -2.380  1.00  0.00     0.167 HD
ATOM     46  C   UNL     1       0.437  13.735  -3.170  1.00  0.00     0.031 A 
ATOM     47  C   UNL     1       6.345  10.678  -1.114  1.00  0.00     0.031 A 
ATOM     48  C   UNL     1       1.220  14.508  -2.242  1.00  0.00     0.049 A 
ATOM     49  C   UNL     1       5.928  12.023  -0.589  1.00  0.00     0.074 A 
ATOM     50  C   UNL     1       0.937  15.748  -1.696  1.00  0.00     0.029 A 
ATOM     51  N   UNL     1       2.426  14.098  -1.699  1.00  0.00    -0.354 N 
ATOM     52  N   UNL     1       4.858  12.726  -0.870  1.00  0.00    -0.248 NA
ATOM     53  C   UNL     1       6.835  12.665   0.374  1.00  0.00     0.031 C 
ATOM     54  C   UNL     1       1.987  16.101  -0.841  1.00  0.00     0.029 A 
ATOM     55  C   UNL     1       2.901  15.061  -0.824  1.00  0.00     0.049 A 
ATOM     56  H   UNL     1       2.879  13.248  -1.904  1.00  0.00     0.167 HD
ATOM     57  C   UNL     1       4.958  13.885  -0.112  1.00  0.00     0.074 A 
ATOM     58  C   UNL     1       6.179  13.781   0.660  1.00  0.00     0.031 C 
ATOM     59  C   UNL     1       4.117  14.946  -0.065  1.00  0.00     0.031 A 
BRANCH  46  60
ATOM     60  C   UNL     1      -0.856  14.320  -3.665  1.00  0.00    -0.014 A 
ATOM     61  C   UNL     1      -2.099  13.831  -3.235  1.00  0.00     0.009 A 
ATOM     62  C   UNL     1      -0.824  15.400  -4.563  1.00  0.00     0.009 A 
ATOM     63  C   UNL     1      -3.284  14.388  -3.723  1.00  0.00     0.001 A 
ATOM     64  C   UNL     1      -2.010  15.972  -5.028  1.00  0.00     0.001 A 
ATOM     65  C   UNL     1      -3.238  15.459  -4.616  1.00  0.00     0.000 A 
ENDBRANCH  46  60
BRANCH  47  66
ATOM     66  C   UNL     1       7.608  10.051  -0.646  1.00  0.00    -0.014 A 
ATOM     67  C   UNL     1       7.716   9.555   0.662  1.00  0.00     0.009 A 
ATOM     68  C   UNL     1       8.719   9.962  -1.501  1.00  0.00     0.009 A 
ATOM     69  C   UNL     1       8.918   9.002   1.111  1.00  0.00     0.001 A 
ATOM     70  C   UNL     1       9.909   9.382  -1.058  1.00  0.00     0.001 A 
ATOM     71  C   UNL     1      10.010   8.911   0.250  1.00  0.00     0.000 A 
ENDBRANCH  47  66
BRANCH  59  72
ATOM     72  C   UNL     1       4.478  16.060   0.875  1.00  0.00    -0.014 A 
ATOM     73  C   UNL     1       5.523  16.950   0.581  1.00  0.00     0.009 A 
ATOM     74  C   UNL     1       3.755  16.227   2.066  1.00  0.00     0.009 A 
ATOM     75  C   UNL     1       5.862  17.962   1.481  1.00  0.00     0.001 A 
ATOM     76  C   UNL     1       4.081  17.255   2.953  1.00  0.00     0.001 A 
ATOM     77  C   UNL     1       5.140  18.114   2.665  1.00  0.00     0.000 A 
ENDBRANCH  59  72
ENDBRANCH  33  34
ENDBRANCH  26  28
ENDBRANCH  25  26
ENDBRANCH  24  25
ENDBRANCH   1  24
TORSDOF 14
