REMARK SMILES Cc1noc2c1-c1c(c(C(=O)OCCOC(=O)c3ccc(-c4c5nc(c(-c6ccccc6)c6ccc([nH]6)c(-c6ccccc6)c6nc(c(-c7ccccc7)c7ccc4[nH]7)C=C6)C=C5)cc3)nn1C)CC2
REMARK SMILES IDX 14 1 13 2 12 3 10 4 11 5 9 6 1 7 2 8 3 9 6 10 4 11 5 12 7 13
REMARK SMILES IDX 70 14 8 15 67 16 69 17 66 18 68 19 15 20 16 21 17 22 18 23
REMARK SMILES IDX 19 24 65 25 20 26 64 27 21 28 22 29 23 30 58 31 24 32 63 33
REMARK SMILES IDX 57 34 59 35 25 36 62 37 56 38 55 39 26 41 48 42 33 43 47 44
REMARK SMILES IDX 34 45 37 46 46 47 60 48 35 49 36 50 45 52 61 53 38 54 27 55
REMARK SMILES IDX 28 56 32 57 29 58 31 59 30 60 49 61 50 62 54 63 51 64 53 65
REMARK SMILES IDX 52 66 39 67 40 68 44 69 41 70 43 71 42 72
REMARK H PARENT 59 40 37 51
REMARK Flexibility Score: inf
ROOT
ATOM      1  C   UNL     1      -7.210  -0.385  -4.309  1.00  0.00     0.275 C 
ENDROOT
BRANCH   1   2
ATOM      2  C   UNL     1      -6.088  -0.807  -5.244  1.00  0.00     0.275 C 
BRANCH   2   3
ATOM      3  O   UNL     1      -4.837  -0.861  -4.544  1.00  0.00    -0.457 OA
BRANCH   3   4
ATOM      4  C   UNL     1      -4.118   0.311  -4.502  1.00  0.00     0.359 C 
ATOM      5  O   UNL     1      -4.391   1.291  -5.168  1.00  0.00    -0.244 OA
BRANCH   4   6
ATOM      6  C   UNL     1      -3.018   0.248  -3.515  1.00  0.00     0.174 A 
ATOM      7  C   UNL     1       1.215  -0.249   0.238  1.00  0.00     0.071 C 
ATOM      8  C   UNL     1       0.520  -1.353  -0.457  1.00  0.00     0.090 A 
ATOM      9  N   UNL     1       0.939  -2.612  -0.223  1.00  0.00    -0.084 NA
ATOM     10  C   UNL     1      -0.562  -1.348  -1.358  1.00  0.00     0.066 A 
ATOM     11  O   UNL     1       0.140  -3.441  -0.995  1.00  0.00    -0.360 OA
ATOM     12  C   UNL     1      -0.750  -2.677  -1.659  1.00  0.00     0.146 A 
ATOM     13  C   UNL     1      -1.446  -0.394  -2.063  1.00  0.00     0.077 A 
ATOM     14  C   UNL     1      -1.691  -3.288  -2.628  1.00  0.00     0.084 C 
ATOM     15  C   UNL     1      -2.487  -0.887  -2.839  1.00  0.00     0.014 A 
ATOM     16  N   UNL     1      -1.497   0.958  -2.180  1.00  0.00    -0.267 N 
ATOM     17  C   UNL     1      -2.886  -2.340  -2.870  1.00  0.00     0.048 C 
ATOM     18  N   UNL     1      -2.376   1.368  -3.117  1.00  0.00    -0.165 NA
ATOM     19  C   UNL     1      -0.733   1.960  -1.482  1.00  0.00     0.174 C 
ENDBRANCH   4   6
ENDBRANCH   3   4
ENDBRANCH   2   3
ENDBRANCH   1   2
BRANCH   1  20
ATOM     20  O   UNL     1      -7.088   0.986  -3.933  1.00  0.00    -0.458 OA
BRANCH  20  21
ATOM     21  C   UNL     1      -6.495   1.204  -2.737  1.00  0.00     0.338 C 
ATOM     22  O   UNL     1      -5.775   0.434  -2.120  1.00  0.00    -0.246 OA
BRANCH  21  23
ATOM     23  C   UNL     1      -7.069   2.417  -2.145  1.00  0.00     0.060 A 
ATOM     24  C   UNL     1      -6.516   2.893  -0.953  1.00  0.00     0.016 A 
ATOM     25  C   UNL     1      -8.299   2.891  -2.626  1.00  0.00     0.016 A 
ATOM     26  C   UNL     1      -7.265   3.756  -0.175  1.00  0.00     0.010 A 
ATOM     27  C   UNL     1      -9.055   3.724  -1.837  1.00  0.00     0.010 A 
ATOM     28  C   UNL     1      -8.553   4.108  -0.597  1.00  0.00    -0.014 A 
BRANCH  28  29
ATOM     29  C   UNL     1      -9.315   5.046   0.202  1.00  0.00     0.031 A 
ATOM     30  C   UNL     1      -8.813   6.434   0.085  1.00  0.00     0.074 A 
ATOM     31  C   UNL     1     -10.455   4.720   0.839  1.00  0.00     0.049 A 
ATOM     32  N   UNL     1      -8.281   7.157   1.012  1.00  0.00    -0.248 NA
ATOM     33  C   UNL     1      -8.751   7.032  -1.260  1.00  0.00     0.031 C 
ATOM     34  C   UNL     1     -11.196   3.459   0.762  1.00  0.00     0.029 A 
ATOM     35  N   UNL     1     -11.263   5.507   1.601  1.00  0.00    -0.354 N 
ATOM     36  C   UNL     1      -8.004   8.381   0.413  1.00  0.00     0.074 A 
ATOM     37  C   UNL     1      -8.123   8.179  -1.007  1.00  0.00     0.031 C 
ATOM     38  C   UNL     1     -12.443   3.647   1.254  1.00  0.00     0.029 A 
ATOM     39  C   UNL     1     -12.542   4.997   1.787  1.00  0.00     0.049 A 
ATOM     40  H   UNL     1     -10.967   6.363   1.986  1.00  0.00     0.167 HD
ATOM     41  C   UNL     1      -8.003   9.528   1.143  1.00  0.00     0.031 A 
ATOM     42  C   UNL     1     -13.616   5.664   2.279  1.00  0.00     0.031 A 
ATOM     43  C   UNL     1      -7.875   9.258   2.554  1.00  0.00     0.049 A 
ATOM     44  C   UNL     1     -13.118   6.868   2.981  1.00  0.00     0.074 A 
ATOM     45  C   UNL     1      -6.950   8.605   3.343  1.00  0.00     0.029 A 
ATOM     46  N   UNL     1      -9.018   9.356   3.310  1.00  0.00    -0.354 N 
ATOM     47  N   UNL     1     -12.472   6.830   4.109  1.00  0.00    -0.248 NA
ATOM     48  C   UNL     1     -12.974   8.100   2.222  1.00  0.00     0.031 C 
ATOM     49  C   UNL     1      -7.718   7.947   4.349  1.00  0.00     0.029 A 
ATOM     50  C   UNL     1      -9.058   8.287   4.163  1.00  0.00     0.049 A 
ATOM     51  H   UNL     1      -9.691  10.071   3.249  1.00  0.00     0.167 HD
ATOM     52  C   UNL     1     -11.492   7.802   3.981  1.00  0.00     0.074 A 
ATOM     53  C   UNL     1     -11.928   8.632   2.860  1.00  0.00     0.031 C 
ATOM     54  C   UNL     1     -10.284   7.661   4.605  1.00  0.00     0.031 A 
BRANCH  41  55
ATOM     55  C   UNL     1      -8.611  10.814   0.625  1.00  0.00    -0.014 A 
ATOM     56  C   UNL     1      -8.632  11.931   1.479  1.00  0.00     0.009 A 
ATOM     57  C   UNL     1      -9.428  10.886  -0.521  1.00  0.00     0.009 A 
ATOM     58  C   UNL     1      -9.503  13.004   1.254  1.00  0.00     0.001 A 
ATOM     59  C   UNL     1     -10.264  11.975  -0.774  1.00  0.00     0.001 A 
ATOM     60  C   UNL     1     -10.328  13.018   0.135  1.00  0.00     0.000 A 
ENDBRANCH  41  55
BRANCH  42  61
ATOM     61  C   UNL     1     -15.056   5.487   1.992  1.00  0.00    -0.014 A 
ATOM     62  C   UNL     1     -16.025   6.077   2.822  1.00  0.00     0.009 A 
ATOM     63  C   UNL     1     -15.480   4.981   0.751  1.00  0.00     0.009 A 
ATOM     64  C   UNL     1     -17.356   6.202   2.403  1.00  0.00     0.001 A 
ATOM     65  C   UNL     1     -16.811   5.100   0.335  1.00  0.00     0.001 A 
ATOM     66  C   UNL     1     -17.745   5.728   1.153  1.00  0.00     0.000 A 
ENDBRANCH  42  61
BRANCH  54  67
ATOM     67  C   UNL     1     -10.161   6.603   5.674  1.00  0.00    -0.014 A 
ATOM     68  C   UNL     1     -10.415   5.238   5.453  1.00  0.00     0.009 A 
ATOM     69  C   UNL     1      -9.659   6.991   6.926  1.00  0.00     0.009 A 
ATOM     70  C   UNL     1     -10.217   4.299   6.472  1.00  0.00     0.001 A 
ATOM     71  C   UNL     1      -9.437   6.051   7.933  1.00  0.00     0.001 A 
ATOM     72  C   UNL     1      -9.726   4.707   7.710  1.00  0.00     0.000 A 
ENDBRANCH  54  67
ENDBRANCH  28  29
ENDBRANCH  21  23
ENDBRANCH  20  21
ENDBRANCH   1  20
TORSDOF 11
