REMARK SMILES O=C(OCCOC(=O)[C@@H](c1ccccc1)[N@@H+]1CCN2C(=O)NC[C@@H]2C1)c1ccc(-c2c3nc(c(-c4ccccc4)c4ccc([nH]4)c(-c4ccccc4)c4nc(c(-c5ccccc5)c5ccc2[nH]5)C=C4)C=C3)cc1
REMARK SMILES IDX 4 1 3 2 2 3 1 4 26 5 27 6 73 7 28 8 72 9 29 10 30 11 31 12
REMARK SMILES IDX 66 13 32 14 71 15 65 16 67 17 33 18 70 19 64 20 63 21 34 23
REMARK SMILES IDX 56 24 41 25 55 26 42 27 45 28 54 29 68 30 43 31 44 32 53 34
REMARK SMILES IDX 69 35 46 36 35 37 36 38 40 39 37 40 39 41 38 42 57 43 58 44
REMARK SMILES IDX 62 45 59 46 61 47 60 48 47 49 48 50 52 51 49 52 51 53 50 54
REMARK SMILES IDX 5 55 6 56 7 57 8 58 9 59 10 60 11 61 15 62 12 63 14 64 13 65
REMARK SMILES IDX 16 66 17 67 25 68 18 70 24 71 19 72 23 73 20 74 22 75 21 76
REMARK H PARENT 67 22 45 33 16 69 22 77
REMARK Flexibility Score: inf
ROOT
ATOM      1  C   UNL     1       4.274  -1.776   0.611  1.00  0.00     0.275 C 
ENDROOT
BRANCH   1   2
ATOM      2  O   UNL     1       3.028  -1.453   1.216  1.00  0.00    -0.458 OA
BRANCH   2   3
ATOM      3  C   UNL     1       2.350  -0.306   1.052  1.00  0.00     0.338 C 
ATOM      4  O   UNL     1       1.195  -0.252   1.471  1.00  0.00    -0.246 OA
BRANCH   3   5
ATOM      5  C   UNL     1       2.900   0.927   0.382  1.00  0.00     0.060 A 
ATOM      6  C   UNL     1       4.466   1.178  -0.484  1.00  0.00     0.016 A 
ATOM      7  C   UNL     1       1.709   2.193   0.522  1.00  0.00     0.016 A 
ATOM      8  C   UNL     1       4.938   2.691  -1.277  1.00  0.00     0.010 A 
ATOM      9  C   UNL     1       2.079   3.778  -0.175  1.00  0.00     0.010 A 
ATOM     10  C   UNL     1       3.805   4.097  -1.179  1.00  0.00    -0.014 A 
BRANCH  10  11
ATOM     11  C   UNL     1       4.651   5.304  -1.921  1.00  0.00     0.031 A 
ATOM     12  C   UNL     1       5.736   6.026  -1.151  1.00  0.00     0.074 A 
ATOM     13  C   UNL     1       4.528   5.696  -3.218  1.00  0.00     0.049 A 
ATOM     14  N   UNL     1       6.208   7.224  -1.388  1.00  0.00    -0.248 NA
ATOM     15  C   UNL     1       6.245   5.434   0.089  1.00  0.00     0.031 C 
ATOM     16  C   UNL     1       3.580   5.150  -4.146  1.00  0.00     0.029 A 
ATOM     17  N   UNL     1       5.189   6.601  -4.031  1.00  0.00    -0.354 N 
ATOM     18  C   UNL     1       6.807   7.624  -0.203  1.00  0.00     0.074 A 
ATOM     19  C   UNL     1       6.702   6.512   0.713  1.00  0.00     0.031 C 
ATOM     20  C   UNL     1       3.763   5.568  -5.389  1.00  0.00     0.029 A 
ATOM     21  C   UNL     1       4.834   6.517  -5.374  1.00  0.00     0.049 A 
ATOM     22  H   UNL     1       5.850   7.246  -3.690  1.00  0.00     0.167 HD
ATOM     23  C   UNL     1       7.319   8.847   0.075  1.00  0.00     0.031 A 
ATOM     24  C   UNL     1       5.301   7.105  -6.491  1.00  0.00     0.031 A 
ATOM     25  C   UNL     1       7.560   9.829  -0.956  1.00  0.00     0.049 A 
ATOM     26  C   UNL     1       6.180   8.277  -6.245  1.00  0.00     0.074 A 
ATOM     27  C   UNL     1       8.132  11.083  -0.849  1.00  0.00     0.029 A 
ATOM     28  N   UNL     1       7.304   9.623  -2.310  1.00  0.00    -0.354 N 
ATOM     29  N   UNL     1       6.606   8.721  -5.090  1.00  0.00    -0.248 NA
ATOM     30  C   UNL     1       6.555   9.089  -7.403  1.00  0.00     0.031 C 
ATOM     31  C   UNL     1       8.198  11.641  -2.131  1.00  0.00     0.029 A 
ATOM     32  C   UNL     1       7.738  10.708  -3.050  1.00  0.00     0.049 A 
ATOM     33  H   UNL     1       6.875   8.820  -2.686  1.00  0.00     0.167 HD
ATOM     34  C   UNL     1       7.248   9.906  -5.366  1.00  0.00     0.074 A 
ATOM     35  C   UNL     1       7.245  10.056  -6.812  1.00  0.00     0.031 C 
ATOM     36  C   UNL     1       7.733  10.815  -4.489  1.00  0.00     0.031 A 
BRANCH  23  37
ATOM     37  C   UNL     1       7.529   9.202   1.528  1.00  0.00    -0.014 A 
ATOM     38  C   UNL     1       8.380   8.485   2.382  1.00  0.00     0.009 A 
ATOM     39  C   UNL     1       6.777  10.257   2.077  1.00  0.00     0.009 A 
ATOM     40  C   UNL     1       8.390   8.738   3.758  1.00  0.00     0.001 A 
ATOM     41  C   UNL     1       6.835  10.552   3.441  1.00  0.00     0.001 A 
ATOM     42  C   UNL     1       7.619   9.771   4.286  1.00  0.00     0.000 A 
ENDBRANCH  23  37
BRANCH  24  43
ATOM     43  C   UNL     1       4.978   6.603  -7.871  1.00  0.00    -0.014 A 
ATOM     44  C   UNL     1       6.029   6.204  -8.719  1.00  0.00     0.009 A 
ATOM     45  C   UNL     1       3.666   6.425  -8.345  1.00  0.00     0.009 A 
ATOM     46  C   UNL     1       5.777   5.655  -9.983  1.00  0.00     0.001 A 
ATOM     47  C   UNL     1       3.413   5.813  -9.579  1.00  0.00     0.001 A 
ATOM     48  C   UNL     1       4.469   5.441 -10.405  1.00  0.00     0.000 A 
ENDBRANCH  24  43
BRANCH  36  49
ATOM     49  C   UNL     1       8.342  12.034  -5.096  1.00  0.00    -0.014 A 
ATOM     50  C   UNL     1       7.551  13.016  -5.712  1.00  0.00     0.009 A 
ATOM     51  C   UNL     1       9.729  12.208  -5.012  1.00  0.00     0.009 A 
ATOM     52  C   UNL     1       8.151  14.148  -6.257  1.00  0.00     0.001 A 
ATOM     53  C   UNL     1      10.319  13.359  -5.523  1.00  0.00     0.001 A 
ATOM     54  C   UNL     1       9.532  14.323  -6.152  1.00  0.00     0.000 A 
ENDBRANCH  36  49
ENDBRANCH  10  11
ENDBRANCH   3   5
ENDBRANCH   2   3
ENDBRANCH   1   2
BRANCH   1  55
ATOM     55  C   UNL     1       4.096  -2.108  -0.870  1.00  0.00     0.274 C 
BRANCH  55  56
ATOM     56  O   UNL     1       3.788  -0.926  -1.628  1.00  0.00    -0.457 OA
BRANCH  56  57
ATOM     57  C   UNL     1       2.536  -0.431  -1.881  1.00  0.00     0.370 C 
ATOM     58  O   UNL     1       1.506  -1.065  -1.703  1.00  0.00    -0.245 OA
BRANCH  57  59
ATOM     59  C   UNL     1       2.646   1.050  -2.448  1.00  0.00     0.326 C 
BRANCH  59  60
ATOM     60  C   UNL     1       2.787   2.451  -1.370  1.00  0.00     0.021 A 
ATOM     61  C   UNL     1       3.680   2.983   0.368  1.00  0.00     0.010 A 
ATOM     62  C   UNL     1       1.891   3.787  -2.218  1.00  0.00     0.010 A 
ATOM     63  C   UNL     1       3.615   4.680   0.951  1.00  0.00     0.001 A 
ATOM     64  C   UNL     1       1.965   5.447  -1.557  1.00  0.00     0.001 A 
ATOM     65  C   UNL     1       2.800   5.864  -0.041  1.00  0.00     0.000 A 
ENDBRANCH  59  60
BRANCH  59  66
ATOM     66  N   UNL     1       3.330   0.971  -3.853  1.00  0.00    -0.316 N 
ATOM     67  C   UNL     1       4.241  -0.176  -4.078  1.00  0.00     0.285 C 
ATOM     68  C   UNL     1       3.836   2.193  -4.460  1.00  0.00     0.290 C 
ATOM     69  H   UNL     1       2.480   0.782  -4.384  1.00  0.00     0.349 HD
ATOM     70  C   UNL     1       4.997  -0.315  -5.413  1.00  0.00     0.183 C 
ATOM     71  C   UNL     1       4.698   2.117  -5.751  1.00  0.00     0.161 C 
ATOM     72  N   UNL     1       5.529   0.946  -5.817  1.00  0.00    -0.309 N 
ATOM     73  C   UNL     1       5.743   3.225  -5.929  1.00  0.00     0.148 C 
ATOM     74  C   UNL     1       6.735   1.194  -6.442  1.00  0.00     0.318 C 
ATOM     75  N   UNL     1       6.842   2.565  -6.580  1.00  0.00    -0.336 N 
ATOM     76  O   UNL     1       7.574   0.386  -6.793  1.00  0.00    -0.249 OA
ATOM     77  H   UNL     1       7.569   3.026  -7.057  1.00  0.00     0.165 HD
ENDBRANCH  59  66
ENDBRANCH  57  59
ENDBRANCH  56  57
ENDBRANCH  55  56
ENDBRANCH   1  55
TORSDOF 13
