REMARK SMILES Cc1ccccc1C(=O)Nc1cc(C(=O)OCCOC(=O)c2ccc(-c3c4nc(c(-c5ccccc5)c5ccc([nH]5)c(-c5ccccc5)c5nc(c(-c6ccccc6)c6ccc3[nH]6)C=C5)C=C4)cc2)ccc1N1CC[NH+](CC(=O)Nc2ccc(F)cc2)CC1
REMARK SMILES IDX 17 1 16 2 14 3 15 4 13 5 11 6 12 7 72 8 71 9 70 10 10 11
REMARK SMILES IDX 8 12 9 13 7 15 1 16 2 17 3 18 4 19 6 20 5 21 73 22 74 23
REMARK SMILES IDX 89 24 75 25 88 26 76 27 77 29 78 30 79 31 80 32 81 34 82 35
REMARK SMILES IDX 87 36 83 37 86 38 84 39 85 40 18 41 19 42 20 43 21 44 22 45
REMARK SMILES IDX 23 46 69 47 24 48 68 49 25 50 26 51 27 52 62 53 28 54 67 55
REMARK SMILES IDX 61 56 63 57 29 58 66 59 60 60 59 61 30 63 52 64 37 65 51 66
REMARK SMILES IDX 38 67 41 68 50 69 64 70 39 71 40 72 49 74 65 75 42 76 31 77
REMARK SMILES IDX 32 78 36 79 33 80 35 81 34 82 53 83 54 84 58 85 55 86 57 87
REMARK SMILES IDX 56 88 43 89 44 90 48 91 45 92 47 93 46 94
REMARK H PARENT 10 14 76 28 80 33 63 62 41 73
REMARK Flexibility Score: inf
ROOT
ATOM      1  C   UNL     1       1.572  -3.186  -4.204  1.00  0.00     0.275 C 
ENDROOT
BRANCH   1   2
ATOM      2  O   UNL     1       1.472  -2.382  -3.050  1.00  0.00    -0.458 OA
BRANCH   2   3
ATOM      3  C   UNL     1       2.463  -1.512  -3.038  1.00  0.00     0.338 C 
ATOM      4  O   UNL     1       2.876  -0.870  -3.997  1.00  0.00    -0.246 OA
BRANCH   3   5
ATOM      5  C   UNL     1       3.031  -1.384  -1.617  1.00  0.00     0.062 A 
ATOM      6  C   UNL     1       3.381   1.431  -0.761  1.00  0.00     0.065 A 
ATOM      7  C   UNL     1       2.619   0.333  -1.670  1.00  0.00     0.044 A 
ATOM      8  C   UNL     1       4.842   1.070   0.206  1.00  0.00     0.061 A 
ATOM      9  C   UNL     1       5.482  -0.604   0.410  1.00  0.00     0.029 A 
ATOM     10  C   UNL     1       4.608  -1.986  -0.481  1.00  0.00     0.018 A 
BRANCH   6  11
ATOM     11  N   UNL     1       2.542   2.627  -0.580  1.00  0.00    -0.320 N 
ATOM     12  C   UNL     1       1.080   2.857  -0.648  1.00  0.00     0.255 C 
ATOM     13  O   UNL     1       0.696   4.020  -0.470  1.00  0.00    -0.269 OA
ATOM     14  H   UNL     1       3.057   3.440  -0.372  1.00  0.00     0.170 HD
BRANCH  12  15
ATOM     15  C   UNL     1      -0.073   1.786  -0.745  1.00  0.00     0.043 A 
ATOM     16  C   UNL     1       1.112   0.516   0.859  1.00  0.00     0.045 C 
ATOM     17  C   UNL     1       0.122   0.555  -0.195  1.00  0.00    -0.038 A 
ATOM     18  C   UNL     1      -0.524  -0.592  -0.673  1.00  0.00     0.004 A 
ATOM     19  C   UNL     1      -1.827  -0.467  -1.060  1.00  0.00     0.000 A 
ATOM     20  C   UNL     1      -1.439   1.951  -0.983  1.00  0.00     0.014 A 
ATOM     21  C   UNL     1      -2.326   0.824  -1.066  1.00  0.00     0.001 A 
ENDBRANCH  12  15
ENDBRANCH   6  11
BRANCH   8  22
ATOM     22  N   UNL     1       5.355   2.204   0.890  1.00  0.00    -0.359 N 
ATOM     23  C   UNL     1       6.730   2.691   1.210  1.00  0.00     0.178 C 
ATOM     24  C   UNL     1       4.456   2.636   1.938  1.00  0.00     0.178 C 
ATOM     25  C   UNL     1       6.700   4.257   1.520  1.00  0.00     0.284 C 
ATOM     26  C   UNL     1       4.455   4.223   2.037  1.00  0.00     0.284 C 
ATOM     27  N   UNL     1       5.708   4.765   2.476  1.00  0.00    -0.324 N 
ATOM     28  H   UNL     1       5.894   5.767   2.428  1.00  0.00     0.348 HD
BRANCH  27  29
ATOM     29  C   UNL     1       5.781   4.654   3.956  1.00  0.00     0.364 C 
BRANCH  29  30
ATOM     30  C   UNL     1       5.342   3.323   4.629  1.00  0.00     0.279 C 
ATOM     31  O   UNL     1       6.254   2.586   5.049  1.00  0.00    -0.268 OA
ATOM     32  N   UNL     1       4.056   2.846   4.874  1.00  0.00    -0.321 N 
ATOM     33  H   UNL     1       4.121   2.087   5.497  1.00  0.00     0.170 HD
BRANCH  32  34
ATOM     34  C   UNL     1       2.658   3.051   4.553  1.00  0.00     0.041 A 
ATOM     35  C   UNL     1       1.716   2.459   5.394  1.00  0.00     0.029 A 
ATOM     36  C   UNL     1       2.051   3.635   3.429  1.00  0.00     0.029 A 
ATOM     37  C   UNL     1       0.323   2.635   5.188  1.00  0.00     0.041 A 
ATOM     38  C   UNL     1       0.704   3.921   3.240  1.00  0.00     0.041 A 
ATOM     39  C   UNL     1      -0.166   3.420   4.150  1.00  0.00     0.123 A 
ATOM     40  F   UNL     1      -1.475   3.609   3.965  1.00  0.00    -0.207 F 
ENDBRANCH  32  34
ENDBRANCH  29  30
ENDBRANCH  27  29
ENDBRANCH   8  22
ENDBRANCH   3   5
ENDBRANCH   2   3
ENDBRANCH   1   2
BRANCH   1  41
ATOM     41  C   UNL     1       2.924  -3.230  -5.044  1.00  0.00     0.275 C 
BRANCH  41  42
ATOM     42  O   UNL     1       4.344  -3.319  -4.536  1.00  0.00    -0.458 OA
BRANCH  42  43
ATOM     43  C   UNL     1       5.244  -2.427  -3.921  1.00  0.00     0.338 C 
ATOM     44  O   UNL     1       6.445  -2.451  -4.157  1.00  0.00    -0.246 OA
BRANCH  43  45
ATOM     45  C   UNL     1       4.811  -2.015  -2.570  1.00  0.00     0.060 A 
ATOM     46  C   UNL     1       4.636  -0.499  -1.510  1.00  0.00     0.016 A 
ATOM     47  C   UNL     1       3.915  -3.438  -2.107  1.00  0.00     0.016 A 
ATOM     48  C   UNL     1       3.419  -0.774   0.098  1.00  0.00     0.010 A 
ATOM     49  C   UNL     1       2.858  -3.495  -0.902  1.00  0.00     0.010 A 
ATOM     50  C   UNL     1       2.557  -2.402   0.302  1.00  0.00    -0.014 A 
BRANCH  50  51
ATOM     51  C   UNL     1       1.382  -3.389   1.096  1.00  0.00     0.031 A 
ATOM     52  C   UNL     1       0.114  -2.705   1.674  1.00  0.00     0.074 A 
ATOM     53  C   UNL     1       1.335  -4.825   0.793  1.00  0.00     0.049 A 
ATOM     54  N   UNL     1      -1.056  -2.994   1.174  1.00  0.00    -0.248 NA
ATOM     55  C   UNL     1      -0.013  -1.536   2.607  1.00  0.00     0.031 C 
ATOM     56  C   UNL     1       0.349  -5.995   0.836  1.00  0.00     0.029 A 
ATOM     57  N   UNL     1       2.432  -5.656   0.351  1.00  0.00    -0.354 N 
ATOM     58  C   UNL     1      -2.014  -2.111   1.688  1.00  0.00     0.074 A 
ATOM     59  C   UNL     1      -1.266  -1.086   2.376  1.00  0.00     0.031 C 
ATOM     60  C   UNL     1       0.976  -7.194   1.028  1.00  0.00     0.029 A 
ATOM     61  C   UNL     1       2.385  -6.933   0.966  1.00  0.00     0.049 A 
ATOM     62  H   UNL     1       3.121  -5.373  -0.293  1.00  0.00     0.167 HD
ATOM     63  C   UNL     1      -3.186  -2.592   2.189  1.00  0.00     0.031 A 
ATOM     64  C   UNL     1       3.298  -7.249   1.919  1.00  0.00     0.031 A 
ATOM     65  C   UNL     1      -2.947  -3.959   2.592  1.00  0.00     0.049 A 
ATOM     66  C   UNL     1       2.589  -6.826   3.211  1.00  0.00     0.074 A 
ATOM     67  C   UNL     1      -3.030  -5.160   1.928  1.00  0.00     0.029 A 
ATOM     68  N   UNL     1      -2.050  -4.132   3.635  1.00  0.00    -0.354 N 
ATOM     69  N   UNL     1       1.623  -5.932   3.276  1.00  0.00    -0.248 NA
ATOM     70  C   UNL     1       2.733  -7.586   4.438  1.00  0.00     0.031 C 
ATOM     71  C   UNL     1      -2.080  -6.033   2.558  1.00  0.00     0.029 A 
ATOM     72  C   UNL     1      -1.405  -5.357   3.580  1.00  0.00     0.049 A 
ATOM     73  H   UNL     1      -1.889  -3.460   4.336  1.00  0.00     0.167 HD
ATOM     74  C   UNL     1       0.837  -6.199   4.357  1.00  0.00     0.074 A 
ATOM     75  C   UNL     1       1.614  -7.211   5.077  1.00  0.00     0.031 C 
ATOM     76  C   UNL     1      -0.415  -5.694   4.629  1.00  0.00     0.031 A 
BRANCH  63  77
ATOM     77  C   UNL     1      -4.532  -1.899   2.181  1.00  0.00    -0.014 A 
ATOM     78  C   UNL     1      -5.654  -2.696   2.488  1.00  0.00     0.009 A 
ATOM     79  C   UNL     1      -4.812  -0.581   1.759  1.00  0.00     0.009 A 
ATOM     80  C   UNL     1      -6.973  -2.245   2.347  1.00  0.00     0.001 A 
ATOM     81  C   UNL     1      -6.144  -0.117   1.627  1.00  0.00     0.001 A 
ATOM     82  C   UNL     1      -7.223  -0.953   1.912  1.00  0.00     0.000 A 
ENDBRANCH  63  77
BRANCH  64  83
ATOM     83  C   UNL     1       4.624  -6.793   1.389  1.00  0.00    -0.014 A 
ATOM     84  C   UNL     1       5.086  -7.315   0.131  1.00  0.00     0.009 A 
ATOM     85  C   UNL     1       4.972  -5.504   1.754  1.00  0.00     0.009 A 
ATOM     86  C   UNL     1       5.678  -6.475  -0.818  1.00  0.00     0.001 A 
ATOM     87  C   UNL     1       5.583  -4.697   0.814  1.00  0.00     0.001 A 
ATOM     88  C   UNL     1       5.923  -5.161  -0.470  1.00  0.00     0.000 A 
ENDBRANCH  64  83
BRANCH  76  89
ATOM     89  C   UNL     1      -0.806  -5.496   6.082  1.00  0.00    -0.014 A 
ATOM     90  C   UNL     1       0.108  -5.657   7.132  1.00  0.00     0.009 A 
ATOM     91  C   UNL     1      -2.079  -5.015   6.450  1.00  0.00     0.009 A 
ATOM     92  C   UNL     1      -0.275  -5.574   8.465  1.00  0.00     0.001 A 
ATOM     93  C   UNL     1      -2.425  -4.779   7.780  1.00  0.00     0.001 A 
ATOM     94  C   UNL     1      -1.543  -5.125   8.791  1.00  0.00     0.000 A 
ENDBRANCH  76  89
ENDBRANCH  50  51
ENDBRANCH  43  45
ENDBRANCH  42  43
ENDBRANCH  41  42
ENDBRANCH   1  41
TORSDOF 17
