REMARK SMILES Cc1cccc(N2C(=O)/C(=C/c3ccc(C(=O)OCCOC(=O)c4ccc(-c5c6nc(c(-c7ccccc7)c7ccc([nH]7)c(-c7ccccc7)c7nc(c(-c8ccccc8)c8ccc5[nH]8)C=C7)C=C6)cc4)cc3)c3ccccc3C2=O)c1
REMARK SMILES IDX 19 1 18 2 16 3 17 4 15 5 12 6 13 7 73 8 14 9 72 10 11 11
REMARK SMILES IDX 7 12 8 13 80 14 9 15 10 16 79 17 81 18 74 19 78 20 75 21
REMARK SMILES IDX 77 22 76 23 6 24 1 25 2 26 3 27 82 28 4 29 5 30 20 31 21 32
REMARK SMILES IDX 22 33 23 34 24 35 25 36 71 37 26 38 70 39 27 40 28 41 29 42
REMARK SMILES IDX 64 43 30 44 69 45 63 46 65 47 31 48 68 49 62 50 61 51 32 53
REMARK SMILES IDX 54 54 39 55 53 56 40 57 43 58 52 59 66 60 41 61 42 62 51 64
REMARK SMILES IDX 67 65 44 66 33 67 34 68 38 69 35 70 37 71 36 72 55 73 56 74
REMARK SMILES IDX 60 75 57 76 59 77 58 78 45 79 46 80 50 81 47 82 49 83 48 84
REMARK H PARENT 65 52 43 63
REMARK Flexibility Score: inf
ROOT
ATOM      1  C   UNL     1      -4.761  12.470   1.589  1.00  0.00     0.275 C 
ENDROOT
BRANCH   1   2
ATOM      2  O   UNL     1      -3.910  11.440   1.079  1.00  0.00    -0.458 OA
BRANCH   2   3
ATOM      3  C   UNL     1      -4.620  10.357   0.663  1.00  0.00     0.338 C 
ATOM      4  O   UNL     1      -5.821  10.202   0.833  1.00  0.00    -0.246 OA
BRANCH   3   5
ATOM      5  C   UNL     1      -3.782   9.329  -0.004  1.00  0.00     0.060 A 
ATOM      6  C   UNL     1      -2.293   7.108  -0.772  1.00  0.00    -0.025 A 
ATOM      7  C   UNL     1      -1.647   8.327  -0.545  1.00  0.00     0.009 A 
ATOM      8  C   UNL     1      -3.689   7.059  -0.839  1.00  0.00     0.009 A 
ATOM      9  C   UNL     1      -2.394   9.441  -0.151  1.00  0.00     0.016 A 
ATOM     10  C   UNL     1      -4.430   8.161  -0.426  1.00  0.00     0.016 A 
BRANCH   6  11
ATOM     11  C   UNL     1      -1.527   5.860  -0.686  1.00  0.00     0.022 C 
ATOM     12  N   UNL     1      -1.671   2.476   0.442  1.00  0.00    -0.242 N 
ATOM     13  C   UNL     1      -0.958   3.647   0.101  1.00  0.00     0.265 C 
ATOM     14  C   UNL     1      -3.027   2.544   0.838  1.00  0.00     0.265 C 
ATOM     15  O   UNL     1       0.170   3.727  -0.383  1.00  0.00    -0.268 OA
ATOM     16  C   UNL     1      -1.727   4.920   0.271  1.00  0.00     0.049 C 
ATOM     17  C   UNL     1      -3.473   3.789   1.509  1.00  0.00     0.048 A 
ATOM     18  O   UNL     1      -3.894   1.684   0.702  1.00  0.00    -0.268 OA
ATOM     19  C   UNL     1      -2.749   4.959   1.323  1.00  0.00    -0.000 A 
ATOM     20  C   UNL     1      -4.615   3.784   2.325  1.00  0.00     0.014 A 
ATOM     21  C   UNL     1      -3.086   6.091   2.079  1.00  0.00     0.010 A 
ATOM     22  C   UNL     1      -5.004   4.945   2.993  1.00  0.00     0.001 A 
ATOM     23  C   UNL     1      -4.225   6.093   2.888  1.00  0.00     0.001 A 
BRANCH  12  24
ATOM     24  C   UNL     1      -1.027   1.174   0.261  1.00  0.00     0.053 A 
ATOM     25  C   UNL     1       2.526  -0.258  -0.029  1.00  0.00     0.044 C 
ATOM     26  C   UNL     1       1.028  -0.187   0.034  1.00  0.00    -0.049 A 
ATOM     27  C   UNL     1       0.267  -1.347  -0.073  1.00  0.00     0.003 A 
ATOM     28  C   UNL     1       0.377   1.046   0.222  1.00  0.00     0.030 A 
ATOM     29  C   UNL     1      -1.116  -1.267  -0.007  1.00  0.00     0.002 A 
ATOM     30  C   UNL     1      -1.749  -0.027   0.155  1.00  0.00     0.027 A 
ENDBRANCH  12  24
ENDBRANCH   6  11
ENDBRANCH   3   5
ENDBRANCH   2   3
ENDBRANCH   1   2
BRANCH   1  31
ATOM     31  C   UNL     1      -4.088  13.846   1.684  1.00  0.00     0.275 C 
BRANCH  31  32
ATOM     32  O   UNL     1      -2.913  14.149   0.876  1.00  0.00    -0.458 OA
BRANCH  32  33
ATOM     33  C   UNL     1      -2.550  13.689  -0.343  1.00  0.00     0.338 C 
ATOM     34  O   UNL     1      -1.376  13.654  -0.703  1.00  0.00    -0.246 OA
BRANCH  33  35
ATOM     35  C   UNL     1      -3.603  13.193  -1.235  1.00  0.00     0.060 A 
ATOM     36  C   UNL     1      -3.343  12.085  -2.062  1.00  0.00     0.016 A 
ATOM     37  C   UNL     1      -4.867  13.763  -1.170  1.00  0.00     0.016 A 
ATOM     38  C   UNL     1      -4.385  11.476  -2.750  1.00  0.00     0.010 A 
ATOM     39  C   UNL     1      -5.915  13.083  -1.726  1.00  0.00     0.010 A 
ATOM     40  C   UNL     1      -5.668  11.980  -2.556  1.00  0.00    -0.014 A 
BRANCH  40  41
ATOM     41  C   UNL     1      -6.796  11.665  -3.410  1.00  0.00     0.031 A 
ATOM     42  C   UNL     1      -7.582  10.431  -3.232  1.00  0.00     0.074 A 
ATOM     43  C   UNL     1      -7.105  12.704  -4.222  1.00  0.00     0.049 A 
ATOM     44  N   UNL     1      -8.221   9.833  -4.177  1.00  0.00    -0.248 NA
ATOM     45  C   UNL     1      -7.687   9.720  -1.957  1.00  0.00     0.031 C 
ATOM     46  C   UNL     1      -8.302  12.979  -4.988  1.00  0.00     0.029 A 
ATOM     47  N   UNL     1      -6.253  13.765  -4.582  1.00  0.00    -0.354 N 
ATOM     48  C   UNL     1      -9.109   8.968  -3.561  1.00  0.00     0.074 A 
ATOM     49  C   UNL     1      -8.601   8.778  -2.228  1.00  0.00     0.031 C 
ATOM     50  C   UNL     1      -7.991  13.874  -5.949  1.00  0.00     0.029 A 
ATOM     51  C   UNL     1      -6.544  14.063  -5.908  1.00  0.00     0.049 A 
ATOM     52  H   UNL     1      -5.586  14.208  -4.010  1.00  0.00     0.167 HD
ATOM     53  C   UNL     1     -10.319   8.734  -4.147  1.00  0.00     0.031 A 
ATOM     54  C   UNL     1      -5.665  13.750  -6.909  1.00  0.00     0.031 A 
ATOM     55  C   UNL     1     -10.430   9.523  -5.367  1.00  0.00     0.049 A 
ATOM     56  C   UNL     1      -6.310  12.751  -7.843  1.00  0.00     0.074 A 
ATOM     57  C   UNL     1     -11.024  10.753  -5.595  1.00  0.00     0.029 A 
ATOM     58  N   UNL     1      -9.570   9.283  -6.426  1.00  0.00    -0.354 N 
ATOM     59  N   UNL     1      -7.104  11.793  -7.444  1.00  0.00    -0.248 NA
ATOM     60  C   UNL     1      -6.183  12.821  -9.294  1.00  0.00     0.031 C 
ATOM     61  C   UNL     1     -10.463  11.286  -6.781  1.00  0.00     0.029 A 
ATOM     62  C   UNL     1      -9.533  10.379  -7.261  1.00  0.00     0.049 A 
ATOM     63  H   UNL     1      -9.060   8.451  -6.561  1.00  0.00     0.167 HD
ATOM     64  C   UNL     1      -7.699  11.232  -8.545  1.00  0.00     0.074 A 
ATOM     65  C   UNL     1      -7.047  11.866  -9.678  1.00  0.00     0.031 C 
ATOM     66  C   UNL     1      -8.737  10.349  -8.473  1.00  0.00     0.031 A 
BRANCH  53  67
ATOM     67  C   UNL     1     -11.536   8.124  -3.486  1.00  0.00    -0.014 A 
ATOM     68  C   UNL     1     -12.813   8.439  -4.002  1.00  0.00     0.009 A 
ATOM     69  C   UNL     1     -11.520   7.260  -2.380  1.00  0.00     0.009 A 
ATOM     70  C   UNL     1     -14.000   7.987  -3.416  1.00  0.00     0.001 A 
ATOM     71  C   UNL     1     -12.710   6.808  -1.780  1.00  0.00     0.001 A 
ATOM     72  C   UNL     1     -13.949   7.179  -2.292  1.00  0.00     0.000 A 
ENDBRANCH  53  67
BRANCH  54  73
ATOM     73  C   UNL     1      -4.220  13.730  -6.505  1.00  0.00    -0.014 A 
ATOM     74  C   UNL     1      -3.641  14.926  -6.025  1.00  0.00     0.009 A 
ATOM     75  C   UNL     1      -3.530  12.530  -6.271  1.00  0.00     0.009 A 
ATOM     76  C   UNL     1      -2.487  14.909  -5.231  1.00  0.00     0.001 A 
ATOM     77  C   UNL     1      -2.358  12.521  -5.496  1.00  0.00     0.001 A 
ATOM     78  C   UNL     1      -1.861  13.702  -4.945  1.00  0.00     0.000 A 
ENDBRANCH  54  73
BRANCH  66  79
ATOM     79  C   UNL     1      -9.204   9.438  -9.577  1.00  0.00    -0.014 A 
ATOM     80  C   UNL     1      -8.433   9.118 -10.697  1.00  0.00     0.009 A 
ATOM     81  C   UNL     1     -10.414   8.720  -9.411  1.00  0.00     0.009 A 
ATOM     82  C   UNL     1      -8.870   8.171 -11.630  1.00  0.00     0.001 A 
ATOM     83  C   UNL     1     -10.822   7.731 -10.302  1.00  0.00     0.001 A 
ATOM     84  C   UNL     1     -10.055   7.469 -11.425  1.00  0.00     0.000 A 
ENDBRANCH  66  79
ENDBRANCH  40  41
ENDBRANCH  33  35
ENDBRANCH  32  33
ENDBRANCH  31  32
ENDBRANCH   1  31
TORSDOF 13
