REMARK SMILES Nc1ccc(-c2cc(Cl)cc3c2O[C@H](C(F)(F)F)C(C(=O)OCCOC(=O)c2ccc(-c4c5nc(c(-c6ccccc6)c6ccc([nH]6)c(-c6ccccc6)c6nc(c(-c7ccccc7)c7ccc4[nH]7)C=C6)C=C5)cc2)=C3)cc1
REMARK SMILES IDX 23 1 22 2 20 3 21 4 19 5 6 6 7 7 12 8 8 9 11 10 13 11 9 12
REMARK SMILES IDX 10 13 76 14 14 15 5 16 2 17 3 18 78 19 4 20 77 21 1 22 15 25
REMARK SMILES IDX 16 26 17 27 18 28 24 29 25 30 26 31 27 32 28 33 29 34 75 35
REMARK SMILES IDX 30 36 74 37 31 38 32 39 33 40 68 41 34 42 73 43 67 44 69 45
REMARK SMILES IDX 35 46 72 47 66 48 65 49 36 51 58 52 43 53 57 54 44 55 47 56
REMARK SMILES IDX 56 57 70 58 45 59 46 60 55 62 71 63 48 64 37 65 38 66 42 67
REMARK SMILES IDX 39 68 41 69 40 70 59 71 60 72 64 73 61 74 63 75 62 76 49 77
REMARK SMILES IDX 50 78 54 79 51 80 53 81 52 82
REMARK H PARENT 1 23 1 24 69 50 47 61
REMARK Flexibility Score: inf
ROOT
ATOM      1  C   UNL     1      -6.121  -3.491   6.159  1.00  0.00     0.275 C 
ENDROOT
BRANCH   1   2
ATOM      2  O   UNL     1      -5.445  -2.742   5.125  1.00  0.00    -0.459 OA
BRANCH   2   3
ATOM      3  C   UNL     1      -5.857  -2.980   3.859  1.00  0.00     0.338 C 
ATOM      4  O   UNL     1      -6.731  -3.756   3.507  1.00  0.00    -0.246 OA
BRANCH   3   5
ATOM      5  C   UNL     1      -5.122  -2.118   2.912  1.00  0.00     0.087 C 
ATOM      6  C   UNL     1      -3.011   0.042  -0.001  1.00  0.00     0.026 A 
ATOM      7  C   UNL     1      -3.744   0.690  -1.014  1.00  0.00     0.033 A 
ATOM      8  C   UNL     1      -3.717  -0.638   1.013  1.00  0.00     0.135 A 
ATOM      9  C   UNL     1      -5.136   0.658  -1.017  1.00  0.00     0.042 A 
ATOM     10  C   UNL     1      -5.111  -0.698   0.976  1.00  0.00     0.019 A 
ATOM     11  O   UNL     1      -2.988  -1.192   2.034  1.00  0.00    -0.475 OA
ATOM     12  Cl  UNL     1      -6.011   1.463  -2.259  1.00  0.00    -0.084 Cl
ATOM     13  C   UNL     1      -5.823  -0.037  -0.030  1.00  0.00     0.032 A 
ATOM     14  C   UNL     1      -5.821  -1.477   1.969  1.00  0.00     0.027 C 
ATOM     15  C   UNL     1      -3.623  -2.098   2.971  1.00  0.00     0.316 C 
BRANCH   6  16
ATOM     16  C   UNL     1      -1.541   0.052  -0.043  1.00  0.00    -0.014 A 
ATOM     17  C   UNL     1       1.287   0.048  -0.061  1.00  0.00     0.031 A 
ATOM     18  C   UNL     1       0.577  -1.150  -0.120  1.00  0.00     0.026 A 
ATOM     19  C   UNL     1       0.576   1.248  -0.055  1.00  0.00     0.026 A 
ATOM     20  C   UNL     1      -0.820  -1.150  -0.103  1.00  0.00     0.011 A 
ATOM     21  C   UNL     1      -0.822   1.254  -0.034  1.00  0.00     0.011 A 
BRANCH  17  22
ATOM     22  N   UNL     1       2.670   0.047  -0.137  1.00  0.00    -0.399 N 
ATOM     23  H   UNL     1       3.163  -0.805  -0.141  1.00  0.00     0.156 HD
ATOM     24  H   UNL     1       3.161   0.899  -0.188  1.00  0.00     0.156 HD
ENDBRANCH  17  22
ENDBRANCH   6  16
BRANCH  15  25
ATOM     25  C   UNL     1      -3.041  -3.505   2.763  1.00  0.00     0.430 C 
ATOM     26  F   UNL     1      -1.688  -3.494   2.789  1.00  0.00    -0.167 F 
ATOM     27  F   UNL     1      -3.441  -4.360   3.735  1.00  0.00    -0.167 F 
ATOM     28  F   UNL     1      -3.418  -4.038   1.577  1.00  0.00    -0.167 F 
ENDBRANCH  15  25
ENDBRANCH   3   5
ENDBRANCH   2   3
ENDBRANCH   1   2
BRANCH   1  29
ATOM     29  C   UNL     1      -7.120  -2.615   6.916  1.00  0.00     0.275 C 
BRANCH  29  30
ATOM     30  O   UNL     1      -8.215  -2.260   6.053  1.00  0.00    -0.458 OA
BRANCH  30  31
ATOM     31  C   UNL     1      -8.274  -0.961   5.681  1.00  0.00     0.338 C 
ATOM     32  O   UNL     1      -7.541  -0.050   6.024  1.00  0.00    -0.246 OA
BRANCH  31  33
ATOM     33  C   UNL     1      -9.337  -0.798   4.680  1.00  0.00     0.060 A 
ATOM     34  C   UNL     1     -10.477  -0.048   4.941  1.00  0.00     0.016 A 
ATOM     35  C   UNL     1      -9.115  -1.302   3.404  1.00  0.00     0.016 A 
ATOM     36  C   UNL     1     -11.400   0.165   3.909  1.00  0.00     0.010 A 
ATOM     37  C   UNL     1      -9.951  -0.962   2.348  1.00  0.00     0.010 A 
ATOM     38  C   UNL     1     -11.134  -0.259   2.590  1.00  0.00    -0.014 A 
BRANCH  38  39
ATOM     39  C   UNL     1     -12.081   0.017   1.471  1.00  0.00     0.031 A 
ATOM     40  C   UNL     1     -12.629  -1.104   0.616  1.00  0.00     0.074 A 
ATOM     41  C   UNL     1     -12.429   1.290   1.192  1.00  0.00     0.049 A 
ATOM     42  N   UNL     1     -13.490  -1.040  -0.372  1.00  0.00    -0.248 NA
ATOM     43  C   UNL     1     -12.123  -2.464   0.865  1.00  0.00     0.031 C 
ATOM     44  C   UNL     1     -11.899   2.479   1.864  1.00  0.00     0.029 A 
ATOM     45  N   UNL     1     -13.330   1.798   0.287  1.00  0.00    -0.354 N 
ATOM     46  C   UNL     1     -13.597  -2.334  -0.870  1.00  0.00     0.074 A 
ATOM     47  C   UNL     1     -12.665  -3.150  -0.129  1.00  0.00     0.031 C 
ATOM     48  C   UNL     1     -12.548   3.564   1.416  1.00  0.00     0.029 A 
ATOM     49  C   UNL     1     -13.508   3.157   0.395  1.00  0.00     0.049 A 
ATOM     50  H   UNL     1     -13.803   1.242  -0.373  1.00  0.00     0.167 HD
ATOM     51  C   UNL     1     -14.426  -2.815  -1.826  1.00  0.00     0.031 A 
ATOM     52  C   UNL     1     -14.365   3.985  -0.234  1.00  0.00     0.031 A 
ATOM     53  C   UNL     1     -15.401  -2.019  -2.520  1.00  0.00     0.049 A 
ATOM     54  C   UNL     1     -15.331   3.422  -1.238  1.00  0.00     0.074 A 
ATOM     55  C   UNL     1     -16.351  -2.433  -3.436  1.00  0.00     0.029 A 
ATOM     56  N   UNL     1     -15.560  -0.652  -2.361  1.00  0.00    -0.354 N 
ATOM     57  N   UNL     1     -15.478   2.180  -1.629  1.00  0.00    -0.248 NA
ATOM     58  C   UNL     1     -16.257   4.369  -1.876  1.00  0.00     0.031 C 
ATOM     59  C   UNL     1     -17.059  -1.308  -3.865  1.00  0.00     0.029 A 
ATOM     60  C   UNL     1     -16.587  -0.204  -3.172  1.00  0.00     0.049 A 
ATOM     61  H   UNL     1     -15.023  -0.085  -1.761  1.00  0.00     0.167 HD
ATOM     62  C   UNL     1     -16.521   2.192  -2.546  1.00  0.00     0.074 A 
ATOM     63  C   UNL     1     -16.985   3.561  -2.638  1.00  0.00     0.031 C 
ATOM     64  C   UNL     1     -17.041   1.159  -3.251  1.00  0.00     0.031 A 
BRANCH  51  65
ATOM     65  C   UNL     1     -14.355  -4.283  -2.153  1.00  0.00    -0.014 A 
ATOM     66  C   UNL     1     -13.930  -4.701  -3.425  1.00  0.00     0.009 A 
ATOM     67  C   UNL     1     -14.788  -5.252  -1.233  1.00  0.00     0.009 A 
ATOM     68  C   UNL     1     -13.943  -6.054  -3.768  1.00  0.00     0.001 A 
ATOM     69  C   UNL     1     -14.769  -6.607  -1.568  1.00  0.00     0.001 A 
ATOM     70  C   UNL     1     -14.356  -7.007  -2.837  1.00  0.00     0.000 A 
ENDBRANCH  51  65
BRANCH  52  71
ATOM     71  C   UNL     1     -14.394   5.424   0.140  1.00  0.00    -0.014 A 
ATOM     72  C   UNL     1     -13.336   6.280  -0.203  1.00  0.00     0.009 A 
ATOM     73  C   UNL     1     -15.457   5.933   0.903  1.00  0.00     0.009 A 
ATOM     74  C   UNL     1     -13.330   7.609   0.230  1.00  0.00     0.001 A 
ATOM     75  C   UNL     1     -15.462   7.269   1.311  1.00  0.00     0.001 A 
ATOM     76  C   UNL     1     -14.394   8.102   0.983  1.00  0.00     0.000 A 
ENDBRANCH  52  71
BRANCH  64  77
ATOM     77  C   UNL     1     -18.182   1.445  -4.185  1.00  0.00    -0.014 A 
ATOM     78  C   UNL     1     -19.463   0.953  -3.890  1.00  0.00     0.009 A 
ATOM     79  C   UNL     1     -17.964   2.090  -5.411  1.00  0.00     0.009 A 
ATOM     80  C   UNL     1     -20.501   1.083  -4.814  1.00  0.00     0.001 A 
ATOM     81  C   UNL     1     -19.011   2.242  -6.322  1.00  0.00     0.001 A 
ATOM     82  C   UNL     1     -20.274   1.730  -6.028  1.00  0.00     0.000 A 
ENDBRANCH  64  77
ENDBRANCH  38  39
ENDBRANCH  31  33
ENDBRANCH  30  31
ENDBRANCH  29  30
ENDBRANCH   1  29
TORSDOF 14
