REMARK SMILES O=C(OCCOC(=O)c1ccc(-c2c3nc(c(-c4ccccc4)c4ccc([nH]4)c(-c4ccccc4)c4nc(c(-c5ccccc5)c5ccc2[nH]5)C=C4)C=C3)cc1)c1ccc(Nc2ccc(F)cc2[N+](=O)[O-])cc1
REMARK SMILES IDX 4 1 3 2 2 3 1 4 57 5 58 6 73 7 59 8 72 9 60 10 61 11 62 13
REMARK SMILES IDX 63 14 68 15 64 16 67 17 65 18 66 19 69 20 70 21 71 22 5 23
REMARK SMILES IDX 6 24 7 25 8 26 9 27 10 28 56 29 11 30 55 31 12 32 13 33
REMARK SMILES IDX 14 34 49 35 15 36 54 37 48 38 50 39 16 40 53 41 47 42 46 43
REMARK SMILES IDX 17 45 39 46 24 47 38 48 25 49 28 50 37 51 51 52 26 53 27 54
REMARK SMILES IDX 36 56 52 57 29 58 18 59 19 60 23 61 20 62 22 63 21 64 40 65
REMARK SMILES IDX 41 66 45 67 42 68 44 69 43 70 30 71 31 72 35 73 32 74 34 75
REMARK SMILES IDX 33 76
REMARK H PARENT 61 12 50 44 28 55
REMARK Flexibility Score: inf
ROOT
ATOM      1  C   UNL     1       3.987   1.183  -1.020  1.00  0.00     0.275 C 
ENDROOT
BRANCH   1   2
ATOM      2  O   UNL     1       2.908   0.231  -1.088  1.00  0.00    -0.458 OA
BRANCH   2   3
ATOM      3  C   UNL     1       2.737  -0.978  -0.505  1.00  0.00     0.338 C 
ATOM      4  O   UNL     1       1.724  -1.616  -0.798  1.00  0.00    -0.246 OA
BRANCH   3   5
ATOM      5  C   UNL     1       3.651  -1.587   0.524  1.00  0.00     0.060 A 
ATOM      6  C   UNL     1       4.907  -1.119   0.899  1.00  0.00     0.018 A 
ATOM      7  C   UNL     1       3.174  -2.729   1.200  1.00  0.00     0.018 A 
ATOM      8  C   UNL     1       5.635  -1.726   1.930  1.00  0.00     0.027 A 
ATOM      9  C   UNL     1       3.910  -3.347   2.226  1.00  0.00     0.027 A 
ATOM     10  C   UNL     1       5.154  -2.848   2.608  1.00  0.00     0.039 A 
BRANCH  10  11
ATOM     11  N   UNL     1       5.854  -3.414   3.688  1.00  0.00    -0.350 N 
ATOM     12  H   UNL     1       5.498  -4.257   4.051  1.00  0.00     0.167 HD
BRANCH  11  13
ATOM     13  C   UNL     1       7.010  -2.902   4.304  1.00  0.00     0.118 A 
ATOM     14  C   UNL     1       8.241  -3.524   4.055  1.00  0.00     0.036 A 
ATOM     15  C   UNL     1       7.027  -1.723   5.072  1.00  0.00     0.295 A 
ATOM     16  C   UNL     1       9.434  -2.953   4.512  1.00  0.00     0.042 A 
ATOM     17  C   UNL     1       8.211  -1.137   5.530  1.00  0.00     0.127 A 
ATOM     18  C   UNL     1       9.408  -1.761   5.231  1.00  0.00     0.130 A 
ATOM     19  F   UNL     1      10.556  -1.211   5.642  1.00  0.00    -0.207 F 
BRANCH  15  20
ATOM     20  N   UNL     1       5.788  -1.097   5.475  1.00  0.00     0.065 N 
ATOM     21  O   UNL     1       5.666   0.113   5.232  1.00  0.00    -0.258 OA
ATOM     22  O   UNL     1       4.977  -1.791   6.102  1.00  0.00    -0.258 OA
ENDBRANCH  15  20
ENDBRANCH  11  13
ENDBRANCH  10  11
ENDBRANCH   3   5
ENDBRANCH   2   3
ENDBRANCH   1   2
BRANCH   1  23
ATOM     23  C   UNL     1       3.910   2.135   0.180  1.00  0.00     0.275 C 
BRANCH  23  24
ATOM     24  O   UNL     1       3.508   1.473   1.388  1.00  0.00    -0.458 OA
BRANCH  24  25
ATOM     25  C   UNL     1       2.169   1.478   1.621  1.00  0.00     0.338 C 
ATOM     26  O   UNL     1       1.324   2.072   0.971  1.00  0.00    -0.246 OA
BRANCH  25  27
ATOM     27  C   UNL     1       1.838   0.544   2.722  1.00  0.00     0.060 A 
ATOM     28  C   UNL     1       0.662  -0.209   2.628  1.00  0.00     0.016 A 
ATOM     29  C   UNL     1       2.645   0.424   3.851  1.00  0.00     0.016 A 
ATOM     30  C   UNL     1       0.269  -1.042   3.684  1.00  0.00     0.010 A 
ATOM     31  C   UNL     1       2.257  -0.427   4.894  1.00  0.00     0.010 A 
ATOM     32  C   UNL     1       1.048  -1.139   4.846  1.00  0.00    -0.014 A 
BRANCH  32  33
ATOM     33  C   UNL     1       0.542  -1.870   6.046  1.00  0.00     0.031 A 
ATOM     34  C   UNL     1       0.175  -1.101   7.295  1.00  0.00     0.074 A 
ATOM     35  C   UNL     1       0.382  -3.209   6.046  1.00  0.00     0.049 A 
ATOM     36  N   UNL     1      -0.388  -1.531   8.400  1.00  0.00    -0.248 NA
ATOM     37  C   UNL     1       0.493   0.335   7.310  1.00  0.00     0.031 C 
ATOM     38  C   UNL     1       0.720  -4.109   4.945  1.00  0.00     0.029 A 
ATOM     39  N   UNL     1      -0.122  -4.046   7.016  1.00  0.00    -0.354 N 
ATOM     40  C   UNL     1      -0.483  -0.422   9.233  1.00  0.00     0.074 A 
ATOM     41  C   UNL     1       0.140   0.681   8.537  1.00  0.00     0.031 C 
ATOM     42  C   UNL     1       0.387  -5.367   5.288  1.00  0.00     0.029 A 
ATOM     43  C   UNL     1      -0.180  -5.366   6.636  1.00  0.00     0.049 A 
ATOM     44  H   UNL     1      -0.415  -3.729   7.901  1.00  0.00     0.167 HD
ATOM     45  C   UNL     1      -1.062  -0.308  10.453  1.00  0.00     0.031 A 
ATOM     46  C   UNL     1      -0.654  -6.448   7.286  1.00  0.00     0.031 A 
ATOM     47  C   UNL     1      -1.694  -1.384  11.167  1.00  0.00     0.049 A 
ATOM     48  C   UNL     1      -1.275  -6.305   8.653  1.00  0.00     0.074 A 
ATOM     49  C   UNL     1      -2.367  -1.337  12.376  1.00  0.00     0.029 A 
ATOM     50  N   UNL     1      -1.719  -2.702  10.745  1.00  0.00    -0.354 N 
ATOM     51  N   UNL     1      -1.466  -5.226   9.372  1.00  0.00    -0.248 NA
ATOM     52  C   UNL     1      -1.775  -7.538   9.285  1.00  0.00     0.031 C 
ATOM     53  C   UNL     1      -2.752  -2.639  12.714  1.00  0.00     0.029 A 
ATOM     54  C   UNL     1      -2.373  -3.484  11.684  1.00  0.00     0.049 A 
ATOM     55  H   UNL     1      -1.330  -3.035   9.904  1.00  0.00     0.167 HD
ATOM     56  C   UNL     1      -2.150  -5.643  10.510  1.00  0.00     0.074 A 
ATOM     57  C   UNL     1      -2.345  -7.071  10.386  1.00  0.00     0.031 C 
ATOM     58  C   UNL     1      -2.583  -4.902  11.559  1.00  0.00     0.031 A 
BRANCH  45  59
ATOM     59  C   UNL     1      -1.038   1.051  11.097  1.00  0.00    -0.014 A 
ATOM     60  C   UNL     1      -1.801   2.112  10.580  1.00  0.00     0.009 A 
ATOM     61  C   UNL     1      -0.261   1.268  12.244  1.00  0.00     0.009 A 
ATOM     62  C   UNL     1      -1.747   3.375  11.171  1.00  0.00     0.001 A 
ATOM     63  C   UNL     1      -0.235   2.524  12.853  1.00  0.00     0.001 A 
ATOM     64  C   UNL     1      -0.967   3.579  12.308  1.00  0.00     0.000 A 
ENDBRANCH  45  59
BRANCH  46  65
ATOM     65  C   UNL     1      -0.614  -7.789   6.642  1.00  0.00    -0.014 A 
ATOM     66  C   UNL     1      -1.802  -8.409   6.220  1.00  0.00     0.009 A 
ATOM     67  C   UNL     1       0.597  -8.483   6.506  1.00  0.00     0.009 A 
ATOM     68  C   UNL     1      -1.783  -9.711   5.716  1.00  0.00     0.001 A 
ATOM     69  C   UNL     1       0.617  -9.774   5.974  1.00  0.00     0.001 A 
ATOM     70  C   UNL     1      -0.574 -10.392   5.592  1.00  0.00     0.000 A 
ENDBRANCH  46  65
BRANCH  58  71
ATOM     71  C   UNL     1      -3.371  -5.600  12.636  1.00  0.00    -0.014 A 
ATOM     72  C   UNL     1      -2.770  -6.511  13.519  1.00  0.00     0.009 A 
ATOM     73  C   UNL     1      -4.735  -5.304  12.796  1.00  0.00     0.009 A 
ATOM     74  C   UNL     1      -3.527  -7.138  14.513  1.00  0.00     0.001 A 
ATOM     75  C   UNL     1      -5.481  -5.907  13.810  1.00  0.00     0.001 A 
ATOM     76  C   UNL     1      -4.880  -6.831  14.661  1.00  0.00     0.000 A 
ENDBRANCH  58  71
ENDBRANCH  32  33
ENDBRANCH  25  27
ENDBRANCH  24  25
ENDBRANCH  23  24
ENDBRANCH   1  23
TORSDOF 14
