REMARK SMILES C[C@H]1CCc2sc3ncn4nc(/C=C\C(=O)OCCOC(=O)c5ccc(-c6c7nc(c(-c8ccccc8)c8ccc([nH]8)c(-c8ccccc8)c8nc(c(-c9ccccc9)c9ccc6[nH]9)C=C8)C=C7)cc5)nc4c3c2C1
REMARK SMILES IDX 19 1 18 2 17 3 15 4 16 5 14 6 13 7 12 8 1 9 2 10 3 11 75 12
REMARK SMILES IDX 4 13 74 14 5 15 73 16 6 17 7 18 72 19 8 20 10 21 71 22 9 23
REMARK SMILES IDX 11 24 20 25 21 26 22 27 23 28 24 29 70 30 25 31 69 32 26 33
REMARK SMILES IDX 27 34 28 35 63 36 29 37 68 38 62 39 64 40 30 41 67 42 61 43
REMARK SMILES IDX 60 44 31 46 53 47 38 48 52 49 39 50 42 51 51 52 65 53 40 54
REMARK SMILES IDX 41 55 50 57 66 58 43 59 32 60 33 61 37 62 34 63 36 64 35 65
REMARK SMILES IDX 54 66 55 67 59 68 56 69 58 70 57 71 44 72 45 73 49 74 46 75
REMARK SMILES IDX 48 76 47 77
REMARK H PARENT 64 45 42 56
REMARK Flexibility Score: inf
ROOT
ATOM      1  C   UNL     1       2.044  -1.729   1.825  1.00  0.00     0.275 C 
ENDROOT
BRANCH   1   2
ATOM      2  C   UNL     1       3.401  -1.847   1.158  1.00  0.00     0.275 C 
BRANCH   2   3
ATOM      3  O   UNL     1       3.977  -3.034   1.683  1.00  0.00    -0.459 OA
BRANCH   3   4
ATOM      4  C   UNL     1       5.301  -3.130   1.779  1.00  0.00     0.331 C 
ATOM      5  O   UNL     1       6.120  -2.244   1.610  1.00  0.00    -0.247 OA
BRANCH   4   6
ATOM      6  C   UNL     1       5.638  -4.493   2.213  1.00  0.00     0.097 C 
ATOM      7  C   UNL     1       5.020  -5.636   1.871  1.00  0.00     0.058 C 
BRANCH   7   8
ATOM      8  C   UNL     1       3.909  -5.923   1.006  1.00  0.00     0.175 A 
ATOM      9  C   UNL     1       0.673  -1.038  -2.964  1.00  0.00     0.008 C 
ATOM     10  C   UNL     1       0.082  -1.508  -1.635  1.00  0.00    -0.009 C 
ATOM     11  C   UNL     1      -1.415  -1.853  -1.745  1.00  0.00     0.009 C 
ATOM     12  C   UNL     1       0.893  -2.678  -1.047  1.00  0.00     0.041 C 
ATOM     13  C   UNL     1      -1.683  -3.147  -2.533  1.00  0.00     0.047 C 
ATOM     14  C   UNL     1       0.433  -4.041  -1.415  1.00  0.00    -0.020 A 
ATOM     15  C   UNL     1      -0.761  -4.240  -2.079  1.00  0.00     0.011 A 
ATOM     16  C   UNL     1       1.021  -5.283  -1.048  1.00  0.00     0.060 A 
ATOM     17  S   UNL     1      -1.106  -5.889  -2.331  1.00  0.00    -0.120 S 
ATOM     18  C   UNL     1       0.293  -6.386  -1.478  1.00  0.00     0.129 A 
ATOM     19  C   UNL     1       2.223  -5.645  -0.250  1.00  0.00     0.168 A 
ATOM     20  N   UNL     1       0.567  -7.717  -1.264  1.00  0.00    -0.225 NA
ATOM     21  N   UNL     1       2.434  -6.971  -0.022  1.00  0.00    -0.201 N 
ATOM     22  N   UNL     1       3.168  -4.954   0.341  1.00  0.00    -0.207 NA
ATOM     23  C   UNL     1       1.622  -7.978  -0.534  1.00  0.00     0.227 A 
ATOM     24  N   UNL     1       3.499  -7.183   0.767  1.00  0.00    -0.145 NA
ENDBRANCH   7   8
ENDBRANCH   4   6
ENDBRANCH   3   4
ENDBRANCH   2   3
ENDBRANCH   1   2
BRANCH   1  25
ATOM     25  O   UNL     1       2.228  -1.066   3.055  1.00  0.00    -0.458 OA
BRANCH  25  26
ATOM     26  C   UNL     1       2.826  -1.758   4.044  1.00  0.00     0.338 C 
ATOM     27  O   UNL     1       3.037  -2.949   4.134  1.00  0.00    -0.246 OA
BRANCH  26  28
ATOM     28  C   UNL     1       3.040  -0.776   5.104  1.00  0.00     0.060 A 
ATOM     29  C   UNL     1       3.358  -1.288   6.358  1.00  0.00     0.016 A 
ATOM     30  C   UNL     1       2.605   0.548   4.905  1.00  0.00     0.016 A 
ATOM     31  C   UNL     1       2.971  -0.554   7.447  1.00  0.00     0.010 A 
ATOM     32  C   UNL     1       2.174   1.256   5.986  1.00  0.00     0.010 A 
ATOM     33  C   UNL     1       2.284   0.646   7.227  1.00  0.00    -0.014 A 
BRANCH  33  34
ATOM     34  C   UNL     1       1.692   1.284   8.365  1.00  0.00     0.031 A 
ATOM     35  C   UNL     1       2.654   2.044   9.171  1.00  0.00     0.074 A 
ATOM     36  C   UNL     1       0.374   1.258   8.602  1.00  0.00     0.049 A 
ATOM     37  N   UNL     1       3.090   1.754  10.348  1.00  0.00    -0.248 NA
ATOM     38  C   UNL     1       3.323   3.178   8.518  1.00  0.00     0.031 C 
ATOM     39  C   UNL     1      -0.718   0.857   7.714  1.00  0.00     0.029 A 
ATOM     40  N   UNL     1      -0.261   1.721   9.702  1.00  0.00    -0.354 N 
ATOM     41  C   UNL     1       3.989   2.761  10.657  1.00  0.00     0.074 A 
ATOM     42  C   UNL     1       4.218   3.508   9.445  1.00  0.00     0.031 C 
ATOM     43  C   UNL     1      -1.884   1.315   8.230  1.00  0.00     0.029 A 
ATOM     44  C   UNL     1      -1.618   1.905   9.534  1.00  0.00     0.049 A 
ATOM     45  H   UNL     1       0.205   1.911  10.549  1.00  0.00     0.167 HD
ATOM     46  C   UNL     1       4.314   3.062  11.939  1.00  0.00     0.031 A 
ATOM     47  C   UNL     1      -2.414   2.592  10.384  1.00  0.00     0.031 A 
ATOM     48  C   UNL     1       3.924   2.035  12.864  1.00  0.00     0.049 A 
ATOM     49  C   UNL     1      -1.703   2.702  11.684  1.00  0.00     0.074 A 
ATOM     50  C   UNL     1       4.266   0.708  13.038  1.00  0.00     0.029 A 
ATOM     51  N   UNL     1       2.743   2.215  13.545  1.00  0.00    -0.354 N 
ATOM     52  N   UNL     1      -1.465   1.689  12.468  1.00  0.00    -0.248 NA
ATOM     53  C   UNL     1      -0.886   3.881  11.937  1.00  0.00     0.031 C 
ATOM     54  C   UNL     1       3.058   0.059  13.433  1.00  0.00     0.029 A 
ATOM     55  C   UNL     1       2.054   1.027  13.501  1.00  0.00     0.049 A 
ATOM     56  H   UNL     1       2.445   3.044  13.984  1.00  0.00     0.167 HD
ATOM     57  C   UNL     1      -0.217   1.943  13.021  1.00  0.00     0.074 A 
ATOM     58  C   UNL     1       0.031   3.357  12.756  1.00  0.00     0.031 C 
ATOM     59  C   UNL     1       0.614   0.921  13.388  1.00  0.00     0.031 A 
BRANCH  46  60
ATOM     60  C   UNL     1       4.659   4.458  12.355  1.00  0.00    -0.014 A 
ATOM     61  C   UNL     1       5.256   4.679  13.602  1.00  0.00     0.009 A 
ATOM     62  C   UNL     1       4.203   5.591  11.648  1.00  0.00     0.009 A 
ATOM     63  C   UNL     1       5.381   5.974  14.117  1.00  0.00     0.001 A 
ATOM     64  C   UNL     1       4.369   6.885  12.136  1.00  0.00     0.001 A 
ATOM     65  C   UNL     1       4.943   7.075  13.383  1.00  0.00     0.000 A 
ENDBRANCH  46  60
BRANCH  47  66
ATOM     66  C   UNL     1      -3.572   3.440  10.047  1.00  0.00    -0.014 A 
ATOM     67  C   UNL     1      -4.461   3.846  11.052  1.00  0.00     0.009 A 
ATOM     68  C   UNL     1      -3.650   4.079   8.796  1.00  0.00     0.009 A 
ATOM     69  C   UNL     1      -5.362   4.893  10.828  1.00  0.00     0.001 A 
ATOM     70  C   UNL     1      -4.554   5.119   8.571  1.00  0.00     0.001 A 
ATOM     71  C   UNL     1      -5.397   5.539   9.594  1.00  0.00     0.000 A 
ENDBRANCH  47  66
BRANCH  59  72
ATOM     72  C   UNL     1       0.032  -0.474  13.393  1.00  0.00    -0.014 A 
ATOM     73  C   UNL     1      -0.475  -1.089  12.233  1.00  0.00     0.009 A 
ATOM     74  C   UNL     1       0.111  -1.237  14.566  1.00  0.00     0.009 A 
ATOM     75  C   UNL     1      -0.931  -2.410  12.259  1.00  0.00     0.001 A 
ATOM     76  C   UNL     1      -0.324  -2.566  14.587  1.00  0.00     0.001 A 
ATOM     77  C   UNL     1      -0.853  -3.149  13.436  1.00  0.00     0.000 A 
ENDBRANCH  59  72
ENDBRANCH  33  34
ENDBRANCH  26  28
ENDBRANCH  25  26
ENDBRANCH   1  25
TORSDOF 12
