REMARK SMILES COc1cc(/C=C2/C(=O)NN(c3ccc(Cl)c(Cl)c3)C2=O)ccc1OCC(=O)OCCOC(=O)c1ccc(-c2c3nc(c(-c4ccccc4)c4ccc([nH]4)c(-c4ccccc4)c4nc(c(-c5ccccc5)c5ccc2[nH]5)C=C4)C=C3)cc1
REMARK SMILES IDX 30 1 29 2 27 3 28 4 26 5 25 6 24 7 3 8 4 9 5 10 23 11 22 12
REMARK SMILES IDX 2 13 1 14 6 15 7 16 8 17 20 18 9 19 10 20 11 21 21 22 12 24
REMARK SMILES IDX 13 25 19 26 14 27 17 28 15 29 18 30 16 31 31 32 32 33 33 34
REMARK SMILES IDX 34 35 35 36 36 37 82 38 37 39 81 40 38 41 39 42 40 43 75 44
REMARK SMILES IDX 41 45 80 46 74 47 76 48 42 49 79 50 73 51 72 52 43 54 65 55
REMARK SMILES IDX 50 56 64 57 51 58 54 59 63 60 77 61 52 62 53 63 62 65 78 66
REMARK SMILES IDX 55 67 44 68 45 69 49 70 46 71 48 72 47 73 66 74 67 75 71 76
REMARK SMILES IDX 68 77 70 78 69 79 56 80 57 81 61 82 58 83 60 84 59 85
REMARK H PARENT 10 23 76 53 54 64
REMARK Flexibility Score: inf
ROOT
ATOM      1  C   UNL     1       0.792  -3.035  -1.436  1.00  0.00     0.274 C 
ENDROOT
BRANCH   1   2
ATOM      2  O   UNL     1       1.917  -2.871  -0.539  1.00  0.00    -0.460 OA
BRANCH   2   3
ATOM      3  C   UNL     1       2.973  -2.151  -1.004  1.00  0.00     0.344 C 
ATOM      4  O   UNL     1       3.097  -1.767  -2.163  1.00  0.00    -0.248 OA
BRANCH   3   5
ATOM      5  C   UNL     1       3.973  -1.781   0.105  1.00  0.00     0.352 C 
BRANCH   5   6
ATOM      6  O   UNL     1       3.822  -2.144   1.450  1.00  0.00    -0.478 OA
BRANCH   6   7
ATOM      7  C   UNL     1       2.779  -1.864   2.274  1.00  0.00     0.162 A 
ATOM      8  C   UNL     1       1.838  -0.828   2.344  1.00  0.00     0.161 A 
ATOM      9  C   UNL     1       0.878  -0.830   3.395  1.00  0.00     0.058 A 
ATOM     10  C   UNL     1       0.884  -1.803   4.404  1.00  0.00    -0.021 A 
ATOM     11  C   UNL     1       2.788  -2.807   3.321  1.00  0.00     0.051 A 
ATOM     12  C   UNL     1       1.872  -2.781   4.370  1.00  0.00     0.012 A 
BRANCH   8  13
ATOM     13  O   UNL     1       1.859   0.371   1.679  1.00  0.00    -0.493 OA
ATOM     14  C   UNL     1       1.833   0.348   0.272  1.00  0.00     0.278 C 
ENDBRANCH   8  13
BRANCH  10  15
ATOM     15  C   UNL     1      -0.001  -1.774   5.577  1.00  0.00     0.028 C 
ATOM     16  C   UNL     1       0.322  -1.134   6.710  1.00  0.00     0.109 C 
ATOM     17  C   UNL     1      -0.379  -1.316   8.009  1.00  0.00     0.275 C 
ATOM     18  C   UNL     1       1.469  -0.217   6.926  1.00  0.00     0.282 C 
ATOM     19  O   UNL     1      -1.406  -1.920   8.218  1.00  0.00    -0.267 OA
ATOM     20  N   UNL     1       0.415  -0.652   8.929  1.00  0.00    -0.256 N 
ATOM     21  N   UNL     1       1.450   0.035   8.301  1.00  0.00    -0.217 N 
ATOM     22  O   UNL     1       2.239   0.202   6.086  1.00  0.00    -0.267 OA
ATOM     23  H   UNL     1       0.267  -0.664   9.902  1.00  0.00     0.192 HD
BRANCH  21  24
ATOM     24  C   UNL     1       2.316   0.926   8.956  1.00  0.00     0.068 A 
ATOM     25  C   UNL     1       2.824   0.637  10.225  1.00  0.00     0.030 A 
ATOM     26  C   UNL     1       2.711   2.105   8.309  1.00  0.00     0.050 A 
ATOM     27  C   UNL     1       3.763   1.497  10.809  1.00  0.00     0.024 A 
ATOM     28  C   UNL     1       3.606   2.989   8.913  1.00  0.00     0.061 A 
ATOM     29  C   UNL     1       4.152   2.674  10.159  1.00  0.00     0.059 A 
ATOM     30  Cl  UNL     1       3.982   4.448   8.069  1.00  0.00    -0.083 Cl
ATOM     31  Cl  UNL     1       5.312   3.686  10.940  1.00  0.00    -0.083 Cl
ENDBRANCH  21  24
ENDBRANCH  10  15
ENDBRANCH   6   7
ENDBRANCH   5   6
ENDBRANCH   3   5
ENDBRANCH   2   3
ENDBRANCH   1   2
BRANCH   1  32
ATOM     32  C   UNL     1      -0.512  -2.956  -0.626  1.00  0.00     0.275 C 
BRANCH  32  33
ATOM     33  O   UNL     1      -0.872  -1.583  -0.352  1.00  0.00    -0.458 OA
BRANCH  33  34
ATOM     34  C   UNL     1      -1.863  -1.421   0.575  1.00  0.00     0.338 C 
ATOM     35  O   UNL     1      -2.479  -2.325   1.116  1.00  0.00    -0.246 OA
BRANCH  34  36
ATOM     36  C   UNL     1      -2.052   0.016   0.937  1.00  0.00     0.060 A 
ATOM     37  C   UNL     1      -1.243   0.993   0.384  1.00  0.00     0.016 A 
ATOM     38  C   UNL     1      -2.967   0.403   1.921  1.00  0.00     0.016 A 
ATOM     39  C   UNL     1      -1.147   2.251   0.980  1.00  0.00     0.010 A 
ATOM     40  C   UNL     1      -3.033   1.745   2.350  1.00  0.00     0.010 A 
ATOM     41  C   UNL     1      -2.090   2.691   1.915  1.00  0.00    -0.014 A 
BRANCH  41  42
ATOM     42  C   UNL     1      -2.104   4.130   2.355  1.00  0.00     0.031 A 
ATOM     43  C   UNL     1      -2.240   4.515   3.812  1.00  0.00     0.074 A 
ATOM     44  C   UNL     1      -1.995   5.120   1.436  1.00  0.00     0.049 A 
ATOM     45  N   UNL     1      -2.482   5.692   4.340  1.00  0.00    -0.248 NA
ATOM     46  C   UNL     1      -2.111   3.438   4.805  1.00  0.00     0.031 C 
ATOM     47  C   UNL     1      -1.817   4.928  -0.008  1.00  0.00     0.029 A 
ATOM     48  N   UNL     1      -1.999   6.490   1.570  1.00  0.00    -0.354 N 
ATOM     49  C   UNL     1      -2.603   5.485   5.712  1.00  0.00     0.074 A 
ATOM     50  C   UNL     1      -2.414   4.067   5.933  1.00  0.00     0.031 C 
ATOM     51  C   UNL     1      -1.630   6.110  -0.603  1.00  0.00     0.029 A 
ATOM     52  C   UNL     1      -1.852   7.159   0.376  1.00  0.00     0.049 A 
ATOM     53  H   UNL     1      -2.098   6.947   2.436  1.00  0.00     0.167 HD
ATOM     54  C   UNL     1      -2.862   6.389   6.692  1.00  0.00     0.031 A 
ATOM     55  C   UNL     1      -1.959   8.463   0.059  1.00  0.00     0.031 A 
ATOM     56  C   UNL     1      -3.030   7.804   6.462  1.00  0.00     0.049 A 
ATOM     57  C   UNL     1      -2.314   9.432   1.141  1.00  0.00     0.074 A 
ATOM     58  C   UNL     1      -3.307   8.806   7.378  1.00  0.00     0.029 A 
ATOM     59  N   UNL     1      -2.928   8.421   5.222  1.00  0.00    -0.354 N 
ATOM     60  N   UNL     1      -2.505   9.205   2.417  1.00  0.00    -0.248 NA
ATOM     61  C   UNL     1      -2.490  10.831   0.737  1.00  0.00     0.031 C 
ATOM     62  C   UNL     1      -3.435  10.014   6.684  1.00  0.00     0.029 A 
ATOM     63  C   UNL     1      -3.162   9.782   5.345  1.00  0.00     0.049 A 
ATOM     64  H   UNL     1      -2.719   7.959   4.378  1.00  0.00     0.167 HD
ATOM     65  C   UNL     1      -2.811  10.436   2.976  1.00  0.00     0.074 A 
ATOM     66  C   UNL     1      -2.751  11.408   1.901  1.00  0.00     0.031 C 
ATOM     67  C   UNL     1      -3.116  10.733   4.263  1.00  0.00     0.031 A 
BRANCH  54  68
ATOM     68  C   UNL     1      -3.057   5.858   8.093  1.00  0.00    -0.014 A 
ATOM     69  C   UNL     1      -2.003   5.301   8.836  1.00  0.00     0.009 A 
ATOM     70  C   UNL     1      -4.333   5.915   8.679  1.00  0.00     0.009 A 
ATOM     71  C   UNL     1      -2.237   4.758  10.104  1.00  0.00     0.001 A 
ATOM     72  C   UNL     1      -4.557   5.404   9.960  1.00  0.00     0.001 A 
ATOM     73  C   UNL     1      -3.513   4.810  10.665  1.00  0.00     0.000 A 
ENDBRANCH  54  68
BRANCH  55  74
ATOM     74  C   UNL     1      -1.808   8.897  -1.358  1.00  0.00    -0.014 A 
ATOM     75  C   UNL     1      -0.721   9.690  -1.755  1.00  0.00     0.009 A 
ATOM     76  C   UNL     1      -2.732   8.483  -2.335  1.00  0.00     0.009 A 
ATOM     77  C   UNL     1      -0.568  10.062  -3.094  1.00  0.00     0.001 A 
ATOM     78  C   UNL     1      -2.553   8.820  -3.678  1.00  0.00     0.001 A 
ATOM     79  C   UNL     1      -1.475   9.617  -4.055  1.00  0.00     0.000 A 
ENDBRANCH  55  74
BRANCH  67  80
ATOM     80  C   UNL     1      -3.367  12.182   4.573  1.00  0.00    -0.014 A 
ATOM     81  C   UNL     1      -4.513  12.846   4.107  1.00  0.00     0.009 A 
ATOM     82  C   UNL     1      -2.433  12.894   5.341  1.00  0.00     0.009 A 
ATOM     83  C   UNL     1      -4.693  14.207   4.364  1.00  0.00     0.001 A 
ATOM     84  C   UNL     1      -2.634  14.244   5.628  1.00  0.00     0.001 A 
ATOM     85  C   UNL     1      -3.756  14.903   5.127  1.00  0.00     0.000 A 
ENDBRANCH  67  80
ENDBRANCH  41  42
ENDBRANCH  34  36
ENDBRANCH  33  34
ENDBRANCH  32  33
ENDBRANCH   1  32
TORSDOF 16
