REMARK SMILES Cc1oc2cc(OCC(=O)OCCOC(=O)c3ccc(-c4c5nc(c(-c6ccccc6)c6ccc([nH]6)c(-c6ccccc6)c6nc(c(-c7ccccc7)c7ccc4[nH]7)C=C6)C=C5)cc3)ccc2c(=O)c1Oc1ccc(Cl)cc1Cl
REMARK SMILES IDX 12 1 11 2 9 3 10 4 8 5 7 6 6 7 1 8 2 9 3 10 70 11 4 12 68 13
REMARK SMILES IDX 5 14 67 15 69 16 66 17 65 18 71 19 72 20 73 21 78 22 74 23
REMARK SMILES IDX 77 24 79 25 75 26 76 27 13 28 14 29 15 30 16 31 17 32 18 33
REMARK SMILES IDX 64 34 19 35 63 36 20 37 21 38 22 39 57 40 23 41 62 42 56 43
REMARK SMILES IDX 58 44 24 45 61 46 55 47 54 48 25 50 47 51 32 52 46 53 33 54
REMARK SMILES IDX 36 55 45 56 59 57 34 58 35 59 44 61 60 62 37 63 26 64 27 65
REMARK SMILES IDX 31 66 28 67 30 68 29 69 48 70 49 71 53 72 50 73 52 74 51 75
REMARK SMILES IDX 38 76 39 77 43 78 40 79 42 80 41 81
REMARK H PARENT 58 49 36 60
REMARK Flexibility Score: inf
ROOT
ATOM      1  C   UNL     1       3.233   3.953  -3.193  1.00  0.00     0.274 C 
ENDROOT
BRANCH   1   2
ATOM      2  O   UNL     1       3.570   3.002  -2.161  1.00  0.00    -0.460 OA
BRANCH   2   3
ATOM      3  C   UNL     1       3.781   3.520  -0.922  1.00  0.00     0.344 C 
ATOM      4  O   UNL     1       3.696   4.710  -0.634  1.00  0.00    -0.248 OA
BRANCH   3   5
ATOM      5  C   UNL     1       4.179   2.464   0.107  1.00  0.00     0.351 C 
BRANCH   5   6
ATOM      6  O   UNL     1       4.088   1.093  -0.240  1.00  0.00    -0.482 OA
BRANCH   6   7
ATOM      7  C   UNL     1       2.899   0.438  -0.088  1.00  0.00     0.123 A 
ATOM      8  C   UNL     1      -2.981   1.200   0.296  1.00  0.00     0.092 C 
ATOM      9  C   UNL     1      -1.856   0.212   0.312  1.00  0.00     0.148 A 
ATOM     10  O   UNL     1      -0.655   0.857   0.604  1.00  0.00    -0.457 OA
ATOM     11  C   UNL     1      -1.957  -1.119   0.066  1.00  0.00     0.213 A 
ATOM     12  C   UNL     1       0.520   0.227   0.305  1.00  0.00     0.142 A 
ATOM     13  C   UNL     1      -0.677  -1.897   0.053  1.00  0.00     0.235 A 
ATOM     14  C   UNL     1       1.681   1.007   0.275  1.00  0.00     0.094 A 
ATOM     15  C   UNL     1       0.575  -1.128   0.029  1.00  0.00     0.069 A 
ATOM     16  O   UNL     1      -0.655  -3.122   0.028  1.00  0.00    -0.285 OA
ATOM     17  C   UNL     1       1.796  -1.722  -0.287  1.00  0.00     0.020 A 
ATOM     18  C   UNL     1       2.950  -0.933  -0.357  1.00  0.00     0.047 A 
BRANCH  11  19
ATOM     19  O   UNL     1      -3.080  -1.881  -0.245  1.00  0.00    -0.448 OA
BRANCH  19  20
ATOM     20  C   UNL     1      -4.345  -1.377  -0.097  1.00  0.00     0.146 A 
ATOM     21  C   UNL     1      -4.952  -1.439   1.161  1.00  0.00     0.050 A 
ATOM     22  C   UNL     1      -5.039  -0.842  -1.190  1.00  0.00     0.085 A 
ATOM     23  C   UNL     1      -6.218  -0.879   1.345  1.00  0.00     0.024 A 
ATOM     24  C   UNL     1      -6.302  -0.279  -1.004  1.00  0.00     0.045 A 
ATOM     25  Cl  UNL     1      -4.339  -0.801  -2.766  1.00  0.00    -0.080 Cl
ATOM     26  C   UNL     1      -6.879  -0.289   0.265  1.00  0.00     0.042 A 
ATOM     27  Cl  UNL     1      -8.417   0.443   0.506  1.00  0.00    -0.084 Cl
ENDBRANCH  19  20
ENDBRANCH  11  19
ENDBRANCH   6   7
ENDBRANCH   5   6
ENDBRANCH   3   5
ENDBRANCH   2   3
ENDBRANCH   1   2
BRANCH   1  28
ATOM     28  C   UNL     1       1.722   4.033  -3.386  1.00  0.00     0.275 C 
BRANCH  28  29
ATOM     29  O   UNL     1       1.108   4.497  -2.170  1.00  0.00    -0.458 OA
BRANCH  29  30
ATOM     30  C   UNL     1       0.020   3.805  -1.776  1.00  0.00     0.338 C 
ATOM     31  O   UNL     1      -0.522   2.877  -2.361  1.00  0.00    -0.246 OA
BRANCH  30  32
ATOM     32  C   UNL     1      -0.478   4.307  -0.483  1.00  0.00     0.060 A 
ATOM     33  C   UNL     1       0.370   4.433   0.621  1.00  0.00     0.016 A 
ATOM     34  C   UNL     1      -1.855   4.479  -0.334  1.00  0.00     0.016 A 
ATOM     35  C   UNL     1      -0.170   4.595   1.898  1.00  0.00     0.010 A 
ATOM     36  C   UNL     1      -2.391   4.704   0.935  1.00  0.00     0.010 A 
ATOM     37  C   UNL     1      -1.557   4.702   2.063  1.00  0.00    -0.014 A 
BRANCH  37  38
ATOM     38  C   UNL     1      -2.156   4.883   3.403  1.00  0.00     0.031 A 
ATOM     39  C   UNL     1      -2.859   3.760   4.106  1.00  0.00     0.074 A 
ATOM     40  C   UNL     1      -2.121   6.108   3.950  1.00  0.00     0.049 A 
ATOM     41  N   UNL     1      -3.683   3.807   5.121  1.00  0.00    -0.248 NA
ATOM     42  C   UNL     1      -2.613   2.406   3.597  1.00  0.00     0.031 C 
ATOM     43  C   UNL     1      -1.429   7.263   3.379  1.00  0.00     0.029 A 
ATOM     44  N   UNL     1      -2.700   6.583   5.094  1.00  0.00    -0.354 N 
ATOM     45  C   UNL     1      -4.108   2.499   5.327  1.00  0.00     0.074 A 
ATOM     46  C   UNL     1      -3.443   1.680   4.336  1.00  0.00     0.031 C 
ATOM     47  C   UNL     1      -1.635   8.324   4.173  1.00  0.00     0.029 A 
ATOM     48  C   UNL     1      -2.514   7.929   5.268  1.00  0.00     0.049 A 
ATOM     49  H   UNL     1      -3.198   6.017   5.727  1.00  0.00     0.167 HD
ATOM     50  C   UNL     1      -4.970   2.034   6.264  1.00  0.00     0.031 A 
ATOM     51  C   UNL     1      -3.030   8.763   6.186  1.00  0.00     0.031 A 
ATOM     52  C   UNL     1      -5.556   2.849   7.298  1.00  0.00     0.049 A 
ATOM     53  C   UNL     1      -3.964   8.225   7.224  1.00  0.00     0.074 A 
ATOM     54  C   UNL     1      -6.407   2.469   8.323  1.00  0.00     0.029 A 
ATOM     55  N   UNL     1      -5.321   4.206   7.458  1.00  0.00    -0.354 N 
ATOM     56  N   UNL     1      -4.419   7.004   7.367  1.00  0.00    -0.248 NA
ATOM     57  C   UNL     1      -4.454   9.179   8.225  1.00  0.00     0.031 C 
ATOM     58  C   UNL     1      -6.699   3.602   9.093  1.00  0.00     0.029 A 
ATOM     59  C   UNL     1      -6.004   4.678   8.566  1.00  0.00     0.049 A 
ATOM     60  H   UNL     1      -4.752   4.754   6.870  1.00  0.00     0.167 HD
ATOM     61  C   UNL     1      -5.243   7.039   8.481  1.00  0.00     0.074 A 
ATOM     62  C   UNL     1      -5.212   8.399   8.984  1.00  0.00     0.031 C 
ATOM     63  C   UNL     1      -5.964   6.036   9.039  1.00  0.00     0.031 A 
BRANCH  50  64
ATOM     64  C   UNL     1      -5.351   0.580   6.214  1.00  0.00    -0.014 A 
ATOM     65  C   UNL     1      -4.474  -0.425   6.650  1.00  0.00     0.009 A 
ATOM     66  C   UNL     1      -6.643   0.219   5.798  1.00  0.00     0.009 A 
ATOM     67  C   UNL     1      -4.878  -1.764   6.650  1.00  0.00     0.001 A 
ATOM     68  C   UNL     1      -7.051  -1.117   5.820  1.00  0.00     0.001 A 
ATOM     69  C   UNL     1      -6.167  -2.107   6.241  1.00  0.00     0.000 A 
ENDBRANCH  50  64
BRANCH  51  70
ATOM     70  C   UNL     1      -2.671  10.198   6.129  1.00  0.00    -0.014 A 
ATOM     71  C   UNL     1      -1.721  10.723   7.015  1.00  0.00     0.009 A 
ATOM     72  C   UNL     1      -3.220  11.026   5.138  1.00  0.00     0.009 A 
ATOM     73  C   UNL     1      -1.329  12.058   6.912  1.00  0.00     0.001 A 
ATOM     74  C   UNL     1      -2.809  12.354   5.024  1.00  0.00     0.001 A 
ATOM     75  C   UNL     1      -1.866  12.870   5.912  1.00  0.00     0.000 A 
ENDBRANCH  51  70
BRANCH  63  76
ATOM     76  C   UNL     1      -6.750   6.381  10.268  1.00  0.00    -0.014 A 
ATOM     77  C   UNL     1      -7.965   7.076  10.175  1.00  0.00     0.009 A 
ATOM     78  C   UNL     1      -6.267   6.008  11.531  1.00  0.00     0.009 A 
ATOM     79  C   UNL     1      -8.668   7.420  11.330  1.00  0.00     0.001 A 
ATOM     80  C   UNL     1      -6.981   6.339  12.683  1.00  0.00     0.001 A 
ATOM     81  C   UNL     1      -8.175   7.052  12.582  1.00  0.00     0.000 A 
ENDBRANCH  63  76
ENDBRANCH  37  38
ENDBRANCH  30  32
ENDBRANCH  29  30
ENDBRANCH  28  29
ENDBRANCH   1  28
TORSDOF 15
