REMARK SMILES CC(=O)O[C@@H]1CC[C@]23C(=O)O[C@]4(CC[C@]2(O)C1)[C@H]3CC[C@]1(C)[C@H](C(=O)OCCOC(=O)c2ccc(-c3c5nc(c(-c6ccccc6)c6ccc([nH]6)c(-c6ccccc6)c6nc(c(-c7ccccc7)c7ccc3[nH]7)C=C6)C=C5)cc2)CC[C@@H]14
REMARK SMILES IDX 27 1 26 2 24 3 25 4 23 5 5 6 6 7 17 8 7 9 15 10 8 11 14 12
REMARK SMILES IDX 9 13 18 14 13 15 10 16 11 17 12 18 19 19 82 20 20 21 21 22
REMARK SMILES IDX 81 23 22 24 80 25 4 26 2 27 1 28 3 29 16 30 28 32 29 33
REMARK SMILES IDX 30 34 31 35 32 36 33 37 79 38 34 39 78 40 35 41 36 42 37 43
REMARK SMILES IDX 72 44 38 45 77 46 71 47 73 48 39 49 76 50 70 51 69 52 40 54
REMARK SMILES IDX 62 55 47 56 61 57 48 58 51 59 60 60 74 61 49 62 50 63 59 65
REMARK SMILES IDX 75 66 52 67 41 68 42 69 46 70 43 71 45 72 44 73 63 74 64 75
REMARK SMILES IDX 68 76 65 77 67 78 66 79 53 80 54 81 58 82 55 83 57 84 56 85
REMARK H PARENT 16 31 73 53 51 64
REMARK Flexibility Score: inf
ROOT
ATOM      1  C   UNL     1      -4.860  -9.402   1.638  1.00  0.00     0.274 C 
ENDROOT
BRANCH   1   2
ATOM      2  O   UNL     1      -3.600  -8.725   1.796  1.00  0.00    -0.462 OA
BRANCH   2   3
ATOM      3  C   UNL     1      -3.695  -7.404   2.082  1.00  0.00     0.309 C 
ATOM      4  O   UNL     1      -4.751  -6.778   2.120  1.00  0.00    -0.252 OA
BRANCH   3   5
ATOM      5  C   UNL     1      -2.390  -6.811   2.581  1.00  0.00     0.105 C 
ATOM      6  C   UNL     1       1.011  -2.565  -3.090  1.00  0.00     0.179 C 
ATOM      7  C   UNL     1      -0.402  -3.075  -2.921  1.00  0.00     0.047 C 
ATOM      8  C   UNL     1       1.920  -3.815  -3.118  1.00  0.00     0.081 C 
ATOM      9  C   UNL     1      -0.454  -3.819  -1.617  1.00  0.00     0.026 C 
ATOM     10  C   UNL     1       1.744  -4.832  -1.933  1.00  0.00     0.085 C 
ATOM     11  C   UNL     1       0.325  -5.354  -1.757  1.00  0.00     0.103 C 
ATOM     12  C   UNL     1       2.280  -4.256  -0.576  1.00  0.00     0.041 C 
ATOM     13  C   UNL     1      -0.950  -5.874  -1.318  1.00  0.00     0.316 C 
ATOM     14  C   UNL     1       0.788  -6.416  -0.362  1.00  0.00     0.054 C 
ATOM     15  C   UNL     1       1.293  -4.359   0.669  1.00  0.00     0.052 C 
ATOM     16  O   UNL     1      -1.816  -6.402  -2.042  1.00  0.00    -0.251 OA
ATOM     17  O   UNL     1      -1.087  -5.453  -0.011  1.00  0.00    -0.458 OA
ATOM     18  C   UNL     1       0.210  -5.515   0.644  1.00  0.00     0.120 C 
ATOM     19  C   UNL     1       0.287  -7.882  -0.153  1.00  0.00     0.009 C 
ATOM     20  C   UNL     1      -0.132  -5.960   2.054  1.00  0.00     0.040 C 
ATOM     21  C   UNL     1      -0.952  -8.079   0.760  1.00  0.00     0.008 C 
ATOM     22  C   UNL     1      -0.973  -7.277   2.098  1.00  0.00    -0.013 C 
ATOM     23  C   UNL     1      -1.022  -4.869   2.703  1.00  0.00     0.009 C 
ATOM     24  C   UNL     1      -0.368  -8.160   3.219  1.00  0.00     0.013 C 
ATOM     25  C   UNL     1      -2.445  -5.293   2.413  1.00  0.00     0.016 C 
BRANCH   6  26
ATOM     26  O   UNL     1       1.505  -1.676  -2.046  1.00  0.00    -0.462 OA
BRANCH  26  27
ATOM     27  C   UNL     1       0.733  -0.726  -1.451  1.00  0.00     0.302 C 
ATOM     28  C   UNL     1       1.527   0.061  -0.449  1.00  0.00     0.139 C 
ATOM     29  O   UNL     1      -0.456  -0.524  -1.651  1.00  0.00    -0.253 OA
ENDBRANCH  26  27
ENDBRANCH   6  26
BRANCH  10  30
ATOM     30  O   UNL     1       2.528  -5.978  -2.346  1.00  0.00    -0.389 OA
ATOM     31  H   UNL     1       2.477  -6.667  -1.665  1.00  0.00     0.211 HD
ENDBRANCH  10  30
ENDBRANCH   3   5
ENDBRANCH   2   3
ENDBRANCH   1   2
BRANCH   1  32
ATOM     32  C   UNL     1      -5.161 -10.218   2.893  1.00  0.00     0.275 C 
BRANCH  32  33
ATOM     33  O   UNL     1      -5.156  -9.376   4.066  1.00  0.00    -0.458 OA
BRANCH  33  34
ATOM     34  C   UNL     1      -4.047  -9.483   4.832  1.00  0.00     0.338 C 
ATOM     35  O   UNL     1      -3.092 -10.223   4.660  1.00  0.00    -0.246 OA
BRANCH  34  36
ATOM     36  C   UNL     1      -4.098  -8.554   5.972  1.00  0.00     0.060 A 
ATOM     37  C   UNL     1      -3.954  -7.184   5.768  1.00  0.00     0.016 A 
ATOM     38  C   UNL     1      -4.077  -9.074   7.265  1.00  0.00     0.016 A 
ATOM     39  C   UNL     1      -3.629  -6.355   6.838  1.00  0.00     0.010 A 
ATOM     40  C   UNL     1      -3.901  -8.214   8.352  1.00  0.00     0.010 A 
ATOM     41  C   UNL     1      -3.625  -6.851   8.150  1.00  0.00    -0.014 A 
BRANCH  41  42
ATOM     42  C   UNL     1      -3.347  -5.949   9.304  1.00  0.00     0.031 A 
ATOM     43  C   UNL     1      -2.235  -6.258  10.276  1.00  0.00     0.074 A 
ATOM     44  C   UNL     1      -4.106  -4.851   9.494  1.00  0.00     0.049 A 
ATOM     45  N   UNL     1      -1.951  -5.681  11.418  1.00  0.00    -0.248 NA
ATOM     46  C   UNL     1      -1.334  -7.367   9.927  1.00  0.00     0.031 C 
ATOM     47  C   UNL     1      -5.194  -4.405   8.620  1.00  0.00     0.029 A 
ATOM     48  N   UNL     1      -4.075  -3.903  10.487  1.00  0.00    -0.354 N 
ATOM     49  C   UNL     1      -0.875  -6.387  11.945  1.00  0.00     0.074 A 
ATOM     50  C   UNL     1      -0.565  -7.443  11.004  1.00  0.00     0.031 C 
ATOM     51  C   UNL     1      -5.693  -3.252   9.086  1.00  0.00     0.029 A 
ATOM     52  C   UNL     1      -5.029  -2.926  10.341  1.00  0.00     0.049 A 
ATOM     53  H   UNL     1      -3.431  -3.922  11.231  1.00  0.00     0.167 HD
ATOM     54  C   UNL     1      -0.206  -6.178  13.105  1.00  0.00     0.031 A 
ATOM     55  C   UNL     1      -5.369  -1.901  11.144  1.00  0.00     0.031 A 
ATOM     56  C   UNL     1      -0.498  -5.114  14.032  1.00  0.00     0.049 A 
ATOM     57  C   UNL     1      -4.649  -1.722  12.447  1.00  0.00     0.074 A 
ATOM     58  C   UNL     1       0.129  -4.813  15.229  1.00  0.00     0.029 A 
ATOM     59  N   UNL     1      -1.500  -4.171  13.860  1.00  0.00    -0.354 N 
ATOM     60  N   UNL     1      -3.657  -2.419  12.945  1.00  0.00    -0.248 NA
ATOM     61  C   UNL     1      -5.104  -0.618  13.301  1.00  0.00     0.031 C 
ATOM     62  C   UNL     1      -0.522  -3.715  15.803  1.00  0.00     0.029 A 
ATOM     63  C   UNL     1      -1.518  -3.298  14.936  1.00  0.00     0.049 A 
ATOM     64  H   UNL     1      -2.108  -4.127  13.087  1.00  0.00     0.167 HD
ATOM     65  C   UNL     1      -3.358  -1.827  14.164  1.00  0.00     0.074 A 
ATOM     66  C   UNL     1      -4.257  -0.701  14.316  1.00  0.00     0.031 C 
ATOM     67  C   UNL     1      -2.424  -2.187  15.078  1.00  0.00     0.031 A 
BRANCH  54  68
ATOM     68  C   UNL     1       0.890  -7.148  13.459  1.00  0.00    -0.014 A 
ATOM     69  C   UNL     1       2.112  -7.162  12.769  1.00  0.00     0.009 A 
ATOM     70  C   UNL     1       0.703  -8.046  14.523  1.00  0.00     0.009 A 
ATOM     71  C   UNL     1       3.107  -8.082  13.111  1.00  0.00     0.001 A 
ATOM     72  C   UNL     1       1.710  -8.944  14.882  1.00  0.00     0.001 A 
ATOM     73  C   UNL     1       2.907  -8.969  14.168  1.00  0.00     0.000 A 
ENDBRANCH  54  68
BRANCH  55  74
ATOM     74  C   UNL     1      -6.473  -0.986  10.752  1.00  0.00    -0.014 A 
ATOM     75  C   UNL     1      -6.202   0.344  10.400  1.00  0.00     0.009 A 
ATOM     76  C   UNL     1      -7.802  -1.439  10.724  1.00  0.00     0.009 A 
ATOM     77  C   UNL     1      -7.242   1.208  10.049  1.00  0.00     0.001 A 
ATOM     78  C   UNL     1      -8.835  -0.583  10.340  1.00  0.00     0.001 A 
ATOM     79  C   UNL     1      -8.555   0.742  10.013  1.00  0.00     0.000 A 
ENDBRANCH  55  74
BRANCH  67  80
ATOM     80  C   UNL     1      -2.311  -1.325  16.303  1.00  0.00    -0.014 A 
ATOM     81  C   UNL     1      -3.298  -1.342  17.301  1.00  0.00     0.009 A 
ATOM     82  C   UNL     1      -1.200  -0.482  16.458  1.00  0.00     0.009 A 
ATOM     83  C   UNL     1      -3.195  -0.499  18.409  1.00  0.00     0.001 A 
ATOM     84  C   UNL     1      -1.084   0.338  17.581  1.00  0.00     0.001 A 
ATOM     85  C   UNL     1      -2.088   0.338  18.549  1.00  0.00     0.000 A 
ENDBRANCH  67  80
ENDBRANCH  41  42
ENDBRANCH  34  36
ENDBRANCH  33  34
ENDBRANCH  32  33
ENDBRANCH   1  32
TORSDOF 14
