REMARK SMILES CN(C)C(=O)Nc1cccc(/C=C/C(=O)OCCOC(=O)c2ccc(-c3c4nc(c(-c5ccccc5)c5ccc([nH]5)c(-c5ccccc5)c5nc(c(-c6ccccc6)c6ccc3[nH]6)C=C5)C=C4)cc2)n1
REMARK SMILES IDX 17 1 16 2 14 3 15 4 13 5 12 6 11 7 7 8 8 9 70 10 9 11 10 12
REMARK SMILES IDX 6 13 1 14 2 15 3 16 4 17 5 18 18 20 19 21 20 22 21 23 22 24
REMARK SMILES IDX 23 25 69 26 24 27 68 28 25 29 26 30 27 31 62 32 28 33 67 34
REMARK SMILES IDX 61 35 63 36 29 37 66 38 60 39 59 40 30 42 52 43 37 44 51 45
REMARK SMILES IDX 38 46 41 47 50 48 64 49 39 50 40 51 49 53 65 54 42 55 31 56
REMARK SMILES IDX 32 57 36 58 33 59 35 60 34 61 53 62 54 63 58 64 55 65 57 66
REMARK SMILES IDX 56 67 43 68 44 69 48 70 45 71 47 72 46 73
REMARK H PARENT 6 19 63 41 41 52
REMARK Flexibility Score: inf
ROOT
ATOM      1  C   UNL     1       0.827  11.436  -0.204  1.00  0.00     0.275 C 
ENDROOT
BRANCH   1   2
ATOM      2  O   UNL     1       0.351  10.080  -0.267  1.00  0.00    -0.459 OA
BRANCH   2   3
ATOM      3  C   UNL     1       1.297   9.123  -0.122  1.00  0.00     0.330 C 
ATOM      4  O   UNL     1       2.504   9.303  -0.052  1.00  0.00    -0.247 OA
BRANCH   3   5
ATOM      5  C   UNL     1       0.714   7.780   0.029  1.00  0.00     0.095 C 
ATOM      6  C   UNL     1      -0.594   7.477  -0.018  1.00  0.00     0.036 C 
BRANCH   6   7
ATOM      7  C   UNL     1      -1.070   6.109   0.224  1.00  0.00     0.066 A 
ATOM      8  C   UNL     1      -0.550   3.986   0.990  1.00  0.00     0.134 A 
ATOM      9  C   UNL     1      -1.788   3.494   0.606  1.00  0.00     0.047 A 
ATOM     10  N   UNL     1      -0.205   5.280   0.852  1.00  0.00    -0.231 NA
ATOM     11  C   UNL     1      -2.693   4.368   0.010  1.00  0.00     0.006 A 
ATOM     12  C   UNL     1      -2.326   5.697  -0.197  1.00  0.00     0.028 A 
BRANCH   8  13
ATOM     13  N   UNL     1       0.438   3.194   1.560  1.00  0.00    -0.292 N 
ATOM     14  C   UNL     1       0.717  -0.240   0.283  1.00  0.00     0.148 C 
ATOM     15  N   UNL     1       0.457   1.189   0.298  1.00  0.00    -0.331 N 
ATOM     16  C   UNL     1       0.305   1.805  -1.015  1.00  0.00     0.148 C 
ATOM     17  C   UNL     1       0.693   1.867   1.477  1.00  0.00     0.322 C 
ATOM     18  O   UNL     1       1.240   1.322   2.439  1.00  0.00    -0.248 OA
ATOM     19  H   UNL     1       1.070   3.689   2.129  1.00  0.00     0.173 HD
ENDBRANCH   8  13
ENDBRANCH   6   7
ENDBRANCH   3   5
ENDBRANCH   2   3
ENDBRANCH   1   2
BRANCH   1  20
ATOM     20  C   UNL     1       0.576  12.044   1.180  1.00  0.00     0.275 C 
BRANCH  20  21
ATOM     21  O   UNL     1       1.365  11.403   2.201  1.00  0.00    -0.458 OA
BRANCH  21  22
ATOM     22  C   UNL     1       0.757  10.370   2.836  1.00  0.00     0.338 C 
ATOM     23  O   UNL     1      -0.380   9.968   2.658  1.00  0.00    -0.246 OA
BRANCH  22  24
ATOM     24  C   UNL     1       1.718   9.689   3.727  1.00  0.00     0.060 A 
ATOM     25  C   UNL     1       1.806   8.296   3.647  1.00  0.00     0.016 A 
ATOM     26  C   UNL     1       2.478  10.391   4.667  1.00  0.00     0.016 A 
ATOM     27  C   UNL     1       2.656   7.601   4.505  1.00  0.00     0.010 A 
ATOM     28  C   UNL     1       3.327   9.690   5.533  1.00  0.00     0.010 A 
ATOM     29  C   UNL     1       3.414   8.290   5.463  1.00  0.00    -0.014 A 
BRANCH  29  30
ATOM     30  C   UNL     1       4.269   7.519   6.398  1.00  0.00     0.031 A 
ATOM     31  C   UNL     1       3.801   7.234   7.797  1.00  0.00     0.074 A 
ATOM     32  C   UNL     1       5.444   7.022   5.971  1.00  0.00     0.049 A 
ATOM     33  N   UNL     1       4.368   6.505   8.726  1.00  0.00    -0.248 NA
ATOM     34  C   UNL     1       2.528   7.847   8.204  1.00  0.00     0.031 C 
ATOM     35  C   UNL     1       6.005   7.212   4.633  1.00  0.00     0.029 A 
ATOM     36  N   UNL     1       6.368   6.238   6.616  1.00  0.00    -0.354 N 
ATOM     37  C   UNL     1       3.521   6.565   9.824  1.00  0.00     0.074 A 
ATOM     38  C   UNL     1       2.418   7.430   9.458  1.00  0.00     0.031 C 
ATOM     39  C   UNL     1       7.167   6.542   4.550  1.00  0.00     0.029 A 
ATOM     40  C   UNL     1       7.440   5.896   5.831  1.00  0.00     0.049 A 
ATOM     41  H   UNL     1       6.271   5.949   7.552  1.00  0.00     0.167 HD
ATOM     42  C   UNL     1       3.643   5.950  11.025  1.00  0.00     0.031 A 
ATOM     43  C   UNL     1       8.521   5.143   6.109  1.00  0.00     0.031 A 
ATOM     44  C   UNL     1       4.743   5.101  11.401  1.00  0.00     0.049 A 
ATOM     45  C   UNL     1       8.654   4.508   7.465  1.00  0.00     0.074 A 
ATOM     46  C   UNL     1       4.943   4.423  12.592  1.00  0.00     0.029 A 
ATOM     47  N   UNL     1       5.834   4.818  10.594  1.00  0.00    -0.354 N 
ATOM     48  N   UNL     1       7.828   4.547   8.481  1.00  0.00    -0.248 NA
ATOM     49  C   UNL     1       9.869   3.716   7.705  1.00  0.00     0.031 C 
ATOM     50  C   UNL     1       6.178   3.767  12.522  1.00  0.00     0.029 A 
ATOM     51  C   UNL     1       6.723   3.998  11.270  1.00  0.00     0.049 A 
ATOM     52  H   UNL     1       5.958   5.151   9.676  1.00  0.00     0.167 HD
ATOM     53  C   UNL     1       8.413   3.772   9.474  1.00  0.00     0.074 A 
ATOM     54  C   UNL     1       9.653   3.259   8.931  1.00  0.00     0.031 C 
ATOM     55  C   UNL     1       7.963   3.509  10.725  1.00  0.00     0.031 A 
BRANCH  42  56
ATOM     56  C   UNL     1       2.559   6.196  12.036  1.00  0.00    -0.014 A 
ATOM     57  C   UNL     1       1.293   5.605  11.902  1.00  0.00     0.009 A 
ATOM     58  C   UNL     1       2.819   7.004  13.154  1.00  0.00     0.009 A 
ATOM     59  C   UNL     1       0.298   5.843  12.853  1.00  0.00     0.001 A 
ATOM     60  C   UNL     1       1.830   7.222  14.115  1.00  0.00     0.001 A 
ATOM     61  C   UNL     1       0.568   6.648  13.959  1.00  0.00     0.000 A 
ENDBRANCH  42  56
BRANCH  43  62
ATOM     62  C   UNL     1       9.569   4.942   5.077  1.00  0.00    -0.014 A 
ATOM     63  C   UNL     1       9.728   3.696   4.452  1.00  0.00     0.009 A 
ATOM     64  C   UNL     1      10.425   5.996   4.722  1.00  0.00     0.009 A 
ATOM     65  C   UNL     1      10.739   3.504   3.507  1.00  0.00     0.001 A 
ATOM     66  C   UNL     1      11.418   5.808   3.759  1.00  0.00     0.001 A 
ATOM     67  C   UNL     1      11.579   4.561   3.159  1.00  0.00     0.000 A 
ENDBRANCH  43  62
BRANCH  55  68
ATOM     68  C   UNL     1       8.817   2.619  11.583  1.00  0.00    -0.014 A 
ATOM     69  C   UNL     1      10.024   3.082  12.131  1.00  0.00     0.009 A 
ATOM     70  C   UNL     1       8.405   1.305  11.854  1.00  0.00     0.009 A 
ATOM     71  C   UNL     1      10.820   2.232  12.902  1.00  0.00     0.001 A 
ATOM     72  C   UNL     1       9.191   0.467  12.646  1.00  0.00     0.001 A 
ATOM     73  C   UNL     1      10.403   0.927  13.160  1.00  0.00     0.000 A 
ENDBRANCH  55  68
ENDBRANCH  29  30
ENDBRANCH  22  24
ENDBRANCH  21  22
ENDBRANCH  20  21
ENDBRANCH   1  20
TORSDOF 13
