REMARK SMILES O=C(N[C@]1(C(=O)OCCOC(=O)c2ccc(-c3c4nc(c(-c5ccccc5)c5ccc([nH]5)c(-c5ccccc5)c5nc(c(-c6ccccc6)c6ccc3[nH]6)C=C5)C=C4)cc2)CC[C@H](c2ccccc2)CC1)OCC1c2ccccc2-c2ccccc21
REMARK SMILES IDX 8 1 7 2 5 3 6 4 4 5 61 6 71 7 62 8 70 9 63 10 3 11 1 12 2 13
REMARK SMILES IDX 72 15 73 16 74 17 75 18 86 19 76 20 80 21 81 22 85 23 77 24
REMARK SMILES IDX 79 25 82 26 84 27 78 28 83 29 64 30 65 31 69 32 66 33 68 34
REMARK SMILES IDX 67 35 9 36 10 37 11 38 12 39 13 40 14 41 60 42 15 43 59 44
REMARK SMILES IDX 16 45 17 46 18 47 53 48 19 49 58 50 52 51 54 52 20 53 57 54
REMARK SMILES IDX 51 55 50 56 21 58 43 59 28 60 42 61 29 62 32 63 41 64 55 65
REMARK SMILES IDX 30 66 31 67 40 69 56 70 33 71 22 72 23 73 27 74 24 75 26 76
REMARK SMILES IDX 25 77 44 78 45 79 49 80 46 81 48 82 47 83 34 84 35 85 39 86
REMARK SMILES IDX 36 87 38 88 37 89
REMARK H PARENT 3 14 54 57 32 68
REMARK Flexibility Score: inf
ROOT
ATOM      1  C   UNL     1       6.475   1.689  -3.166  1.00  0.00     0.274 C 
ENDROOT
BRANCH   1   2
ATOM      2  O   UNL     1       6.051   0.388  -2.705  1.00  0.00    -0.460 OA
BRANCH   2   3
ATOM      3  C   UNL     1       5.036   0.385  -1.794  1.00  0.00     0.332 C 
ATOM      4  O   UNL     1       4.423   1.393  -1.452  1.00  0.00    -0.249 OA
BRANCH   3   5
ATOM      5  C   UNL     1       4.869  -1.001  -1.099  1.00  0.00     0.141 C 
ATOM      6  C   UNL     1       6.007  -1.007  -0.079  1.00  0.00     0.041 C 
ATOM      7  C   UNL     1       4.864  -2.202  -2.068  1.00  0.00     0.041 C 
ATOM      8  C   UNL     1       7.293  -1.706  -0.469  1.00  0.00     0.011 C 
ATOM      9  C   UNL     1       6.197  -2.892  -2.334  1.00  0.00     0.011 C 
ATOM     10  C   UNL     1       7.074  -3.081  -1.087  1.00  0.00     0.019 C 
BRANCH   5  11
ATOM     11  N   UNL     1       3.498  -1.030  -0.487  1.00  0.00    -0.305 N 
ATOM     12  O   UNL     1       1.839  -0.456   0.919  1.00  0.00    -0.225 OA
ATOM     13  C   UNL     1       3.035  -0.621   0.723  1.00  0.00     0.408 C 
ATOM     14  H   UNL     1       2.807  -1.418  -1.071  1.00  0.00     0.168 HD
BRANCH  13  15
ATOM     15  O   UNL     1       3.996  -0.397   1.649  1.00  0.00    -0.449 OA
BRANCH  15  16
ATOM     16  C   UNL     1       3.890   0.912   2.184  1.00  0.00     0.248 C 
BRANCH  16  17
ATOM     17  C   UNL     1       5.153   1.403   2.940  1.00  0.00     0.088 C 
ATOM     18  C   UNL     1       6.476   0.645   2.811  1.00  0.00    -0.029 A 
ATOM     19  C   UNL     1       5.527   2.745   2.302  1.00  0.00    -0.029 A 
ATOM     20  C   UNL     1       6.832  -0.594   3.328  1.00  0.00     0.005 A 
ATOM     21  C   UNL     1       7.421   1.423   2.098  1.00  0.00    -0.014 A 
ATOM     22  C   UNL     1       6.803   2.672   1.714  1.00  0.00    -0.014 A 
ATOM     23  C   UNL     1       4.704   3.849   2.131  1.00  0.00     0.005 A 
ATOM     24  C   UNL     1       8.140  -1.053   3.119  1.00  0.00     0.000 A 
ATOM     25  C   UNL     1       8.712   0.963   1.881  1.00  0.00     0.009 A 
ATOM     26  C   UNL     1       7.235   3.675   0.866  1.00  0.00     0.009 A 
ATOM     27  C   UNL     1       5.140   4.858   1.278  1.00  0.00     0.000 A 
ATOM     28  C   UNL     1       9.072  -0.281   2.404  1.00  0.00     0.001 A 
ATOM     29  C   UNL     1       6.385   4.763   0.636  1.00  0.00     0.001 A 
ENDBRANCH  16  17
ENDBRANCH  15  16
ENDBRANCH  13  15
ENDBRANCH   5  11
BRANCH  10  30
ATOM     30  C   UNL     1       6.647  -4.213  -0.149  1.00  0.00    -0.045 A 
ATOM     31  C   UNL     1       6.084  -4.050   1.128  1.00  0.00     0.004 A 
ATOM     32  C   UNL     1       6.905  -5.533  -0.554  1.00  0.00     0.004 A 
ATOM     33  C   UNL     1       5.768  -5.137   1.950  1.00  0.00     0.000 A 
ATOM     34  C   UNL     1       6.617  -6.624   0.275  1.00  0.00     0.000 A 
ATOM     35  C   UNL     1       6.041  -6.426   1.526  1.00  0.00     0.000 A 
ENDBRANCH  10  30
ENDBRANCH   3   5
ENDBRANCH   2   3
ENDBRANCH   1   2
BRANCH   1  36
ATOM     36  C   UNL     1       5.933   2.015  -4.557  1.00  0.00     0.275 C 
BRANCH  36  37
ATOM     37  O   UNL     1       4.500   2.125  -4.544  1.00  0.00    -0.458 OA
BRANCH  37  38
ATOM     38  C   UNL     1       3.845   0.989  -4.872  1.00  0.00     0.338 C 
ATOM     39  O   UNL     1       4.322  -0.072  -5.234  1.00  0.00    -0.246 OA
BRANCH  38  40
ATOM     40  C   UNL     1       2.414   1.159  -4.605  1.00  0.00     0.060 A 
ATOM     41  C   UNL     1       1.930   0.756  -3.361  1.00  0.00     0.016 A 
ATOM     42  C   UNL     1       1.540   1.572  -5.606  1.00  0.00     0.016 A 
ATOM     43  C   UNL     1       0.569   0.722  -3.109  1.00  0.00     0.010 A 
ATOM     44  C   UNL     1       0.167   1.574  -5.342  1.00  0.00     0.010 A 
ATOM     45  C   UNL     1      -0.326   1.126  -4.101  1.00  0.00    -0.014 A 
BRANCH  45  46
ATOM     46  C   UNL     1      -1.780   0.996  -3.866  1.00  0.00     0.031 A 
ATOM     47  C   UNL     1      -2.563  -0.005  -4.664  1.00  0.00     0.074 A 
ATOM     48  C   UNL     1      -2.385   1.738  -2.921  1.00  0.00     0.049 A 
ATOM     49  N   UNL     1      -3.858  -0.156  -4.758  1.00  0.00    -0.248 NA
ATOM     50  C   UNL     1      -1.783  -0.959  -5.470  1.00  0.00     0.031 C 
ATOM     51  C   UNL     1      -1.713   2.665  -2.008  1.00  0.00     0.029 A 
ATOM     52  N   UNL     1      -3.707   1.821  -2.569  1.00  0.00    -0.354 N 
ATOM     53  C   UNL     1      -4.049  -1.181  -5.675  1.00  0.00     0.074 A 
ATOM     54  C   UNL     1      -2.739  -1.621  -6.104  1.00  0.00     0.031 C 
ATOM     55  C   UNL     1      -2.627   3.213  -1.190  1.00  0.00     0.029 A 
ATOM     56  C   UNL     1      -3.950   2.737  -1.576  1.00  0.00     0.049 A 
ATOM     57  H   UNL     1      -4.413   1.278  -2.988  1.00  0.00     0.167 HD
ATOM     58  C   UNL     1      -5.217  -1.697  -6.124  1.00  0.00     0.031 A 
ATOM     59  C   UNL     1      -5.116   3.178  -1.068  1.00  0.00     0.031 A 
ATOM     60  C   UNL     1      -6.511  -1.269  -5.665  1.00  0.00     0.049 A 
ATOM     61  C   UNL     1      -6.400   2.642  -1.635  1.00  0.00     0.074 A 
ATOM     62  C   UNL     1      -7.759  -1.716  -6.060  1.00  0.00     0.029 A 
ATOM     63  N   UNL     1      -6.718  -0.301  -4.694  1.00  0.00    -0.354 N 
ATOM     64  N   UNL     1      -6.578   1.727  -2.557  1.00  0.00    -0.248 NA
ATOM     65  C   UNL     1      -7.644   3.215  -1.103  1.00  0.00     0.031 C 
ATOM     66  C   UNL     1      -8.724  -0.986  -5.357  1.00  0.00     0.029 A 
ATOM     67  C   UNL     1      -8.074  -0.122  -4.489  1.00  0.00     0.049 A 
ATOM     68  H   UNL     1      -6.005   0.187  -4.222  1.00  0.00     0.167 HD
ATOM     69  C   UNL     1      -7.952   1.602  -2.705  1.00  0.00     0.074 A 
ATOM     70  C   UNL     1      -8.560   2.522  -1.765  1.00  0.00     0.031 C 
ATOM     71  C   UNL     1      -8.651   0.801  -3.546  1.00  0.00     0.031 A 
BRANCH  58  72
ATOM     72  C   UNL     1      -5.142  -2.732  -7.209  1.00  0.00    -0.014 A 
ATOM     73  C   UNL     1      -4.713  -4.043  -6.952  1.00  0.00     0.009 A 
ATOM     74  C   UNL     1      -5.523  -2.385  -8.515  1.00  0.00     0.009 A 
ATOM     75  C   UNL     1      -4.637  -4.976  -7.990  1.00  0.00     0.001 A 
ATOM     76  C   UNL     1      -5.471  -3.326  -9.545  1.00  0.00     0.001 A 
ATOM     77  C   UNL     1      -5.019  -4.618  -9.283  1.00  0.00     0.000 A 
ENDBRANCH  58  72
BRANCH  59  78
ATOM     78  C   UNL     1      -5.122   4.224  -0.013  1.00  0.00    -0.014 A 
ATOM     79  C   UNL     1      -5.542   3.922   1.290  1.00  0.00     0.009 A 
ATOM     80  C   UNL     1      -4.710   5.534  -0.306  1.00  0.00     0.009 A 
ATOM     81  C   UNL     1      -5.567   4.915   2.273  1.00  0.00     0.001 A 
ATOM     82  C   UNL     1      -4.707   6.517   0.685  1.00  0.00     0.001 A 
ATOM     83  C   UNL     1      -5.144   6.209   1.971  1.00  0.00     0.000 A 
ENDBRANCH  59  78
BRANCH  71  84
ATOM     84  C   UNL     1     -10.147   0.863  -3.455  1.00  0.00    -0.014 A 
ATOM     85  C   UNL     1     -10.862   1.951  -3.977  1.00  0.00     0.009 A 
ATOM     86  C   UNL     1     -10.850  -0.201  -2.867  1.00  0.00     0.009 A 
ATOM     87  C   UNL     1     -12.255   1.986  -3.884  1.00  0.00     0.001 A 
ATOM     88  C   UNL     1     -12.242  -0.174  -2.800  1.00  0.00     0.001 A 
ATOM     89  C   UNL     1     -12.943   0.922  -3.300  1.00  0.00     0.000 A 
ENDBRANCH  71  84
ENDBRANCH  45  46
ENDBRANCH  38  40
ENDBRANCH  37  38
ENDBRANCH  36  37
ENDBRANCH   1  36
TORSDOF 16
