REMARK SMILES COc1ccc(NC(=O)C[C@@H](C[NH+]2CCOCC2)C(=O)OCCOC(=O)c2ccc(-c3c4nc(c(-c5ccccc5)c5ccc([nH]5)c(-c5ccccc5)c5nc(c(-c6ccccc6)c6ccc3[nH]6)C=C5)C=C4)cc2)cc1
REMARK SMILES IDX 22 1 21 2 19 3 20 4 11 5 10 6 8 7 7 8 9 10 6 11 3 12 4 13
REMARK SMILES IDX 76 14 5 15 75 16 2 17 1 18 12 19 13 20 14 21 18 22 15 24
REMARK SMILES IDX 17 25 16 26 23 27 24 28 25 29 26 30 27 31 28 32 74 33 29 34
REMARK SMILES IDX 73 35 30 36 31 37 32 38 67 39 33 40 72 41 66 42 68 43 34 44
REMARK SMILES IDX 71 45 65 46 64 47 35 49 57 50 42 51 56 52 43 53 46 54 55 55
REMARK SMILES IDX 69 56 44 57 45 58 54 60 70 61 47 62 36 63 37 64 41 65 38 66
REMARK SMILES IDX 40 67 39 68 58 69 59 70 63 71 60 72 62 73 61 74 48 75 49 76
REMARK SMILES IDX 53 77 50 78 52 79 51 80
REMARK H PARENT 7 9 13 23 68 48 46 59
REMARK Flexibility Score: inf
ROOT
ATOM      1  C   UNL     1      -3.634   3.608  -5.953  1.00  0.00     0.274 C 
ENDROOT
BRANCH   1   2
ATOM      2  O   UNL     1      -2.398   4.009  -5.309  1.00  0.00    -0.462 OA
BRANCH   2   3
ATOM      3  C   UNL     1      -1.242   3.662  -5.920  1.00  0.00     0.315 C 
ATOM      4  O   UNL     1      -1.178   3.106  -7.012  1.00  0.00    -0.252 OA
BRANCH   3   5
ATOM      5  C   UNL     1      -0.014   3.873  -5.051  1.00  0.00     0.163 C 
BRANCH   5   6
ATOM      6  C   UNL     1       0.130   5.211  -4.310  1.00  0.00     0.121 C 
BRANCH   6   7
ATOM      7  C   UNL     1       1.558   5.747  -4.282  1.00  0.00     0.225 C 
ATOM      8  N   UNL     1       2.529   5.269  -3.447  1.00  0.00    -0.326 N 
ATOM      9  H   UNL     1       3.400   5.718  -3.537  1.00  0.00     0.169 HD
ATOM     10  O   UNL     1       1.899   6.598  -5.113  1.00  0.00    -0.275 OA
BRANCH   8  11
ATOM     11  C   UNL     1       2.499   4.250  -2.487  1.00  0.00     0.041 A 
ATOM     12  C   UNL     1       2.286   1.881  -0.999  1.00  0.00     0.119 A 
ATOM     13  C   UNL     1       1.429   2.949  -0.740  1.00  0.00     0.048 A 
ATOM     14  C   UNL     1       3.343   2.068  -1.889  1.00  0.00     0.048 A 
ATOM     15  C   UNL     1       1.522   4.129  -1.503  1.00  0.00     0.030 A 
ATOM     16  C   UNL     1       3.484   3.265  -2.591  1.00  0.00     0.030 A 
BRANCH  12  17
ATOM     17  O   UNL     1       2.136   0.592  -0.581  1.00  0.00    -0.497 OA
ATOM     18  C   UNL     1       1.508   0.325   0.661  1.00  0.00     0.278 C 
ENDBRANCH  12  17
ENDBRANCH   8  11
ENDBRANCH   6   7
ENDBRANCH   5   6
BRANCH   5  19
ATOM     19  C   UNL     1       0.187   2.562  -4.282  1.00  0.00     0.278 C 
BRANCH  19  20
ATOM     20  N   UNL     1      -0.583   2.131  -3.120  1.00  0.00    -0.330 N 
ATOM     21  C   UNL     1      -1.046   0.745  -3.180  1.00  0.00     0.291 C 
ATOM     22  C   UNL     1      -1.504   2.947  -2.341  1.00  0.00     0.291 C 
ATOM     23  H   UNL     1       0.232   2.311  -2.534  1.00  0.00     0.348 HD
ATOM     24  C   UNL     1      -2.480   0.705  -3.710  1.00  0.00     0.221 C 
ATOM     25  C   UNL     1      -3.008   2.716  -2.552  1.00  0.00     0.221 C 
ATOM     26  O   UNL     1      -3.371   1.355  -2.795  1.00  0.00    -0.370 OA
ENDBRANCH  19  20
ENDBRANCH   5  19
ENDBRANCH   3   5
ENDBRANCH   2   3
ENDBRANCH   1   2
BRANCH   1  27
ATOM     27  C   UNL     1      -4.583   4.802  -6.053  1.00  0.00     0.275 C 
BRANCH  27  28
ATOM     28  O   UNL     1      -4.212   5.588  -7.194  1.00  0.00    -0.458 OA
BRANCH  28  29
ATOM     29  C   UNL     1      -3.109   6.349  -7.014  1.00  0.00     0.338 C 
ATOM     30  O   UNL     1      -2.663   6.767  -5.959  1.00  0.00    -0.246 OA
BRANCH  29  31
ATOM     31  C   UNL     1      -2.365   6.327  -8.287  1.00  0.00     0.060 A 
ATOM     32  C   UNL     1      -0.986   6.088  -8.239  1.00  0.00     0.016 A 
ATOM     33  C   UNL     1      -3.030   6.447  -9.510  1.00  0.00     0.016 A 
ATOM     34  C   UNL     1      -0.265   5.945  -9.417  1.00  0.00     0.010 A 
ATOM     35  C   UNL     1      -2.303   6.332 -10.689  1.00  0.00     0.010 A 
ATOM     36  C   UNL     1      -0.919   6.093 -10.643  1.00  0.00    -0.014 A 
BRANCH  36  37
ATOM     37  C   UNL     1      -0.135   6.198 -11.884  1.00  0.00     0.031 A 
ATOM     38  C   UNL     1       0.162   7.573 -12.399  1.00  0.00     0.074 A 
ATOM     39  C   UNL     1       0.276   5.098 -12.534  1.00  0.00     0.049 A 
ATOM     40  N   UNL     1       0.693   7.937 -13.534  1.00  0.00    -0.248 NA
ATOM     41  C   UNL     1      -0.204   8.692 -11.512  1.00  0.00     0.031 C 
ATOM     42  C   UNL     1       0.096   3.722 -12.075  1.00  0.00     0.029 A 
ATOM     43  N   UNL     1       0.922   4.974 -13.736  1.00  0.00    -0.354 N 
ATOM     44  C   UNL     1       0.702   9.325 -13.508  1.00  0.00     0.074 A 
ATOM     45  C   UNL     1       0.109   9.739 -12.258  1.00  0.00     0.031 C 
ATOM     46  C   UNL     1       0.608   2.887 -12.996  1.00  0.00     0.029 A 
ATOM     47  C   UNL     1       1.104   3.670 -14.124  1.00  0.00     0.049 A 
ATOM     48  H   UNL     1       1.226   5.744 -14.268  1.00  0.00     0.167 HD
ATOM     49  C   UNL     1       1.164  10.175 -14.453  1.00  0.00     0.031 A 
ATOM     50  C   UNL     1       1.584   3.178 -15.281  1.00  0.00     0.031 A 
ATOM     51  C   UNL     1       1.734   9.741 -15.697  1.00  0.00     0.049 A 
ATOM     52  C   UNL     1       2.012   4.146 -16.354  1.00  0.00     0.074 A 
ATOM     53  C   UNL     1       2.231  10.508 -16.735  1.00  0.00     0.029 A 
ATOM     54  N   UNL     1       1.878   8.412 -16.070  1.00  0.00    -0.354 N 
ATOM     55  N   UNL     1       2.015   5.458 -16.331  1.00  0.00    -0.248 NA
ATOM     56  C   UNL     1       2.501   3.565 -17.611  1.00  0.00     0.031 C 
ATOM     57  C   UNL     1       2.626   9.642 -17.759  1.00  0.00     0.029 A 
ATOM     58  C   UNL     1       2.434   8.335 -17.333  1.00  0.00     0.049 A 
ATOM     59  H   UNL     1       1.623   7.639 -15.517  1.00  0.00     0.167 HD
ATOM     60  C   UNL     1       2.531   5.859 -17.557  1.00  0.00     0.074 A 
ATOM     61  C   UNL     1       2.841   4.650 -18.293  1.00  0.00     0.031 C 
ATOM     62  C   UNL     1       2.734   7.113 -18.034  1.00  0.00     0.031 A 
BRANCH  49  63
ATOM     63  C   UNL     1       1.011  11.645 -14.187  1.00  0.00    -0.014 A 
ATOM     64  C   UNL     1       1.770  12.296 -13.201  1.00  0.00     0.009 A 
ATOM     65  C   UNL     1       0.084  12.390 -14.931  1.00  0.00     0.009 A 
ATOM     66  C   UNL     1       1.577  13.654 -12.941  1.00  0.00     0.001 A 
ATOM     67  C   UNL     1      -0.087  13.754 -14.690  1.00  0.00     0.001 A 
ATOM     68  C   UNL     1       0.652  14.383 -13.688  1.00  0.00     0.000 A 
ENDBRANCH  49  63
BRANCH  50  69
ATOM     69  C   UNL     1       1.654   1.710 -15.501  1.00  0.00    -0.014 A 
ATOM     70  C   UNL     1       2.893   1.058 -15.597  1.00  0.00     0.009 A 
ATOM     71  C   UNL     1       0.480   0.950 -15.630  1.00  0.00     0.009 A 
ATOM     72  C   UNL     1       2.955  -0.317 -15.841  1.00  0.00     0.001 A 
ATOM     73  C   UNL     1       0.544  -0.429 -15.845  1.00  0.00     0.001 A 
ATOM     74  C   UNL     1       1.782  -1.059 -15.960  1.00  0.00     0.000 A 
ENDBRANCH  50  69
BRANCH  62  75
ATOM     75  C   UNL     1       3.359   7.235 -19.394  1.00  0.00    -0.014 A 
ATOM     76  C   UNL     1       2.635   6.941 -20.559  1.00  0.00     0.009 A 
ATOM     77  C   UNL     1       4.675   7.708 -19.508  1.00  0.00     0.009 A 
ATOM     78  C   UNL     1       3.230   7.092 -21.813  1.00  0.00     0.001 A 
ATOM     79  C   UNL     1       5.257   7.887 -20.763  1.00  0.00     0.001 A 
ATOM     80  C   UNL     1       4.537   7.571 -21.913  1.00  0.00     0.000 A 
ENDBRANCH  62  75
ENDBRANCH  36  37
ENDBRANCH  29  31
ENDBRANCH  28  29
ENDBRANCH  27  28
ENDBRANCH   1  27
TORSDOF 17
