REMARK SMILES CCc1ccc(-c2cc(Cl)cc3c2O[C@H](C(F)(F)F)C(C(=O)OCCOC(=O)c2ccc(-c4c5nc(c(-c6ccccc6)c6ccc([nH]6)c(-c6ccccc6)c6nc(c(-c7ccccc7)c7ccc4[nH]7)C=C6)C=C5)cc2)=C3)cc1
REMARK SMILES IDX 24 1 23 2 21 3 22 4 20 5 7 6 8 7 13 8 9 9 12 10 14 11 10 12
REMARK SMILES IDX 11 13 77 14 15 15 6 16 3 17 4 18 79 19 5 20 78 21 2 22 1 23
REMARK SMILES IDX 16 24 17 25 18 26 19 27 25 28 26 29 27 30 28 31 29 32 30 33
REMARK SMILES IDX 76 34 31 35 75 36 32 37 33 38 34 39 69 40 35 41 74 42 68 43
REMARK SMILES IDX 70 44 36 45 73 46 67 47 66 48 37 50 59 51 44 52 58 53 45 54
REMARK SMILES IDX 48 55 57 56 71 57 46 58 47 59 56 61 72 62 49 63 38 64 39 65
REMARK SMILES IDX 43 66 40 67 42 68 41 69 60 70 61 71 65 72 62 73 64 74 63 75
REMARK SMILES IDX 50 76 51 77 55 78 52 79 54 80 53 81
REMARK H PARENT 70 49 48 60
REMARK Flexibility Score: inf
ROOT
ATOM      1  C   UNL     1       4.085   8.227  -9.899  1.00  0.00     0.275 C 
ENDROOT
BRANCH   1   2
ATOM      2  O   UNL     1       4.215   8.417  -8.470  1.00  0.00    -0.459 OA
BRANCH   2   3
ATOM      3  C   UNL     1       3.307   9.296  -7.977  1.00  0.00     0.338 C 
ATOM      4  O   UNL     1       2.518   9.934  -8.665  1.00  0.00    -0.246 OA
BRANCH   3   5
ATOM      5  C   UNL     1       3.261   9.343  -6.498  1.00  0.00     0.087 C 
ATOM      6  C   UNL     1       2.314   6.109  -4.161  1.00  0.00     0.026 A 
ATOM      7  C   UNL     1       1.477   5.329  -4.998  1.00  0.00     0.033 A 
ATOM      8  C   UNL     1       2.628   7.369  -4.672  1.00  0.00     0.135 A 
ATOM      9  C   UNL     1       0.873   5.802  -6.165  1.00  0.00     0.042 A 
ATOM     10  C   UNL     1       1.807   7.911  -5.691  1.00  0.00     0.019 A 
ATOM     11  O   UNL     1       3.758   8.106  -4.349  1.00  0.00    -0.475 OA
ATOM     12  Cl  UNL     1      -0.030   4.800  -7.224  1.00  0.00    -0.084 Cl
ATOM     13  C   UNL     1       0.964   7.134  -6.466  1.00  0.00     0.032 A 
ATOM     14  C   UNL     1       1.995   9.325  -6.056  1.00  0.00     0.027 C 
ATOM     15  C   UNL     1       4.330   8.817  -5.557  1.00  0.00     0.316 C 
BRANCH   6  16
ATOM     16  C   UNL     1       2.474   5.546  -2.782  1.00  0.00    -0.015 A 
ATOM     17  C   UNL     1       2.042   3.690  -0.615  1.00  0.00    -0.048 A 
ATOM     18  C   UNL     1       3.219   3.666  -1.369  1.00  0.00     0.004 A 
ATOM     19  C   UNL     1       1.133   4.720  -0.884  1.00  0.00     0.004 A 
ATOM     20  C   UNL     1       3.443   4.602  -2.412  1.00  0.00     0.009 A 
ATOM     21  C   UNL     1       1.346   5.623  -1.939  1.00  0.00     0.009 A 
BRANCH  17  22
ATOM     22  C   UNL     1       1.689   2.687   0.464  1.00  0.00     0.032 C 
ATOM     23  C   UNL     1       2.474   1.385   0.535  1.00  0.00     0.009 C 
ENDBRANCH  17  22
ENDBRANCH   6  16
BRANCH  15  24
ATOM     24  C   UNL     1       5.150  10.041  -5.130  1.00  0.00     0.430 C 
ATOM     25  F   UNL     1       4.413  10.901  -4.386  1.00  0.00    -0.167 F 
ATOM     26  F   UNL     1       6.240   9.703  -4.410  1.00  0.00    -0.167 F 
ATOM     27  F   UNL     1       5.589  10.733  -6.213  1.00  0.00    -0.167 F 
ENDBRANCH  15  24
ENDBRANCH   3   5
ENDBRANCH   2   3
ENDBRANCH   1   2
BRANCH   1  28
ATOM     28  C   UNL     1       4.691   6.907 -10.380  1.00  0.00     0.275 C 
BRANCH  28  29
ATOM     29  O   UNL     1       4.163   5.783  -9.645  1.00  0.00    -0.458 OA
BRANCH  29  30
ATOM     30  C   UNL     1       4.910   5.431  -8.572  1.00  0.00     0.338 C 
ATOM     31  O   UNL     1       5.965   5.961  -8.231  1.00  0.00    -0.246 OA
BRANCH  30  32
ATOM     32  C   UNL     1       4.263   4.374  -7.752  1.00  0.00     0.060 A 
ATOM     33  C   UNL     1       4.640   4.321  -6.413  1.00  0.00     0.016 A 
ATOM     34  C   UNL     1       3.349   3.424  -8.232  1.00  0.00     0.016 A 
ATOM     35  C   UNL     1       4.089   3.354  -5.571  1.00  0.00     0.010 A 
ATOM     36  C   UNL     1       2.781   2.457  -7.360  1.00  0.00     0.010 A 
ATOM     37  C   UNL     1       3.123   2.425  -6.003  1.00  0.00    -0.014 A 
BRANCH  37  38
ATOM     38  C   UNL     1       2.672   1.398  -4.992  1.00  0.00     0.031 A 
ATOM     39  C   UNL     1       3.736   0.501  -4.424  1.00  0.00     0.074 A 
ATOM     40  C   UNL     1       1.446   1.354  -4.420  1.00  0.00     0.049 A 
ATOM     41  N   UNL     1       3.729  -0.212  -3.327  1.00  0.00    -0.248 NA
ATOM     42  C   UNL     1       4.987   0.422  -5.196  1.00  0.00     0.031 C 
ATOM     43  C   UNL     1       0.303   2.156  -4.814  1.00  0.00     0.029 A 
ATOM     44  N   UNL     1       0.975   0.680  -3.305  1.00  0.00    -0.354 N 
ATOM     45  C   UNL     1       4.975  -0.816  -3.274  1.00  0.00     0.074 A 
ATOM     46  C   UNL     1       5.723  -0.362  -4.428  1.00  0.00     0.031 C 
ATOM     47  C   UNL     1      -0.637   2.121  -3.856  1.00  0.00     0.029 A 
ATOM     48  C   UNL     1      -0.247   1.147  -2.845  1.00  0.00     0.049 A 
ATOM     49  H   UNL     1       1.463  -0.062  -2.879  1.00  0.00     0.167 HD
ATOM     50  C   UNL     1       5.447  -1.711  -2.377  1.00  0.00     0.031 A 
ATOM     51  C   UNL     1      -0.971   0.836  -1.744  1.00  0.00     0.031 A 
ATOM     52  C   UNL     1       4.679  -2.278  -1.304  1.00  0.00     0.049 A 
ATOM     53  C   UNL     1      -0.488  -0.284  -0.855  1.00  0.00     0.074 A 
ATOM     54  C   UNL     1       5.070  -3.234  -0.384  1.00  0.00     0.029 A 
ATOM     55  N   UNL     1       3.350  -1.986  -1.039  1.00  0.00    -0.354 N 
ATOM     56  N   UNL     1       0.648  -0.936  -0.887  1.00  0.00    -0.248 NA
ATOM     57  C   UNL     1      -1.394  -0.720   0.221  1.00  0.00     0.031 C 
ATOM     58  C   UNL     1       3.958  -3.571   0.394  1.00  0.00     0.029 A 
ATOM     59  C   UNL     1       2.906  -2.745   0.032  1.00  0.00     0.049 A 
ATOM     60  H   UNL     1       2.803  -1.337  -1.537  1.00  0.00     0.167 HD
ATOM     61  C   UNL     1       0.625  -1.802   0.199  1.00  0.00     0.074 A 
ATOM     62  C   UNL     1      -0.652  -1.616   0.855  1.00  0.00     0.031 C 
ATOM     63  C   UNL     1       1.604  -2.630   0.641  1.00  0.00     0.031 A 
BRANCH  50  64
ATOM     64  C   UNL     1       6.832  -2.228  -2.631  1.00  0.00    -0.014 A 
ATOM     65  C   UNL     1       7.969  -1.431  -2.423  1.00  0.00     0.009 A 
ATOM     66  C   UNL     1       6.988  -3.523  -3.147  1.00  0.00     0.009 A 
ATOM     67  C   UNL     1       9.233  -1.910  -2.772  1.00  0.00     0.001 A 
ATOM     68  C   UNL     1       8.254  -4.008  -3.468  1.00  0.00     0.001 A 
ATOM     69  C   UNL     1       9.374  -3.197  -3.293  1.00  0.00     0.000 A 
ENDBRANCH  50  64
BRANCH  51  70
ATOM     70  C   UNL     1      -2.219   1.586  -1.368  1.00  0.00    -0.014 A 
ATOM     71  C   UNL     1      -2.304   2.251  -0.128  1.00  0.00     0.009 A 
ATOM     72  C   UNL     1      -3.352   1.608  -2.193  1.00  0.00     0.009 A 
ATOM     73  C   UNL     1      -3.474   2.905   0.275  1.00  0.00     0.001 A 
ATOM     74  C   UNL     1      -4.513   2.292  -1.807  1.00  0.00     0.001 A 
ATOM     75  C   UNL     1      -4.577   2.933  -0.572  1.00  0.00     0.000 A 
ENDBRANCH  51  70
BRANCH  63  76
ATOM     76  C   UNL     1       1.349  -3.390   1.917  1.00  0.00    -0.014 A 
ATOM     77  C   UNL     1       0.376  -4.397   2.009  1.00  0.00     0.009 A 
ATOM     78  C   UNL     1       2.130  -3.102   3.050  1.00  0.00     0.009 A 
ATOM     79  C   UNL     1       0.163  -5.066   3.218  1.00  0.00     0.001 A 
ATOM     80  C   UNL     1       1.944  -3.799   4.243  1.00  0.00     0.001 A 
ATOM     81  C   UNL     1       0.951  -4.772   4.331  1.00  0.00     0.000 A 
ENDBRANCH  63  76
ENDBRANCH  37  38
ENDBRANCH  30  32
ENDBRANCH  29  30
ENDBRANCH  28  29
ENDBRANCH   1  28
TORSDOF 14
