REMARK SMILES O=C(OCCOC(=O)[C@@]1([NH2+]C2CC2)CC[C@H](OC2CCC2)C1)c1ccc(-c2c3nc(c(-c4ccccc4)c4ccc([nH]4)c(-c4ccccc4)c4nc(c(-c5ccccc5)c5ccc2[nH]5)C=C4)C=C3)cc1
REMARK SMILES IDX 4 1 3 2 2 3 1 4 23 5 24 6 70 7 25 8 69 9 26 10 27 11 28 12
REMARK SMILES IDX 63 13 29 14 68 15 62 16 64 17 30 18 67 19 61 20 60 21 31 23
REMARK SMILES IDX 53 24 38 25 52 26 39 27 42 28 51 29 65 30 40 31 41 32 50 34
REMARK SMILES IDX 66 35 43 36 32 37 33 38 37 39 34 40 36 41 35 42 54 43 55 44
REMARK SMILES IDX 59 45 56 46 58 47 57 48 44 49 45 50 49 51 46 52 48 53 47 54
REMARK SMILES IDX 5 55 6 56 7 57 8 58 9 59 14 60 22 61 15 62 16 63 10 64 11 67
REMARK SMILES IDX 12 68 13 69 17 70 18 71 19 72 21 73 20 74
REMARK H PARENT 64 22 42 33 10 65 10 66
REMARK Flexibility Score: inf
ROOT
ATOM      1  C   UNL     1       4.677  -1.727   0.212  1.00  0.00     0.275 C 
ENDROOT
BRANCH   1   2
ATOM      2  O   UNL     1       4.329  -0.815   1.272  1.00  0.00    -0.458 OA
BRANCH   2   3
ATOM      3  C   UNL     1       4.096   0.512   1.197  1.00  0.00     0.338 C 
ATOM      4  O   UNL     1       3.327   1.029   2.013  1.00  0.00    -0.246 OA
BRANCH   3   5
ATOM      5  C   UNL     1       4.730   1.394   0.169  1.00  0.00     0.060 A 
ATOM      6  C   UNL     1       5.847   1.085  -0.617  1.00  0.00     0.016 A 
ATOM      7  C   UNL     1       4.130   2.646  -0.018  1.00  0.00     0.016 A 
ATOM      8  C   UNL     1       6.260   1.923  -1.670  1.00  0.00     0.010 A 
ATOM      9  C   UNL     1       4.524   3.471  -1.073  1.00  0.00     0.010 A 
ATOM     10  C   UNL     1       5.581   3.112  -1.932  1.00  0.00    -0.014 A 
BRANCH  10  11
ATOM     11  C   UNL     1       6.028   4.106  -2.949  1.00  0.00     0.031 A 
ATOM     12  C   UNL     1       6.361   5.477  -2.425  1.00  0.00     0.074 A 
ATOM     13  C   UNL     1       6.014   3.877  -4.280  1.00  0.00     0.049 A 
ATOM     14  N   UNL     1       6.434   6.620  -3.051  1.00  0.00    -0.248 NA
ATOM     15  C   UNL     1       6.548   5.572  -0.964  1.00  0.00     0.031 C 
ATOM     16  C   UNL     1       5.694   2.608  -4.937  1.00  0.00     0.029 A 
ATOM     17  N   UNL     1       6.192   4.750  -5.333  1.00  0.00    -0.354 N 
ATOM     18  C   UNL     1       6.652   7.557  -2.050  1.00  0.00     0.074 A 
ATOM     19  C   UNL     1       6.509   6.879  -0.784  1.00  0.00     0.031 C 
ATOM     20  C   UNL     1       5.597   2.808  -6.267  1.00  0.00     0.029 A 
ATOM     21  C   UNL     1       5.847   4.215  -6.559  1.00  0.00     0.049 A 
ATOM     22  H   UNL     1       6.533   5.666  -5.222  1.00  0.00     0.167 HD
ATOM     23  C   UNL     1       7.053   8.844  -2.161  1.00  0.00     0.031 A 
ATOM     24  C   UNL     1       5.691   4.814  -7.760  1.00  0.00     0.031 A 
ATOM     25  C   UNL     1       7.279   9.483  -3.420  1.00  0.00     0.049 A 
ATOM     26  C   UNL     1       6.017   6.285  -7.878  1.00  0.00     0.074 A 
ATOM     27  C   UNL     1       7.833  10.721  -3.680  1.00  0.00     0.029 A 
ATOM     28  N   UNL     1       6.971   8.905  -4.642  1.00  0.00    -0.354 N 
ATOM     29  N   UNL     1       6.337   7.140  -6.934  1.00  0.00    -0.248 NA
ATOM     30  C   UNL     1       6.007   6.865  -9.230  1.00  0.00     0.031 C 
ATOM     31  C   UNL     1       7.844  10.899  -5.068  1.00  0.00     0.029 A 
ATOM     32  C   UNL     1       7.327   9.758  -5.665  1.00  0.00     0.049 A 
ATOM     33  H   UNL     1       6.561   8.018  -4.761  1.00  0.00     0.167 HD
ATOM     34  C   UNL     1       6.665   8.323  -7.586  1.00  0.00     0.074 A 
ATOM     35  C   UNL     1       6.444   8.097  -8.999  1.00  0.00     0.031 C 
ATOM     36  C   UNL     1       7.152   9.477  -7.067  1.00  0.00     0.031 A 
BRANCH  23  37
ATOM     37  C   UNL     1       7.348   9.562  -0.873  1.00  0.00    -0.014 A 
ATOM     38  C   UNL     1       8.390   9.119  -0.035  1.00  0.00     0.009 A 
ATOM     39  C   UNL     1       6.535  10.617  -0.443  1.00  0.00     0.009 A 
ATOM     40  C   UNL     1       8.545   9.646   1.247  1.00  0.00     0.001 A 
ATOM     41  C   UNL     1       6.723  11.175   0.825  1.00  0.00     0.001 A 
ATOM     42  C   UNL     1       7.707  10.672   1.677  1.00  0.00     0.000 A 
ENDBRANCH  23  37
BRANCH  24  43
ATOM     43  C   UNL     1       5.191   4.064  -8.951  1.00  0.00    -0.014 A 
ATOM     44  C   UNL     1       6.065   3.667  -9.973  1.00  0.00     0.009 A 
ATOM     45  C   UNL     1       3.820   3.802  -9.117  1.00  0.00     0.009 A 
ATOM     46  C   UNL     1       5.574   3.065 -11.140  1.00  0.00     0.001 A 
ATOM     47  C   UNL     1       3.331   3.191 -10.276  1.00  0.00     0.001 A 
ATOM     48  C   UNL     1       4.208   2.832 -11.293  1.00  0.00     0.000 A 
ENDBRANCH  24  43
BRANCH  36  49
ATOM     49  C   UNL     1       7.634  10.529  -8.022  1.00  0.00    -0.014 A 
ATOM     50  C   UNL     1       6.755  11.414  -8.657  1.00  0.00     0.009 A 
ATOM     51  C   UNL     1       9.020  10.707  -8.175  1.00  0.00     0.009 A 
ATOM     52  C   UNL     1       7.259  12.463  -9.431  1.00  0.00     0.001 A 
ATOM     53  C   UNL     1       9.520  11.768  -8.927  1.00  0.00     0.001 A 
ATOM     54  C   UNL     1       8.638  12.645  -9.555  1.00  0.00     0.000 A 
ENDBRANCH  36  49
ENDBRANCH  10  11
ENDBRANCH   3   5
ENDBRANCH   2   3
ENDBRANCH   1   2
BRANCH   1  55
ATOM     55  C   UNL     1       3.605  -1.934  -0.861  1.00  0.00     0.274 C 
BRANCH  55  56
ATOM     56  O   UNL     1       3.116  -0.708  -1.428  1.00  0.00    -0.457 OA
BRANCH  56  57
ATOM     57  C   UNL     1       2.118  -0.875  -2.361  1.00  0.00     0.368 C 
ATOM     58  O   UNL     1       1.762  -1.984  -2.763  1.00  0.00    -0.245 OA
BRANCH  57  59
ATOM     59  C   UNL     1       1.536   0.472  -2.867  1.00  0.00     0.197 C 
ATOM     60  C   UNL     1       2.194   1.682  -2.228  1.00  0.00     0.084 C 
ATOM     61  C   UNL     1       1.933   0.743  -4.352  1.00  0.00     0.113 C 
ATOM     62  C   UNL     1       1.848   2.844  -3.113  1.00  0.00     0.039 C 
ATOM     63  C   UNL     1       2.055   2.287  -4.506  1.00  0.00     0.125 C 
BRANCH  59  64
ATOM     64  N   UNL     1       0.065   0.489  -2.810  1.00  0.00    -0.330 N 
ATOM     65  H   UNL     1      -0.247  -0.285  -3.396  1.00  0.00     0.347 HD
ATOM     66  H   UNL     1      -0.137   1.451  -3.082  1.00  0.00     0.347 HD
BRANCH  64  67
ATOM     67  C   UNL     1      -0.687   0.378  -1.566  1.00  0.00     0.183 C 
ATOM     68  C   UNL     1      -0.312   0.793  -0.175  1.00  0.00     0.071 C 
ATOM     69  C   UNL     1      -1.190   1.686  -0.991  1.00  0.00     0.071 C 
ENDBRANCH  64  67
ENDBRANCH  59  64
BRANCH  63  70
ATOM     70  O   UNL     1       1.102   2.846  -5.400  1.00  0.00    -0.375 OA
BRANCH  70  71
ATOM     71  C   UNL     1       1.200   4.250  -5.779  1.00  0.00     0.118 C 
ATOM     72  C   UNL     1       0.630   5.329  -4.811  1.00  0.00     0.032 C 
ATOM     73  C   UNL     1       2.538   5.030  -5.683  1.00  0.00     0.032 C 
ATOM     74  C   UNL     1       1.716   6.282  -5.344  1.00  0.00     0.005 C 
ENDBRANCH  70  71
ENDBRANCH  63  70
ENDBRANCH  57  59
ENDBRANCH  56  57
ENDBRANCH  55  56
ENDBRANCH   1  55
TORSDOF 15
