REMARK SMILES CCc1ccsc1CNC(=O)N1[C@H]2CC[C@@H]1[C@H](C(=O)OCCOC(=O)c1ccc(-c3c4nc(c(-c5ccccc5)c5ccc([nH]5)c(-c5ccccc5)c5nc(c(-c6ccccc6)c6ccc3[nH]6)C=C5)C=C4)cc1)C2
REMARK SMILES IDX 21 1 20 2 18 3 19 4 17 5 12 6 13 7 16 8 14 9 74 10 15 11
REMARK SMILES IDX 10 12 9 13 11 15 8 16 7 17 3 18 4 19 5 20 6 21 2 22 1 23
REMARK SMILES IDX 22 24 23 25 24 26 25 27 26 28 27 29 73 30 28 31 72 32 29 33
REMARK SMILES IDX 30 34 31 35 66 36 32 37 71 38 65 39 67 40 33 41 70 42 64 43
REMARK SMILES IDX 63 44 34 46 56 47 41 48 55 49 42 50 45 51 54 52 68 53 43 54
REMARK SMILES IDX 44 55 53 57 69 58 46 59 35 60 36 61 40 62 37 63 39 64 38 65
REMARK SMILES IDX 57 66 58 67 62 68 59 69 61 70 60 71 47 72 48 73 52 74 49 75
REMARK SMILES IDX 51 76 50 77
REMARK H PARENT 9 14 67 45 45 56
REMARK Flexibility Score: inf
ROOT
ATOM      1  C   UNL     1       4.880  -3.426 -10.412  1.00  0.00     0.274 C 
ENDROOT
BRANCH   1   2
ATOM      2  O   UNL     1       4.896  -2.742  -9.143  1.00  0.00    -0.462 OA
BRANCH   2   3
ATOM      3  C   UNL     1       3.873  -3.021  -8.305  1.00  0.00     0.311 C 
ATOM      4  O   UNL     1       2.902  -3.710  -8.604  1.00  0.00    -0.252 OA
BRANCH   3   5
ATOM      5  C   UNL     1       3.994  -2.381  -6.950  1.00  0.00     0.124 C 
ATOM      6  N   UNL     1       4.901  -1.347  -5.182  1.00  0.00    -0.318 N 
ATOM      7  C   UNL     1       4.328  -0.241  -5.925  1.00  0.00     0.088 C 
ATOM      8  C   UNL     1       5.367  -2.175  -6.282  1.00  0.00     0.101 C 
ATOM      9  C   UNL     1       5.536   0.173  -6.787  1.00  0.00     0.027 C 
ATOM     10  C   UNL     1       3.337  -0.984  -6.842  1.00  0.00     0.042 C 
ATOM     11  C   UNL     1       6.273  -1.166  -6.999  1.00  0.00     0.028 C 
BRANCH   6  12
ATOM     12  C   UNL     1       5.165  -1.560  -3.878  1.00  0.00     0.318 C 
ATOM     13  N   UNL     1       4.344  -1.042  -2.937  1.00  0.00    -0.333 N 
ATOM     14  H   UNL     1       4.754  -0.865  -2.059  1.00  0.00     0.165 HD
ATOM     15  O   UNL     1       6.104  -2.264  -3.506  1.00  0.00    -0.249 OA
BRANCH  13  16
ATOM     16  C   UNL     1       2.941  -0.716  -3.055  1.00  0.00     0.165 C 
BRANCH  16  17
ATOM     17  C   UNL     1       2.070  -1.802  -2.472  1.00  0.00     0.027 A 
ATOM     18  C   UNL     1       0.925  -1.655  -1.694  1.00  0.00    -0.033 A 
ATOM     19  C   UNL     1       0.352  -2.929  -1.365  1.00  0.00     0.016 A 
ATOM     20  C   UNL     1       1.043  -3.983  -1.914  1.00  0.00     0.065 A 
ATOM     21  S   UNL     1       2.368  -3.456  -2.843  1.00  0.00    -0.147 S 
BRANCH  18  22
ATOM     22  C   UNL     1       0.329  -0.347  -1.252  1.00  0.00     0.033 C 
ATOM     23  C   UNL     1       0.906   0.137   0.069  1.00  0.00     0.009 C 
ENDBRANCH  18  22
ENDBRANCH  16  17
ENDBRANCH  13  16
ENDBRANCH   6  12
ENDBRANCH   3   5
ENDBRANCH   2   3
ENDBRANCH   1   2
BRANCH   1  24
ATOM     24  C   UNL     1       5.803  -4.649 -10.399  1.00  0.00     0.275 C 
BRANCH  24  25
ATOM     25  O   UNL     1       5.322  -5.684  -9.518  1.00  0.00    -0.458 OA
BRANCH  25  26
ATOM     26  C   UNL     1       5.767  -5.589  -8.243  1.00  0.00     0.338 C 
ATOM     27  O   UNL     1       6.537  -4.752  -7.802  1.00  0.00    -0.246 OA
BRANCH  26  28
ATOM     28  C   UNL     1       5.093  -6.574  -7.377  1.00  0.00     0.060 A 
ATOM     29  C   UNL     1       4.546  -6.114  -6.174  1.00  0.00     0.016 A 
ATOM     30  C   UNL     1       5.088  -7.938  -7.676  1.00  0.00     0.016 A 
ATOM     31  C   UNL     1       4.018  -7.013  -5.254  1.00  0.00     0.010 A 
ATOM     32  C   UNL     1       4.563  -8.844  -6.746  1.00  0.00     0.010 A 
ATOM     33  C   UNL     1       4.050  -8.387  -5.519  1.00  0.00    -0.014 A 
BRANCH  33  34
ATOM     34  C   UNL     1       3.650  -9.327  -4.447  1.00  0.00     0.031 A 
ATOM     35  C   UNL     1       4.710 -10.006  -3.625  1.00  0.00     0.074 A 
ATOM     36  C   UNL     1       2.350  -9.511  -4.156  1.00  0.00     0.049 A 
ATOM     37  N   UNL     1       4.574 -10.832  -2.618  1.00  0.00    -0.248 NA
ATOM     38  C   UNL     1       6.107  -9.713  -3.982  1.00  0.00     0.031 C 
ATOM     39  C   UNL     1       1.230  -8.872  -4.846  1.00  0.00     0.029 A 
ATOM     40  N   UNL     1       1.756 -10.277  -3.186  1.00  0.00    -0.354 N 
ATOM     41  C   UNL     1       5.865 -11.163  -2.227  1.00  0.00     0.074 A 
ATOM     42  C   UNL     1       6.770 -10.472  -3.121  1.00  0.00     0.031 C 
ATOM     43  C   UNL     1       0.082  -9.263  -4.267  1.00  0.00     0.029 A 
ATOM     44  C   UNL     1       0.386 -10.197  -3.185  1.00  0.00     0.049 A 
ATOM     45  H   UNL     1       2.264 -10.832  -2.551  1.00  0.00     0.167 HD
ATOM     46  C   UNL     1       6.265 -11.964  -1.210  1.00  0.00     0.031 A 
ATOM     47  C   UNL     1      -0.521 -10.810  -2.402  1.00  0.00     0.031 A 
ATOM     48  C   UNL     1       5.371 -12.652  -0.317  1.00  0.00     0.049 A 
ATOM     49  C   UNL     1      -0.053 -11.730  -1.309  1.00  0.00     0.074 A 
ATOM     50  C   UNL     1       5.681 -13.490   0.740  1.00  0.00     0.029 A 
ATOM     51  N   UNL     1       3.989 -12.575  -0.375  1.00  0.00    -0.354 N 
ATOM     52  N   UNL     1       1.171 -12.036  -0.952  1.00  0.00    -0.248 NA
ATOM     53  C   UNL     1      -1.096 -12.381  -0.503  1.00  0.00     0.031 C 
ATOM     54  C   UNL     1       4.484 -13.951   1.298  1.00  0.00     0.029 A 
ATOM     55  C   UNL     1       3.430 -13.363   0.618  1.00  0.00     0.049 A 
ATOM     56  H   UNL     1       3.479 -12.041  -1.026  1.00  0.00     0.167 HD
ATOM     57  C   UNL     1       1.046 -12.895   0.132  1.00  0.00     0.074 A 
ATOM     58  C   UNL     1      -0.372 -13.047   0.386  1.00  0.00     0.031 C 
ATOM     59  C   UNL     1       2.018 -13.504   0.854  1.00  0.00     0.031 A 
BRANCH  46  60
ATOM     60  C   UNL     1       7.744 -12.162  -1.036  1.00  0.00    -0.014 A 
ATOM     61  C   UNL     1       8.558 -11.146  -0.510  1.00  0.00     0.009 A 
ATOM     62  C   UNL     1       8.327 -13.388  -1.390  1.00  0.00     0.009 A 
ATOM     63  C   UNL     1       9.934 -11.344  -0.375  1.00  0.00     0.001 A 
ATOM     64  C   UNL     1       9.699 -13.591  -1.231  1.00  0.00     0.001 A 
ATOM     65  C   UNL     1      10.502 -12.567  -0.732  1.00  0.00     0.000 A 
ENDBRANCH  46  60
BRANCH  47  66
ATOM     66  C   UNL     1      -1.971 -10.580  -2.624  1.00  0.00    -0.014 A 
ATOM     67  C   UNL     1      -2.729  -9.842  -1.703  1.00  0.00     0.009 A 
ATOM     68  C   UNL     1      -2.608 -11.117  -3.754  1.00  0.00     0.009 A 
ATOM     69  C   UNL     1      -4.101  -9.668  -1.896  1.00  0.00     0.001 A 
ATOM     70  C   UNL     1      -3.975 -10.919  -3.957  1.00  0.00     0.001 A 
ATOM     71  C   UNL     1      -4.722 -10.203  -3.024  1.00  0.00     0.000 A 
ENDBRANCH  47  66
BRANCH  59  72
ATOM     72  C   UNL     1       1.575 -14.362   2.005  1.00  0.00    -0.014 A 
ATOM     73  C   UNL     1       0.983 -15.617   1.792  1.00  0.00     0.009 A 
ATOM     74  C   UNL     1       1.768 -13.914   3.321  1.00  0.00     0.009 A 
ATOM     75  C   UNL     1       0.558 -16.389   2.876  1.00  0.00     0.001 A 
ATOM     76  C   UNL     1       1.365 -14.698   4.402  1.00  0.00     0.001 A 
ATOM     77  C   UNL     1       0.750 -15.930   4.179  1.00  0.00     0.000 A 
ENDBRANCH  59  72
ENDBRANCH  33  34
ENDBRANCH  26  28
ENDBRANCH  25  26
ENDBRANCH  24  25
ENDBRANCH   1  24
TORSDOF 15
