REMARK SMILES O=C(OCCOC(=O)c1cc(S(=O)(=O)NCCNc2ccccn2)ccc1F)c1ccc(-c2c3nc(c(-c4ccccc4)c4ccc([nH]4)c(-c4ccccc4)c4nc(c(-c5ccccc5)c5ccc2[nH]5)C=C4)C=C3)cc1
REMARK SMILES IDX 7 1 8 2 6 3 5 4 4 5 3 6 2 7 1 8 29 9 30 10 76 11 31 12 75 13
REMARK SMILES IDX 32 14 33 15 34 16 69 17 35 18 74 19 68 20 70 21 36 22 73 23
REMARK SMILES IDX 67 24 66 25 37 27 59 28 44 29 58 30 45 31 48 32 57 33 71 34
REMARK SMILES IDX 46 35 47 36 56 38 72 39 49 40 38 41 39 42 43 43 40 44 42 45
REMARK SMILES IDX 41 46 60 47 61 48 65 49 62 50 64 51 63 52 50 53 51 54 55 55
REMARK SMILES IDX 52 56 54 57 53 58 9 59 10 60 27 61 11 62 26 63 28 64 25 65
REMARK SMILES IDX 12 66 13 67 14 68 15 69 16 71 17 72 18 73 19 75 20 76 24 77
REMARK SMILES IDX 21 78 23 79 22 80
REMARK H PARENT 70 26 48 37 15 70 18 74
REMARK Flexibility Score: inf
ROOT
ATOM      1  C   UNL     1       1.993  -1.202   1.940  1.00  0.00     0.341 C 
ATOM      2  O   UNL     1       1.163  -0.385   2.292  1.00  0.00    -0.246 OA
ENDROOT
BRANCH   1   3
ATOM      3  O   UNL     1       3.338  -1.024   1.859  1.00  0.00    -0.458 OA
BRANCH   3   4
ATOM      4  C   UNL     1       3.825   0.287   2.193  1.00  0.00     0.275 C 
BRANCH   4   5
ATOM      5  C   UNL     1       4.043   1.191   0.974  1.00  0.00     0.275 C 
BRANCH   5   6
ATOM      6  O   UNL     1       3.005   1.113  -0.017  1.00  0.00    -0.458 OA
BRANCH   6   7
ATOM      7  C   UNL     1       2.818   0.234  -1.026  1.00  0.00     0.338 C 
ATOM      8  O   UNL     1       1.867   0.421  -1.785  1.00  0.00    -0.246 OA
BRANCH   7   9
ATOM      9  C   UNL     1       3.615  -1.026  -1.217  1.00  0.00     0.060 A 
ATOM     10  C   UNL     1       4.845  -1.335  -0.635  1.00  0.00     0.016 A 
ATOM     11  C   UNL     1       3.023  -2.011  -2.028  1.00  0.00     0.016 A 
ATOM     12  C   UNL     1       5.416  -2.602  -0.763  1.00  0.00     0.010 A 
ATOM     13  C   UNL     1       3.575  -3.291  -2.143  1.00  0.00     0.010 A 
ATOM     14  C   UNL     1       4.776  -3.597  -1.496  1.00  0.00    -0.014 A 
BRANCH  14  15
ATOM     15  C   UNL     1       5.445  -4.898  -1.697  1.00  0.00     0.031 A 
ATOM     16  C   UNL     1       6.047  -5.176  -3.039  1.00  0.00     0.074 A 
ATOM     17  C   UNL     1       5.576  -5.779  -0.686  1.00  0.00     0.049 A 
ATOM     18  N   UNL     1       6.714  -6.226  -3.435  1.00  0.00    -0.248 NA
ATOM     19  C   UNL     1       5.929  -4.112  -4.053  1.00  0.00     0.031 C 
ATOM     20  C   UNL     1       5.170  -5.546   0.698  1.00  0.00     0.029 A 
ATOM     21  N   UNL     1       6.079  -7.054  -0.662  1.00  0.00    -0.354 N 
ATOM     22  C   UNL     1       7.127  -5.931  -4.726  1.00  0.00     0.074 A 
ATOM     23  C   UNL     1       6.581  -4.641  -5.075  1.00  0.00     0.031 C 
ATOM     24  C   UNL     1       5.343  -6.669   1.414  1.00  0.00     0.029 A 
ATOM     25  C   UNL     1       5.908  -7.691   0.546  1.00  0.00     0.049 A 
ATOM     26  H   UNL     1       6.521  -7.474  -1.436  1.00  0.00     0.167 HD
ATOM     27  C   UNL     1       7.925  -6.663  -5.533  1.00  0.00     0.031 A 
ATOM     28  C   UNL     1       6.179  -8.959   0.906  1.00  0.00     0.031 A 
ATOM     29  C   UNL     1       8.434  -7.957  -5.181  1.00  0.00     0.049 A 
ATOM     30  C   UNL     1       6.907  -9.827  -0.082  1.00  0.00     0.074 A 
ATOM     31  C   UNL     1       9.240  -8.797  -5.925  1.00  0.00     0.029 A 
ATOM     32  N   UNL     1       8.167  -8.605  -3.983  1.00  0.00    -0.354 N 
ATOM     33  N   UNL     1       7.327  -9.521  -1.287  1.00  0.00    -0.248 NA
ATOM     34  C   UNL     1       7.246 -11.188   0.350  1.00  0.00     0.031 C 
ATOM     35  C   UNL     1       9.399  -9.986  -5.207  1.00  0.00     0.029 A 
ATOM     36  C   UNL     1       8.754  -9.856  -3.985  1.00  0.00     0.049 A 
ATOM     37  H   UNL     1       7.638  -8.229  -3.243  1.00  0.00     0.167 HD
ATOM     38  C   UNL     1       8.033 -10.628  -1.733  1.00  0.00     0.074 A 
ATOM     39  C   UNL     1       7.981 -11.611  -0.668  1.00  0.00     0.031 C 
ATOM     40  C   UNL     1       8.680 -10.811  -2.909  1.00  0.00     0.031 A 
BRANCH  27  41
ATOM     41  C   UNL     1       8.249  -6.085  -6.879  1.00  0.00    -0.014 A 
ATOM     42  C   UNL     1       9.111  -4.985  -7.013  1.00  0.00     0.009 A 
ATOM     43  C   UNL     1       7.679  -6.649  -8.029  1.00  0.00     0.009 A 
ATOM     44  C   UNL     1       9.374  -4.444  -8.274  1.00  0.00     0.001 A 
ATOM     45  C   UNL     1       7.964  -6.123  -9.289  1.00  0.00     0.001 A 
ATOM     46  C   UNL     1       8.804  -5.017  -9.410  1.00  0.00     0.000 A 
ENDBRANCH  27  41
BRANCH  28  47
ATOM     47  C   UNL     1       5.777  -9.483   2.241  1.00  0.00    -0.014 A 
ATOM     48  C   UNL     1       6.733  -9.842   3.203  1.00  0.00     0.009 A 
ATOM     49  C   UNL     1       4.418  -9.682   2.537  1.00  0.00     0.009 A 
ATOM     50  C   UNL     1       6.341 -10.434   4.409  1.00  0.00     0.001 A 
ATOM     51  C   UNL     1       4.027 -10.247   3.755  1.00  0.00     0.001 A 
ATOM     52  C   UNL     1       4.990 -10.636   4.683  1.00  0.00     0.000 A 
ENDBRANCH  28  47
BRANCH  40  53
ATOM     53  C   UNL     1       9.414 -12.109  -3.085  1.00  0.00    -0.014 A 
ATOM     54  C   UNL     1       8.726 -13.319  -3.251  1.00  0.00     0.009 A 
ATOM     55  C   UNL     1      10.817 -12.106  -3.130  1.00  0.00     0.009 A 
ATOM     56  C   UNL     1       9.432 -14.510  -3.424  1.00  0.00     0.001 A 
ATOM     57  C   UNL     1      11.518 -13.291  -3.340  1.00  0.00     0.001 A 
ATOM     58  C   UNL     1      10.826 -14.493  -3.476  1.00  0.00     0.000 A 
ENDBRANCH  40  53
ENDBRANCH  14  15
ENDBRANCH   7   9
ENDBRANCH   6   7
ENDBRANCH   5   6
ENDBRANCH   4   5
ENDBRANCH   3   4
ENDBRANCH   1   3
BRANCH   1  59
ATOM     59  C   UNL     1       1.654  -2.514   1.366  1.00  0.00     0.097 A 
ATOM     60  C   UNL     1       0.753  -2.590   0.296  1.00  0.00     0.040 A 
ATOM     61  C   UNL     1       2.262  -3.671   1.843  1.00  0.00     0.137 A 
ATOM     62  C   UNL     1       0.581  -3.814  -0.369  1.00  0.00     0.083 A 
ATOM     63  C   UNL     1       2.044  -4.893   1.211  1.00  0.00     0.041 A 
ATOM     64  F   UNL     1       3.091  -3.632   2.895  1.00  0.00    -0.206 F 
ATOM     65  C   UNL     1       1.262  -4.954   0.061  1.00  0.00     0.025 A 
BRANCH  62  66
ATOM     66  S   UNL     1      -0.537  -3.884  -1.749  1.00  0.00     0.240 S 
ATOM     67  O   UNL     1      -1.730  -3.161  -1.377  1.00  0.00    -0.207 OA
ATOM     68  O   UNL     1       0.223  -3.543  -2.928  1.00  0.00    -0.207 OA
BRANCH  66  69
ATOM     69  N   UNL     1      -0.927  -5.503  -1.930  1.00  0.00    -0.209 NA
ATOM     70  H   UNL     1      -0.050  -5.974  -2.151  1.00  0.00     0.141 HD
BRANCH  69  71
ATOM     71  C   UNL     1      -1.567  -6.321  -0.891  1.00  0.00     0.120 C 
BRANCH  71  72
ATOM     72  C   UNL     1      -2.824  -5.735  -0.254  1.00  0.00     0.131 C 
BRANCH  72  73
ATOM     73  N   UNL     1      -3.921  -5.731  -1.199  1.00  0.00    -0.369 N 
ATOM     74  H   UNL     1      -3.803  -5.347  -2.097  1.00  0.00     0.162 HD
BRANCH  73  75
ATOM     75  C   UNL     1      -5.131  -6.270  -0.828  1.00  0.00     0.125 A 
ATOM     76  C   UNL     1      -5.679  -6.075   0.436  1.00  0.00     0.047 A 
ATOM     77  N   UNL     1      -5.728  -7.041  -1.754  1.00  0.00    -0.240 NA
ATOM     78  C   UNL     1      -6.863  -6.720   0.775  1.00  0.00     0.005 A 
ATOM     79  C   UNL     1      -6.878  -7.658  -1.405  1.00  0.00     0.113 A 
ATOM     80  C   UNL     1      -7.475  -7.538  -0.162  1.00  0.00     0.020 A 
ENDBRANCH  73  75
ENDBRANCH  72  73
ENDBRANCH  71  72
ENDBRANCH  69  71
ENDBRANCH  66  69
ENDBRANCH  62  66
ENDBRANCH   1  59
TORSDOF 17
