REMARK SMILES COc1cc(C)cc2c1O[C@H](C(F)(F)F)C(C(=O)OCCOC(=O)c1ccc(-c3c4nc(c(-c5ccccc5)c5ccc([nH]5)c(-c5ccccc5)c5nc(c(-c6ccccc6)c6ccc3[nH]6)C=C5)C=C4)cc1)=C2
REMARK SMILES IDX 21 1 20 2 19 3 17 4 18 5 16 6 3 7 4 8 9 9 5 10 8 11 10 12
REMARK SMILES IDX 6 13 7 14 73 15 11 16 2 17 1 18 12 19 13 20 14 21 15 22
REMARK SMILES IDX 22 23 23 24 24 25 25 26 26 27 72 28 27 29 71 30 28 31 29 32
REMARK SMILES IDX 30 33 65 34 31 35 70 36 64 37 66 38 32 39 69 40 63 41 62 42
REMARK SMILES IDX 33 44 55 45 40 46 54 47 41 48 44 49 53 50 67 51 42 52 43 53
REMARK SMILES IDX 52 55 68 56 45 57 34 58 35 59 39 60 36 61 38 62 37 63 56 64
REMARK SMILES IDX 57 65 61 66 58 67 60 68 59 69 46 70 47 71 51 72 48 73 50 74
REMARK SMILES IDX 49 75
REMARK H PARENT 66 43 44 54
REMARK Flexibility Score: inf
ROOT
ATOM      1  C   UNL     1      -5.402   0.770   7.788  1.00  0.00     0.275 C 
ENDROOT
BRANCH   1   2
ATOM      2  C   UNL     1      -5.216   1.914   6.791  1.00  0.00     0.275 C 
BRANCH   2   3
ATOM      3  O   UNL     1      -4.216   1.594   5.798  1.00  0.00    -0.459 OA
BRANCH   3   4
ATOM      4  C   UNL     1      -3.011   2.186   5.970  1.00  0.00     0.338 C 
ATOM      5  O   UNL     1      -2.692   2.936   6.880  1.00  0.00    -0.246 OA
BRANCH   4   6
ATOM      6  C   UNL     1      -2.069   1.761   4.916  1.00  0.00     0.087 C 
ATOM      7  C   UNL     1       0.780   0.868   1.983  1.00  0.00     0.161 A 
ATOM      8  C   UNL     1       2.091   0.558   2.377  1.00  0.00     0.054 A 
ATOM      9  C   UNL     1      -0.201   1.138   2.946  1.00  0.00     0.169 A 
ATOM     10  C   UNL     1       2.425   0.465   3.733  1.00  0.00    -0.047 A 
ATOM     11  C   UNL     1       0.140   1.070   4.294  1.00  0.00     0.021 A 
ATOM     12  O   UNL     1      -1.469   1.428   2.515  1.00  0.00    -0.471 OA
ATOM     13  C   UNL     1       3.816   0.128   4.181  1.00  0.00     0.044 C 
ATOM     14  C   UNL     1       1.437   0.715   4.687  1.00  0.00     0.015 A 
ATOM     15  C   UNL     1      -0.841   1.401   5.302  1.00  0.00     0.027 C 
ATOM     16  C   UNL     1      -2.469   1.874   3.472  1.00  0.00     0.316 C 
BRANCH   7  17
ATOM     17  O   UNL     1       0.425   1.003   0.664  1.00  0.00    -0.493 OA
ATOM     18  C   UNL     1       0.885  -0.062  -0.161  1.00  0.00     0.278 C 
ENDBRANCH   7  17
BRANCH  16  19
ATOM     19  C   UNL     1      -2.876   3.316   3.125  1.00  0.00     0.430 C 
ATOM     20  F   UNL     1      -3.225   3.438   1.823  1.00  0.00    -0.167 F 
ATOM     21  F   UNL     1      -3.952   3.713   3.849  1.00  0.00    -0.167 F 
ATOM     22  F   UNL     1      -1.882   4.201   3.368  1.00  0.00    -0.167 F 
ENDBRANCH  16  19
ENDBRANCH   4   6
ENDBRANCH   3   4
ENDBRANCH   2   3
ENDBRANCH   1   2
BRANCH   1  23
ATOM     23  O   UNL     1      -4.228   0.629   8.608  1.00  0.00    -0.458 OA
BRANCH  23  24
ATOM     24  C   UNL     1      -3.505  -0.496   8.408  1.00  0.00     0.338 C 
ATOM     25  O   UNL     1      -3.750  -1.418   7.651  1.00  0.00    -0.246 OA
BRANCH  24  26
ATOM     26  C   UNL     1      -2.270  -0.426   9.203  1.00  0.00     0.060 A 
ATOM     27  C   UNL     1      -2.033  -1.299  10.257  1.00  0.00     0.016 A 
ATOM     28  C   UNL     1      -1.268   0.437   8.778  1.00  0.00     0.016 A 
ATOM     29  C   UNL     1      -0.781  -1.281  10.886  1.00  0.00     0.010 A 
ATOM     30  C   UNL     1       0.016   0.351   9.302  1.00  0.00     0.010 A 
ATOM     31  C   UNL     1       0.275  -0.486  10.391  1.00  0.00    -0.014 A 
BRANCH  31  32
ATOM     32  C   UNL     1       1.637  -0.532  10.999  1.00  0.00     0.031 A 
ATOM     33  C   UNL     1       2.317   0.722  11.502  1.00  0.00     0.074 A 
ATOM     34  C   UNL     1       2.294  -1.709  11.072  1.00  0.00     0.049 A 
ATOM     35  N   UNL     1       3.479   0.845  12.098  1.00  0.00    -0.248 NA
ATOM     36  C   UNL     1       1.633   2.007  11.275  1.00  0.00     0.031 C 
ATOM     37  C   UNL     1       1.811  -2.982  10.531  1.00  0.00     0.029 A 
ATOM     38  N   UNL     1       3.497  -2.034  11.652  1.00  0.00    -0.354 N 
ATOM     39  C   UNL     1       3.669   2.210  12.286  1.00  0.00     0.074 A 
ATOM     40  C   UNL     1       2.543   2.881  11.681  1.00  0.00     0.031 C 
ATOM     41  C   UNL     1       2.656  -3.961  10.886  1.00  0.00     0.029 A 
ATOM     42  C   UNL     1       3.764  -3.383  11.640  1.00  0.00     0.049 A 
ATOM     43  H   UNL     1       4.107  -1.366  12.040  1.00  0.00     0.167 HD
ATOM     44  C   UNL     1       4.666   2.851  12.941  1.00  0.00     0.031 A 
ATOM     45  C   UNL     1       4.770  -4.087  12.196  1.00  0.00     0.031 A 
ATOM     46  C   UNL     1       5.756   2.185  13.599  1.00  0.00     0.049 A 
ATOM     47  C   UNL     1       5.825  -3.368  12.986  1.00  0.00     0.074 A 
ATOM     48  C   UNL     1       6.764   2.742  14.367  1.00  0.00     0.029 A 
ATOM     49  N   UNL     1       5.972   0.817  13.580  1.00  0.00    -0.354 N 
ATOM     50  N   UNL     1       5.939  -2.085  13.229  1.00  0.00    -0.248 NA
ATOM     51  C   UNL     1       6.884  -4.191  13.590  1.00  0.00     0.031 C 
ATOM     52  C   UNL     1       7.615   1.714  14.779  1.00  0.00     0.029 A 
ATOM     53  C   UNL     1       7.105   0.512  14.313  1.00  0.00     0.049 A 
ATOM     54  H   UNL     1       5.405   0.161  13.115  1.00  0.00     0.167 HD
ATOM     55  C   UNL     1       7.068  -1.947  14.025  1.00  0.00     0.074 A 
ATOM     56  C   UNL     1       7.595  -3.279  14.242  1.00  0.00     0.031 C 
ATOM     57  C   UNL     1       7.618  -0.816  14.525  1.00  0.00     0.031 A 
BRANCH  44  58
ATOM     58  C   UNL     1       4.608   4.354  13.024  1.00  0.00    -0.014 A 
ATOM     59  C   UNL     1       5.591   5.132  12.391  1.00  0.00     0.009 A 
ATOM     60  C   UNL     1       3.631   4.999  13.799  1.00  0.00     0.009 A 
ATOM     61  C   UNL     1       5.598   6.521  12.535  1.00  0.00     0.001 A 
ATOM     62  C   UNL     1       3.621   6.390  13.915  1.00  0.00     0.001 A 
ATOM     63  C   UNL     1       4.609   7.149  13.290  1.00  0.00     0.000 A 
ENDBRANCH  44  58
BRANCH  45  64
ATOM     64  C   UNL     1       4.767  -5.571  12.088  1.00  0.00    -0.014 A 
ATOM     65  C   UNL     1       5.019  -6.206  10.862  1.00  0.00     0.009 A 
ATOM     66  C   UNL     1       4.446  -6.358  13.205  1.00  0.00     0.009 A 
ATOM     67  C   UNL     1       4.928  -7.595  10.751  1.00  0.00     0.001 A 
ATOM     68  C   UNL     1       4.383  -7.749  13.098  1.00  0.00     0.001 A 
ATOM     69  C   UNL     1       4.614  -8.366  11.870  1.00  0.00     0.000 A 
ENDBRANCH  45  64
BRANCH  57  70
ATOM     70  C   UNL     1       8.854  -0.945  15.369  1.00  0.00    -0.014 A 
ATOM     71  C   UNL     1       8.790  -0.665  16.744  1.00  0.00     0.009 A 
ATOM     72  C   UNL     1      10.099  -1.221  14.786  1.00  0.00     0.009 A 
ATOM     73  C   UNL     1       9.953  -0.642  17.515  1.00  0.00     0.001 A 
ATOM     74  C   UNL     1      11.257  -1.223  15.566  1.00  0.00     0.001 A 
ATOM     75  C   UNL     1      11.184  -0.923  16.926  1.00  0.00     0.000 A 
ENDBRANCH  57  70
ENDBRANCH  31  32
ENDBRANCH  24  26
ENDBRANCH  23  24
ENDBRANCH   1  23
TORSDOF 13
