REMARK SMILES O=C(OCCOC(=O)c1ccccc1C(=O)N1CCOCCOCCOCC1)c1ccc(-c2c3nc(c(-c4ccccc4)c4ccc([nH]4)c(-c4ccccc4)c4nc(c(-c5ccccc5)c5ccc2[nH]5)C=C4)C=C3)cc1
REMARK SMILES IDX 9 1 10 2 11 3 12 4 13 5 14 6 7 7 8 8 6 9 5 10 4 11 3 12 2 13
REMARK SMILES IDX 1 14 29 15 30 16 76 17 31 18 75 19 32 20 33 21 34 22 69 23
REMARK SMILES IDX 35 24 74 25 68 26 70 27 36 28 73 29 67 30 66 31 37 33 59 34
REMARK SMILES IDX 44 35 58 36 45 37 48 38 57 39 71 40 46 41 47 42 56 44 72 45
REMARK SMILES IDX 49 46 38 47 39 48 43 49 40 50 42 51 41 52 60 53 61 54 65 55
REMARK SMILES IDX 62 56 64 57 63 58 50 59 51 60 55 61 52 62 54 63 53 64 15 65
REMARK SMILES IDX 16 66 17 67 18 68 19 69 20 70 21 71 28 73 27 74 26 75 25 76
REMARK SMILES IDX 24 77 23 78 22 79
REMARK H PARENT 70 32 48 43
REMARK Flexibility Score: 60.00
ROOT
ATOM      1  C   UNL     1       1.941  -2.538  -0.190  1.00  0.00     0.072 A 
ATOM      2  C   UNL     1       0.949  -2.143  -1.106  1.00  0.00     0.016 A 
ATOM      3  C   UNL     1       0.557  -2.993  -2.140  1.00  0.00     0.001 A 
ATOM      4  C   UNL     1       1.113  -4.262  -2.232  1.00  0.00     0.001 A 
ATOM      5  C   UNL     1       2.063  -4.670  -1.295  1.00  0.00     0.015 A 
ATOM      6  C   UNL     1       2.525  -3.805  -0.281  1.00  0.00     0.054 A 
ENDROOT
BRANCH   1   7
ATOM      7  C   UNL     1       2.228  -1.583   0.884  1.00  0.00     0.339 C 
ATOM      8  O   UNL     1       1.467  -1.391   1.814  1.00  0.00    -0.246 OA
BRANCH   7   9
ATOM      9  O   UNL     1       3.379  -0.927   0.609  1.00  0.00    -0.458 OA
BRANCH   9  10
ATOM     10  C   UNL     1       3.729   0.120   1.522  1.00  0.00     0.275 C 
BRANCH  10  11
ATOM     11  C   UNL     1       4.256   1.331   0.762  1.00  0.00     0.275 C 
BRANCH  11  12
ATOM     12  O   UNL     1       3.368   1.788  -0.279  1.00  0.00    -0.458 OA
BRANCH  12  13
ATOM     13  C   UNL     1       3.030   1.239  -1.467  1.00  0.00     0.338 C 
ATOM     14  O   UNL     1       2.053   1.701  -2.057  1.00  0.00    -0.246 OA
BRANCH  13  15
ATOM     15  C   UNL     1       3.743   0.090  -2.125  1.00  0.00     0.060 A 
ATOM     16  C   UNL     1       5.027  -0.373  -1.824  1.00  0.00     0.016 A 
ATOM     17  C   UNL     1       3.051  -0.558  -3.166  1.00  0.00     0.016 A 
ATOM     18  C   UNL     1       5.576  -1.484  -2.485  1.00  0.00     0.010 A 
ATOM     19  C   UNL     1       3.594  -1.663  -3.832  1.00  0.00     0.010 A 
ATOM     20  C   UNL     1       4.864  -2.138  -3.489  1.00  0.00    -0.014 A 
BRANCH  20  21
ATOM     21  C   UNL     1       5.497  -3.197  -4.307  1.00  0.00     0.031 A 
ATOM     22  C   UNL     1       6.145  -2.804  -5.593  1.00  0.00     0.074 A 
ATOM     23  C   UNL     1       5.501  -4.488  -3.929  1.00  0.00     0.049 A 
ATOM     24  N   UNL     1       6.716  -3.566  -6.485  1.00  0.00    -0.248 NA
ATOM     25  C   UNL     1       6.203  -1.363  -5.888  1.00  0.00     0.031 C 
ATOM     26  C   UNL     1       5.051  -4.973  -2.637  1.00  0.00     0.029 A 
ATOM     27  N   UNL     1       5.862  -5.631  -4.596  1.00  0.00    -0.354 N 
ATOM     28  C   UNL     1       7.250  -2.696  -7.420  1.00  0.00     0.074 A 
ATOM     29  C   UNL     1       6.885  -1.354  -7.022  1.00  0.00     0.031 C 
ATOM     30  C   UNL     1       5.037  -6.316  -2.636  1.00  0.00     0.029 A 
ATOM     31  C   UNL     1       5.496  -6.784  -3.935  1.00  0.00     0.049 A 
ATOM     32  H   UNL     1       6.333  -5.629  -5.461  1.00  0.00     0.167 HD
ATOM     33  C   UNL     1       8.002  -2.998  -8.500  1.00  0.00     0.031 A 
ATOM     34  C   UNL     1       5.501  -8.065  -4.348  1.00  0.00     0.031 A 
ATOM     35  C   UNL     1       8.308  -4.337  -8.915  1.00  0.00     0.049 A 
ATOM     36  C   UNL     1       6.117  -8.372  -5.683  1.00  0.00     0.074 A 
ATOM     37  C   UNL     1       9.065  -4.753  -9.994  1.00  0.00     0.029 A 
ATOM     38  N   UNL     1       7.838  -5.479  -8.284  1.00  0.00    -0.354 N 
ATOM     39  N   UNL     1       6.683  -7.545  -6.529  1.00  0.00    -0.248 NA
ATOM     40  C   UNL     1       6.138  -9.778  -6.105  1.00  0.00     0.031 C 
ATOM     41  C   UNL     1       8.993  -6.149 -10.057  1.00  0.00     0.029 A 
ATOM     42  C   UNL     1       8.235  -6.602  -8.988  1.00  0.00     0.049 A 
ATOM     43  H   UNL     1       7.301  -5.489  -7.459  1.00  0.00     0.167 HD
ATOM     44  C   UNL     1       7.180  -8.335  -7.553  1.00  0.00     0.074 A 
ATOM     45  C   UNL     1       6.837  -9.705  -7.231  1.00  0.00     0.031 C 
ATOM     46  C   UNL     1       7.879  -7.957  -8.650  1.00  0.00     0.031 A 
BRANCH  33  47
ATOM     47  C   UNL     1       8.496  -1.842  -9.312  1.00  0.00    -0.014 A 
ATOM     48  C   UNL     1       9.544  -1.030  -8.849  1.00  0.00     0.009 A 
ATOM     49  C   UNL     1       7.886  -1.544 -10.537  1.00  0.00     0.009 A 
ATOM     50  C   UNL     1       9.951   0.081  -9.589  1.00  0.00     0.001 A 
ATOM     51  C   UNL     1       8.308  -0.444 -11.283  1.00  0.00     0.001 A 
ATOM     52  C   UNL     1       9.334   0.372 -10.805  1.00  0.00     0.000 A 
ENDBRANCH  33  47
BRANCH  34  53
ATOM     53  C   UNL     1       4.878  -9.139  -3.527  1.00  0.00    -0.014 A 
ATOM     54  C   UNL     1       5.650 -10.148  -2.933  1.00  0.00     0.009 A 
ATOM     55  C   UNL     1       3.479  -9.193  -3.389  1.00  0.00     0.009 A 
ATOM     56  C   UNL     1       5.035 -11.205  -2.253  1.00  0.00     0.001 A 
ATOM     57  C   UNL     1       2.869 -10.238  -2.690  1.00  0.00     0.001 A 
ATOM     58  C   UNL     1       3.647 -11.251  -2.134  1.00  0.00     0.000 A 
ENDBRANCH  34  53
BRANCH  46  59
ATOM     59  C   UNL     1       8.348  -9.047  -9.566  1.00  0.00    -0.014 A 
ATOM     60  C   UNL     1       7.455  -9.709 -10.420  1.00  0.00     0.009 A 
ATOM     61  C   UNL     1       9.713  -9.372  -9.612  1.00  0.00     0.009 A 
ATOM     62  C   UNL     1       7.920 -10.693 -11.293  1.00  0.00     0.001 A 
ATOM     63  C   UNL     1      10.178 -10.335 -10.506  1.00  0.00     0.001 A 
ATOM     64  C   UNL     1       9.281 -10.998 -11.342  1.00  0.00     0.000 A 
ENDBRANCH  46  59
ENDBRANCH  20  21
ENDBRANCH  13  15
ENDBRANCH  12  13
ENDBRANCH  11  12
ENDBRANCH  10  11
ENDBRANCH   9  10
ENDBRANCH   7   9
ENDBRANCH   1   7
BRANCH   6  65
ATOM     65  C   UNL     1       3.631  -4.337   0.572  1.00  0.00     0.254 C 
ATOM     66  O   UNL     1       3.967  -5.515   0.475  1.00  0.00    -0.269 OA
ATOM     67  N   UNL     1       4.331  -3.465   1.388  1.00  0.00    -0.334 N 
BRANCH  67  68
ATOM     68  C   UNL     1       5.687  -3.086   0.972  1.00  0.00     0.148 C 
BRANCH  68  69
ATOM     69  C   UNL     1       6.758  -4.178   1.137  1.00  0.00     0.181 C 
BRANCH  69  70
ATOM     70  O   UNL     1       7.765  -3.719   2.047  1.00  0.00    -0.377 OA
BRANCH  70  71
ATOM     71  C   UNL     1       8.203  -4.721   2.974  1.00  0.00     0.188 CG0
ATOM     72  G   UNL     1       7.494  -4.524   4.316  1.00  0.00     0.000 G0
ENDBRANCH  70  71
ENDBRANCH  69  70
ENDBRANCH  68  69
ENDBRANCH  67  68
BRANCH  67  73
ATOM     73  C   UNL     1       4.052  -3.449   2.824  1.00  0.00     0.148 C 
BRANCH  73  74
ATOM     74  C   UNL     1       3.128  -4.556   3.345  1.00  0.00     0.181 C 
BRANCH  74  75
ATOM     75  O   UNL     1       3.120  -4.614   4.772  1.00  0.00    -0.377 OA
BRANCH  75  76
ATOM     76  C   UNL     1       4.069  -5.542   5.317  1.00  0.00     0.188 C 
BRANCH  76  77
ATOM     77  C   UNL     1       5.460  -4.927   5.471  1.00  0.00     0.188 C 
BRANCH  77  78
ATOM     78  O   UNL     1       6.225  -5.184   4.286  1.00  0.00    -0.377 OA
BRANCH  78  79
ATOM     79  C   UNL     1       7.494  -4.524   4.316  1.00  0.00     0.188 CG0
ATOM     80  G   UNL     1       8.203  -4.721   2.974  1.00  0.00     0.000 G0
ENDBRANCH  78  79
ENDBRANCH  77  78
ENDBRANCH  76  77
ENDBRANCH  75  76
ENDBRANCH  74  75
ENDBRANCH  73  74
ENDBRANCH  67  73
ENDBRANCH   6  65
TORSDOF 12
