REMARK SMILES Cc1ccc(C(N)=O)c(NCc2ccc(C(=O)OCCOC(=O)c3ccc(-c4c5nc(c(-c6ccccc6)c6ccc([nH]6)c(-c6ccccc6)c6nc(c(-c7ccccc7)c7ccc4[nH]7)C=C6)C=C5)cc3)o2)n1
REMARK SMILES IDX 19 1 18 2 16 3 17 4 15 5 12 6 13 7 72 8 14 9 11 10 10 11
REMARK SMILES IDX 9 13 1 14 2 15 3 16 73 17 4 18 5 19 6 20 7 21 8 22 20 25
REMARK SMILES IDX 21 26 22 27 23 28 24 29 25 30 71 31 26 32 70 33 27 34 28 35
REMARK SMILES IDX 29 36 64 37 30 38 69 39 63 40 65 41 31 42 68 43 62 44 61 45
REMARK SMILES IDX 32 47 54 48 39 49 53 50 40 51 43 52 52 53 66 54 41 55 42 56
REMARK SMILES IDX 51 58 67 59 44 60 33 61 34 62 38 63 35 64 37 65 36 66 55 67
REMARK SMILES IDX 56 68 60 69 57 70 59 71 58 72 45 73 46 74 50 75 47 76 49 77
REMARK SMILES IDX 48 78
REMARK H PARENT 10 12 7 23 7 24 65 46 43 57
REMARK Flexibility Score: inf
ROOT
ATOM      1  C   UNL     1      -0.966   9.140  -4.766  1.00  0.00     0.275 C 
ENDROOT
BRANCH   1   2
ATOM      2  O   UNL     1      -1.054   7.731  -4.482  1.00  0.00    -0.456 OA
BRANCH   2   3
ATOM      3  C   UNL     1      -0.281   7.287  -3.447  1.00  0.00     0.374 C 
ATOM      4  O   UNL     1       0.540   7.978  -2.853  1.00  0.00    -0.242 OA
BRANCH   3   5
ATOM      5  C   UNL     1      -0.649   5.937  -3.091  1.00  0.00     0.211 A 
ATOM      6  C   UNL     1      -0.831   4.268  -1.651  1.00  0.00     0.124 A 
ATOM      7  C   UNL     1      -1.514   3.881  -2.785  1.00  0.00     0.048 A 
ATOM      8  O   UNL     1      -0.253   5.484  -1.860  1.00  0.00    -0.452 OA
ATOM      9  C   UNL     1      -1.411   4.959  -3.704  1.00  0.00     0.058 A 
BRANCH   6  10
ATOM     10  C   UNL     1      -0.646   3.695  -0.285  1.00  0.00     0.190 C 
BRANCH  10  11
ATOM     11  N   UNL     1      -1.512   2.567   0.028  1.00  0.00    -0.362 N 
ATOM     12  H   UNL     1      -2.453   2.720   0.276  1.00  0.00     0.162 HD
BRANCH  11  13
ATOM     13  C   UNL     1      -1.005   1.274  -0.025  1.00  0.00     0.139 A 
ATOM     14  C   UNL     1       2.393  -0.145  -0.128  1.00  0.00     0.067 C 
ATOM     15  C   UNL     1       0.896  -0.093  -0.098  1.00  0.00     0.040 A 
ATOM     16  C   UNL     1       0.136  -1.247  -0.018  1.00  0.00     0.024 A 
ATOM     17  N   UNL     1       0.339   1.141  -0.115  1.00  0.00    -0.236 NA
ATOM     18  C   UNL     1      -1.247  -1.122   0.040  1.00  0.00     0.019 A 
ATOM     19  C   UNL     1      -1.838   0.148   0.030  1.00  0.00     0.081 A 
BRANCH  19  20
ATOM     20  C   UNL     1      -3.325   0.200   0.078  1.00  0.00     0.252 C 
ATOM     21  N   UNL     1      -3.946   1.334  -0.362  1.00  0.00    -0.365 N 
ATOM     22  O   UNL     1      -3.987  -0.755   0.468  1.00  0.00    -0.269 OA
ATOM     23  H   UNL     1      -3.410   2.099  -0.674  1.00  0.00     0.159 HD
ATOM     24  H   UNL     1      -4.929   1.387  -0.366  1.00  0.00     0.159 HD
ENDBRANCH  19  20
ENDBRANCH  11  13
ENDBRANCH  10  11
ENDBRANCH   6  10
ENDBRANCH   3   5
ENDBRANCH   2   3
ENDBRANCH   1   2
BRANCH   1  25
ATOM     25  C   UNL     1      -2.088   9.927  -4.078  1.00  0.00     0.275 C 
BRANCH  25  26
ATOM     26  O   UNL     1      -1.906  10.003  -2.650  1.00  0.00    -0.458 OA
BRANCH  26  27
ATOM     27  C   UNL     1      -2.534   9.040  -1.933  1.00  0.00     0.338 C 
ATOM     28  O   UNL     1      -3.240   8.145  -2.368  1.00  0.00    -0.246 OA
BRANCH  27  29
ATOM     29  C   UNL     1      -2.136   9.124  -0.515  1.00  0.00     0.060 A 
ATOM     30  C   UNL     1      -1.619   7.971   0.081  1.00  0.00     0.016 A 
ATOM     31  C   UNL     1      -2.322  10.283   0.241  1.00  0.00     0.016 A 
ATOM     32  C   UNL     1      -1.273   7.968   1.429  1.00  0.00     0.010 A 
ATOM     33  C   UNL     1      -1.986  10.277   1.602  1.00  0.00     0.010 A 
ATOM     34  C   UNL     1      -1.466   9.117   2.204  1.00  0.00    -0.014 A 
BRANCH  34  35
ATOM     35  C   UNL     1      -1.161   9.071   3.653  1.00  0.00     0.031 A 
ATOM     36  C   UNL     1      -2.272   8.912   4.650  1.00  0.00     0.074 A 
ATOM     37  C   UNL     1       0.117   9.119   4.071  1.00  0.00     0.049 A 
ATOM     38  N   UNL     1      -2.207   8.848   5.955  1.00  0.00    -0.248 NA
ATOM     39  C   UNL     1      -3.635   8.803   4.106  1.00  0.00     0.031 C 
ATOM     40  C   UNL     1       1.288   9.220   3.201  1.00  0.00     0.029 A 
ATOM     41  N   UNL     1       0.641   9.078   5.339  1.00  0.00    -0.354 N 
ATOM     42  C   UNL     1      -3.517   8.702   6.391  1.00  0.00     0.074 A 
ATOM     43  C   UNL     1      -4.358   8.703   5.213  1.00  0.00     0.031 C 
ATOM     44  C   UNL     1       2.396   9.226   3.961  1.00  0.00     0.029 A 
ATOM     45  C   UNL     1       2.011   9.164   5.368  1.00  0.00     0.049 A 
ATOM     46  H   UNL     1       0.088   8.995   6.149  1.00  0.00     0.167 HD
ATOM     47  C   UNL     1      -3.979   8.576   7.659  1.00  0.00     0.031 A 
ATOM     48  C   UNL     1       2.860   9.204   6.412  1.00  0.00     0.031 A 
ATOM     49  C   UNL     1      -3.149   8.583   8.834  1.00  0.00     0.049 A 
ATOM     50  C   UNL     1       2.315   9.134   7.812  1.00  0.00     0.074 A 
ATOM     51  C   UNL     1      -3.529   8.457  10.159  1.00  0.00     0.029 A 
ATOM     52  N   UNL     1      -1.771   8.726   8.824  1.00  0.00    -0.354 N 
ATOM     53  N   UNL     1       1.074   8.992   8.209  1.00  0.00    -0.248 NA
ATOM     54  C   UNL     1       3.292   9.230   8.907  1.00  0.00     0.031 C 
ATOM     55  C   UNL     1      -2.383   8.567  10.955  1.00  0.00     0.029 A 
ATOM     56  C   UNL     1      -1.286   8.716  10.121  1.00  0.00     0.049 A 
ATOM     57  H   UNL     1      -1.218   8.821   8.015  1.00  0.00     0.167 HD
ATOM     58  C   UNL     1       1.122   8.965   9.596  1.00  0.00     0.074 A 
ATOM     59  C   UNL     1       2.515   9.089   9.972  1.00  0.00     0.031 C 
ATOM     60  C   UNL     1       0.101   8.847  10.480  1.00  0.00     0.031 A 
BRANCH  47  61
ATOM     61  C   UNL     1      -5.464   8.457   7.839  1.00  0.00    -0.014 A 
ATOM     62  C   UNL     1      -6.139   7.263   7.543  1.00  0.00     0.009 A 
ATOM     63  C   UNL     1      -6.193   9.547   8.341  1.00  0.00     0.009 A 
ATOM     64  C   UNL     1      -7.522   7.173   7.719  1.00  0.00     0.001 A 
ATOM     65  C   UNL     1      -7.571   9.447   8.535  1.00  0.00     0.001 A 
ATOM     66  C   UNL     1      -8.235   8.264   8.217  1.00  0.00     0.000 A 
ENDBRANCH  47  61
BRANCH  48  67
ATOM     67  C   UNL     1       4.319   9.341   6.176  1.00  0.00    -0.014 A 
ATOM     68  C   UNL     1       5.187   8.266   6.415  1.00  0.00     0.009 A 
ATOM     69  C   UNL     1       4.851  10.557   5.718  1.00  0.00     0.009 A 
ATOM     70  C   UNL     1       6.562   8.412   6.217  1.00  0.00     0.001 A 
ATOM     71  C   UNL     1       6.222  10.692   5.497  1.00  0.00     0.001 A 
ATOM     72  C   UNL     1       7.078   9.622   5.754  1.00  0.00     0.000 A 
ENDBRANCH  48  67
BRANCH  60  73
ATOM     73  C   UNL     1       0.458   8.825  11.938  1.00  0.00    -0.014 A 
ATOM     74  C   UNL     1       0.823  10.000  12.612  1.00  0.00     0.009 A 
ATOM     75  C   UNL     1       0.395   7.619  12.653  1.00  0.00     0.009 A 
ATOM     76  C   UNL     1       1.145   9.962  13.970  1.00  0.00     0.001 A 
ATOM     77  C   UNL     1       0.695   7.588  14.015  1.00  0.00     0.001 A 
ATOM     78  C   UNL     1       1.077   8.758  14.671  1.00  0.00     0.000 A 
ENDBRANCH  60  73
ENDBRANCH  34  35
ENDBRANCH  27  29
ENDBRANCH  26  27
ENDBRANCH  25  26
ENDBRANCH   1  25
TORSDOF 15
