REMARK SMILES NS(=O)(=O)c1ccc(N2N=C(C(=O)OCCOC(=O)c3ccc(-c4c5nc(c(-c6ccccc6)c6ccc([nH]6)c(-c6ccccc6)c6nc(c(-c7ccccc7)c7ccc4[nH]7)C=C6)C=C5)cc3)C[C@H]2c2cccs2)cc1
REMARK SMILES IDX 15 1 14 2 12 3 13 4 11 5 9 6 10 7 69 8 68 9 8 10 5 11 6 12
REMARK SMILES IDX 76 13 7 14 75 15 2 16 3 17 4 18 1 19 70 22 71 23 74 24 72 25
REMARK SMILES IDX 73 26 16 27 17 28 18 29 19 30 20 31 21 32 67 33 22 34 66 35
REMARK SMILES IDX 23 36 24 37 25 38 60 39 26 40 65 41 59 42 61 43 27 44 64 45
REMARK SMILES IDX 58 46 57 47 28 49 50 50 35 51 49 52 36 53 39 54 48 55 62 56
REMARK SMILES IDX 37 57 38 58 47 60 63 61 40 62 29 63 30 64 34 65 31 66 33 67
REMARK SMILES IDX 32 68 51 69 52 70 56 71 53 72 55 73 54 74 41 75 42 76 46 77
REMARK SMILES IDX 43 78 45 79 44 80
REMARK H PARENT 1 20 1 21 61 48 39 59
REMARK Flexibility Score: inf
ROOT
ATOM      1  C   UNL     1       4.460   4.652  10.350  1.00  0.00     0.275 C 
ENDROOT
BRANCH   1   2
ATOM      2  O   UNL     1       3.363   4.702   9.416  1.00  0.00    -0.458 OA
BRANCH   2   3
ATOM      3  C   UNL     1       3.691   5.065   8.162  1.00  0.00     0.354 C 
ATOM      4  O   UNL     1       4.772   5.463   7.766  1.00  0.00    -0.245 OA
BRANCH   3   5
ATOM      5  C   UNL     1       2.548   4.804   7.210  1.00  0.00     0.148 C 
ATOM      6  N   UNL     1       1.518   4.275   5.440  1.00  0.00    -0.256 N 
ATOM      7  N   UNL     1       2.733   4.282   6.034  1.00  0.00    -0.169 NA
ATOM      8  C   UNL     1       0.550   5.125   6.146  1.00  0.00     0.154 C 
ATOM      9  C   UNL     1       1.128   5.085   7.576  1.00  0.00     0.099 C 
BRANCH   6  10
ATOM     10  C   UNL     1       1.347   3.663   4.212  1.00  0.00     0.060 A 
ATOM     11  C   UNL     1       0.876   2.386   1.744  1.00  0.00     0.082 A 
ATOM     12  C   UNL     1       1.092   1.618   2.889  1.00  0.00     0.024 A 
ATOM     13  C   UNL     1       0.957   3.777   1.806  1.00  0.00     0.024 A 
ATOM     14  C   UNL     1       1.336   2.261   4.111  1.00  0.00     0.029 A 
ATOM     15  C   UNL     1       1.196   4.401   3.033  1.00  0.00     0.029 A 
BRANCH  11  16
ATOM     16  S   UNL     1       0.506   1.637   0.187  1.00  0.00     0.238 S 
ATOM     17  O   UNL     1       1.170   2.379  -0.858  1.00  0.00    -0.207 OA
ATOM     18  O   UNL     1      -0.909   1.345   0.154  1.00  0.00    -0.207 OA
BRANCH  16  19
ATOM     19  N   UNL     1       1.283   0.149   0.233  1.00  0.00    -0.225 NA
ATOM     20  H   UNL     1       1.115  -0.350  -0.641  1.00  0.00     0.137 HD
ATOM     21  H   UNL     1       0.921  -0.400   1.012  1.00  0.00     0.137 HD
ENDBRANCH  16  19
ENDBRANCH  11  16
ENDBRANCH   6  10
BRANCH   8  22
ATOM     22  C   UNL     1       0.402   6.530   5.577  1.00  0.00     0.030 A 
ATOM     23  C   UNL     1      -0.456   6.924   4.564  1.00  0.00     0.017 A 
ATOM     24  S   UNL     1       1.386   7.847   6.081  1.00  0.00    -0.147 S 
ATOM     25  C   UNL     1      -0.271   8.283   4.180  1.00  0.00     0.012 A 
ATOM     26  C   UNL     1       0.683   8.908   4.947  1.00  0.00     0.065 A 
ENDBRANCH   8  22
ENDBRANCH   3   5
ENDBRANCH   2   3
ENDBRANCH   1   2
BRANCH   1  27
ATOM     27  C   UNL     1       4.832   3.201  10.672  1.00  0.00     0.275 C 
BRANCH  27  28
ATOM     28  O   UNL     1       5.369   2.527   9.518  1.00  0.00    -0.458 OA
BRANCH  28  29
ATOM     29  C   UNL     1       4.460   1.855   8.774  1.00  0.00     0.338 C 
ATOM     30  O   UNL     1       3.263   1.749   8.986  1.00  0.00    -0.246 OA
BRANCH  29  31
ATOM     31  C   UNL     1       5.102   1.344   7.557  1.00  0.00     0.060 A 
ATOM     32  C   UNL     1       4.965   2.092   6.393  1.00  0.00     0.016 A 
ATOM     33  C   UNL     1       5.734   0.105   7.522  1.00  0.00     0.016 A 
ATOM     34  C   UNL     1       5.374   1.589   5.169  1.00  0.00     0.010 A 
ATOM     35  C   UNL     1       6.237  -0.365   6.302  1.00  0.00     0.010 A 
ATOM     36  C   UNL     1       6.049   0.369   5.114  1.00  0.00    -0.014 A 
BRANCH  36  37
ATOM     37  C   UNL     1       6.582  -0.108   3.817  1.00  0.00     0.031 A 
ATOM     38  C   UNL     1       6.065  -1.374   3.203  1.00  0.00     0.074 A 
ATOM     39  C   UNL     1       7.534   0.613   3.190  1.00  0.00     0.049 A 
ATOM     40  N   UNL     1       6.502  -2.020   2.153  1.00  0.00    -0.248 NA
ATOM     41  C   UNL     1       4.906  -2.002   3.858  1.00  0.00     0.031 C 
ATOM     42  C   UNL     1       8.066   1.898   3.652  1.00  0.00     0.029 A 
ATOM     43  N   UNL     1       8.222   0.368   2.030  1.00  0.00    -0.354 N 
ATOM     44  C   UNL     1       5.699  -3.147   2.042  1.00  0.00     0.074 A 
ATOM     45  C   UNL     1       4.755  -3.104   3.138  1.00  0.00     0.031 C 
ATOM     46  C   UNL     1       8.984   2.335   2.777  1.00  0.00     0.029 A 
ATOM     47  C   UNL     1       9.165   1.325   1.743  1.00  0.00     0.049 A 
ATOM     48  H   UNL     1       8.057  -0.416   1.458  1.00  0.00     0.167 HD
ATOM     49  C   UNL     1       5.753  -4.128   1.110  1.00  0.00     0.031 A 
ATOM     50  C   UNL     1      10.108   1.364   0.783  1.00  0.00     0.031 A 
ATOM     51  C   UNL     1       6.698  -4.156   0.023  1.00  0.00     0.049 A 
ATOM     52  C   UNL     1      10.211   0.213  -0.175  1.00  0.00     0.074 A 
ATOM     53  C   UNL     1       6.829  -5.099  -0.981  1.00  0.00     0.029 A 
ATOM     54  N   UNL     1       7.678  -3.198  -0.196  1.00  0.00    -0.354 N 
ATOM     55  N   UNL     1       9.455  -0.855  -0.266  1.00  0.00    -0.248 NA
ATOM     56  C   UNL     1      11.304   0.265  -1.154  1.00  0.00     0.031 C 
ATOM     57  C   UNL     1       7.929  -4.745  -1.770  1.00  0.00     0.029 A 
ATOM     58  C   UNL     1       8.441  -3.548  -1.297  1.00  0.00     0.049 A 
ATOM     59  H   UNL     1       7.811  -2.390   0.351  1.00  0.00     0.167 HD
ATOM     60  C   UNL     1       9.969  -1.593  -1.322  1.00  0.00     0.074 A 
ATOM     61  C   UNL     1      11.088  -0.840  -1.854  1.00  0.00     0.031 C 
ATOM     62  C   UNL     1       9.554  -2.788  -1.808  1.00  0.00     0.031 A 
BRANCH  49  63
ATOM     63  C   UNL     1       4.797  -5.280   1.255  1.00  0.00    -0.014 A 
ATOM     64  C   UNL     1       3.422  -5.131   1.018  1.00  0.00     0.009 A 
ATOM     65  C   UNL     1       5.291  -6.547   1.603  1.00  0.00     0.009 A 
ATOM     66  C   UNL     1       2.558  -6.220   1.159  1.00  0.00     0.001 A 
ATOM     67  C   UNL     1       4.430  -7.640   1.715  1.00  0.00     0.001 A 
ATOM     68  C   UNL     1       3.063  -7.473   1.503  1.00  0.00     0.000 A 
ENDBRANCH  49  63
BRANCH  50  69
ATOM     69  C   UNL     1      11.063   2.501   0.723  1.00  0.00    -0.014 A 
ATOM     70  C   UNL     1      11.041   3.399  -0.354  1.00  0.00     0.009 A 
ATOM     71  C   UNL     1      12.007   2.695   1.746  1.00  0.00     0.009 A 
ATOM     72  C   UNL     1      11.956   4.453  -0.416  1.00  0.00     0.001 A 
ATOM     73  C   UNL     1      12.898   3.768   1.699  1.00  0.00     0.001 A 
ATOM     74  C   UNL     1      12.879   4.640   0.613  1.00  0.00     0.000 A 
ENDBRANCH  50  69
BRANCH  62  75
ATOM     75  C   UNL     1      10.297  -3.341  -2.990  1.00  0.00    -0.014 A 
ATOM     76  C   UNL     1      11.592  -3.865  -2.855  1.00  0.00     0.009 A 
ATOM     77  C   UNL     1       9.672  -3.382  -4.246  1.00  0.00     0.009 A 
ATOM     78  C   UNL     1      12.256  -4.396  -3.962  1.00  0.00     0.001 A 
ATOM     79  C   UNL     1      10.326  -3.941  -5.344  1.00  0.00     0.001 A 
ATOM     80  C   UNL     1      11.620  -4.440  -5.203  1.00  0.00     0.000 A 
ENDBRANCH  62  75
ENDBRANCH  36  37
ENDBRANCH  29  31
ENDBRANCH  28  29
ENDBRANCH  27  28
ENDBRANCH   1  27
TORSDOF 15
