REMARK SMILES O=C(OCCOC(=O)c1ccc(-c2c3nc(c(-c4ccccc4)c4ccc([nH]4)c(-c4ccccc4)c4nc(c(-c5ccccc5)c5ccc2[nH]5)C=C4)C=C3)cc1)C1=Cc2cc(Cl)c(Cl)c(Cl)c2O[C@@H]1C(F)(F)F
REMARK SMILES IDX 5 1 4 2 3 3 2 4 1 5 57 6 58 7 69 8 59 9 68 10 60 11 67 12
REMARK SMILES IDX 61 13 65 14 62 15 63 16 66 17 64 18 70 19 71 20 72 21 73 22
REMARK SMILES IDX 6 23 7 24 8 25 9 26 10 27 56 28 11 29 55 30 12 31 13 32
REMARK SMILES IDX 14 33 49 34 15 35 54 36 48 37 50 38 16 39 53 40 47 41 46 42
REMARK SMILES IDX 17 44 39 45 24 46 38 47 25 48 28 49 37 50 51 51 26 52 27 53
REMARK SMILES IDX 36 55 52 56 29 57 18 58 19 59 23 60 20 61 22 62 21 63 40 64
REMARK SMILES IDX 41 65 45 66 42 67 44 68 43 69 30 70 31 71 35 72 32 73 34 74
REMARK SMILES IDX 33 75
REMARK H PARENT 50 43 28 54
REMARK Flexibility Score: inf
ROOT
ATOM      1  C   UNL     1       4.829  -0.508  -0.631  1.00  0.00     0.275 C 
ENDROOT
BRANCH   1   2
ATOM      2  C   UNL     1       4.075   1.268   0.350  1.00  0.00     0.275 C 
BRANCH   2   3
ATOM      3  O   UNL     1       3.330   2.455  -0.344  1.00  0.00    -0.459 OA
BRANCH   3   4
ATOM      4  C   UNL     1       3.578   2.550  -1.655  1.00  0.00     0.338 C 
ATOM      5  O   UNL     1       3.103   3.261  -2.501  1.00  0.00    -0.246 OA
BRANCH   4   6
ATOM      6  C   UNL     1       4.325   1.323  -1.726  1.00  0.00     0.087 C 
ATOM      7  C   UNL     1       5.692   1.514  -1.190  1.00  0.00     0.027 C 
ATOM      8  C   UNL     1       2.973   0.182  -0.944  1.00  0.00     0.316 C 
ATOM      9  C   UNL     1       6.245   0.803   0.379  1.00  0.00     0.020 A 
ATOM     10  O   UNL     1       3.541  -0.542   0.747  1.00  0.00    -0.474 OA
ATOM     11  C   UNL     1       7.464   1.183   0.862  1.00  0.00     0.034 A 
ATOM     12  C   UNL     1       5.197  -0.134   1.396  1.00  0.00     0.148 A 
ATOM     13  C   UNL     1       7.745   0.766   2.179  1.00  0.00     0.062 A 
ATOM     14  C   UNL     1       5.552  -0.505   2.670  1.00  0.00     0.103 A 
ATOM     15  Cl  UNL     1       9.300   1.317   2.760  1.00  0.00    -0.083 Cl
ATOM     16  C   UNL     1       6.847  -0.027   3.045  1.00  0.00     0.082 A 
ATOM     17  Cl  UNL     1       4.515  -1.390   3.695  1.00  0.00    -0.079 Cl
ATOM     18  Cl  UNL     1       7.416  -0.365   4.668  1.00  0.00    -0.081 Cl
BRANCH   8  19
ATOM     19  C   UNL     1       2.426  -0.485  -2.251  1.00  0.00     0.430 C 
ATOM     20  F   UNL     1       1.200  -0.996  -2.083  1.00  0.00    -0.167 F 
ATOM     21  F   UNL     1       2.259   0.499  -3.187  1.00  0.00    -0.167 F 
ATOM     22  F   UNL     1       3.237  -1.359  -2.875  1.00  0.00    -0.167 F 
ENDBRANCH   8  19
ENDBRANCH   4   6
ENDBRANCH   3   4
ENDBRANCH   2   3
ENDBRANCH   1   2
BRANCH   1  23
ATOM     23  O   UNL     1       3.991  -1.980  -0.840  1.00  0.00    -0.458 OA
BRANCH  23  24
ATOM     24  C   UNL     1       3.141  -2.868  -0.234  1.00  0.00     0.338 C 
ATOM     25  O   UNL     1       2.706  -2.888   0.899  1.00  0.00    -0.246 OA
BRANCH  24  26
ATOM     26  C   UNL     1       2.537  -3.643  -1.358  1.00  0.00     0.060 A 
ATOM     27  C   UNL     1       1.183  -3.435  -1.669  1.00  0.00     0.016 A 
ATOM     28  C   UNL     1       3.386  -4.231  -2.294  1.00  0.00     0.016 A 
ATOM     29  C   UNL     1       0.752  -3.564  -3.000  1.00  0.00     0.010 A 
ATOM     30  C   UNL     1       2.940  -4.405  -3.602  1.00  0.00     0.010 A 
ATOM     31  C   UNL     1       1.652  -3.994  -3.986  1.00  0.00    -0.014 A 
BRANCH  31  32
ATOM     32  C   UNL     1       1.231  -4.258  -5.384  1.00  0.00     0.031 A 
ATOM     33  C   UNL     1       0.678  -5.622  -5.649  1.00  0.00     0.074 A 
ATOM     34  C   UNL     1       1.484  -3.413  -6.405  1.00  0.00     0.049 A 
ATOM     35  N   UNL     1       0.461  -6.230  -6.783  1.00  0.00    -0.248 NA
ATOM     36  C   UNL     1       0.387  -6.429  -4.452  1.00  0.00     0.031 C 
ATOM     37  C   UNL     1       2.021  -2.057  -6.290  1.00  0.00     0.029 A 
ATOM     38  N   UNL     1       1.354  -3.601  -7.764  1.00  0.00    -0.354 N 
ATOM     39  C   UNL     1       0.044  -7.505  -6.432  1.00  0.00     0.074 A 
ATOM     40  C   UNL     1       0.076  -7.592  -4.991  1.00  0.00     0.031 C 
ATOM     41  C   UNL     1       2.198  -1.547  -7.525  1.00  0.00     0.029 A 
ATOM     42  C   UNL     1       1.821  -2.549  -8.521  1.00  0.00     0.049 A 
ATOM     43  H   UNL     1       0.962  -4.413  -8.158  1.00  0.00     0.167 HD
ATOM     44  C   UNL     1      -0.329  -8.525  -7.235  1.00  0.00     0.031 A 
ATOM     45  C   UNL     1       1.948  -2.429  -9.861  1.00  0.00     0.031 A 
ATOM     46  C   UNL     1      -0.319  -8.459  -8.664  1.00  0.00     0.049 A 
ATOM     47  C   UNL     1       1.549  -3.590 -10.747  1.00  0.00     0.074 A 
ATOM     48  C   UNL     1      -0.692  -9.427  -9.575  1.00  0.00     0.029 A 
ATOM     49  N   UNL     1       0.105  -7.355  -9.389  1.00  0.00    -0.354 N 
ATOM     50  N   UNL     1       1.085  -4.770 -10.408  1.00  0.00    -0.248 NA
ATOM     51  C   UNL     1       1.689  -3.402 -12.202  1.00  0.00     0.031 C 
ATOM     52  C   UNL     1      -0.451  -8.924 -10.857  1.00  0.00     0.029 A 
ATOM     53  C   UNL     1       0.017  -7.623 -10.741  1.00  0.00     0.049 A 
ATOM     54  H   UNL     1       0.421  -6.508  -8.999  1.00  0.00     0.167 HD
ATOM     55  C   UNL     1       0.844  -5.446 -11.600  1.00  0.00     0.074 A 
ATOM     56  C   UNL     1       1.210  -4.546 -12.674  1.00  0.00     0.031 C 
ATOM     57  C   UNL     1       0.361  -6.698 -11.790  1.00  0.00     0.031 A 
BRANCH  44  58
ATOM     58  C   UNL     1      -0.713  -9.796  -6.539  1.00  0.00    -0.014 A 
ATOM     59  C   UNL     1      -1.870  -9.863  -5.742  1.00  0.00     0.009 A 
ATOM     60  C   UNL     1       0.151 -10.899  -6.583  1.00  0.00     0.009 A 
ATOM     61  C   UNL     1      -2.108 -10.978  -4.940  1.00  0.00     0.001 A 
ATOM     62  C   UNL     1      -0.112 -12.029  -5.809  1.00  0.00     0.001 A 
ATOM     63  C   UNL     1      -1.228 -12.059  -4.973  1.00  0.00     0.000 A 
ENDBRANCH  44  58
BRANCH  45  64
ATOM     64  C   UNL     1       2.486  -1.180 -10.477  1.00  0.00    -0.014 A 
ATOM     65  C   UNL     1       1.648  -0.340 -11.231  1.00  0.00     0.009 A 
ATOM     66  C   UNL     1       3.846  -0.849 -10.374  1.00  0.00     0.009 A 
ATOM     67  C   UNL     1       2.165   0.781 -11.890  1.00  0.00     0.001 A 
ATOM     68  C   UNL     1       4.356   0.287 -11.014  1.00  0.00     0.001 A 
ATOM     69  C   UNL     1       3.517   1.095 -11.780  1.00  0.00     0.000 A 
ENDBRANCH  45  64
BRANCH  57  70
ATOM     70  C   UNL     1       0.134  -7.167 -13.200  1.00  0.00    -0.014 A 
ATOM     71  C   UNL     1       1.200  -7.560 -14.022  1.00  0.00     0.009 A 
ATOM     72  C   UNL     1      -1.182  -7.345 -13.657  1.00  0.00     0.009 A 
ATOM     73  C   UNL     1       0.950  -8.120 -15.277  1.00  0.00     0.001 A 
ATOM     74  C   UNL     1      -1.429  -7.929 -14.899  1.00  0.00     0.001 A 
ATOM     75  C   UNL     1      -0.363  -8.316 -15.708  1.00  0.00     0.000 A 
ENDBRANCH  57  70
ENDBRANCH  31  32
ENDBRANCH  24  26
ENDBRANCH  23  24
ENDBRANCH   1  23
TORSDOF 12
