REMARK SMILES COc1cc(OC)cc(-c2ccc([C@@H](C)C(=O)OCCOC(=O)c3ccc(-c4c5nc(c(-c6ccccc6)c6ccc([nH]6)c(-c6ccccc6)c6nc(c(-c7ccccc7)c7ccc4[nH]7)C=C6)C=C5)cc3)cc2F)c1
REMARK SMILES IDX 19 1 18 2 16 3 17 4 14 5 15 6 13 7 10 8 11 9 73 10 12 11
REMARK SMILES IDX 72 12 74 13 9 14 3 15 4 16 75 17 5 18 8 19 2 20 1 21 6 22
REMARK SMILES IDX 7 23 20 24 21 25 22 26 23 27 24 28 25 29 71 30 26 31 70 32
REMARK SMILES IDX 27 33 28 34 29 35 64 36 30 37 69 38 63 39 65 40 31 41 68 42
REMARK SMILES IDX 62 43 61 44 32 46 54 47 39 48 53 49 40 50 43 51 52 52 66 53
REMARK SMILES IDX 41 54 42 55 51 57 67 58 44 59 33 60 34 61 38 62 35 63 37 64
REMARK SMILES IDX 36 65 55 66 56 67 60 68 57 69 59 70 58 71 45 72 46 73 50 74
REMARK SMILES IDX 47 75 49 76 48 77
REMARK H PARENT 65 45 43 56
REMARK Flexibility Score: inf
ROOT
ATOM      1  C   UNL     1       8.604  -5.066  -3.556  1.00  0.00     0.274 C 
ENDROOT
BRANCH   1   2
ATOM      2  O   UNL     1       7.981  -5.479  -2.324  1.00  0.00    -0.462 OA
BRANCH   2   3
ATOM      3  C   UNL     1       8.784  -5.579  -1.233  1.00  0.00     0.313 C 
ATOM      4  O   UNL     1      10.000  -5.412  -1.251  1.00  0.00    -0.252 OA
BRANCH   3   5
ATOM      5  C   UNL     1       8.040  -5.975   0.037  1.00  0.00     0.126 C 
ATOM      6  C   UNL     1       8.096  -7.490   0.221  1.00  0.00     0.025 C 
BRANCH   5   7
ATOM      7  C   UNL     1       6.631  -5.417   0.176  1.00  0.00    -0.031 A 
ATOM      8  C   UNL     1       3.999  -4.388   0.521  1.00  0.00     0.018 A 
ATOM      9  C   UNL     1       4.274  -5.379  -0.435  1.00  0.00     0.012 A 
ATOM     10  C   UNL     1       5.073  -3.902   1.272  1.00  0.00     0.131 A 
ATOM     11  C   UNL     1       5.567  -5.887  -0.604  1.00  0.00     0.005 A 
ATOM     12  C   UNL     1       6.364  -4.409   1.115  1.00  0.00     0.044 A 
ATOM     13  F   UNL     1       4.876  -2.958   2.206  1.00  0.00    -0.206 F 
BRANCH   8  14
ATOM     14  C   UNL     1       2.616  -3.954   0.771  1.00  0.00    -0.008 A 
ATOM     15  C   UNL     1       0.903  -2.233   0.927  1.00  0.00     0.123 A 
ATOM     16  C   UNL     1      -0.023  -3.200   1.324  1.00  0.00     0.092 A 
ATOM     17  C   UNL     1       2.224  -2.609   0.664  1.00  0.00     0.055 A 
ATOM     18  C   UNL     1       0.344  -4.540   1.441  1.00  0.00     0.123 A 
ATOM     19  C   UNL     1       1.656  -4.909   1.155  1.00  0.00     0.055 A 
BRANCH  15  20
ATOM     20  O   UNL     1       0.407  -0.959   0.866  1.00  0.00    -0.497 OA
ATOM     21  C   UNL     1       1.130  -0.040   0.057  1.00  0.00     0.278 C 
ENDBRANCH  15  20
BRANCH  18  22
ATOM     22  O   UNL     1      -0.656  -5.387   1.834  1.00  0.00    -0.497 OA
ATOM     23  C   UNL     1      -0.278  -6.729   2.121  1.00  0.00     0.278 C 
ENDBRANCH  18  22
ENDBRANCH   8  14
ENDBRANCH   5   7
ENDBRANCH   3   5
ENDBRANCH   2   3
ENDBRANCH   1   2
BRANCH   1  24
ATOM     24  C   UNL     1       8.389  -3.573  -3.819  1.00  0.00     0.275 C 
BRANCH  24  25
ATOM     25  O   UNL     1       9.148  -2.765  -2.901  1.00  0.00    -0.458 OA
BRANCH  25  26
ATOM     26  C   UNL     1       8.462  -2.344  -1.814  1.00  0.00     0.338 C 
ATOM     27  O   UNL     1       7.283  -2.524  -1.566  1.00  0.00    -0.246 OA
BRANCH  26  28
ATOM     28  C   UNL     1       9.380  -1.710  -0.856  1.00  0.00     0.060 A 
ATOM     29  C   UNL     1       9.523  -2.308   0.398  1.00  0.00     0.016 A 
ATOM     30  C   UNL     1       9.992  -0.488  -1.134  1.00  0.00     0.016 A 
ATOM     31  C   UNL     1      10.241  -1.667   1.401  1.00  0.00     0.010 A 
ATOM     32  C   UNL     1      10.725   0.152  -0.128  1.00  0.00     0.010 A 
ATOM     33  C   UNL     1      10.826  -0.420   1.153  1.00  0.00    -0.014 A 
BRANCH  33  34
ATOM     34  C   UNL     1      11.452   0.317   2.275  1.00  0.00     0.031 A 
ATOM     35  C   UNL     1      10.716   1.460   2.914  1.00  0.00     0.074 A 
ATOM     36  C   UNL     1      12.644  -0.075   2.760  1.00  0.00     0.049 A 
ATOM     37  N   UNL     1      11.088   2.236   3.901  1.00  0.00    -0.248 NA
ATOM     38  C   UNL     1       9.383   1.770   2.373  1.00  0.00     0.031 C 
ATOM     39  C   UNL     1      13.433  -1.200   2.261  1.00  0.00     0.029 A 
ATOM     40  N   UNL     1      13.390   0.429   3.795  1.00  0.00    -0.354 N 
ATOM     41  C   UNL     1      10.047   3.136   4.085  1.00  0.00     0.074 A 
ATOM     42  C   UNL     1       9.035   2.823   3.099  1.00  0.00     0.031 C 
ATOM     43  C   UNL     1      14.550  -1.310   2.999  1.00  0.00     0.029 A 
ATOM     44  C   UNL     1      14.569  -0.245   3.999  1.00  0.00     0.049 A 
ATOM     45  H   UNL     1      13.108   1.199   4.339  1.00  0.00     0.167 HD
ATOM     46  C   UNL     1       9.941   4.134   4.995  1.00  0.00     0.031 A 
ATOM     47  C   UNL     1      15.556  -0.021   4.886  1.00  0.00     0.031 A 
ATOM     48  C   UNL     1      10.940   4.446   5.980  1.00  0.00     0.049 A 
ATOM     49  C   UNL     1      15.428   1.113   5.863  1.00  0.00     0.074 A 
ATOM     50  C   UNL     1      10.928   5.445   6.939  1.00  0.00     0.029 A 
ATOM     51  N   UNL     1      12.131   3.755   6.138  1.00  0.00    -0.354 N 
ATOM     52  N   UNL     1      14.445   1.966   6.016  1.00  0.00    -0.248 NA
ATOM     53  C   UNL     1      16.547   1.308   6.797  1.00  0.00     0.031 C 
ATOM     54  C   UNL     1      12.127   5.377   7.657  1.00  0.00     0.029 A 
ATOM     55  C   UNL     1      12.865   4.310   7.172  1.00  0.00     0.049 A 
ATOM     56  H   UNL     1      12.414   2.984   5.595  1.00  0.00     0.167 HD
ATOM     57  C   UNL     1      14.815   2.784   7.076  1.00  0.00     0.074 A 
ATOM     58  C   UNL     1      16.106   2.315   7.537  1.00  0.00     0.031 C 
ATOM     59  C   UNL     1      14.146   3.829   7.620  1.00  0.00     0.031 A 
BRANCH  46  60
ATOM     60  C   UNL     1       8.704   4.983   4.937  1.00  0.00    -0.014 A 
ATOM     61  C   UNL     1       7.468   4.504   5.398  1.00  0.00     0.009 A 
ATOM     62  C   UNL     1       8.782   6.288   4.425  1.00  0.00     0.009 A 
ATOM     63  C   UNL     1       6.327   5.305   5.319  1.00  0.00     0.001 A 
ATOM     64  C   UNL     1       7.644   7.094   4.368  1.00  0.00     0.001 A 
ATOM     65  C   UNL     1       6.417   6.600   4.807  1.00  0.00     0.000 A 
ENDBRANCH  46  60
BRANCH  47  66
ATOM     66  C   UNL     1      16.761  -0.888   4.888  1.00  0.00    -0.014 A 
ATOM     67  C   UNL     1      16.978  -1.808   5.924  1.00  0.00     0.009 A 
ATOM     68  C   UNL     1      17.707  -0.789   3.855  1.00  0.00     0.009 A 
ATOM     69  C   UNL     1      18.131  -2.596   5.938  1.00  0.00     0.001 A 
ATOM     70  C   UNL     1      18.846  -1.596   3.860  1.00  0.00     0.001 A 
ATOM     71  C   UNL     1      19.061  -2.492   4.905  1.00  0.00     0.000 A 
ENDBRANCH  47  66
BRANCH  59  72
ATOM     72  C   UNL     1      14.782   4.508   8.797  1.00  0.00    -0.014 A 
ATOM     73  C   UNL     1      15.882   5.364   8.637  1.00  0.00     0.009 A 
ATOM     74  C   UNL     1      14.258   4.302  10.083  1.00  0.00     0.009 A 
ATOM     75  C   UNL     1      16.467   5.974   9.748  1.00  0.00     0.001 A 
ATOM     76  C   UNL     1      14.831   4.932  11.189  1.00  0.00     0.001 A 
ATOM     77  C   UNL     1      15.940   5.759  11.022  1.00  0.00     0.000 A 
ENDBRANCH  59  72
ENDBRANCH  33  34
ENDBRANCH  26  28
ENDBRANCH  25  26
ENDBRANCH  24  25
ENDBRANCH   1  24
TORSDOF 15
