REMARK SMILES Cc1nc2sc3c(c2c2nc(CCC(=O)OCCOC(=O)c4ccc(-c5c6nc(c(-c7ccccc7)c7ccc([nH]7)c(-c7ccccc7)c7nc(c(-c8ccccc8)c8ccc5[nH]8)C=C7)C=C6)cc4)nn12)[C@@H](C)CCC3
REMARK SMILES IDX 17 1 16 2 14 3 15 4 13 5 12 6 11 7 1 8 2 9 3 10 71 11 4 12
REMARK SMILES IDX 9 13 70 14 5 15 8 16 10 17 6 18 7 19 76 20 72 21 75 22 73 23
REMARK SMILES IDX 74 24 18 25 19 26 20 27 21 28 22 29 23 30 69 31 24 32 68 33
REMARK SMILES IDX 25 34 26 35 27 36 62 37 28 38 67 39 61 40 63 41 29 42 66 43
REMARK SMILES IDX 60 44 59 45 30 47 52 48 37 49 51 50 38 51 41 52 50 53 64 54
REMARK SMILES IDX 39 55 40 56 49 58 65 59 42 60 31 61 32 62 36 63 33 64 35 65
REMARK SMILES IDX 34 66 53 67 54 68 58 69 55 70 57 71 56 72 43 73 44 74 48 75
REMARK SMILES IDX 45 76 47 77 46 78
REMARK H PARENT 63 46 41 57
REMARK Flexibility Score: inf
ROOT
ATOM      1  C   UNL     1      -1.161  -3.574  -7.040  1.00  0.00     0.274 C 
ENDROOT
BRANCH   1   2
ATOM      2  O   UNL     1      -1.016  -2.475  -6.121  1.00  0.00    -0.462 OA
BRANCH   2   3
ATOM      3  C   UNL     1      -1.748  -1.362  -6.381  1.00  0.00     0.306 C 
ATOM      4  O   UNL     1      -2.515  -1.229  -7.328  1.00  0.00    -0.252 OA
BRANCH   3   5
ATOM      5  C   UNL     1      -1.447  -0.256  -5.403  1.00  0.00     0.131 C 
BRANCH   5   6
ATOM      6  C   UNL     1      -2.185  -0.375  -4.077  1.00  0.00     0.091 C 
BRANCH   6   7
ATOM      7  C   UNL     1      -1.424  -1.127  -3.039  1.00  0.00     0.152 A 
ATOM      8  C   UNL     1       1.044  -0.071   0.143  1.00  0.00     0.090 C 
ATOM      9  C   UNL     1       0.640  -1.450  -0.283  1.00  0.00     0.131 A 
ATOM     10  N   UNL     1       1.065  -2.513   0.353  1.00  0.00    -0.222 NA
ATOM     11  N   UNL     1      -0.209  -1.524  -1.393  1.00  0.00    -0.199 N 
ATOM     12  C   UNL     1       0.673  -3.721  -0.171  1.00  0.00     0.129 A 
ATOM     13  C   UNL     1      -0.622  -2.716  -1.924  1.00  0.00     0.168 A 
ATOM     14  N   UNL     1      -0.700  -0.488  -2.104  1.00  0.00    -0.150 NA
ATOM     15  S   UNL     1       1.174  -5.202   0.523  1.00  0.00    -0.120 S 
ATOM     16  C   UNL     1      -0.116  -3.953  -1.289  1.00  0.00     0.060 A 
ATOM     17  N   UNL     1      -1.401  -2.501  -2.955  1.00  0.00    -0.211 NA
ATOM     18  C   UNL     1       0.413  -6.109  -0.703  1.00  0.00     0.011 A 
ATOM     19  C   UNL     1      -0.220  -5.325  -1.652  1.00  0.00    -0.018 A 
ATOM     20  C   UNL     1       0.496  -7.601  -0.748  1.00  0.00     0.047 C 
ATOM     21  C   UNL     1      -0.856  -5.919  -2.884  1.00  0.00     0.018 C 
ATOM     22  C   UNL     1      -0.669  -8.153  -1.579  1.00  0.00     0.006 C 
ATOM     23  C   UNL     1      -0.186  -5.367  -4.143  1.00  0.00     0.013 C 
ATOM     24  C   UNL     1      -0.736  -7.466  -2.944  1.00  0.00     0.008 C 
ENDBRANCH   6   7
ENDBRANCH   5   6
ENDBRANCH   3   5
ENDBRANCH   2   3
ENDBRANCH   1   2
BRANCH   1  25
ATOM     25  C   UNL     1      -2.262  -4.545  -6.630  1.00  0.00     0.275 C 
BRANCH  25  26
ATOM     26  O   UNL     1      -3.560  -4.079  -6.978  1.00  0.00    -0.458 OA
BRANCH  26  27
ATOM     27  C   UNL     1      -4.164  -3.411  -5.971  1.00  0.00     0.338 C 
ATOM     28  O   UNL     1      -3.668  -2.935  -4.969  1.00  0.00    -0.246 OA
BRANCH  27  29
ATOM     29  C   UNL     1      -5.601  -3.525  -6.128  1.00  0.00     0.060 A 
ATOM     30  C   UNL     1      -6.404  -2.452  -5.744  1.00  0.00     0.016 A 
ATOM     31  C   UNL     1      -6.120  -4.784  -6.453  1.00  0.00     0.016 A 
ATOM     32  C   UNL     1      -7.766  -2.654  -5.662  1.00  0.00     0.010 A 
ATOM     33  C   UNL     1      -7.474  -4.987  -6.360  1.00  0.00     0.010 A 
ATOM     34  C   UNL     1      -8.280  -3.926  -5.945  1.00  0.00    -0.014 A 
BRANCH  34  35
ATOM     35  C   UNL     1      -9.716  -4.104  -5.906  1.00  0.00     0.031 A 
ATOM     36  C   UNL     1     -10.454  -3.508  -7.045  1.00  0.00     0.074 A 
ATOM     37  C   UNL     1     -10.322  -4.917  -5.027  1.00  0.00     0.049 A 
ATOM     38  N   UNL     1     -11.391  -2.621  -7.010  1.00  0.00    -0.248 NA
ATOM     39  C   UNL     1     -10.043  -3.906  -8.401  1.00  0.00     0.031 C 
ATOM     40  C   UNL     1      -9.700  -5.855  -4.091  1.00  0.00     0.029 A 
ATOM     41  N   UNL     1     -11.652  -5.164  -4.896  1.00  0.00    -0.354 N 
ATOM     42  C   UNL     1     -11.796  -2.446  -8.329  1.00  0.00     0.074 A 
ATOM     43  C   UNL     1     -10.859  -3.169  -9.151  1.00  0.00     0.031 C 
ATOM     44  C   UNL     1     -10.642  -6.721  -3.655  1.00  0.00     0.029 A 
ATOM     45  C   UNL     1     -11.935  -6.311  -4.178  1.00  0.00     0.049 A 
ATOM     46  H   UNL     1     -12.348  -4.580  -5.276  1.00  0.00     0.167 HD
ATOM     47  C   UNL     1     -12.989  -1.879  -8.652  1.00  0.00     0.031 A 
ATOM     48  C   UNL     1     -13.140  -6.917  -4.088  1.00  0.00     0.031 A 
ATOM     49  C   UNL     1     -13.574  -1.169  -7.550  1.00  0.00     0.049 A 
ATOM     50  C   UNL     1     -14.178  -5.936  -4.486  1.00  0.00     0.074 A 
ATOM     51  C   UNL     1     -13.213  -0.077  -6.788  1.00  0.00     0.029 A 
ATOM     52  N   UNL     1     -14.579  -1.802  -6.861  1.00  0.00    -0.354 N 
ATOM     53  N   UNL     1     -14.477  -4.875  -3.793  1.00  0.00    -0.248 NA
ATOM     54  C   UNL     1     -14.656  -5.932  -5.860  1.00  0.00     0.031 C 
ATOM     55  C   UNL     1     -13.708  -0.355  -5.481  1.00  0.00     0.029 A 
ATOM     56  C   UNL     1     -14.354  -1.593  -5.525  1.00  0.00     0.049 A 
ATOM     57  H   UNL     1     -15.323  -2.312  -7.253  1.00  0.00     0.167 HD
ATOM     58  C   UNL     1     -14.809  -3.912  -4.735  1.00  0.00     0.074 A 
ATOM     59  C   UNL     1     -15.043  -4.657  -5.966  1.00  0.00     0.031 C 
ATOM     60  C   UNL     1     -14.586  -2.586  -4.496  1.00  0.00     0.031 A 
BRANCH  47  61
ATOM     61  C   UNL     1     -13.791  -2.278  -9.861  1.00  0.00    -0.014 A 
ATOM     62  C   UNL     1     -14.946  -1.545 -10.184  1.00  0.00     0.009 A 
ATOM     63  C   UNL     1     -13.608  -3.503 -10.530  1.00  0.00     0.009 A 
ATOM     64  C   UNL     1     -15.890  -2.039 -11.092  1.00  0.00     0.001 A 
ATOM     65  C   UNL     1     -14.525  -3.978 -11.471  1.00  0.00     0.001 A 
ATOM     66  C   UNL     1     -15.680  -3.256 -11.733  1.00  0.00     0.000 A 
ENDBRANCH  47  61
BRANCH  48  67
ATOM     67  C   UNL     1     -13.420  -8.353  -3.905  1.00  0.00    -0.014 A 
ATOM     68  C   UNL     1     -14.679  -8.788  -3.470  1.00  0.00     0.009 A 
ATOM     69  C   UNL     1     -12.517  -9.323  -4.380  1.00  0.00     0.009 A 
ATOM     70  C   UNL     1     -15.030 -10.143  -3.533  1.00  0.00     0.001 A 
ATOM     71  C   UNL     1     -12.862 -10.675  -4.433  1.00  0.00     0.001 A 
ATOM     72  C   UNL     1     -14.126 -11.083  -4.022  1.00  0.00     0.000 A 
ENDBRANCH  48  67
BRANCH  60  73
ATOM     73  C   UNL     1     -14.237  -2.175  -3.087  1.00  0.00    -0.014 A 
ATOM     74  C   UNL     1     -13.071  -2.620  -2.440  1.00  0.00     0.009 A 
ATOM     75  C   UNL     1     -15.011  -1.187  -2.460  1.00  0.00     0.009 A 
ATOM     76  C   UNL     1     -12.706  -2.112  -1.190  1.00  0.00     0.001 A 
ATOM     77  C   UNL     1     -14.634  -0.664  -1.220  1.00  0.00     0.001 A 
ATOM     78  C   UNL     1     -13.485  -1.130  -0.584  1.00  0.00     0.000 A 
ENDBRANCH  60  73
ENDBRANCH  34  35
ENDBRANCH  27  29
ENDBRANCH  26  27
ENDBRANCH  25  26
ENDBRANCH   1  25
TORSDOF 13
