REMARK SMILES CC[C@@H]([NH3+])C(=O)N1CC[C@H](C(=O)OCCOC(=O)c2ccc(-c3c4nc(c(-c5ccccc5)c5ccc([nH]5)c(-c5ccccc5)c5nc(c(-c6ccccc6)c6ccc3[nH]6)C=C5)C=C4)cc2)[C@@H]1C
REMARK SMILES IDX 14 1 13 2 11 3 12 4 10 5 7 6 8 7 67 8 9 9 68 10 5 11 6 12
REMARK SMILES IDX 3 13 2 14 1 15 4 16 15 20 16 21 17 22 18 23 19 24 20 25
REMARK SMILES IDX 66 26 21 27 65 28 22 29 23 30 24 31 59 32 25 33 64 34 58 35
REMARK SMILES IDX 60 36 26 37 63 38 57 39 56 40 27 42 49 43 34 44 48 45 35 46
REMARK SMILES IDX 38 47 47 48 61 49 36 50 37 51 46 53 62 54 39 55 28 56 29 57
REMARK SMILES IDX 33 58 30 59 32 60 31 61 50 62 51 63 55 64 52 65 54 66 53 67
REMARK SMILES IDX 40 68 41 69 45 70 42 71 44 72 43 73
REMARK H PARENT 4 17 4 18 4 19 60 41 38 52
REMARK Flexibility Score: inf
ROOT
ATOM      1  C   UNL     1      -5.763  -5.033  -0.411  1.00  0.00     0.274 C 
ENDROOT
BRANCH   1   2
ATOM      2  O   UNL     1      -5.029  -3.934   0.179  1.00  0.00    -0.462 OA
BRANCH   2   3
ATOM      3  C   UNL     1      -4.349  -4.226   1.325  1.00  0.00     0.311 C 
ATOM      4  O   UNL     1      -4.323  -5.333   1.849  1.00  0.00    -0.252 OA
BRANCH   3   5
ATOM      5  C   UNL     1      -3.687  -2.982   1.914  1.00  0.00     0.123 C 
ATOM      6  N   UNL     1      -1.300  -3.132   2.081  1.00  0.00    -0.334 N 
ATOM      7  C   UNL     1      -1.877  -3.900   3.172  1.00  0.00     0.121 C 
ATOM      8  C   UNL     1      -2.358  -2.515   1.266  1.00  0.00     0.096 C 
ATOM      9  C   UNL     1      -3.255  -3.279   3.356  1.00  0.00     0.039 C 
ATOM     10  C   UNL     1      -2.251  -2.859  -0.216  1.00  0.00     0.032 C 
BRANCH   6  11
ATOM     11  C   UNL     1       0.061  -2.903   2.115  1.00  0.00     0.280 C 
ATOM     12  O   UNL     1       0.815  -3.756   2.604  1.00  0.00    -0.268 OA
BRANCH  11  13
ATOM     13  C   UNL     1       0.649  -1.501   1.789  1.00  0.00     0.270 C 
BRANCH  13  14
ATOM     14  C   UNL     1       0.480  -0.972   0.367  1.00  0.00     0.072 C 
ATOM     15  C   UNL     1       1.353   0.243   0.067  1.00  0.00     0.011 C 
ENDBRANCH  13  14
BRANCH  13  16
ATOM     16  N   UNL     1       0.155  -0.537   2.800  1.00  0.00    -0.347 N 
ATOM     17  H   UNL     1      -0.858  -0.448   2.718  1.00  0.00     0.345 HD
ATOM     18  H   UNL     1       0.589   0.373   2.644  1.00  0.00     0.345 HD
ATOM     19  H   UNL     1       0.393  -0.871   3.734  1.00  0.00     0.345 HD
ENDBRANCH  13  16
ENDBRANCH  11  13
ENDBRANCH   6  11
ENDBRANCH   3   5
ENDBRANCH   2   3
ENDBRANCH   1   2
BRANCH   1  20
ATOM     20  C   UNL     1      -4.974  -5.680  -1.549  1.00  0.00     0.275 C 
BRANCH  20  21
ATOM     21  O   UNL     1      -3.749  -6.211  -1.024  1.00  0.00    -0.458 OA
BRANCH  21  22
ATOM     22  C   UNL     1      -2.719  -6.298  -1.895  1.00  0.00     0.338 C 
ATOM     23  O   UNL     1      -2.777  -6.102  -3.103  1.00  0.00    -0.246 OA
BRANCH  22  24
ATOM     24  C   UNL     1      -1.460  -6.601  -1.168  1.00  0.00     0.060 A 
ATOM     25  C   UNL     1      -1.356  -6.434   0.218  1.00  0.00     0.016 A 
ATOM     26  C   UNL     1      -0.330  -6.980  -1.895  1.00  0.00     0.016 A 
ATOM     27  C   UNL     1      -0.130  -6.591   0.864  1.00  0.00     0.010 A 
ATOM     28  C   UNL     1       0.880  -7.216  -1.234  1.00  0.00     0.010 A 
ATOM     29  C   UNL     1       0.995  -7.017   0.153  1.00  0.00    -0.014 A 
BRANCH  29  30
ATOM     30  C   UNL     1       2.295  -7.270   0.830  1.00  0.00     0.031 A 
ATOM     31  C   UNL     1       3.527  -6.543   0.374  1.00  0.00     0.074 A 
ATOM     32  C   UNL     1       2.398  -8.196   1.803  1.00  0.00     0.049 A 
ATOM     33  N   UNL     1       4.785  -6.864   0.536  1.00  0.00    -0.248 NA
ATOM     34  C   UNL     1       3.311  -5.303  -0.389  1.00  0.00     0.031 C 
ATOM     35  C   UNL     1       1.287  -8.922   2.419  1.00  0.00     0.029 A 
ATOM     36  N   UNL     1       3.513  -8.703   2.428  1.00  0.00    -0.354 N 
ATOM     37  C   UNL     1       5.508  -5.907  -0.163  1.00  0.00     0.074 A 
ATOM     38  C   UNL     1       4.551  -4.984  -0.737  1.00  0.00     0.031 C 
ATOM     39  C   UNL     1       1.772  -9.775   3.335  1.00  0.00     0.029 A 
ATOM     40  C   UNL     1       3.229  -9.729   3.296  1.00  0.00     0.049 A 
ATOM     41  H   UNL     1       4.423  -8.364   2.270  1.00  0.00     0.167 HD
ATOM     42  C   UNL     1       6.850  -5.823  -0.324  1.00  0.00     0.031 A 
ATOM     43  C   UNL     1       4.042 -10.592   3.933  1.00  0.00     0.031 A 
ATOM     44  C   UNL     1       7.796  -6.716   0.292  1.00  0.00     0.049 A 
ATOM     45  C   UNL     1       5.522 -10.521   3.697  1.00  0.00     0.074 A 
ATOM     46  C   UNL     1       9.177  -6.717   0.187  1.00  0.00     0.029 A 
ATOM     47  N   UNL     1       7.458  -7.752   1.148  1.00  0.00    -0.354 N 
ATOM     48  N   UNL     1       6.199  -9.686   2.947  1.00  0.00    -0.248 NA
ATOM     49  C   UNL     1       6.349 -11.531   4.373  1.00  0.00     0.031 C 
ATOM     50  C   UNL     1       9.673  -7.774   0.959  1.00  0.00     0.029 A 
ATOM     51  C   UNL     1       8.603  -8.403   1.574  1.00  0.00     0.049 A 
ATOM     52  H   UNL     1       6.540  -7.989   1.413  1.00  0.00     0.167 HD
ATOM     53  C   UNL     1       7.529 -10.061   3.070  1.00  0.00     0.074 A 
ATOM     54  C   UNL     1       7.567 -11.191   3.976  1.00  0.00     0.031 C 
ATOM     55  C   UNL     1       8.622  -9.519   2.481  1.00  0.00     0.031 A 
BRANCH  42  56
ATOM     56  C   UNL     1       7.378  -4.761  -1.243  1.00  0.00    -0.014 A 
ATOM     57  C   UNL     1       7.434  -3.414  -0.857  1.00  0.00     0.009 A 
ATOM     58  C   UNL     1       7.878  -5.131  -2.502  1.00  0.00     0.009 A 
ATOM     59  C   UNL     1       7.963  -2.455  -1.725  1.00  0.00     0.001 A 
ATOM     60  C   UNL     1       8.426  -4.175  -3.358  1.00  0.00     0.001 A 
ATOM     61  C   UNL     1       8.463  -2.836  -2.971  1.00  0.00     0.000 A 
ENDBRANCH  42  56
BRANCH  43  62
ATOM     62  C   UNL     1       3.460 -11.655   4.791  1.00  0.00    -0.014 A 
ATOM     63  C   UNL     1       3.592 -11.597   6.185  1.00  0.00     0.009 A 
ATOM     64  C   UNL     1       2.754 -12.726   4.217  1.00  0.00     0.009 A 
ATOM     65  C   UNL     1       3.038 -12.596   6.988  1.00  0.00     0.001 A 
ATOM     66  C   UNL     1       2.177 -13.707   5.024  1.00  0.00     0.001 A 
ATOM     67  C   UNL     1       2.325 -13.645   6.408  1.00  0.00     0.000 A 
ENDBRANCH  43  62
BRANCH  55  68
ATOM     68  C   UNL     1       9.953 -10.112   2.834  1.00  0.00    -0.014 A 
ATOM     69  C   UNL     1      10.382 -11.321   2.268  1.00  0.00     0.009 A 
ATOM     70  C   UNL     1      10.805  -9.426   3.714  1.00  0.00     0.009 A 
ATOM     71  C   UNL     1      11.634 -11.844   2.595  1.00  0.00     0.001 A 
ATOM     72  C   UNL     1      12.064  -9.942   4.023  1.00  0.00     0.001 A 
ATOM     73  C   UNL     1      12.475 -11.153   3.468  1.00  0.00     0.000 A 
ENDBRANCH  55  68
ENDBRANCH  29  30
ENDBRANCH  22  24
ENDBRANCH  21  22
ENDBRANCH  20  21
ENDBRANCH   1  20
TORSDOF 15
