REMARK SMILES O=C(OCCOC(=O)c1ccc([C@H]2Nc3ccc(Cl)cc3[C@@H]3C=CC[C@@H]23)cc1)c1ccc(-c2c3nc(c(-c4ccccc4)c4ccc([nH]4)c(-c4ccccc4)c4nc(c(-c5ccccc5)c5ccc2[nH]5)C=C4)C=C3)cc1
REMARK SMILES IDX 4 1 3 2 2 3 1 4 29 5 30 6 76 7 31 8 75 9 32 10 33 11 34 12
REMARK SMILES IDX 69 13 35 14 74 15 68 16 70 17 36 18 73 19 67 20 66 21 37 23
REMARK SMILES IDX 59 24 44 25 58 26 45 27 48 28 57 29 71 30 46 31 47 32 56 34
REMARK SMILES IDX 72 35 49 36 38 37 39 38 43 39 40 40 42 41 41 42 60 43 61 44
REMARK SMILES IDX 65 45 62 46 64 47 63 48 50 49 51 50 55 51 52 52 54 53 53 54
REMARK SMILES IDX 5 55 6 56 7 57 8 58 9 59 10 60 28 61 11 62 27 63 12 64 13 65
REMARK SMILES IDX 14 66 26 67 15 68 22 70 25 71 16 72 21 73 23 74 24 75 17 76
REMARK SMILES IDX 20 77 18 78 19 79
REMARK H PARENT 70 22 48 33 14 69
REMARK Flexibility Score: inf
ROOT
ATOM      1  C   UNL     1       4.017  -1.760  -0.076  1.00  0.00     0.275 C 
ENDROOT
BRANCH   1   2
ATOM      2  O   UNL     1       3.167  -0.923   0.712  1.00  0.00    -0.458 OA
BRANCH   2   3
ATOM      3  C   UNL     1       3.134   0.425   0.761  1.00  0.00     0.338 C 
ATOM      4  O   UNL     1       2.314   0.955   1.511  1.00  0.00    -0.246 OA
BRANCH   3   5
ATOM      5  C   UNL     1       3.968   1.322  -0.112  1.00  0.00     0.060 A 
ATOM      6  C   UNL     1       5.121   1.002  -0.852  1.00  0.00     0.016 A 
ATOM      7  C   UNL     1       3.492   2.628  -0.218  1.00  0.00     0.016 A 
ATOM      8  C   UNL     1       5.722   1.910  -1.740  1.00  0.00     0.010 A 
ATOM      9  C   UNL     1       4.101   3.529  -1.082  1.00  0.00     0.010 A 
ATOM     10  C   UNL     1       5.208   3.188  -1.870  1.00  0.00    -0.014 A 
BRANCH  10  11
ATOM     11  C   UNL     1       5.836   4.242  -2.711  1.00  0.00     0.031 A 
ATOM     12  C   UNL     1       6.376   5.455  -2.009  1.00  0.00     0.074 A 
ATOM     13  C   UNL     1       5.709   4.228  -4.052  1.00  0.00     0.049 A 
ATOM     14  N   UNL     1       6.664   6.637  -2.488  1.00  0.00    -0.248 NA
ATOM     15  C   UNL     1       6.523   5.336  -0.550  1.00  0.00     0.031 C 
ATOM     16  C   UNL     1       5.183   3.121  -4.849  1.00  0.00     0.029 A 
ATOM     17  N   UNL     1       5.924   5.225  -4.975  1.00  0.00    -0.354 N 
ATOM     18  C   UNL     1       6.929   7.428  -1.375  1.00  0.00     0.074 A 
ATOM     19  C   UNL     1       6.739   6.595  -0.208  1.00  0.00     0.031 C 
ATOM     20  C   UNL     1       5.052   3.517  -6.127  1.00  0.00     0.029 A 
ATOM     21  C   UNL     1       5.478   4.909  -6.239  1.00  0.00     0.049 A 
ATOM     22  H   UNL     1       6.355   6.082  -4.754  1.00  0.00     0.167 HD
ATOM     23  C   UNL     1       7.272   8.737  -1.329  1.00  0.00     0.031 A 
ATOM     24  C   UNL     1       5.406   5.660  -7.355  1.00  0.00     0.031 A 
ATOM     25  C   UNL     1       7.448   9.547  -2.504  1.00  0.00     0.049 A 
ATOM     26  C   UNL     1       5.907   7.079  -7.312  1.00  0.00     0.074 A 
ATOM     27  C   UNL     1       7.945  10.833  -2.601  1.00  0.00     0.029 A 
ATOM     28  N   UNL     1       7.124   9.140  -3.791  1.00  0.00    -0.354 N 
ATOM     29  N   UNL     1       6.279   7.788  -6.274  1.00  0.00    -0.248 NA
ATOM     30  C   UNL     1       6.026   7.783  -8.597  1.00  0.00     0.031 C 
ATOM     31  C   UNL     1       7.899  11.214  -3.947  1.00  0.00     0.029 A 
ATOM     32  C   UNL     1       7.426  10.144  -4.691  1.00  0.00     0.049 A 
ATOM     33  H   UNL     1       6.737   8.266  -4.027  1.00  0.00     0.167 HD
ATOM     34  C   UNL     1       6.742   8.994  -6.784  1.00  0.00     0.074 A 
ATOM     35  C   UNL     1       6.579   8.930  -8.223  1.00  0.00     0.031 C 
ATOM     36  C   UNL     1       7.279  10.048  -6.122  1.00  0.00     0.031 A 
BRANCH  23  37
ATOM     37  C   UNL     1       7.463   9.350   0.034  1.00  0.00    -0.014 A 
ATOM     38  C   UNL     1       8.438   8.864   0.923  1.00  0.00     0.009 A 
ATOM     39  C   UNL     1       6.634  10.400   0.457  1.00  0.00     0.009 A 
ATOM     40  C   UNL     1       8.514   9.346   2.231  1.00  0.00     0.001 A 
ATOM     41  C   UNL     1       6.748  10.918   1.750  1.00  0.00     0.001 A 
ATOM     42  C   UNL     1       7.669  10.374   2.643  1.00  0.00     0.000 A 
ENDBRANCH  23  37
BRANCH  24  43
ATOM     43  C   UNL     1       4.914   5.066  -8.627  1.00  0.00    -0.014 A 
ATOM     44  C   UNL     1       5.829   4.675  -9.618  1.00  0.00     0.009 A 
ATOM     45  C   UNL     1       3.544   4.872  -8.858  1.00  0.00     0.009 A 
ATOM     46  C   UNL     1       5.383   4.126 -10.822  1.00  0.00     0.001 A 
ATOM     47  C   UNL     1       3.101   4.303 -10.057  1.00  0.00     0.001 A 
ATOM     48  C   UNL     1       4.020   3.936 -11.040  1.00  0.00     0.000 A 
ENDBRANCH  24  43
BRANCH  36  49
ATOM     49  C   UNL     1       7.826  11.184  -6.939  1.00  0.00    -0.014 A 
ATOM     50  C   UNL     1       6.991  12.112  -7.576  1.00  0.00     0.009 A 
ATOM     51  C   UNL     1       9.218  11.376  -6.981  1.00  0.00     0.009 A 
ATOM     52  C   UNL     1       7.542  13.205  -8.250  1.00  0.00     0.001 A 
ATOM     53  C   UNL     1       9.763  12.483  -7.630  1.00  0.00     0.001 A 
ATOM     54  C   UNL     1       8.925  13.395  -8.267  1.00  0.00     0.000 A 
ENDBRANCH  36  49
ENDBRANCH  10  11
ENDBRANCH   3   5
ENDBRANCH   2   3
ENDBRANCH   1   2
BRANCH   1  55
ATOM     55  C   UNL     1       3.600  -1.880  -1.552  1.00  0.00     0.275 C 
BRANCH  55  56
ATOM     56  O   UNL     1       3.148  -0.647  -2.167  1.00  0.00    -0.458 OA
BRANCH  56  57
ATOM     57  C   UNL     1       1.795  -0.478  -2.242  1.00  0.00     0.338 C 
ATOM     58  O   UNL     1       0.965  -1.296  -1.897  1.00  0.00    -0.246 OA
BRANCH  57  59
ATOM     59  C   UNL     1       1.424   0.902  -2.691  1.00  0.00     0.060 A 
ATOM     60  C   UNL     1       0.369   1.545  -2.034  1.00  0.00     0.016 A 
ATOM     61  C   UNL     1       2.052   1.568  -3.743  1.00  0.00     0.016 A 
ATOM     62  C   UNL     1      -0.015   2.856  -2.378  1.00  0.00     0.007 A 
ATOM     63  C   UNL     1       1.661   2.884  -4.089  1.00  0.00     0.007 A 
ATOM     64  C   UNL     1       0.645   3.572  -3.389  1.00  0.00    -0.025 A 
BRANCH  64  65
ATOM     65  C   UNL     1       0.354   5.055  -3.692  1.00  0.00     0.114 C 
ATOM     66  N   UNL     1      -1.006   5.497  -3.281  1.00  0.00    -0.378 N 
ATOM     67  C   UNL     1       1.319   6.055  -3.049  1.00  0.00     0.031 C 
ATOM     68  C   UNL     1      -1.178   6.466  -2.280  1.00  0.00     0.038 A 
ATOM     69  H   UNL     1      -1.796   5.105  -3.718  1.00  0.00     0.161 HD
ATOM     70  C   UNL     1       1.140   5.987  -1.519  1.00  0.00     0.049 C 
ATOM     71  C   UNL     1       2.800   6.121  -3.326  1.00  0.00     0.034 C 
ATOM     72  C   UNL     1      -2.226   7.388  -2.331  1.00  0.00     0.027 A 
ATOM     73  C   UNL     1      -0.177   6.679  -1.298  1.00  0.00    -0.016 A 
ATOM     74  C   UNL     1       2.379   6.694  -1.072  1.00  0.00    -0.023 C 
ATOM     75  C   UNL     1       3.264   6.801  -2.071  1.00  0.00    -0.030 C 
ATOM     76  C   UNL     1      -2.296   8.448  -1.409  1.00  0.00     0.022 A 
ATOM     77  C   UNL     1      -0.323   7.646  -0.294  1.00  0.00     0.027 A 
ATOM     78  C   UNL     1      -1.367   8.550  -0.377  1.00  0.00     0.041 A 
ATOM     79  Cl  UNL     1      -1.437   9.859   0.738  1.00  0.00    -0.084 Cl
ENDBRANCH  64  65
ENDBRANCH  57  59
ENDBRANCH  56  57
ENDBRANCH  55  56
ENDBRANCH   1  55
TORSDOF 12
