REMARK SMILES CC(C)CCn1nc(C(=O)OCCOC(=O)c2ccc(-c3c4nc(c(-c5ccccc5)c5ccc([nH]5)c(-c5ccccc5)c5nc(c(-c6ccccc6)c6ccc3[nH]6)C=C5)C=C4)cc2)c2c1CCN(C(=O)[C@@H]1CCc3nn(C)c(=O)n3C1)C2
REMARK SMILES IDX 12 1 11 2 9 3 10 4 8 5 6 6 7 7 66 8 65 9 67 10 83 11 68 12
REMARK SMILES IDX 69 13 5 14 4 15 2 16 1 17 3 18 70 19 71 20 72 21 73 22 82 23
REMARK SMILES IDX 74 24 81 25 75 26 79 27 76 28 77 29 80 30 78 31 13 32 14 33
REMARK SMILES IDX 15 34 16 35 17 36 18 37 64 38 19 39 63 40 20 41 21 42 22 43
REMARK SMILES IDX 57 44 23 45 62 46 56 47 58 48 24 49 61 50 55 51 54 52 25 54
REMARK SMILES IDX 47 55 32 56 46 57 33 58 36 59 45 60 59 61 34 62 35 63 44 65
REMARK SMILES IDX 60 66 37 67 26 68 27 69 31 70 28 71 30 72 29 73 48 74 49 75
REMARK SMILES IDX 53 76 50 77 52 78 51 79 38 80 39 81 43 82 40 83 42 84 41 85
REMARK H PARENT 58 53 36 64
REMARK Flexibility Score: inf
ROOT
ATOM      1  C   UNL     1       0.356   7.580  -4.663  1.00  0.00     0.275 C 
ENDROOT
BRANCH   1   2
ATOM      2  O   UNL     1       0.461   6.206  -4.261  1.00  0.00    -0.457 OA
BRANCH   2   3
ATOM      3  C   UNL     1       0.067   5.841  -3.000  1.00  0.00     0.359 C 
ATOM      4  O   UNL     1      -0.097   6.638  -2.079  1.00  0.00    -0.244 OA
BRANCH   3   5
ATOM      5  C   UNL     1      -0.209   4.393  -2.938  1.00  0.00     0.175 A 
ATOM      6  N   UNL     1      -0.619   2.419  -2.179  1.00  0.00    -0.268 N 
ATOM      7  N   UNL     1      -0.517   3.722  -1.804  1.00  0.00    -0.165 NA
ATOM      8  C   UNL     1      -0.273   2.254  -3.483  1.00  0.00     0.046 A 
ATOM      9  C   UNL     1      -0.210   3.509  -4.050  1.00  0.00     0.028 A 
ATOM     10  C   UNL     1       0.065   1.041  -4.251  1.00  0.00     0.078 C 
ATOM     11  C   UNL     1      -0.017   3.770  -5.523  1.00  0.00     0.159 C 
ATOM     12  C   UNL     1       0.947   1.532  -5.410  1.00  0.00     0.126 C 
ATOM     13  N   UNL     1       0.232   2.497  -6.229  1.00  0.00    -0.338 N 
BRANCH   6  14
ATOM     14  C   UNL     1      -1.202   1.467  -1.245  1.00  0.00     0.145 C 
BRANCH  14  15
ATOM     15  C   UNL     1      -0.817  -0.016  -1.371  1.00  0.00     0.027 C 
BRANCH  15  16
ATOM     16  C   UNL     1       0.675  -0.322  -1.137  1.00  0.00    -0.016 C 
ATOM     17  C   UNL     1       1.066  -0.190   0.333  1.00  0.00     0.007 C 
ATOM     18  C   UNL     1       1.014  -1.728  -1.646  1.00  0.00     0.007 C 
ENDBRANCH  15  16
ENDBRANCH  14  15
ENDBRANCH   6  14
BRANCH  13  19
ATOM     19  C   UNL     1      -0.167   2.380  -7.543  1.00  0.00     0.227 C 
ATOM     20  O   UNL     1      -0.715   3.342  -8.101  1.00  0.00    -0.274 OA
BRANCH  19  21
ATOM     21  C   UNL     1       0.009   1.099  -8.396  1.00  0.00     0.099 C 
ATOM     22  C   UNL     1      -0.975  -0.047  -8.131  1.00  0.00     0.023 C 
ATOM     23  C   UNL     1       1.434   0.609  -8.629  1.00  0.00     0.142 C 
ATOM     24  C   UNL     1      -0.513  -1.121  -7.153  1.00  0.00     0.078 C 
ATOM     25  N   UNL     1       1.806  -0.492  -7.769  1.00  0.00    -0.278 N 
ATOM     26  C   UNL     1       0.975  -1.251  -7.026  1.00  0.00     0.133 A 
ATOM     27  C   UNL     1       3.063  -0.672  -7.242  1.00  0.00     0.345 A 
ATOM     28  N   UNL     1       1.556  -1.932  -6.080  1.00  0.00    -0.155 NA
ATOM     29  N   UNL     1       2.885  -1.578  -6.189  1.00  0.00    -0.216 N 
ATOM     30  O   UNL     1       4.076  -0.053  -7.526  1.00  0.00    -0.246 OA
ATOM     31  C   UNL     1       3.829  -1.783  -5.123  1.00  0.00     0.179 C 
ENDBRANCH  19  21
ENDBRANCH  13  19
ENDBRANCH   3   5
ENDBRANCH   2   3
ENDBRANCH   1   2
BRANCH   1  32
ATOM     32  C   UNL     1      -1.032   7.856  -5.227  1.00  0.00     0.275 C 
BRANCH  32  33
ATOM     33  O   UNL     1      -1.964   7.841  -4.154  1.00  0.00    -0.458 OA
BRANCH  33  34
ATOM     34  C   UNL     1      -2.582   6.665  -3.907  1.00  0.00     0.338 C 
ATOM     35  O   UNL     1      -2.465   5.627  -4.531  1.00  0.00    -0.246 OA
BRANCH  34  36
ATOM     36  C   UNL     1      -3.542   6.868  -2.820  1.00  0.00     0.060 A 
ATOM     37  C   UNL     1      -4.336   5.776  -2.454  1.00  0.00     0.016 A 
ATOM     38  C   UNL     1      -3.878   8.186  -2.495  1.00  0.00     0.016 A 
ATOM     39  C   UNL     1      -5.619   6.032  -2.028  1.00  0.00     0.010 A 
ATOM     40  C   UNL     1      -5.164   8.440  -2.123  1.00  0.00     0.010 A 
ATOM     41  C   UNL     1      -6.037   7.362  -2.002  1.00  0.00    -0.014 A 
BRANCH  41  42
ATOM     42  C   UNL     1      -7.441   7.663  -1.884  1.00  0.00     0.031 A 
ATOM     43  C   UNL     1      -7.894   7.782  -0.484  1.00  0.00     0.074 A 
ATOM     44  C   UNL     1      -8.152   8.007  -2.974  1.00  0.00     0.049 A 
ATOM     45  N   UNL     1      -8.687   6.994   0.159  1.00  0.00    -0.248 NA
ATOM     46  C   UNL     1      -7.229   8.791   0.361  1.00  0.00     0.031 C 
ATOM     47  C   UNL     1      -7.675   8.255  -4.341  1.00  0.00     0.029 A 
ATOM     48  N   UNL     1      -9.456   8.358  -3.048  1.00  0.00    -0.354 N 
ATOM     49  C   UNL     1      -8.758   7.516   1.446  1.00  0.00     0.074 A 
ATOM     50  C   UNL     1      -7.668   8.444   1.569  1.00  0.00     0.031 C 
ATOM     51  C   UNL     1      -8.613   8.965  -5.013  1.00  0.00     0.029 A 
ATOM     52  C   UNL     1      -9.786   9.111  -4.165  1.00  0.00     0.049 A 
ATOM     53  H   UNL     1     -10.116   8.102  -2.365  1.00  0.00     0.167 HD
ATOM     54  C   UNL     1      -9.869   7.373   2.217  1.00  0.00     0.031 A 
ATOM     55  C   UNL     1     -10.898   9.877  -4.302  1.00  0.00     0.031 A 
ATOM     56  C   UNL     1     -10.764   6.388   1.669  1.00  0.00     0.049 A 
ATOM     57  C   UNL     1     -11.852   9.458  -3.238  1.00  0.00     0.074 A 
ATOM     58  C   UNL     1     -10.673   5.037   1.408  1.00  0.00     0.029 A 
ATOM     59  N   UNL     1     -11.813   6.859   0.911  1.00  0.00    -0.354 N 
ATOM     60  N   UNL     1     -12.421   8.284  -3.207  1.00  0.00    -0.248 NA
ATOM     61  C   UNL     1     -11.772  10.141  -1.951  1.00  0.00     0.031 C 
ATOM     62  C   UNL     1     -11.347   4.861   0.166  1.00  0.00     0.029 A 
ATOM     63  C   UNL     1     -11.875   6.094  -0.225  1.00  0.00     0.049 A 
ATOM     64  H   UNL     1     -12.409   7.608   1.142  1.00  0.00     0.167 HD
ATOM     65  C   UNL     1     -12.383   7.900  -1.872  1.00  0.00     0.074 A 
ATOM     66  C   UNL     1     -12.044   9.118  -1.133  1.00  0.00     0.031 C 
ATOM     67  C   UNL     1     -12.322   6.583  -1.511  1.00  0.00     0.031 A 
BRANCH  54  68
ATOM     68  C   UNL     1     -10.338   8.414   3.201  1.00  0.00    -0.014 A 
ATOM     69  C   UNL     1     -11.498   8.145   3.947  1.00  0.00     0.009 A 
ATOM     70  C   UNL     1      -9.859   9.738   3.235  1.00  0.00     0.009 A 
ATOM     71  C   UNL     1     -12.186   9.165   4.613  1.00  0.00     0.001 A 
ATOM     72  C   UNL     1     -10.518  10.750   3.935  1.00  0.00     0.001 A 
ATOM     73  C   UNL     1     -11.701  10.469   4.597  1.00  0.00     0.000 A 
ENDBRANCH  54  68
BRANCH  55  74
ATOM     74  C   UNL     1     -11.031  11.161  -5.033  1.00  0.00    -0.014 A 
ATOM     75  C   UNL     1     -12.292  11.684  -5.364  1.00  0.00     0.009 A 
ATOM     76  C   UNL     1      -9.917  12.006  -5.197  1.00  0.00     0.009 A 
ATOM     77  C   UNL     1     -12.430  13.006  -5.818  1.00  0.00     0.001 A 
ATOM     78  C   UNL     1     -10.053  13.323  -5.652  1.00  0.00     0.001 A 
ATOM     79  C   UNL     1     -11.312  13.827  -5.951  1.00  0.00     0.000 A 
ENDBRANCH  55  74
BRANCH  67  80
ATOM     80  C   UNL     1     -12.469   5.536  -2.587  1.00  0.00    -0.014 A 
ATOM     81  C   UNL     1     -11.534   5.371  -3.626  1.00  0.00     0.009 A 
ATOM     82  C   UNL     1     -13.449   4.549  -2.412  1.00  0.00     0.009 A 
ATOM     83  C   UNL     1     -11.586   4.252  -4.465  1.00  0.00     0.001 A 
ATOM     84  C   UNL     1     -13.488   3.423  -3.236  1.00  0.00     0.001 A 
ATOM     85  C   UNL     1     -12.557   3.274  -4.261  1.00  0.00     0.000 A 
ENDBRANCH  67  80
ENDBRANCH  41  42
ENDBRANCH  34  36
ENDBRANCH  33  34
ENDBRANCH  32  33
ENDBRANCH   1  32
TORSDOF 16
