REMARK SMILES C[C@H]([NH2+]CC1(O)CCCC1)[C@H](C)C(=O)OCCOC(=O)c1ccc(-c2c3nc(c(-c4ccccc4)c4ccc([nH]4)c(-c4ccccc4)c4nc(c(-c5ccccc5)c5ccc2[nH]5)C=C4)C=C3)cc1
REMARK SMILES IDX 15 1 13 2 14 3 11 4 12 5 2 6 1 7 3 8 4 11 5 12 7 13 10 14
REMARK SMILES IDX 8 15 9 16 6 17 16 19 17 20 18 21 19 22 20 23 21 24 22 25
REMARK SMILES IDX 68 26 23 27 67 28 24 29 25 30 26 31 61 32 27 33 66 34 60 35
REMARK SMILES IDX 62 36 28 37 65 38 59 39 58 40 29 42 51 43 36 44 50 45 37 46
REMARK SMILES IDX 40 47 49 48 63 49 38 50 39 51 48 53 64 54 41 55 30 56 31 57
REMARK SMILES IDX 35 58 32 59 34 60 33 61 52 62 53 63 57 64 54 65 56 66 55 67
REMARK SMILES IDX 42 68 43 69 47 70 44 71 46 72 45 73
REMARK H PARENT 3 9 3 10 6 18 62 41 40 52
REMARK Flexibility Score: inf
ROOT
ATOM      1  O   UNL     1      -1.228   3.427  -1.465  1.00  0.00    -0.462 OA
ENDROOT
BRANCH   1   2
ATOM      2  C   UNL     1      -2.062   2.386  -1.211  1.00  0.00     0.314 C 
ATOM      3  O   UNL     1      -3.228   2.319  -1.587  1.00  0.00    -0.252 OA
BRANCH   2   4
ATOM      4  C   UNL     1      -1.404   1.269  -0.411  1.00  0.00     0.154 C 
ATOM      5  C   UNL     1      -0.025   0.856  -0.941  1.00  0.00     0.026 C 
BRANCH   4   6
ATOM      6  C   UNL     1      -1.464   1.545   1.112  1.00  0.00     0.193 C 
ATOM      7  C   UNL     1      -2.927   1.529   1.589  1.00  0.00     0.076 C 
BRANCH   6   8
ATOM      8  N   UNL     1      -0.861   2.794   1.583  1.00  0.00    -0.341 N 
ATOM      9  H   UNL     1      -0.969   2.837   2.596  1.00  0.00     0.346 HD
ATOM     10  H   UNL     1      -1.344   3.549   1.096  1.00  0.00     0.346 HD
BRANCH   8  11
ATOM     11  C   UNL     1       0.560   2.943   1.270  1.00  0.00     0.296 C 
BRANCH  11  12
ATOM     12  C   UNL     1       1.282   4.093   2.015  1.00  0.00     0.113 C 
ATOM     13  C   UNL     1       1.960   5.060   1.033  1.00  0.00     0.041 C 
ATOM     14  C   UNL     1       2.464   3.596   2.848  1.00  0.00     0.041 C 
ATOM     15  C   UNL     1       3.077   5.728   1.830  1.00  0.00     0.003 C 
ATOM     16  C   UNL     1       3.333   4.835   3.043  1.00  0.00     0.003 C 
BRANCH  12  17
ATOM     17  O   UNL     1       0.380   4.785   2.887  1.00  0.00    -0.384 OA
ATOM     18  H   UNL     1      -0.378   5.109   2.377  1.00  0.00     0.211 HD
ENDBRANCH  12  17
ENDBRANCH  11  12
ENDBRANCH   8  11
ENDBRANCH   6   8
ENDBRANCH   4   6
ENDBRANCH   2   4
ENDBRANCH   1   2
BRANCH   1  19
ATOM     19  C   UNL     1      -1.788   4.544  -2.180  1.00  0.00     0.274 C 
BRANCH  19  20
ATOM     20  C   UNL     1      -1.339   4.546  -3.642  1.00  0.00     0.275 C 
BRANCH  20  21
ATOM     21  O   UNL     1      -1.847   3.395  -4.338  1.00  0.00    -0.458 OA
BRANCH  21  22
ATOM     22  C   UNL     1      -1.012   2.333  -4.362  1.00  0.00     0.338 C 
ATOM     23  O   UNL     1       0.135   2.269  -3.947  1.00  0.00    -0.246 OA
BRANCH  22  24
ATOM     24  C   UNL     1      -1.730   1.168  -4.885  1.00  0.00     0.060 A 
ATOM     25  C   UNL     1      -2.120   0.169  -3.991  1.00  0.00     0.016 A 
ATOM     26  C   UNL     1      -1.918   1.010  -6.255  1.00  0.00     0.016 A 
ATOM     27  C   UNL     1      -2.659  -1.021  -4.455  1.00  0.00     0.010 A 
ATOM     28  C   UNL     1      -2.485  -0.175  -6.724  1.00  0.00     0.010 A 
ATOM     29  C   UNL     1      -2.834  -1.202  -5.827  1.00  0.00    -0.014 A 
BRANCH  29  30
ATOM     30  C   UNL     1      -3.304  -2.501  -6.347  1.00  0.00     0.031 A 
ATOM     31  C   UNL     1      -2.333  -3.382  -7.070  1.00  0.00     0.074 A 
ATOM     32  C   UNL     1      -4.584  -2.872  -6.183  1.00  0.00     0.049 A 
ATOM     33  N   UNL     1      -2.565  -4.431  -7.813  1.00  0.00    -0.248 NA
ATOM     34  C   UNL     1      -0.909  -3.028  -6.944  1.00  0.00     0.031 C 
ATOM     35  C   UNL     1      -5.590  -2.142  -5.410  1.00  0.00     0.029 A 
ATOM     36  N   UNL     1      -5.262  -3.954  -6.681  1.00  0.00    -0.354 N 
ATOM     37  C   UNL     1      -1.323  -4.833  -8.284  1.00  0.00     0.074 A 
ATOM     38  C   UNL     1      -0.340  -3.924  -7.738  1.00  0.00     0.031 C 
ATOM     39  C   UNL     1      -6.764  -2.787  -5.503  1.00  0.00     0.029 A 
ATOM     40  C   UNL     1      -6.604  -3.930  -6.396  1.00  0.00     0.049 A 
ATOM     41  H   UNL     1      -4.829  -4.676  -7.192  1.00  0.00     0.167 HD
ATOM     42  C   UNL     1      -1.039  -5.863  -9.114  1.00  0.00     0.031 A 
ATOM     43  C   UNL     1      -7.600  -4.709  -6.856  1.00  0.00     0.031 A 
ATOM     44  C   UNL     1      -2.031  -6.759  -9.642  1.00  0.00     0.049 A 
ATOM     45  C   UNL     1      -7.274  -5.795  -7.843  1.00  0.00     0.074 A 
ATOM     46  C   UNL     1      -1.862  -7.826 -10.506  1.00  0.00     0.029 A 
ATOM     47  N   UNL     1      -3.384  -6.691  -9.344  1.00  0.00    -0.354 N 
ATOM     48  N   UNL     1      -6.108  -6.140  -8.335  1.00  0.00    -0.248 NA
ATOM     49  C   UNL     1      -8.401  -6.592  -8.346  1.00  0.00     0.031 C 
ATOM     50  C   UNL     1      -3.120  -8.382 -10.759  1.00  0.00     0.029 A 
ATOM     51  C   UNL     1      -4.064  -7.690 -10.015  1.00  0.00     0.049 A 
ATOM     52  H   UNL     1      -3.798  -6.030  -8.744  1.00  0.00     0.167 HD
ATOM     53  C   UNL     1      -6.356  -7.210  -9.183  1.00  0.00     0.074 A 
ATOM     54  C   UNL     1      -7.782  -7.460  -9.136  1.00  0.00     0.031 C 
ATOM     55  C   UNL     1      -5.482  -7.926  -9.931  1.00  0.00     0.031 A 
BRANCH  42  56
ATOM     56  C   UNL     1       0.389  -6.031  -9.543  1.00  0.00    -0.014 A 
ATOM     57  C   UNL     1       1.367  -6.525  -8.667  1.00  0.00     0.009 A 
ATOM     58  C   UNL     1       0.757  -5.699 -10.857  1.00  0.00     0.009 A 
ATOM     59  C   UNL     1       2.692  -6.655  -9.090  1.00  0.00     0.001 A 
ATOM     60  C   UNL     1       2.077  -5.853 -11.284  1.00  0.00     0.001 A 
ATOM     61  C   UNL     1       3.045  -6.323 -10.398  1.00  0.00     0.000 A 
ENDBRANCH  42  56
BRANCH  43  62
ATOM     62  C   UNL     1      -9.000  -4.451  -6.434  1.00  0.00    -0.014 A 
ATOM     63  C   UNL     1      -9.666  -5.347  -5.587  1.00  0.00     0.009 A 
ATOM     64  C   UNL     1      -9.676  -3.300  -6.873  1.00  0.00     0.009 A 
ATOM     65  C   UNL     1     -10.987  -5.106  -5.202  1.00  0.00     0.001 A 
ATOM     66  C   UNL     1     -10.987  -3.048  -6.465  1.00  0.00     0.001 A 
ATOM     67  C   UNL     1     -11.644  -3.955  -5.636  1.00  0.00     0.000 A 
ENDBRANCH  43  62
BRANCH  55  68
ATOM     68  C   UNL     1      -6.032  -9.084 -10.709  1.00  0.00    -0.014 A 
ATOM     69  C   UNL     1      -6.734  -8.890 -11.907  1.00  0.00     0.009 A 
ATOM     70  C   UNL     1      -5.775 -10.392 -10.268  1.00  0.00     0.009 A 
ATOM     71  C   UNL     1      -7.186  -9.988 -12.640  1.00  0.00     0.001 A 
ATOM     72  C   UNL     1      -6.208 -11.486 -11.014  1.00  0.00     0.001 A 
ATOM     73  C   UNL     1      -6.917 -11.284 -12.197  1.00  0.00     0.000 A 
ENDBRANCH  55  68
ENDBRANCH  29  30
ENDBRANCH  22  24
ENDBRANCH  21  22
ENDBRANCH  20  21
ENDBRANCH  19  20
ENDBRANCH   1  19
TORSDOF 16
