REMARK SMILES O=C(OCCOC(=O)[C@H]1O[C@@H](Oc2c(-c3cc(O)c(O)c(O)c3)oc3cc(O)cc(O)c3c2=O)[C@H](O)[C@@H](O)[C@@H]1O)c1ccc(-c2c3nc(c(-c4ccccc4)c4ccc([nH]4)c(-c4ccccc4)c4nc(c(-c5ccccc5)c5ccc2[nH]5)C=C4)C=C3)cc1
REMARK SMILES IDX 5 1 4 2 3 3 2 4 1 5 41 6 42 7 88 8 43 9 87 10 44 11 45 12
REMARK SMILES IDX 46 13 81 14 47 15 86 16 80 17 82 18 48 19 85 20 79 21 78 22
REMARK SMILES IDX 49 24 71 25 56 26 70 27 57 28 60 29 69 30 83 31 58 32 59 33
REMARK SMILES IDX 68 35 84 36 61 37 50 38 51 39 55 40 52 41 54 42 53 43 72 44
REMARK SMILES IDX 73 45 77 46 74 47 76 48 75 49 62 50 63 51 67 52 64 53 66 54
REMARK SMILES IDX 65 55 6 56 7 57 8 58 9 59 10 60 39 61 11 62 37 63 35 64
REMARK SMILES IDX 40 65 12 67 13 68 14 69 33 70 24 71 32 72 34 73 25 74 30 75
REMARK SMILES IDX 26 76 29 77 27 78 15 79 16 80 23 81 17 82 21 83 19 84 18 85
REMARK SMILES IDX 22 87 20 89 31 91 28 93 38 95 36 97
REMARK H PARENT 82 23 60 34 40 66 18 86 22 88 20 90 31 92 28 94 38 96 36 98
REMARK Flexibility Score: inf
ROOT
ATOM      1  C   UNL     1       3.224  -0.840   0.970  1.00  0.00     0.274 C 
ENDROOT
BRANCH   1   2
ATOM      2  C   UNL     1       2.355   0.032   1.925  1.00  0.00     0.275 C 
BRANCH   2   3
ATOM      3  O   UNL     1       1.072   0.441   1.414  1.00  0.00    -0.458 OA
BRANCH   3   4
ATOM      4  C   UNL     1       0.478   1.668   1.420  1.00  0.00     0.338 C 
ATOM      5  O   UNL     1      -0.735   1.739   1.224  1.00  0.00    -0.246 OA
BRANCH   4   6
ATOM      6  C   UNL     1       1.239   2.969   1.409  1.00  0.00     0.060 A 
ATOM      7  C   UNL     1       2.302   3.342   2.244  1.00  0.00     0.016 A 
ATOM      8  C   UNL     1       0.878   3.876   0.404  1.00  0.00     0.016 A 
ATOM      9  C   UNL     1       3.115   4.483   1.955  1.00  0.00     0.010 A 
ATOM     10  C   UNL     1       1.685   4.996   0.117  1.00  0.00     0.010 A 
ATOM     11  C   UNL     1       2.855   5.306   0.851  1.00  0.00    -0.014 A 
BRANCH  11  12
ATOM     12  C   UNL     1       3.581   6.605   0.517  1.00  0.00     0.031 A 
ATOM     13  C   UNL     1       2.815   7.850   0.868  1.00  0.00     0.074 A 
ATOM     14  C   UNL     1       4.755   6.770  -0.157  1.00  0.00     0.049 A 
ATOM     15  N   UNL     1       3.044   9.094   0.532  1.00  0.00    -0.248 NA
ATOM     16  C   UNL     1       1.633   7.654   1.723  1.00  0.00     0.031 C 
ATOM     17  C   UNL     1       5.791   5.776  -0.391  1.00  0.00     0.029 A 
ATOM     18  N   UNL     1       5.261   7.852  -0.866  1.00  0.00    -0.354 N 
ATOM     19  C   UNL     1       2.040   9.826   1.150  1.00  0.00     0.074 A 
ATOM     20  C   UNL     1       1.168   8.886   1.815  1.00  0.00     0.031 C 
ATOM     21  C   UNL     1       6.606   6.152  -1.393  1.00  0.00     0.029 A 
ATOM     22  C   UNL     1       6.297   7.525  -1.733  1.00  0.00     0.049 A 
ATOM     23  H   UNL     1       4.916   8.768  -0.763  1.00  0.00     0.167 HD
ATOM     24  C   UNL     1       1.836  11.161   1.110  1.00  0.00     0.031 A 
ATOM     25  C   UNL     1       6.967   8.247  -2.659  1.00  0.00     0.031 A 
ATOM     26  C   UNL     1       2.676  12.084   0.395  1.00  0.00     0.049 A 
ATOM     27  C   UNL     1       6.725   9.728  -2.698  1.00  0.00     0.074 A 
ATOM     28  C   UNL     1       2.514  13.450   0.250  1.00  0.00     0.029 A 
ATOM     29  N   UNL     1       3.831  11.751  -0.301  1.00  0.00    -0.354 N 
ATOM     30  N   UNL     1       5.817  10.416  -2.051  1.00  0.00    -0.248 NA
ATOM     31  C   UNL     1       7.630  10.542  -3.521  1.00  0.00     0.031 C 
ATOM     32  C   UNL     1       3.481  13.912  -0.649  1.00  0.00     0.029 A 
ATOM     33  C   UNL     1       4.296  12.850  -0.999  1.00  0.00     0.049 A 
ATOM     34  H   UNL     1       4.256  10.863  -0.297  1.00  0.00     0.167 HD
ATOM     35  C   UNL     1       6.080  11.748  -2.332  1.00  0.00     0.074 A 
ATOM     36  C   UNL     1       7.223  11.768  -3.224  1.00  0.00     0.031 C 
ATOM     37  C   UNL     1       5.443  12.851  -1.871  1.00  0.00     0.031 A 
BRANCH  24  38
ATOM     38  C   UNL     1       0.554  11.642   1.732  1.00  0.00    -0.014 A 
ATOM     39  C   UNL     1       0.305  11.535   3.110  1.00  0.00     0.009 A 
ATOM     40  C   UNL     1      -0.463  12.125   0.893  1.00  0.00     0.009 A 
ATOM     41  C   UNL     1      -0.959  11.837   3.622  1.00  0.00     0.001 A 
ATOM     42  C   UNL     1      -1.707  12.473   1.416  1.00  0.00     0.001 A 
ATOM     43  C   UNL     1      -1.960  12.310   2.776  1.00  0.00     0.000 A 
ENDBRANCH  24  38
BRANCH  25  44
ATOM     44  C   UNL     1       7.970   7.633  -3.583  1.00  0.00    -0.014 A 
ATOM     45  C   UNL     1       9.351   7.784  -3.374  1.00  0.00     0.009 A 
ATOM     46  C   UNL     1       7.545   6.946  -4.734  1.00  0.00     0.009 A 
ATOM     47  C   UNL     1      10.278   7.284  -4.300  1.00  0.00     0.001 A 
ATOM     48  C   UNL     1       8.473   6.433  -5.650  1.00  0.00     0.001 A 
ATOM     49  C   UNL     1       9.839   6.607  -5.436  1.00  0.00     0.000 A 
ENDBRANCH  25  44
BRANCH  37  50
ATOM     50  C   UNL     1       6.008  14.181  -2.269  1.00  0.00    -0.014 A 
ATOM     51  C   UNL     1       5.915  14.669  -3.580  1.00  0.00     0.009 A 
ATOM     52  C   UNL     1       6.620  14.970  -1.283  1.00  0.00     0.009 A 
ATOM     53  C   UNL     1       6.471  15.908  -3.905  1.00  0.00     0.001 A 
ATOM     54  C   UNL     1       7.147  16.218  -1.605  1.00  0.00     0.001 A 
ATOM     55  C   UNL     1       7.083  16.681  -2.917  1.00  0.00     0.000 A 
ENDBRANCH  37  50
ENDBRANCH  11  12
ENDBRANCH   4   6
ENDBRANCH   3   4
ENDBRANCH   2   3
ENDBRANCH   1   2
BRANCH   1  56
ATOM     56  O   UNL     1       3.457  -0.404  -0.394  1.00  0.00    -0.460 OA
BRANCH  56  57
ATOM     57  C   UNL     1       2.431  -0.278  -1.319  1.00  0.00     0.338 C 
ATOM     58  O   UNL     1       1.452  -0.987  -1.350  1.00  0.00    -0.249 OA
BRANCH  57  59
ATOM     59  C   UNL     1       2.811   0.919  -2.311  1.00  0.00     0.263 C 
ATOM     60  O   UNL     1       2.144   1.594  -3.424  1.00  0.00    -0.322 OA
ATOM     61  C   UNL     1       3.050   2.075  -1.358  1.00  0.00     0.186 C 
ATOM     62  C   UNL     1       2.972   2.659  -4.056  1.00  0.00     0.340 C 
ATOM     63  C   UNL     1       4.228   2.794  -1.950  1.00  0.00     0.181 C 
ATOM     64  C   UNL     1       3.656   3.640  -3.057  1.00  0.00     0.214 C 
BRANCH  61  65
ATOM     65  O   UNL     1       3.321   1.860   0.015  1.00  0.00    -0.387 OA
ATOM     66  H   UNL     1       4.170   1.401   0.109  1.00  0.00     0.211 HD
ENDBRANCH  61  65
BRANCH  62  67
ATOM     67  O   UNL     1       2.420   3.500  -5.100  1.00  0.00    -0.454 OA
BRANCH  67  68
ATOM     68  C   UNL     1       1.123   3.948  -5.106  1.00  0.00     0.214 A 
ATOM     69  C   UNL     1       0.692   5.154  -4.661  1.00  0.00     0.181 A 
ATOM     70  C   UNL     1       0.184   3.200  -6.016  1.00  0.00     0.239 A 
ATOM     71  O   UNL     1      -0.617   5.589  -4.801  1.00  0.00    -0.452 OA
ATOM     72  C   UNL     1      -1.060   3.896  -6.444  1.00  0.00     0.111 A 
ATOM     73  O   UNL     1       0.490   2.087  -6.429  1.00  0.00    -0.285 OA
ATOM     74  C   UNL     1      -1.389   5.071  -5.787  1.00  0.00     0.146 A 
ATOM     75  C   UNL     1      -1.912   3.461  -7.465  1.00  0.00     0.134 A 
ATOM     76  C   UNL     1      -2.539   5.800  -6.095  1.00  0.00     0.094 A 
ATOM     77  C   UNL     1      -3.078   4.177  -7.785  1.00  0.00     0.093 A 
ATOM     78  C   UNL     1      -3.383   5.342  -7.089  1.00  0.00     0.123 A 
BRANCH  69  79
ATOM     79  C   UNL     1       1.432   6.240  -3.981  1.00  0.00     0.029 A 
ATOM     80  C   UNL     1       0.759   6.877  -2.914  1.00  0.00     0.062 A 
ATOM     81  C   UNL     1       2.602   6.826  -4.485  1.00  0.00     0.062 A 
ATOM     82  C   UNL     1       1.239   8.048  -2.361  1.00  0.00     0.162 A 
ATOM     83  C   UNL     1       3.087   7.993  -3.894  1.00  0.00     0.162 A 
ATOM     84  C   UNL     1       2.420   8.584  -2.828  1.00  0.00     0.200 A 
BRANCH  82  85
ATOM     85  O   UNL     1       0.499   8.658  -1.395  1.00  0.00    -0.504 OA
ATOM     86  H   UNL     1      -0.299   8.267  -1.100  1.00  0.00     0.293 HD
ENDBRANCH  82  85
BRANCH  83  87
ATOM     87  O   UNL     1       4.223   8.582  -4.375  1.00  0.00    -0.504 OA
ATOM     88  H   UNL     1       4.548   9.366  -3.977  1.00  0.00     0.293 HD
ENDBRANCH  83  87
BRANCH  84  89
ATOM     89  O   UNL     1       2.957   9.684  -2.237  1.00  0.00    -0.502 OA
ATOM     90  H   UNL     1       2.517  10.091  -1.517  1.00  0.00     0.293 HD
ENDBRANCH  84  89
ENDBRANCH  69  79
BRANCH  75  91
ATOM     91  O   UNL     1      -1.612   2.342  -8.187  1.00  0.00    -0.507 OA
ATOM     92  H   UNL     1      -2.187   2.057  -8.869  1.00  0.00     0.293 HD
ENDBRANCH  75  91
BRANCH  78  93
ATOM     93  O   UNL     1      -4.500   6.074  -7.352  1.00  0.00    -0.508 OA
ATOM     94  H   UNL     1      -4.675   6.854  -6.864  1.00  0.00     0.293 HD
ENDBRANCH  78  93
ENDBRANCH  67  68
ENDBRANCH  62  67
BRANCH  63  95
ATOM     95  O   UNL     1       4.804   3.489  -0.879  1.00  0.00    -0.387 OA
ATOM     96  H   UNL     1       4.131   4.044  -0.454  1.00  0.00     0.211 HD
ENDBRANCH  63  95
BRANCH  64  97
ATOM     97  O   UNL     1       4.691   4.415  -3.665  1.00  0.00    -0.384 OA
ATOM     98  H   UNL     1       5.378   3.823  -4.010  1.00  0.00     0.211 HD
ENDBRANCH  64  97
ENDBRANCH  57  59
ENDBRANCH  56  57
ENDBRANCH   1  56
TORSDOF 22
