REMARK SMILES Cc1ccccc1C[N@@H+]1[C@@H](C(=O)OCCOC(=O)c2ccc(-c3c4nc(c(-c5ccccc5)c5ccc([nH]5)c(-c5ccccc5)c5nc(c(-c6ccccc6)c6ccc3[nH]6)C=C5)C=C4)cc2)C[C@H]2CCCC[C@@H]21
REMARK SMILES IDX 14 1 13 2 11 3 12 4 10 5 9 6 73 7 67 9 68 10 72 11 69 12
REMARK SMILES IDX 71 13 70 14 8 15 7 16 1 17 2 18 3 19 4 20 6 21 5 22 15 23
REMARK SMILES IDX 16 24 17 25 18 26 19 27 20 28 66 29 21 30 65 31 22 32 23 33
REMARK SMILES IDX 24 34 59 35 25 36 64 37 58 38 60 39 26 40 63 41 57 42 56 43
REMARK SMILES IDX 27 45 49 46 34 47 48 48 35 49 38 50 47 51 61 52 36 53 37 54
REMARK SMILES IDX 46 56 62 57 39 58 28 59 29 60 33 61 30 62 32 63 31 64 50 65
REMARK SMILES IDX 51 66 55 67 52 68 54 69 53 70 40 71 41 72 45 73 42 74 44 75
REMARK SMILES IDX 43 76
REMARK H PARENT 9 8 60 44 38 55
REMARK Flexibility Score: inf
ROOT
ATOM      1  C   UNL     1      -1.298   5.383  -5.060  1.00  0.00     0.274 C 
ENDROOT
BRANCH   1   2
ATOM      2  O   UNL     1      -1.242   4.338  -4.096  1.00  0.00    -0.458 OA
BRANCH   2   3
ATOM      3  C   UNL     1      -0.046   4.160  -3.455  1.00  0.00     0.365 C 
ATOM      4  O   UNL     1       0.952   4.800  -3.697  1.00  0.00    -0.245 OA
BRANCH   3   5
ATOM      5  C   UNL     1      -0.217   3.057  -2.369  1.00  0.00     0.296 C 
ATOM      6  N   UNL     1       1.105   2.478  -2.003  1.00  0.00    -0.317 N 
ATOM      7  C   UNL     1       1.305   1.470  -3.041  1.00  0.00     0.188 C 
ATOM      8  H   UNL     1       1.881   3.140  -2.013  1.00  0.00     0.349 HD
ATOM      9  C   UNL     1      -1.058   1.904  -2.946  1.00  0.00     0.087 C 
ATOM     10  C   UNL     1      -0.056   0.787  -3.168  1.00  0.00     0.054 C 
ATOM     11  C   UNL     1       2.422   0.443  -3.019  1.00  0.00     0.065 C 
ATOM     12  C   UNL     1      -0.157   0.062  -4.497  1.00  0.00     0.010 C 
ATOM     13  C   UNL     1       2.350  -0.395  -4.308  1.00  0.00     0.006 C 
ATOM     14  C   UNL     1       0.955  -0.987  -4.565  1.00  0.00     0.001 C 
BRANCH   6  15
ATOM     15  C   UNL     1       1.282   2.128  -0.577  1.00  0.00     0.300 C 
BRANCH  15  16
ATOM     16  C   UNL     1       0.538   0.927  -0.004  1.00  0.00     0.009 A 
ATOM     17  C   UNL     1       2.636  -0.539   0.388  1.00  0.00     0.045 C 
ATOM     18  C   UNL     1       1.149  -0.313   0.293  1.00  0.00    -0.042 A 
ATOM     19  C   UNL     1       0.337  -1.435   0.555  1.00  0.00     0.004 A 
ATOM     20  C   UNL     1      -1.049  -1.327   0.619  1.00  0.00     0.000 A 
ATOM     21  C   UNL     1      -0.853   1.036   0.204  1.00  0.00     0.010 A 
ATOM     22  C   UNL     1      -1.642  -0.081   0.489  1.00  0.00     0.001 A 
ENDBRANCH  15  16
ENDBRANCH   6  15
ENDBRANCH   3   5
ENDBRANCH   2   3
ENDBRANCH   1   2
BRANCH   1  23
ATOM     23  C   UNL     1      -2.763   5.738  -5.355  1.00  0.00     0.275 C 
BRANCH  23  24
ATOM     24  O   UNL     1      -3.802   5.279  -4.427  1.00  0.00    -0.458 OA
BRANCH  24  25
ATOM     25  C   UNL     1      -3.885   5.300  -3.071  1.00  0.00     0.338 C 
ATOM     26  O   UNL     1      -4.759   4.688  -2.469  1.00  0.00    -0.246 OA
BRANCH  25  27
ATOM     27  C   UNL     1      -2.845   6.013  -2.311  1.00  0.00     0.060 A 
ATOM     28  C   UNL     1      -2.329   5.450  -1.131  1.00  0.00     0.016 A 
ATOM     29  C   UNL     1      -2.303   7.177  -2.829  1.00  0.00     0.016 A 
ATOM     30  C   UNL     1      -1.163   5.970  -0.562  1.00  0.00     0.010 A 
ATOM     31  C   UNL     1      -1.078   7.593  -2.365  1.00  0.00     0.010 A 
ATOM     32  C   UNL     1      -0.510   7.011  -1.219  1.00  0.00    -0.014 A 
BRANCH  32  33
ATOM     33  C   UNL     1       0.565   7.806  -0.641  1.00  0.00     0.031 A 
ATOM     34  C   UNL     1       1.988   7.435  -0.586  1.00  0.00     0.074 A 
ATOM     35  C   UNL     1       0.137   9.030  -0.260  1.00  0.00     0.049 A 
ATOM     36  N   UNL     1       2.838   8.070   0.148  1.00  0.00    -0.248 NA
ATOM     37  C   UNL     1       2.601   6.335  -1.318  1.00  0.00     0.031 C 
ATOM     38  C   UNL     1       0.866  10.230   0.099  1.00  0.00     0.029 A 
ATOM     39  N   UNL     1      -1.195   9.334   0.049  1.00  0.00    -0.354 N 
ATOM     40  C   UNL     1       4.104   7.699  -0.242  1.00  0.00     0.074 A 
ATOM     41  C   UNL     1       3.906   6.552  -1.095  1.00  0.00     0.031 C 
ATOM     42  C   UNL     1       0.050  11.006   0.841  1.00  0.00     0.029 A 
ATOM     43  C   UNL     1      -1.154  10.226   1.117  1.00  0.00     0.049 A 
ATOM     44  H   UNL     1      -2.000   8.986  -0.400  1.00  0.00     0.167 HD
ATOM     45  C   UNL     1       5.151   8.500   0.106  1.00  0.00     0.031 A 
ATOM     46  C   UNL     1      -1.548   9.761   2.341  1.00  0.00     0.031 A 
ATOM     47  C   UNL     1       4.720   9.565   1.015  1.00  0.00     0.049 A 
ATOM     48  C   UNL     1      -0.424   9.773   3.357  1.00  0.00     0.074 A 
ATOM     49  C   UNL     1       4.471  10.920   0.867  1.00  0.00     0.029 A 
ATOM     50  N   UNL     1       4.166   9.202   2.234  1.00  0.00    -0.354 N 
ATOM     51  N   UNL     1       0.841   9.880   3.054  1.00  0.00    -0.248 NA
ATOM     52  C   UNL     1      -0.633   9.612   4.791  1.00  0.00     0.031 C 
ATOM     53  C   UNL     1       3.728  11.358   2.003  1.00  0.00     0.029 A 
ATOM     54  C   UNL     1       3.553  10.277   2.847  1.00  0.00     0.049 A 
ATOM     55  H   UNL     1       4.205   8.294   2.613  1.00  0.00     0.167 HD
ATOM     56  C   UNL     1       1.598   9.883   4.192  1.00  0.00     0.074 A 
ATOM     57  C   UNL     1       0.630   9.654   5.252  1.00  0.00     0.031 C 
ATOM     58  C   UNL     1       2.950  10.080   4.159  1.00  0.00     0.031 A 
BRANCH  45  59
ATOM     59  C   UNL     1       6.516   8.474  -0.544  1.00  0.00    -0.014 A 
ATOM     60  C   UNL     1       7.299   9.648  -0.548  1.00  0.00     0.009 A 
ATOM     61  C   UNL     1       7.073   7.367  -1.203  1.00  0.00     0.009 A 
ATOM     62  C   UNL     1       8.519   9.736  -1.232  1.00  0.00     0.001 A 
ATOM     63  C   UNL     1       8.287   7.452  -1.906  1.00  0.00     0.001 A 
ATOM     64  C   UNL     1       9.005   8.641  -1.931  1.00  0.00     0.000 A 
ENDBRANCH  45  59
BRANCH  46  65
ATOM     65  C   UNL     1      -2.662   8.747   2.295  1.00  0.00    -0.014 A 
ATOM     66  C   UNL     1      -3.834   9.055   1.562  1.00  0.00     0.009 A 
ATOM     67  C   UNL     1      -2.494   7.420   2.714  1.00  0.00     0.009 A 
ATOM     68  C   UNL     1      -4.745   8.063   1.179  1.00  0.00     0.001 A 
ATOM     69  C   UNL     1      -3.428   6.430   2.356  1.00  0.00     0.001 A 
ATOM     70  C   UNL     1      -4.534   6.745   1.567  1.00  0.00     0.000 A 
ENDBRANCH  46  65
BRANCH  58  71
ATOM     71  C   UNL     1       3.875  10.088   5.352  1.00  0.00    -0.014 A 
ATOM     72  C   UNL     1       3.483  10.400   6.656  1.00  0.00     0.009 A 
ATOM     73  C   UNL     1       5.255   9.842   5.153  1.00  0.00     0.009 A 
ATOM     74  C   UNL     1       4.397  10.363   7.718  1.00  0.00     0.001 A 
ATOM     75  C   UNL     1       6.175   9.829   6.201  1.00  0.00     0.001 A 
ATOM     76  C   UNL     1       5.739  10.068   7.492  1.00  0.00     0.000 A 
ENDBRANCH  58  71
ENDBRANCH  32  33
ENDBRANCH  25  27
ENDBRANCH  24  25
ENDBRANCH  23  24
ENDBRANCH   1  23
TORSDOF 13
