REMARK SMILES O=C(OCCOC(=O)[C@@H]1[C@@H](C(=O)N2CCN(c3cccc(Cl)c3)CC2)[C@H]2CC[C@@H]1O2)c1ccc(-c2c3nc(c(-c4ccccc4)c4ccc([nH]4)c(-c4ccccc4)c4nc(c(-c5ccccc5)c5ccc2[nH]5)C=C4)C=C3)cc1
REMARK SMILES IDX 4 1 3 2 2 3 1 4 31 5 32 6 78 7 33 8 77 9 34 10 35 11 36 12
REMARK SMILES IDX 71 13 37 14 76 15 70 16 72 17 38 18 75 19 69 20 68 21 39 23
REMARK SMILES IDX 61 24 46 25 60 26 47 27 50 28 59 29 73 30 48 31 49 32 58 34
REMARK SMILES IDX 74 35 51 36 40 37 41 38 45 39 42 40 44 41 43 42 62 43 63 44
REMARK SMILES IDX 67 45 64 46 66 47 65 48 52 49 53 50 57 51 54 52 56 53 55 54
REMARK SMILES IDX 5 55 6 56 7 57 8 58 9 59 10 60 29 61 26 62 28 63 30 64 27 65
REMARK SMILES IDX 11 66 12 67 13 68 14 69 25 70 15 71 24 72 16 73 17 74 18 75
REMARK SMILES IDX 23 76 19 77 21 78 20 79 22 80
REMARK H PARENT 72 22 50 33
REMARK Flexibility Score: inf
ROOT
ATOM      1  C   UNL     1       3.871   0.202  -1.030  1.00  0.00     0.275 C 
ENDROOT
BRANCH   1   2
ATOM      2  O   UNL     1       2.730  -0.405  -0.356  1.00  0.00    -0.458 OA
BRANCH   2   3
ATOM      3  C   UNL     1       2.520  -1.767  -0.367  1.00  0.00     0.338 C 
ATOM      4  O   UNL     1       1.769  -2.316  -1.158  1.00  0.00    -0.246 OA
BRANCH   3   5
ATOM      5  C   UNL     1       2.981  -2.447   0.908  1.00  0.00     0.060 A 
ATOM      6  C   UNL     1       4.285  -2.331   1.321  1.00  0.00     0.016 A 
ATOM      7  C   UNL     1       2.123  -3.120   1.805  1.00  0.00     0.016 A 
ATOM      8  C   UNL     1       4.623  -2.616   2.667  1.00  0.00     0.010 A 
ATOM      9  C   UNL     1       2.478  -3.314   3.210  1.00  0.00     0.010 A 
ATOM     10  C   UNL     1       3.726  -2.924   3.721  1.00  0.00    -0.014 A 
BRANCH  10  11
ATOM     11  C   UNL     1       4.337  -3.110   5.171  1.00  0.00     0.031 A 
ATOM     12  C   UNL     1       5.239  -4.297   5.255  1.00  0.00     0.074 A 
ATOM     13  C   UNL     1       4.429  -2.290   6.278  1.00  0.00     0.049 A 
ATOM     14  N   UNL     1       6.324  -4.471   5.960  1.00  0.00    -0.248 NA
ATOM     15  C   UNL     1       4.880  -5.403   4.363  1.00  0.00     0.031 C 
ATOM     16  C   UNL     1       3.638  -1.121   6.579  1.00  0.00     0.029 A 
ATOM     17  N   UNL     1       5.423  -2.185   7.288  1.00  0.00    -0.354 N 
ATOM     18  C   UNL     1       6.825  -5.683   5.532  1.00  0.00     0.074 A 
ATOM     19  C   UNL     1       5.931  -6.188   4.509  1.00  0.00     0.031 C 
ATOM     20  C   UNL     1       4.293  -0.277   7.398  1.00  0.00     0.029 A 
ATOM     21  C   UNL     1       5.497  -0.913   7.896  1.00  0.00     0.049 A 
ATOM     22  H   UNL     1       6.010  -2.934   7.542  1.00  0.00     0.167 HD
ATOM     23  C   UNL     1       7.909  -6.357   5.969  1.00  0.00     0.031 A 
ATOM     24  C   UNL     1       6.383  -0.296   8.735  1.00  0.00     0.031 A 
ATOM     25  C   UNL     1       8.671  -6.037   7.135  1.00  0.00     0.049 A 
ATOM     26  C   UNL     1       7.467  -1.152   9.338  1.00  0.00     0.074 A 
ATOM     27  C   UNL     1       9.601  -6.829   7.785  1.00  0.00     0.029 A 
ATOM     28  N   UNL     1       8.557  -4.869   7.866  1.00  0.00    -0.354 N 
ATOM     29  N   UNL     1       7.929  -2.300   8.917  1.00  0.00    -0.248 NA
ATOM     30  C   UNL     1       8.095  -0.672  10.586  1.00  0.00     0.031 C 
ATOM     31  C   UNL     1       9.997  -6.170   8.952  1.00  0.00     0.029 A 
ATOM     32  C   UNL     1       9.373  -4.935   8.985  1.00  0.00     0.049 A 
ATOM     33  H   UNL     1       7.983  -4.106   7.628  1.00  0.00     0.167 HD
ATOM     34  C   UNL     1       8.853  -2.702   9.872  1.00  0.00     0.074 A 
ATOM     35  C   UNL     1       8.975  -1.631  10.836  1.00  0.00     0.031 C 
ATOM     36  C   UNL     1       9.495  -3.889   9.962  1.00  0.00     0.031 A 
BRANCH  23  37
ATOM     37  C   UNL     1       8.206  -7.606   5.212  1.00  0.00    -0.014 A 
ATOM     38  C   UNL     1       8.853  -7.537   3.970  1.00  0.00     0.009 A 
ATOM     39  C   UNL     1       7.726  -8.834   5.686  1.00  0.00     0.009 A 
ATOM     40  C   UNL     1       8.998  -8.688   3.199  1.00  0.00     0.001 A 
ATOM     41  C   UNL     1       7.884  -9.983   4.917  1.00  0.00     0.001 A 
ATOM     42  C   UNL     1       8.513  -9.908   3.673  1.00  0.00     0.000 A 
ENDBRANCH  23  37
BRANCH  24  43
ATOM     43  C   UNL     1       6.301   1.157   9.209  1.00  0.00    -0.014 A 
ATOM     44  C   UNL     1       7.445   1.995   9.244  1.00  0.00     0.009 A 
ATOM     45  C   UNL     1       5.129   1.688   9.772  1.00  0.00     0.009 A 
ATOM     46  C   UNL     1       7.416   3.272   9.838  1.00  0.00     0.001 A 
ATOM     47  C   UNL     1       5.082   2.987  10.307  1.00  0.00     0.001 A 
ATOM     48  C   UNL     1       6.228   3.773  10.357  1.00  0.00     0.000 A 
ENDBRANCH  24  43
BRANCH  36  49
ATOM     49  C   UNL     1      10.377  -4.108  11.155  1.00  0.00    -0.014 A 
ATOM     50  C   UNL     1       9.835  -4.244  12.444  1.00  0.00     0.009 A 
ATOM     51  C   UNL     1      11.765  -4.210  10.987  1.00  0.00     0.009 A 
ATOM     52  C   UNL     1      10.670  -4.438  13.545  1.00  0.00     0.001 A 
ATOM     53  C   UNL     1      12.595  -4.437  12.085  1.00  0.00     0.001 A 
ATOM     54  C   UNL     1      12.048  -4.540  13.364  1.00  0.00     0.000 A 
ENDBRANCH  36  49
ENDBRANCH  10  11
ENDBRANCH   3   5
ENDBRANCH   2   3
ENDBRANCH   1   2
BRANCH   1  55
ATOM     55  C   UNL     1       3.995   1.733  -0.758  1.00  0.00     0.274 C 
BRANCH  55  56
ATOM     56  O   UNL     1       3.949   2.013   0.648  1.00  0.00    -0.462 OA
BRANCH  56  57
ATOM     57  C   UNL     1       2.771   2.514   1.128  1.00  0.00     0.312 C 
ATOM     58  O   UNL     1       2.029   3.238   0.512  1.00  0.00    -0.252 OA
BRANCH  57  59
ATOM     59  C   UNL     1       2.553   2.010   2.545  1.00  0.00     0.143 C 
ATOM     60  C   UNL     1       3.071   0.551   2.647  1.00  0.00     0.124 C 
ATOM     61  C   UNL     1       1.030   1.881   2.758  1.00  0.00     0.133 C 
ATOM     62  C   UNL     1       1.702  -0.149   2.902  1.00  0.00     0.132 C 
ATOM     63  C   UNL     1       0.628   1.492   4.185  1.00  0.00     0.036 C 
ATOM     64  O   UNL     1       0.802   0.637   2.071  1.00  0.00    -0.373 OA
ATOM     65  C   UNL     1       0.965   0.020   4.206  1.00  0.00     0.035 C 
BRANCH  60  66
ATOM     66  C   UNL     1       4.261   0.449   3.627  1.00  0.00     0.229 C 
ATOM     67  O   UNL     1       4.010   0.766   4.790  1.00  0.00    -0.274 OA
ATOM     68  N   UNL     1       5.582   0.062   3.267  1.00  0.00    -0.339 N 
ATOM     69  C   UNL     1       6.482  -0.402   4.339  1.00  0.00     0.141 C 
ATOM     70  C   UNL     1       6.398   0.621   2.183  1.00  0.00     0.141 C 
ATOM     71  C   UNL     1       7.535  -1.460   3.951  1.00  0.00     0.138 C 
ATOM     72  C   UNL     1       7.598  -0.258   1.679  1.00  0.00     0.138 C 
ATOM     73  N   UNL     1       8.125  -1.244   2.630  1.00  0.00    -0.368 N 
BRANCH  73  74
ATOM     74  C   UNL     1       9.385  -1.818   2.470  1.00  0.00     0.038 A 
ATOM     75  C   UNL     1      10.498  -1.204   3.064  1.00  0.00     0.026 A 
ATOM     76  C   UNL     1       9.563  -3.083   1.892  1.00  0.00     0.046 A 
ATOM     77  C   UNL     1      11.742  -1.838   3.121  1.00  0.00     0.004 A 
ATOM     78  C   UNL     1      10.816  -3.714   1.939  1.00  0.00     0.043 A 
ATOM     79  C   UNL     1      11.902  -3.101   2.561  1.00  0.00     0.020 A 
ATOM     80  Cl  UNL     1      11.019  -5.287   1.261  1.00  0.00    -0.084 Cl
ENDBRANCH  73  74
ENDBRANCH  60  66
ENDBRANCH  57  59
ENDBRANCH  56  57
ENDBRANCH  55  56
ENDBRANCH   1  55
TORSDOF 13
