REMARK SMILES CCOc1cccc(OCC)c1-c1ccc([C@@H](C)C(=O)OCCOC(=O)c2ccc(-c3c4nc(c(-c5ccccc5)c5ccc([nH]5)c(-c5ccccc5)c5nc(c(-c6ccccc6)c6ccc3[nH]6)C=C5)C=C4)cc2)cc1F
REMARK SMILES IDX 22 1 21 2 19 3 20 4 17 5 18 6 16 7 13 8 14 9 76 10 15 11
REMARK SMILES IDX 75 12 77 13 12 14 4 15 5 16 6 17 8 18 7 19 3 20 2 21 1 22
REMARK SMILES IDX 9 23 10 24 11 25 23 26 24 27 25 28 26 29 27 30 28 31 74 32
REMARK SMILES IDX 29 33 73 34 30 35 31 36 32 37 67 38 33 39 72 40 66 41 68 42
REMARK SMILES IDX 34 43 71 44 65 45 64 46 35 48 57 49 42 50 56 51 43 52 46 53
REMARK SMILES IDX 55 54 69 55 44 56 45 57 54 59 70 60 47 61 36 62 37 63 41 64
REMARK SMILES IDX 38 65 40 66 39 67 58 68 59 69 63 70 60 71 62 72 61 73 48 74
REMARK SMILES IDX 49 75 53 76 50 77 52 78 51 79
REMARK H PARENT 68 47 46 58
REMARK Flexibility Score: inf
ROOT
ATOM      1  C   UNL     1       0.483  -5.415   1.277  1.00  0.00     0.274 C 
ENDROOT
BRANCH   1   2
ATOM      2  O   UNL     1       1.177  -4.633   0.284  1.00  0.00    -0.462 OA
BRANCH   2   3
ATOM      3  C   UNL     1       0.721  -4.697  -0.993  1.00  0.00     0.313 C 
ATOM      4  O   UNL     1      -0.170  -5.457  -1.362  1.00  0.00    -0.252 OA
BRANCH   3   5
ATOM      5  C   UNL     1       1.450  -3.775  -1.968  1.00  0.00     0.126 C 
ATOM      6  C   UNL     1       2.646  -4.496  -2.582  1.00  0.00     0.025 C 
BRANCH   5   7
ATOM      7  C   UNL     1       1.831  -2.382  -1.483  1.00  0.00    -0.031 A 
ATOM      8  C   UNL     1       2.645   0.242  -0.716  1.00  0.00     0.025 A 
ATOM      9  C   UNL     1       2.919  -0.872   0.089  1.00  0.00     0.012 A 
ATOM     10  C   UNL     1       1.898   0.026  -1.879  1.00  0.00     0.131 A 
ATOM     11  C   UNL     1       2.564  -2.164  -0.310  1.00  0.00     0.005 A 
ATOM     12  C   UNL     1       1.490  -1.258  -2.257  1.00  0.00     0.044 A 
ATOM     13  F   UNL     1       1.584   1.052  -2.685  1.00  0.00    -0.206 F 
BRANCH   8  14
ATOM     14  C   UNL     1       3.129   1.575  -0.318  1.00  0.00     0.069 A 
ATOM     15  C   UNL     1       2.188   2.485   0.237  1.00  0.00     0.130 A 
ATOM     16  C   UNL     1       2.557   3.737   0.738  1.00  0.00     0.047 A 
ATOM     17  C   UNL     1       3.889   4.115   0.713  1.00  0.00     0.008 A 
ATOM     18  C   UNL     1       4.477   1.995  -0.376  1.00  0.00     0.130 A 
ATOM     19  C   UNL     1       4.829   3.256   0.150  1.00  0.00     0.047 A 
BRANCH  15  20
ATOM     20  O   UNL     1       0.851   2.171   0.194  1.00  0.00    -0.493 OA
BRANCH  20  21
ATOM     21  C   UNL     1       0.284   1.950   1.488  1.00  0.00     0.226 C 
ATOM     22  C   UNL     1      -0.382   0.590   1.468  1.00  0.00     0.049 C 
ENDBRANCH  20  21
ENDBRANCH  15  20
BRANCH  18  23
ATOM     23  O   UNL     1       5.593   1.390  -0.887  1.00  0.00    -0.493 OA
BRANCH  23  24
ATOM     24  C   UNL     1       5.615   0.102  -1.480  1.00  0.00     0.226 C 
ATOM     25  C   UNL     1       6.129  -0.909  -0.470  1.00  0.00     0.049 C 
ENDBRANCH  23  24
ENDBRANCH  18  23
ENDBRANCH   8  14
ENDBRANCH   5   7
ENDBRANCH   3   5
ENDBRANCH   2   3
ENDBRANCH   1   2
BRANCH   1  26
ATOM     26  C   UNL     1      -0.520  -4.570   2.072  1.00  0.00     0.275 C 
BRANCH  26  27
ATOM     27  O   UNL     1      -1.675  -4.225   1.283  1.00  0.00    -0.458 OA
BRANCH  27  28
ATOM     28  C   UNL     1      -1.550  -3.071   0.592  1.00  0.00     0.338 C 
ATOM     29  O   UNL     1      -0.599  -2.304   0.620  1.00  0.00    -0.246 OA
BRANCH  28  30
ATOM     30  C   UNL     1      -2.660  -2.898  -0.349  1.00  0.00     0.060 A 
ATOM     31  C   UNL     1      -2.346  -2.800  -1.707  1.00  0.00     0.016 A 
ATOM     32  C   UNL     1      -3.975  -2.750   0.091  1.00  0.00     0.016 A 
ATOM     33  C   UNL     1      -3.348  -2.571  -2.641  1.00  0.00     0.010 A 
ATOM     34  C   UNL     1      -4.984  -2.516  -0.848  1.00  0.00     0.010 A 
ATOM     35  C   UNL     1      -4.674  -2.427  -2.217  1.00  0.00    -0.014 A 
BRANCH  35  36
ATOM     36  C   UNL     1      -5.731  -2.180  -3.221  1.00  0.00     0.031 A 
ATOM     37  C   UNL     1      -6.309  -0.808  -3.385  1.00  0.00     0.074 A 
ATOM     38  C   UNL     1      -6.144  -3.195  -4.002  1.00  0.00     0.049 A 
ATOM     39  N   UNL     1      -7.280  -0.411  -4.166  1.00  0.00    -0.248 NA
ATOM     40  C   UNL     1      -5.715   0.260  -2.566  1.00  0.00     0.031 C 
ATOM     41  C   UNL     1      -5.609  -4.557  -3.970  1.00  0.00     0.029 A 
ATOM     42  N   UNL     1      -7.105  -3.233  -4.978  1.00  0.00    -0.354 N 
ATOM     43  C   UNL     1      -7.431   0.946  -3.919  1.00  0.00     0.074 A 
ATOM     44  C   UNL     1      -6.457   1.304  -2.909  1.00  0.00     0.031 C 
ATOM     45  C   UNL     1      -6.244  -5.297  -4.893  1.00  0.00     0.029 A 
ATOM     46  C   UNL     1      -7.260  -4.475  -5.543  1.00  0.00     0.049 A 
ATOM     47  H   UNL     1      -7.632  -2.447  -5.248  1.00  0.00     0.167 HD
ATOM     48  C   UNL     1      -8.306   1.812  -4.483  1.00  0.00     0.031 A 
ATOM     49  C   UNL     1      -8.142  -4.907  -6.462  1.00  0.00     0.031 A 
ATOM     50  C   UNL     1      -9.272   1.449  -5.486  1.00  0.00     0.049 A 
ATOM     51  C   UNL     1      -9.150  -3.942  -7.017  1.00  0.00     0.074 A 
ATOM     52  C   UNL     1     -10.198   2.255  -6.125  1.00  0.00     0.029 A 
ATOM     53  N   UNL     1      -9.435   0.170  -5.995  1.00  0.00    -0.354 N 
ATOM     54  N   UNL     1      -9.291  -2.662  -6.768  1.00  0.00    -0.248 NA
ATOM     55  C   UNL     1     -10.124  -4.483  -7.975  1.00  0.00     0.031 C 
ATOM     56  C   UNL     1     -10.953   1.452  -6.988  1.00  0.00     0.029 A 
ATOM     57  C   UNL     1     -10.464   0.157  -6.921  1.00  0.00     0.049 A 
ATOM     58  H   UNL     1      -8.898  -0.614  -5.737  1.00  0.00     0.167 HD
ATOM     59  C   UNL     1     -10.357  -2.240  -7.550  1.00  0.00     0.074 A 
ATOM     60  C   UNL     1     -10.816  -3.397  -8.293  1.00  0.00     0.031 C 
ATOM     61  C   UNL     1     -10.908  -1.006  -7.644  1.00  0.00     0.031 A 
BRANCH  48  62
ATOM     62  C   UNL     1      -8.289   3.230  -3.989  1.00  0.00    -0.014 A 
ATOM     63  C   UNL     1      -7.260   4.117  -4.343  1.00  0.00     0.009 A 
ATOM     64  C   UNL     1      -9.336   3.693  -3.177  1.00  0.00     0.009 A 
ATOM     65  C   UNL     1      -7.266   5.431  -3.869  1.00  0.00     0.001 A 
ATOM     66  C   UNL     1      -9.352   5.013  -2.724  1.00  0.00     0.001 A 
ATOM     67  C   UNL     1      -8.313   5.878  -3.063  1.00  0.00     0.000 A 
ENDBRANCH  48  62
BRANCH  49  68
ATOM     68  C   UNL     1      -8.130  -6.328  -6.890  1.00  0.00    -0.014 A 
ATOM     69  C   UNL     1      -7.704  -6.683  -8.178  1.00  0.00     0.009 A 
ATOM     70  C   UNL     1      -8.543  -7.340  -6.008  1.00  0.00     0.009 A 
ATOM     71  C   UNL     1      -7.708  -8.021  -8.580  1.00  0.00     0.001 A 
ATOM     72  C   UNL     1      -8.521  -8.678  -6.403  1.00  0.00     0.001 A 
ATOM     73  C   UNL     1      -8.111  -9.017  -7.691  1.00  0.00     0.000 A 
ENDBRANCH  49  68
BRANCH  61  74
ATOM     74  C   UNL     1     -12.050  -0.843  -8.605  1.00  0.00    -0.014 A 
ATOM     75  C   UNL     1     -13.330  -1.333  -8.299  1.00  0.00     0.009 A 
ATOM     76  C   UNL     1     -11.849  -0.165  -9.815  1.00  0.00     0.009 A 
ATOM     77  C   UNL     1     -14.380  -1.171  -9.204  1.00  0.00     0.001 A 
ATOM     78  C   UNL     1     -12.907   0.017 -10.708  1.00  0.00     0.001 A 
ATOM     79  C   UNL     1     -14.168  -0.493 -10.406  1.00  0.00     0.000 A 
ENDBRANCH  61  74
ENDBRANCH  35  36
ENDBRANCH  28  30
ENDBRANCH  27  28
ENDBRANCH  26  27
ENDBRANCH   1  26
TORSDOF 17
