REMARK SMILES CCc1cc(OCCC(=O)OCCOC(=O)c2ccc(-c3c4nc(c(-c5ccccc5)c5ccc([nH]5)c(-c5ccccc5)c5nc(c(-c6ccccc6)c6ccc3[nH]6)C=C5)C=C4)cc2)nc(-c2cnccn2)n1
REMARK SMILES IDX 12 1 11 2 9 3 10 4 8 5 7 6 6 7 5 8 3 9 4 10 73 11 66 12
REMARK SMILES IDX 65 13 2 14 1 15 67 16 68 17 72 18 69 19 71 20 70 21 13 22
REMARK SMILES IDX 14 23 15 24 16 25 17 26 18 27 64 28 19 29 63 30 20 31 21 32
REMARK SMILES IDX 22 33 57 34 23 35 62 36 56 37 58 38 24 39 61 40 55 41 54 42
REMARK SMILES IDX 25 44 47 45 32 46 46 47 33 48 36 49 45 50 59 51 34 52 35 53
REMARK SMILES IDX 44 55 60 56 37 57 26 58 27 59 31 60 28 61 30 62 29 63 48 64
REMARK SMILES IDX 49 65 53 66 50 67 52 68 51 69 38 70 39 71 43 72 40 73 42 74
REMARK SMILES IDX 41 75
REMARK H PARENT 58 43 36 54
REMARK Flexibility Score: inf
ROOT
ATOM      1  C   UNL     1       1.714   0.939   0.468  1.00  0.00     0.274 C 
ENDROOT
BRANCH   1   2
ATOM      2  O   UNL     1       1.823   1.456   1.801  1.00  0.00    -0.462 OA
BRANCH   2   3
ATOM      3  C   UNL     1       2.745   2.387   2.095  1.00  0.00     0.309 C 
ATOM      4  O   UNL     1       3.491   2.909   1.277  1.00  0.00    -0.252 OA
BRANCH   3   5
ATOM      5  C   UNL     1       2.714   2.748   3.562  1.00  0.00     0.164 C 
BRANCH   5   6
ATOM      6  C   UNL     1       1.681   1.997   4.414  1.00  0.00     0.243 C 
BRANCH   6   7
ATOM      7  O   UNL     1       2.189   0.793   4.986  1.00  0.00    -0.477 OA
BRANCH   7   8
ATOM      8  C   UNL     1       2.010  -0.435   4.429  1.00  0.00     0.217 A 
ATOM      9  C   UNL     1       1.364  -2.058   2.813  1.00  0.00     0.048 A 
ATOM     10  C   UNL     1       1.227  -0.778   3.345  1.00  0.00     0.092 A 
ATOM     11  N   UNL     1       2.085  -2.981   3.458  1.00  0.00    -0.231 NA
ATOM     12  C   UNL     1       2.636  -2.620   4.630  1.00  0.00     0.183 A 
ATOM     13  N   UNL     1       2.672  -1.369   5.114  1.00  0.00    -0.192 NA
BRANCH   9  14
ATOM     14  C   UNL     1       0.661  -2.591   1.585  1.00  0.00     0.053 C 
ATOM     15  C   UNL     1       1.494  -2.653   0.301  1.00  0.00     0.011 C 
ENDBRANCH   9  14
BRANCH  12  16
ATOM     16  C   UNL     1       2.826  -3.699   5.590  1.00  0.00     0.126 A 
ATOM     17  C   UNL     1       1.947  -3.817   6.668  1.00  0.00     0.143 A 
ATOM     18  N   UNL     1       3.792  -4.628   5.358  1.00  0.00    -0.250 NA
ATOM     19  N   UNL     1       1.991  -4.840   7.554  1.00  0.00    -0.261 NA
ATOM     20  C   UNL     1       3.840  -5.643   6.247  1.00  0.00     0.132 A 
ATOM     21  C   UNL     1       2.962  -5.747   7.316  1.00  0.00     0.131 A 
ENDBRANCH  12  16
ENDBRANCH   7   8
ENDBRANCH   6   7
ENDBRANCH   5   6
ENDBRANCH   3   5
ENDBRANCH   2   3
ENDBRANCH   1   2
BRANCH   1  22
ATOM     22  C   UNL     1       0.268   0.458   0.271  1.00  0.00     0.275 C 
BRANCH  22  23
ATOM     23  O   UNL     1      -0.602   1.539   0.004  1.00  0.00    -0.458 OA
BRANCH  23  24
ATOM     24  C   UNL     1      -0.847   2.405   1.010  1.00  0.00     0.338 C 
ATOM     25  O   UNL     1      -0.767   2.261   2.215  1.00  0.00    -0.246 OA
BRANCH  24  26
ATOM     26  C   UNL     1      -0.875   3.648   0.263  1.00  0.00     0.060 A 
ATOM     27  C   UNL     1       0.137   4.586   0.495  1.00  0.00     0.016 A 
ATOM     28  C   UNL     1      -1.694   3.664  -0.871  1.00  0.00     0.016 A 
ATOM     29  C   UNL     1       0.331   5.578  -0.444  1.00  0.00     0.010 A 
ATOM     30  C   UNL     1      -1.451   4.604  -1.835  1.00  0.00     0.010 A 
ATOM     31  C   UNL     1      -0.473   5.578  -1.590  1.00  0.00    -0.014 A 
BRANCH  31  32
ATOM     32  C   UNL     1      -0.494   6.736  -2.470  1.00  0.00     0.031 A 
ATOM     33  C   UNL     1      -1.668   7.644  -2.312  1.00  0.00     0.074 A 
ATOM     34  C   UNL     1       0.460   6.859  -3.401  1.00  0.00     0.049 A 
ATOM     35  N   UNL     1      -2.049   8.634  -3.062  1.00  0.00    -0.248 NA
ATOM     36  C   UNL     1      -2.569   7.365  -1.171  1.00  0.00     0.031 C 
ATOM     37  C   UNL     1       1.613   5.968  -3.561  1.00  0.00     0.029 A 
ATOM     38  N   UNL     1       0.594   7.773  -4.399  1.00  0.00    -0.354 N 
ATOM     39  C   UNL     1      -3.239   9.077  -2.500  1.00  0.00     0.074 A 
ATOM     40  C   UNL     1      -3.553   8.220  -1.386  1.00  0.00     0.031 C 
ATOM     41  C   UNL     1       2.346   6.392  -4.603  1.00  0.00     0.029 A 
ATOM     42  C   UNL     1       1.682   7.543  -5.200  1.00  0.00     0.049 A 
ATOM     43  H   UNL     1      -0.027   8.525  -4.532  1.00  0.00     0.167 HD
ATOM     44  C   UNL     1      -3.988  10.127  -2.894  1.00  0.00     0.031 A 
ATOM     45  C   UNL     1       2.058   8.198  -6.311  1.00  0.00     0.031 A 
ATOM     46  C   UNL     1      -3.622  10.931  -4.024  1.00  0.00     0.049 A 
ATOM     47  C   UNL     1       1.187   9.343  -6.749  1.00  0.00     0.074 A 
ATOM     48  C   UNL     1      -4.252  12.042  -4.541  1.00  0.00     0.029 A 
ATOM     49  N   UNL     1      -2.503  10.686  -4.815  1.00  0.00    -0.354 N 
ATOM     50  N   UNL     1       0.083   9.797  -6.196  1.00  0.00    -0.248 NA
ATOM     51  C   UNL     1       1.605  10.065  -7.952  1.00  0.00     0.031 C 
ATOM     52  C   UNL     1      -3.543  12.436  -5.681  1.00  0.00     0.029 A 
ATOM     53  C   UNL     1      -2.437  11.607  -5.838  1.00  0.00     0.049 A 
ATOM     54  H   UNL     1      -1.853   9.961  -4.666  1.00  0.00     0.167 HD
ATOM     55  C   UNL     1      -0.323  10.867  -6.975  1.00  0.00     0.074 A 
ATOM     56  C   UNL     1       0.673  11.006  -8.025  1.00  0.00     0.031 C 
ATOM     57  C   UNL     1      -1.414  11.666  -6.854  1.00  0.00     0.031 A 
BRANCH  44  58
ATOM     58  C   UNL     1      -5.248  10.403  -2.125  1.00  0.00    -0.014 A 
ATOM     59  C   UNL     1      -5.213  10.821  -0.782  1.00  0.00     0.009 A 
ATOM     60  C   UNL     1      -6.494  10.204  -2.736  1.00  0.00     0.009 A 
ATOM     61  C   UNL     1      -6.396  10.995  -0.060  1.00  0.00     0.001 A 
ATOM     62  C   UNL     1      -7.677  10.409  -2.021  1.00  0.00     0.001 A 
ATOM     63  C   UNL     1      -7.627  10.793  -0.681  1.00  0.00     0.000 A 
ENDBRANCH  44  58
BRANCH  45  64
ATOM     64  C   UNL     1       3.280   7.783  -7.044  1.00  0.00    -0.014 A 
ATOM     65  C   UNL     1       4.420   8.599  -7.047  1.00  0.00     0.009 A 
ATOM     66  C   UNL     1       3.337   6.542  -7.699  1.00  0.00     0.009 A 
ATOM     67  C   UNL     1       5.584   8.190  -7.704  1.00  0.00     0.001 A 
ATOM     68  C   UNL     1       4.510   6.122  -8.331  1.00  0.00     0.001 A 
ATOM     69  C   UNL     1       5.630   6.950  -8.340  1.00  0.00     0.000 A 
ENDBRANCH  45  64
BRANCH  57  70
ATOM     70  C   UNL     1      -1.558  12.745  -7.883  1.00  0.00    -0.014 A 
ATOM     71  C   UNL     1      -1.944  12.440  -9.195  1.00  0.00     0.009 A 
ATOM     72  C   UNL     1      -1.361  14.084  -7.512  1.00  0.00     0.009 A 
ATOM     73  C   UNL     1      -2.101  13.460 -10.131  1.00  0.00     0.001 A 
ATOM     74  C   UNL     1      -1.553  15.102  -8.441  1.00  0.00     0.001 A 
ATOM     75  C   UNL     1      -1.913  14.789  -9.751  1.00  0.00     0.000 A 
ENDBRANCH  57  70
ENDBRANCH  31  32
ENDBRANCH  24  26
ENDBRANCH  23  24
ENDBRANCH  22  23
ENDBRANCH   1  22
TORSDOF 16
