REMARK SMILES Cc1cc(C)c2c(O[C@@H](C)C(=O)OCCOC(=O)c3ccc(-c4c5nc(c(-c6ccccc6)c6ccc([nH]6)c(-c6ccccc6)c6nc(c(-c7ccccc7)c7ccc4[nH]7)C=C6)C=C5)cc3)nsc2n1
REMARK SMILES IDX 14 1 13 2 11 3 12 4 9 5 10 6 8 7 7 8 1 9 2 10 3 11 70 12
REMARK SMILES IDX 4 13 69 14 5 15 6 16 68 17 67 18 15 19 16 20 17 21 18 22
REMARK SMILES IDX 19 23 20 24 66 25 21 26 65 27 22 28 23 29 24 30 59 31 25 32
REMARK SMILES IDX 64 33 58 34 60 35 26 36 63 37 57 38 56 39 27 41 49 42 34 43
REMARK SMILES IDX 48 44 35 45 38 46 47 47 61 48 36 49 37 50 46 52 62 53 39 54
REMARK SMILES IDX 28 55 29 56 33 57 30 58 32 59 31 60 50 61 51 62 55 63 52 64
REMARK SMILES IDX 54 65 53 66 40 67 41 68 45 69 42 70 44 71 43 72
REMARK H PARENT 60 40 38 51
REMARK Flexibility Score: inf
ROOT
ATOM      1  C   UNL     1       0.192   1.886   4.432  1.00  0.00     0.274 C 
ENDROOT
BRANCH   1   2
ATOM      2  O   UNL     1      -0.514   2.937   3.743  1.00  0.00    -0.459 OA
BRANCH   2   3
ATOM      3  C   UNL     1      -1.627   3.490   4.278  1.00  0.00     0.347 C 
ATOM      4  O   UNL     1      -2.129   3.126   5.336  1.00  0.00    -0.248 OA
BRANCH   3   5
ATOM      5  C   UNL     1      -2.182   4.666   3.417  1.00  0.00     0.281 C 
ATOM      6  C   UNL     1      -3.703   4.555   3.244  1.00  0.00     0.066 C 
BRANCH   5   7
ATOM      7  O   UNL     1      -1.769   5.197   2.184  1.00  0.00    -0.462 OA
BRANCH   7   8
ATOM      8  C   UNL     1      -0.820   4.593   1.443  1.00  0.00     0.236 A 
ATOM      9  C   UNL     1       1.358  -0.263  -0.494  1.00  0.00     0.067 C 
ATOM     10  C   UNL     1       0.652   0.948   0.034  1.00  0.00     0.039 A 
ATOM     11  C   UNL     1      -0.540   0.804   0.724  1.00  0.00     0.027 A 
ATOM     12  N   UNL     1       1.206   2.135  -0.246  1.00  0.00    -0.240 NA
ATOM     13  C   UNL     1      -1.244   1.927   1.208  1.00  0.00    -0.034 A 
ATOM     14  C   UNL     1       0.555   3.194   0.268  1.00  0.00     0.147 A 
ATOM     15  C   UNL     1      -2.519   1.600   1.943  1.00  0.00     0.045 C 
ATOM     16  C   UNL     1      -0.623   3.208   1.026  1.00  0.00     0.078 A 
ATOM     17  S   UNL     1       1.137   4.770   0.018  1.00  0.00    -0.012 S 
ATOM     18  N   UNL     1      -0.022   5.518   0.911  1.00  0.00    -0.153 NA
ENDBRANCH   7   8
ENDBRANCH   5   7
ENDBRANCH   3   5
ENDBRANCH   2   3
ENDBRANCH   1   2
BRANCH   1  19
ATOM     19  C   UNL     1       1.548   2.415   4.870  1.00  0.00     0.275 C 
BRANCH  19  20
ATOM     20  O   UNL     1       1.323   3.376   5.893  1.00  0.00    -0.458 OA
BRANCH  20  21
ATOM     21  C   UNL     1       0.977   4.607   5.454  1.00  0.00     0.338 C 
ATOM     22  O   UNL     1       0.974   5.022   4.312  1.00  0.00    -0.246 OA
BRANCH  21  23
ATOM     23  C   UNL     1       0.649   5.439   6.609  1.00  0.00     0.060 A 
ATOM     24  C   UNL     1       0.191   6.738   6.355  1.00  0.00     0.016 A 
ATOM     25  C   UNL     1       1.135   5.038   7.854  1.00  0.00     0.016 A 
ATOM     26  C   UNL     1       0.469   7.716   7.281  1.00  0.00     0.010 A 
ATOM     27  C   UNL     1       1.481   6.019   8.735  1.00  0.00     0.010 A 
ATOM     28  C   UNL     1       1.220   7.348   8.396  1.00  0.00    -0.014 A 
BRANCH  28  29
ATOM     29  C   UNL     1       1.911   8.371   9.145  1.00  0.00     0.031 A 
ATOM     30  C   UNL     1       1.273   8.769  10.414  1.00  0.00     0.074 A 
ATOM     31  C   UNL     1       3.174   8.691   8.806  1.00  0.00     0.049 A 
ATOM     32  N   UNL     1       0.799   9.925  10.744  1.00  0.00    -0.248 NA
ATOM     33  C   UNL     1       1.006   7.702  11.393  1.00  0.00     0.031 C 
ATOM     34  C   UNL     1       4.031   8.040   7.806  1.00  0.00     0.029 A 
ATOM     35  N   UNL     1       4.013   9.563   9.414  1.00  0.00    -0.354 N 
ATOM     36  C   UNL     1       0.296   9.753  12.028  1.00  0.00     0.074 A 
ATOM     37  C   UNL     1       0.232   8.337  12.264  1.00  0.00     0.031 C 
ATOM     38  C   UNL     1       5.319   8.374   8.050  1.00  0.00     0.029 A 
ATOM     39  C   UNL     1       5.352   9.339   9.137  1.00  0.00     0.049 A 
ATOM     40  H   UNL     1       3.700  10.291   9.999  1.00  0.00     0.167 HD
ATOM     41  C   UNL     1       0.211  10.763  12.931  1.00  0.00     0.031 A 
ATOM     42  C   UNL     1       6.394   9.829   9.850  1.00  0.00     0.031 A 
ATOM     43  C   UNL     1       0.399  12.052  12.329  1.00  0.00     0.049 A 
ATOM     44  C   UNL     1       5.876  10.934  10.697  1.00  0.00     0.074 A 
ATOM     45  C   UNL     1      -0.283  12.787  11.382  1.00  0.00     0.029 A 
ATOM     46  N   UNL     1       1.658  12.599  12.409  1.00  0.00    -0.354 N 
ATOM     47  N   UNL     1       5.418  12.060  10.228  1.00  0.00    -0.248 NA
ATOM     48  C   UNL     1       5.472  10.626  12.061  1.00  0.00     0.031 C 
ATOM     49  C   UNL     1       0.727  13.456  10.631  1.00  0.00     0.029 A 
ATOM     50  C   UNL     1       1.968  13.118  11.176  1.00  0.00     0.049 A 
ATOM     51  H   UNL     1       2.234  12.616  13.207  1.00  0.00     0.167 HD
ATOM     52  C   UNL     1       4.358  12.396  11.060  1.00  0.00     0.074 A 
ATOM     53  C   UNL     1       4.519  11.546  12.236  1.00  0.00     0.031 C 
ATOM     54  C   UNL     1       3.296  13.119  10.595  1.00  0.00     0.031 A 
BRANCH  41  55
ATOM     55  C   UNL     1       0.294  10.530  14.414  1.00  0.00    -0.014 A 
ATOM     56  C   UNL     1      -0.082  11.553  15.294  1.00  0.00     0.009 A 
ATOM     57  C   UNL     1       0.917   9.399  14.984  1.00  0.00     0.009 A 
ATOM     58  C   UNL     1       0.148  11.441  16.671  1.00  0.00     0.001 A 
ATOM     59  C   UNL     1       1.096   9.258  16.360  1.00  0.00     0.001 A 
ATOM     60  C   UNL     1       0.725  10.291  17.204  1.00  0.00     0.000 A 
ENDBRANCH  41  55
BRANCH  42  61
ATOM     61  C   UNL     1       7.700   9.181  10.107  1.00  0.00    -0.014 A 
ATOM     62  C   UNL     1       8.767   9.921  10.637  1.00  0.00     0.009 A 
ATOM     63  C   UNL     1       7.829   7.779  10.077  1.00  0.00     0.009 A 
ATOM     64  C   UNL     1       9.899   9.280  11.158  1.00  0.00     0.001 A 
ATOM     65  C   UNL     1       8.963   7.139  10.586  1.00  0.00     0.001 A 
ATOM     66  C   UNL     1       9.991   7.890  11.144  1.00  0.00     0.000 A 
ENDBRANCH  42  61
BRANCH  54  67
ATOM     67  C   UNL     1       3.419  13.729   9.216  1.00  0.00    -0.014 A 
ATOM     68  C   UNL     1       3.560  12.949   8.053  1.00  0.00     0.009 A 
ATOM     69  C   UNL     1       3.215  15.108   9.066  1.00  0.00     0.009 A 
ATOM     70  C   UNL     1       3.522  13.533   6.783  1.00  0.00     0.001 A 
ATOM     71  C   UNL     1       3.155  15.689   7.796  1.00  0.00     0.001 A 
ATOM     72  C   UNL     1       3.311  14.903   6.655  1.00  0.00     0.000 A 
ENDBRANCH  54  67
ENDBRANCH  28  29
ENDBRANCH  21  23
ENDBRANCH  20  21
ENDBRANCH  19  20
ENDBRANCH   1  19
TORSDOF 13
