REMARK SMILES Cc1cc(C(=O)OCCOC(=O)c2ccc(-c3c4nc(c(-c5ccccc5)c5ccc([nH]5)c(-c5ccccc5)c5nc(c(-c6ccccc6)c6ccc3[nH]6)C=C5)C=C4)cc2)nc(N2CCN(c3ccccc3Cl)CC2)n1
REMARK SMILES IDX 8 1 7 2 5 3 6 4 4 5 1 6 2 7 3 8 76 9 62 10 61 11 63 12 64 13
REMARK SMILES IDX 75 14 65 15 74 16 66 17 67 18 68 19 72 20 69 21 71 22 73 23
REMARK SMILES IDX 70 24 9 25 10 26 11 27 12 28 13 29 14 30 60 31 15 32 59 33
REMARK SMILES IDX 16 34 17 35 18 36 53 37 19 38 58 39 52 40 54 41 20 42 57 43
REMARK SMILES IDX 51 44 50 45 21 47 43 48 28 49 42 50 29 51 32 52 41 53 55 54
REMARK SMILES IDX 30 55 31 56 40 58 56 59 33 60 22 61 23 62 27 63 24 64 26 65
REMARK SMILES IDX 25 66 44 67 45 68 49 69 46 70 48 71 47 72 34 73 35 74 39 75
REMARK SMILES IDX 36 76 38 77 37 78
REMARK H PARENT 54 46 32 57
REMARK Flexibility Score: inf
ROOT
ATOM      1  C   UNL     1       1.945  -4.580   0.066  1.00  0.00     0.275 C 
ENDROOT
BRANCH   1   2
ATOM      2  O   UNL     1       1.142  -3.383  -0.010  1.00  0.00    -0.457 OA
BRANCH   2   3
ATOM      3  C   UNL     1       1.550  -2.365   0.798  1.00  0.00     0.357 C 
ATOM      4  O   UNL     1       2.450  -2.414   1.613  1.00  0.00    -0.244 OA
BRANCH   3   5
ATOM      5  C   UNL     1       0.788  -1.121   0.483  1.00  0.00     0.154 A 
ATOM      6  C   UNL     1      -2.629   0.227  -0.082  1.00  0.00     0.067 C 
ATOM      7  C   UNL     1      -1.148   0.092   0.106  1.00  0.00     0.044 A 
ATOM      8  C   UNL     1      -0.571  -1.143   0.295  1.00  0.00     0.059 A 
ATOM      9  N   UNL     1      -0.431   1.240   0.105  1.00  0.00    -0.218 NA
ATOM     10  C   UNL     1       0.898   1.159   0.254  1.00  0.00     0.226 A 
ATOM     11  N   UNL     1       1.532   0.005   0.456  1.00  0.00    -0.206 NA
BRANCH  10  12
ATOM     12  N   UNL     1       1.685   2.288   0.159  1.00  0.00    -0.337 N 
ATOM     13  C   UNL     1       1.166   3.526   0.752  1.00  0.00     0.141 C 
ATOM     14  C   UNL     1       2.271   2.462  -1.179  1.00  0.00     0.141 C 
ATOM     15  C   UNL     1       2.281   4.606   0.792  1.00  0.00     0.138 C 
ATOM     16  C   UNL     1       3.371   3.545  -1.158  1.00  0.00     0.138 C 
ATOM     17  N   UNL     1       2.867   4.793  -0.550  1.00  0.00    -0.367 N 
BRANCH  17  18
ATOM     18  C   UNL     1       3.627   5.929  -0.840  1.00  0.00     0.056 A 
ATOM     19  C   UNL     1       4.523   6.466   0.099  1.00  0.00     0.027 A 
ATOM     20  C   UNL     1       3.559   6.563  -2.102  1.00  0.00     0.064 A 
ATOM     21  C   UNL     1       5.316   7.580  -0.203  1.00  0.00     0.002 A 
ATOM     22  C   UNL     1       4.348   7.680  -2.402  1.00  0.00     0.023 A 
ATOM     23  Cl  UNL     1       2.463   6.019  -3.334  1.00  0.00    -0.082 Cl
ATOM     24  C   UNL     1       5.228   8.187  -1.452  1.00  0.00     0.002 A 
ENDBRANCH  17  18
ENDBRANCH  10  12
ENDBRANCH   3   5
ENDBRANCH   2   3
ENDBRANCH   1   2
BRANCH   1  25
ATOM     25  C   UNL     1       2.920  -4.657  -1.108  1.00  0.00     0.275 C 
BRANCH  25  26
ATOM     26  O   UNL     1       3.880  -3.586  -1.027  1.00  0.00    -0.458 OA
BRANCH  26  27
ATOM     27  C   UNL     1       3.819  -2.664  -2.013  1.00  0.00     0.338 C 
ATOM     28  O   UNL     1       3.087  -2.664  -2.991  1.00  0.00    -0.246 OA
BRANCH  27  29
ATOM     29  C   UNL     1       4.774  -1.581  -1.739  1.00  0.00     0.060 A 
ATOM     30  C   UNL     1       4.519  -0.711  -0.687  1.00  0.00     0.016 A 
ATOM     31  C   UNL     1       5.834  -1.328  -2.609  1.00  0.00     0.016 A 
ATOM     32  C   UNL     1       5.247   0.469  -0.564  1.00  0.00     0.010 A 
ATOM     33  C   UNL     1       6.625  -0.185  -2.424  1.00  0.00     0.010 A 
ATOM     34  C   UNL     1       6.309   0.761  -1.431  1.00  0.00    -0.014 A 
BRANCH  34  35
ATOM     35  C   UNL     1       7.025   2.071  -1.337  1.00  0.00     0.031 A 
ATOM     36  C   UNL     1       7.118   2.985  -2.538  1.00  0.00     0.074 A 
ATOM     37  C   UNL     1       7.550   2.493  -0.167  1.00  0.00     0.049 A 
ATOM     38  N   UNL     1       7.824   4.079  -2.693  1.00  0.00    -0.248 NA
ATOM     39  C   UNL     1       6.321   2.619  -3.720  1.00  0.00     0.031 C 
ATOM     40  C   UNL     1       7.489   1.772   1.105  1.00  0.00     0.029 A 
ATOM     41  N   UNL     1       8.224   3.651   0.145  1.00  0.00    -0.354 N 
ATOM     42  C   UNL     1       7.604   4.493  -4.003  1.00  0.00     0.074 A 
ATOM     43  C   UNL     1       6.699   3.536  -4.600  1.00  0.00     0.031 C 
ATOM     44  C   UNL     1       8.044   2.524   2.067  1.00  0.00     0.029 A 
ATOM     45  C   UNL     1       8.595   3.733   1.466  1.00  0.00     0.049 A 
ATOM     46  H   UNL     1       8.421   4.354  -0.515  1.00  0.00     0.167 HD
ATOM     47  C   UNL     1       8.114   5.567  -4.655  1.00  0.00     0.031 A 
ATOM     48  C   UNL     1       9.336   4.645   2.122  1.00  0.00     0.031 A 
ATOM     49  C   UNL     1       8.970   6.558  -4.058  1.00  0.00     0.049 A 
ATOM     50  C   UNL     1       9.931   5.799   1.369  1.00  0.00     0.074 A 
ATOM     51  C   UNL     1       9.541   7.673  -4.649  1.00  0.00     0.029 A 
ATOM     52  N   UNL     1       9.360   6.567  -2.729  1.00  0.00    -0.354 N 
ATOM     53  N   UNL     1       9.779   6.131   0.111  1.00  0.00    -0.248 NA
ATOM     54  C   UNL     1      10.824   6.691   2.125  1.00  0.00     0.031 C 
ATOM     55  C   UNL     1      10.310   8.335  -3.687  1.00  0.00     0.029 A 
ATOM     56  C   UNL     1      10.179   7.658  -2.487  1.00  0.00     0.049 A 
ATOM     57  H   UNL     1       9.094   5.899  -2.057  1.00  0.00     0.167 HD
ATOM     58  C   UNL     1      10.554   7.267  -0.075  1.00  0.00     0.074 A 
ATOM     59  C   UNL     1      11.149   7.588   1.205  1.00  0.00     0.031 C 
ATOM     60  C   UNL     1      10.764   7.973  -1.212  1.00  0.00     0.031 A 
BRANCH  47  61
ATOM     61  C   UNL     1       7.800   5.707  -6.118  1.00  0.00    -0.014 A 
ATOM     62  C   UNL     1       6.542   6.137  -6.564  1.00  0.00     0.009 A 
ATOM     63  C   UNL     1       8.809   5.458  -7.064  1.00  0.00     0.009 A 
ATOM     64  C   UNL     1       6.295   6.291  -7.931  1.00  0.00     0.001 A 
ATOM     65  C   UNL     1       8.567   5.637  -8.426  1.00  0.00     0.001 A 
ATOM     66  C   UNL     1       7.308   6.048  -8.859  1.00  0.00     0.000 A 
ENDBRANCH  47  61
BRANCH  48  67
ATOM     67  C   UNL     1       9.626   4.464   3.569  1.00  0.00    -0.014 A 
ATOM     68  C   UNL     1       9.089   5.343   4.522  1.00  0.00     0.009 A 
ATOM     69  C   UNL     1      10.454   3.416   4.002  1.00  0.00     0.009 A 
ATOM     70  C   UNL     1       9.389   5.183   5.877  1.00  0.00     0.001 A 
ATOM     71  C   UNL     1      10.724   3.238   5.360  1.00  0.00     0.001 A 
ATOM     72  C   UNL     1      10.199   4.127   6.295  1.00  0.00     0.000 A 
ENDBRANCH  48  67
BRANCH  60  73
ATOM     73  C   UNL     1      11.650   9.180  -1.114  1.00  0.00    -0.014 A 
ATOM     74  C   UNL     1      13.042   9.050  -0.992  1.00  0.00     0.009 A 
ATOM     75  C   UNL     1      11.088  10.464  -1.171  1.00  0.00     0.009 A 
ATOM     76  C   UNL     1      13.851  10.184  -0.895  1.00  0.00     0.001 A 
ATOM     77  C   UNL     1      11.900  11.596  -1.099  1.00  0.00     0.001 A 
ATOM     78  C   UNL     1      13.280  11.455  -0.952  1.00  0.00     0.000 A 
ENDBRANCH  60  73
ENDBRANCH  34  35
ENDBRANCH  27  29
ENDBRANCH  26  27
ENDBRANCH  25  26
ENDBRANCH   1  25
TORSDOF 13
