REMARK SMILES CCOc1cc(OCC)cc(-c2ccc([C@@H](C)C(=O)OCCOC(=O)c3ccc(-c4c5nc(c(-c6ccccc6)c6ccc([nH]6)c(-c6ccccc6)c6nc(c(-c7ccccc7)c7ccc4[nH]7)C=C6)C=C5)cc3)cc2F)c1
REMARK SMILES IDX 21 1 20 2 18 3 19 4 16 5 17 6 15 7 12 8 13 9 75 10 14 11
REMARK SMILES IDX 74 12 76 13 11 14 4 15 5 16 77 17 6 18 10 19 3 20 2 21 1 22
REMARK SMILES IDX 7 23 8 24 9 25 22 26 23 27 24 28 25 29 26 30 27 31 73 32
REMARK SMILES IDX 28 33 72 34 29 35 30 36 31 37 66 38 32 39 71 40 65 41 67 42
REMARK SMILES IDX 33 43 70 44 64 45 63 46 34 48 56 49 41 50 55 51 42 52 45 53
REMARK SMILES IDX 54 54 68 55 43 56 44 57 53 59 69 60 46 61 35 62 36 63 40 64
REMARK SMILES IDX 37 65 39 66 38 67 57 68 58 69 62 70 59 71 61 72 60 73 47 74
REMARK SMILES IDX 48 75 52 76 49 77 51 78 50 79
REMARK H PARENT 67 47 45 58
REMARK Flexibility Score: inf
ROOT
ATOM      1  C   UNL     1       8.470   3.788  -2.049  1.00  0.00     0.274 C 
ENDROOT
BRANCH   1   2
ATOM      2  O   UNL     1       8.391   3.097  -0.787  1.00  0.00    -0.462 OA
BRANCH   2   3
ATOM      3  C   UNL     1       8.626   3.827   0.335  1.00  0.00     0.313 C 
ATOM      4  O   UNL     1       8.951   5.010   0.335  1.00  0.00    -0.252 OA
BRANCH   3   5
ATOM      5  C   UNL     1       8.499   3.021   1.625  1.00  0.00     0.126 C 
ATOM      6  C   UNL     1       9.872   2.517   2.064  1.00  0.00     0.025 C 
BRANCH   5   7
ATOM      7  C   UNL     1       7.456   1.914   1.610  1.00  0.00    -0.031 A 
ATOM      8  C   UNL     1       5.488  -0.138   1.627  1.00  0.00     0.018 A 
ATOM      9  C   UNL     1       6.651  -0.249   0.846  1.00  0.00     0.012 A 
ATOM     10  C   UNL     1       5.324   1.028   2.380  1.00  0.00     0.131 A 
ATOM     11  C   UNL     1       7.621   0.756   0.840  1.00  0.00     0.005 A 
ATOM     12  C   UNL     1       6.293   2.030   2.388  1.00  0.00     0.044 A 
ATOM     13  F   UNL     1       4.238   1.193   3.151  1.00  0.00    -0.206 F 
BRANCH   8  14
ATOM     14  C   UNL     1       4.529  -1.248   1.684  1.00  0.00    -0.008 A 
ATOM     15  C   UNL     1       2.297  -2.161   1.449  1.00  0.00     0.123 A 
ATOM     16  C   UNL     1       2.768  -3.433   1.778  1.00  0.00     0.092 A 
ATOM     17  C   UNL     1       3.165  -1.070   1.424  1.00  0.00     0.055 A 
ATOM     18  C   UNL     1       4.117  -3.626   2.073  1.00  0.00     0.123 A 
ATOM     19  C   UNL     1       4.984  -2.535   2.017  1.00  0.00     0.055 A 
BRANCH  15  20
ATOM     20  O   UNL     1       0.950  -2.000   1.271  1.00  0.00    -0.494 OA
BRANCH  20  21
ATOM     21  C   UNL     1       0.592  -1.655  -0.073  1.00  0.00     0.226 C 
ATOM     22  C   UNL     1       0.372  -0.158  -0.221  1.00  0.00     0.049 C 
ENDBRANCH  20  21
ENDBRANCH  15  20
BRANCH  18  23
ATOM     23  O   UNL     1       4.490  -4.908   2.374  1.00  0.00    -0.494 OA
BRANCH  23  24
ATOM     24  C   UNL     1       5.731  -5.091   3.063  1.00  0.00     0.226 C 
ATOM     25  C   UNL     1       6.878  -5.320   2.089  1.00  0.00     0.049 C 
ENDBRANCH  23  24
ENDBRANCH  18  23
ENDBRANCH   8  14
ENDBRANCH   5   7
ENDBRANCH   3   5
ENDBRANCH   2   3
ENDBRANCH   1   2
BRANCH   1  26
ATOM     26  C   UNL     1       7.077   4.097  -2.599  1.00  0.00     0.275 C 
BRANCH  26  27
ATOM     27  O   UNL     1       6.403   5.068  -1.777  1.00  0.00    -0.458 OA
BRANCH  27  28
ATOM     28  C   UNL     1       5.484   4.559  -0.925  1.00  0.00     0.338 C 
ATOM     29  O   UNL     1       5.123   3.400  -0.825  1.00  0.00    -0.246 OA
BRANCH  28  30
ATOM     30  C   UNL     1       5.055   5.606   0.014  1.00  0.00     0.060 A 
ATOM     31  C   UNL     1       5.455   5.476   1.343  1.00  0.00     0.016 A 
ATOM     32  C   UNL     1       4.203   6.641  -0.370  1.00  0.00     0.016 A 
ATOM     33  C   UNL     1       4.982   6.354   2.309  1.00  0.00     0.010 A 
ATOM     34  C   UNL     1       3.742   7.542   0.600  1.00  0.00     0.010 A 
ATOM     35  C   UNL     1       4.113   7.391   1.948  1.00  0.00    -0.014 A 
BRANCH  35  36
ATOM     36  C   UNL     1       3.584   8.277   3.011  1.00  0.00     0.031 A 
ATOM     37  C   UNL     1       2.164   8.134   3.481  1.00  0.00     0.074 A 
ATOM     38  C   UNL     1       4.406   9.158   3.613  1.00  0.00     0.049 A 
ATOM     39  N   UNL     1       1.539   8.786   4.429  1.00  0.00    -0.248 NA
ATOM     40  C   UNL     1       1.340   7.125   2.798  1.00  0.00     0.031 C 
ATOM     41  C   UNL     1       5.816   9.362   3.277  1.00  0.00     0.029 A 
ATOM     42  N   UNL     1       4.178  10.026   4.650  1.00  0.00    -0.354 N 
ATOM     43  C   UNL     1       0.247   8.278   4.449  1.00  0.00     0.074 A 
ATOM     44  C   UNL     1       0.171   7.278   3.404  1.00  0.00     0.031 C 
ATOM     45  C   UNL     1       6.335  10.276   4.112  1.00  0.00     0.029 A 
ATOM     46  C   UNL     1       5.289  10.745   5.016  1.00  0.00     0.049 A 
ATOM     47  H   UNL     1       3.303  10.124   5.089  1.00  0.00     0.167 HD
ATOM     48  C   UNL     1      -0.782   8.610   5.265  1.00  0.00     0.031 A 
ATOM     49  C   UNL     1       5.446  11.681   5.970  1.00  0.00     0.031 A 
ATOM     50  C   UNL     1      -0.712   9.601   6.306  1.00  0.00     0.049 A 
ATOM     51  C   UNL     1       4.278  12.056   6.836  1.00  0.00     0.074 A 
ATOM     52  C   UNL     1      -1.705  10.005   7.183  1.00  0.00     0.029 A 
ATOM     53  N   UNL     1       0.418  10.342   6.614  1.00  0.00    -0.354 N 
ATOM     54  N   UNL     1       3.062  11.569   6.838  1.00  0.00    -0.248 NA
ATOM     55  C   UNL     1       4.511  13.109   7.835  1.00  0.00     0.031 C 
ATOM     56  C   UNL     1      -1.186  11.019   7.996  1.00  0.00     0.029 A 
ATOM     57  C   UNL     1       0.143  11.213   7.655  1.00  0.00     0.049 A 
ATOM     58  H   UNL     1       1.287  10.261   6.159  1.00  0.00     0.167 HD
ATOM     59  C   UNL     1       2.386  12.246   7.845  1.00  0.00     0.074 A 
ATOM     60  C   UNL     1       3.336  13.160   8.447  1.00  0.00     0.031 C 
ATOM     61  C   UNL     1       1.094  12.125   8.234  1.00  0.00     0.031 A 
BRANCH  48  62
ATOM     62  C   UNL     1      -2.091   7.910   5.035  1.00  0.00    -0.014 A 
ATOM     63  C   UNL     1      -2.283   6.576   5.424  1.00  0.00     0.009 A 
ATOM     64  C   UNL     1      -3.157   8.607   4.444  1.00  0.00     0.009 A 
ATOM     65  C   UNL     1      -3.507   5.943   5.197  1.00  0.00     0.001 A 
ATOM     66  C   UNL     1      -4.386   7.979   4.239  1.00  0.00     0.001 A 
ATOM     67  C   UNL     1      -4.558   6.646   4.608  1.00  0.00     0.000 A 
ENDBRANCH  48  62
BRANCH  49  68
ATOM     68  C   UNL     1       6.765  12.339   6.152  1.00  0.00    -0.014 A 
ATOM     69  C   UNL     1       7.551  12.063   7.280  1.00  0.00     0.009 A 
ATOM     70  C   UNL     1       7.238  13.254   5.198  1.00  0.00     0.009 A 
ATOM     71  C   UNL     1       8.778  12.707   7.459  1.00  0.00     0.001 A 
ATOM     72  C   UNL     1       8.475  13.877   5.368  1.00  0.00     0.001 A 
ATOM     73  C   UNL     1       9.240  13.609   6.502  1.00  0.00     0.000 A 
ENDBRANCH  49  68
BRANCH  61  74
ATOM     74  C   UNL     1       0.646  12.993   9.374  1.00  0.00    -0.014 A 
ATOM     75  C   UNL     1       0.436  14.370   9.197  1.00  0.00     0.009 A 
ATOM     76  C   UNL     1       0.426  12.427  10.639  1.00  0.00     0.009 A 
ATOM     77  C   UNL     1       0.052  15.169  10.276  1.00  0.00     0.001 A 
ATOM     78  C   UNL     1       0.018  13.224  11.709  1.00  0.00     0.001 A 
ATOM     79  C   UNL     1      -0.158  14.595  11.530  1.00  0.00     0.000 A 
ENDBRANCH  61  74
ENDBRANCH  35  36
ENDBRANCH  28  30
ENDBRANCH  27  28
ENDBRANCH  26  27
ENDBRANCH   1  26
TORSDOF 17
