REMARK SMILES CO[C@H]1C[C@@H](C(=O)OCCOC(=O)c2ccc(-c3c4nc(c(-c5ccccc5)c5ccc([nH]5)c(-c5ccccc5)c5nc(c(-c6ccccc6)c6ccc3[nH]6)C=C5)C=C4)cc2)N(C(=O)Nc2cc(C)cc(F)c2)C1
REMARK SMILES IDX 9 1 8 2 6 3 7 4 5 5 3 6 4 7 74 8 62 9 2 10 1 11 63 12 64 13
REMARK SMILES IDX 65 14 66 16 67 17 73 18 68 19 71 20 69 21 70 22 72 23 10 24
REMARK SMILES IDX 11 25 12 26 13 27 14 28 15 29 61 30 16 31 60 32 17 33 18 34
REMARK SMILES IDX 19 35 54 36 20 37 59 38 53 39 55 40 21 41 58 42 52 43 51 44
REMARK SMILES IDX 22 46 44 47 29 48 43 49 30 50 33 51 42 52 56 53 31 54 32 55
REMARK SMILES IDX 41 57 57 58 34 59 23 60 24 61 28 62 25 63 27 64 26 65 45 66
REMARK SMILES IDX 46 67 50 68 47 69 49 70 48 71 35 72 36 73 40 74 37 75 39 76
REMARK SMILES IDX 38 77
REMARK H PARENT 65 15 55 45 33 56
REMARK Flexibility Score: inf
ROOT
ATOM      1  C   UNL     1      -2.376  -2.975  -4.900  1.00  0.00     0.274 C 
ENDROOT
BRANCH   1   2
ATOM      2  O   UNL     1      -2.020  -2.532  -3.566  1.00  0.00    -0.461 OA
BRANCH   2   3
ATOM      3  C   UNL     1      -1.365  -3.452  -2.820  1.00  0.00     0.329 C 
ATOM      4  O   UNL     1      -0.914  -4.478  -3.292  1.00  0.00    -0.250 OA
BRANCH   3   5
ATOM      5  C   UNL     1      -1.175  -3.100  -1.361  1.00  0.00     0.199 C 
ATOM      6  C   UNL     1       0.732  -1.976  -0.295  1.00  0.00     0.140 C 
ATOM      7  C   UNL     1      -0.306  -1.835  -1.394  1.00  0.00     0.071 C 
ATOM      8  C   UNL     1       0.821  -3.479  -0.051  1.00  0.00     0.154 C 
ATOM      9  N   UNL     1      -0.363  -4.108  -0.631  1.00  0.00    -0.308 N 
BRANCH   6  10
ATOM     10  O   UNL     1       2.019  -1.499  -0.692  1.00  0.00    -0.380 OA
ATOM     11  C   UNL     1       2.067  -0.119  -1.028  1.00  0.00     0.195 C 
ENDBRANCH   6  10
BRANCH   9  12
ATOM     12  C   UNL     1      -0.597  -5.408  -0.251  1.00  0.00     0.322 C 
ATOM     13  O   UNL     1       0.224  -6.005   0.459  1.00  0.00    -0.248 OA
ATOM     14  N   UNL     1      -1.783  -6.040  -0.421  1.00  0.00    -0.308 N 
ATOM     15  H   UNL     1      -2.090  -6.492   0.398  1.00  0.00     0.171 HD
BRANCH  14  16
ATOM     16  C   UNL     1      -2.674  -6.202  -1.489  1.00  0.00     0.046 A 
ATOM     17  C   UNL     1      -4.037  -6.243  -1.192  1.00  0.00     0.029 A 
ATOM     18  C   UNL     1      -2.271  -6.498  -2.786  1.00  0.00     0.065 A 
ATOM     19  C   UNL     1      -4.993  -6.345  -2.215  1.00  0.00    -0.046 A 
ATOM     20  C   UNL     1      -3.210  -6.516  -3.814  1.00  0.00     0.125 A 
ATOM     21  C   UNL     1      -6.454  -6.438  -1.904  1.00  0.00     0.044 C 
ATOM     22  C   UNL     1      -4.565  -6.402  -3.543  1.00  0.00     0.042 A 
ATOM     23  F   UNL     1      -2.804  -6.611  -5.088  1.00  0.00    -0.207 F 
ENDBRANCH  14  16
ENDBRANCH   9  12
ENDBRANCH   3   5
ENDBRANCH   2   3
ENDBRANCH   1   2
BRANCH   1  24
ATOM     24  C   UNL     1      -1.242  -3.192  -5.938  1.00  0.00     0.275 C 
BRANCH  24  25
ATOM     25  O   UNL     1      -0.415  -4.363  -5.729  1.00  0.00    -0.458 OA
BRANCH  25  26
ATOM     26  C   UNL     1       0.823  -4.127  -5.210  1.00  0.00     0.338 C 
ATOM     27  O   UNL     1       1.335  -3.026  -5.063  1.00  0.00    -0.246 OA
BRANCH  26  28
ATOM     28  C   UNL     1       1.427  -5.357  -4.622  1.00  0.00     0.060 A 
ATOM     29  C   UNL     1       1.785  -5.308  -3.265  1.00  0.00     0.016 A 
ATOM     30  C   UNL     1       1.697  -6.511  -5.352  1.00  0.00     0.016 A 
ATOM     31  C   UNL     1       2.388  -6.392  -2.624  1.00  0.00     0.010 A 
ATOM     32  C   UNL     1       2.371  -7.580  -4.729  1.00  0.00     0.010 A 
ATOM     33  C   UNL     1       2.739  -7.519  -3.368  1.00  0.00    -0.014 A 
BRANCH  33  34
ATOM     34  C   UNL     1       3.691  -8.508  -2.793  1.00  0.00     0.031 A 
ATOM     35  C   UNL     1       5.165  -8.275  -3.007  1.00  0.00     0.074 A 
ATOM     36  C   UNL     1       3.292  -9.573  -2.073  1.00  0.00     0.049 A 
ATOM     37  N   UNL     1       6.181  -9.056  -2.737  1.00  0.00    -0.248 NA
ATOM     38  C   UNL     1       5.541  -6.981  -3.601  1.00  0.00     0.031 C 
ATOM     39  C   UNL     1       1.920  -9.863  -1.665  1.00  0.00     0.029 A 
ATOM     40  N   UNL     1       4.023 -10.622  -1.562  1.00  0.00    -0.354 N 
ATOM     41  C   UNL     1       7.309  -8.360  -3.156  1.00  0.00     0.074 A 
ATOM     42  C   UNL     1       6.858  -7.094  -3.688  1.00  0.00     0.031 C 
ATOM     43  C   UNL     1       1.903 -11.029  -0.991  1.00  0.00     0.029 A 
ATOM     44  C   UNL     1       3.254 -11.592  -0.964  1.00  0.00     0.049 A 
ATOM     45  H   UNL     1       5.005 -10.673  -1.620  1.00  0.00     0.167 HD
ATOM     46  C   UNL     1       8.605  -8.748  -3.119  1.00  0.00     0.031 A 
ATOM     47  C   UNL     1       3.595 -12.809  -0.491  1.00  0.00     0.031 A 
ATOM     48  C   UNL     1       9.064 -10.005  -2.597  1.00  0.00     0.049 A 
ATOM     49  C   UNL     1       5.031 -13.272  -0.585  1.00  0.00     0.074 A 
ATOM     50  C   UNL     1      10.361 -10.484  -2.527  1.00  0.00     0.029 A 
ATOM     51  N   UNL     1       8.244 -10.983  -2.063  1.00  0.00    -0.354 N 
ATOM     52  N   UNL     1       6.090 -12.618  -0.997  1.00  0.00    -0.248 NA
ATOM     53  C   UNL     1       5.316 -14.652  -0.155  1.00  0.00     0.031 C 
ATOM     54  C   UNL     1      10.319 -11.782  -2.012  1.00  0.00     0.029 A 
ATOM     55  C   UNL     1       9.003 -12.081  -1.697  1.00  0.00     0.049 A 
ATOM     56  H   UNL     1       7.268 -10.910  -1.959  1.00  0.00     0.167 HD
ATOM     57  C   UNL     1       7.164 -13.488  -0.835  1.00  0.00     0.074 A 
ATOM     58  C   UNL     1       6.634 -14.715  -0.282  1.00  0.00     0.031 C 
ATOM     59  C   UNL     1       8.473 -13.287  -1.119  1.00  0.00     0.031 A 
BRANCH  46  60
ATOM     60  C   UNL     1       9.623  -7.830  -3.731  1.00  0.00    -0.014 A 
ATOM     61  C   UNL     1      10.034  -6.652  -3.091  1.00  0.00     0.009 A 
ATOM     62  C   UNL     1      10.221  -8.189  -4.949  1.00  0.00     0.009 A 
ATOM     63  C   UNL     1      11.011  -5.841  -3.672  1.00  0.00     0.001 A 
ATOM     64  C   UNL     1      11.216  -7.392  -5.514  1.00  0.00     0.001 A 
ATOM     65  C   UNL     1      11.606  -6.215  -4.878  1.00  0.00     0.000 A 
ENDBRANCH  46  60
BRANCH  47  66
ATOM     66  C   UNL     1       2.562 -13.738   0.051  1.00  0.00    -0.014 A 
ATOM     67  C   UNL     1       2.602 -14.156   1.391  1.00  0.00     0.009 A 
ATOM     68  C   UNL     1       1.587 -14.288  -0.797  1.00  0.00     0.009 A 
ATOM     69  C   UNL     1       1.719 -15.136   1.855  1.00  0.00     0.001 A 
ATOM     70  C   UNL     1       0.684 -15.241  -0.322  1.00  0.00     0.001 A 
ATOM     71  C   UNL     1       0.761 -15.677   1.000  1.00  0.00     0.000 A 
ENDBRANCH  47  66
BRANCH  59  72
ATOM     72  C   UNL     1       9.447 -14.381  -0.778  1.00  0.00    -0.014 A 
ATOM     73  C   UNL     1       9.514 -15.566  -1.525  1.00  0.00     0.009 A 
ATOM     74  C   UNL     1      10.369 -14.181   0.263  1.00  0.00     0.009 A 
ATOM     75  C   UNL     1      10.471 -16.538  -1.221  1.00  0.00     0.001 A 
ATOM     76  C   UNL     1      11.343 -15.140   0.545  1.00  0.00     0.001 A 
ATOM     77  C   UNL     1      11.388 -16.321  -0.193  1.00  0.00     0.000 A 
ENDBRANCH  59  72
ENDBRANCH  33  34
ENDBRANCH  26  28
ENDBRANCH  25  26
ENDBRANCH  24  25
ENDBRANCH   1  24
TORSDOF 14
