REMARK SMILES Cc1c(CC(=O)OCCOC(=O)c2ccc(-c3c4nc(c(-c5ccccc5)c5ccc([nH]5)c(-c5ccccc5)c5nc(c(-c6ccccc6)c6ccc3[nH]6)C=C5)C=C4)cc2)c2cc(O)ccc2n1C(=O)c1ccc(Cl)cc1
REMARK SMILES IDX 8 1 7 2 5 3 6 4 4 5 3 6 1 7 2 8 68 9 61 10 67 11 62 12 66 13
REMARK SMILES IDX 63 14 65 15 69 16 70 17 71 18 72 19 77 20 73 21 76 22 74 23
REMARK SMILES IDX 75 24 64 25 9 27 10 28 11 29 12 30 13 31 14 32 60 33 15 34
REMARK SMILES IDX 59 35 16 36 17 37 18 38 53 39 19 40 58 41 52 42 54 43 20 44
REMARK SMILES IDX 57 45 51 46 50 47 21 49 43 50 28 51 42 52 29 53 32 54 41 55
REMARK SMILES IDX 55 56 30 57 31 58 40 60 56 61 33 62 22 63 23 64 27 65 24 66
REMARK SMILES IDX 26 67 25 68 44 69 45 70 49 71 46 72 48 73 47 74 34 75 35 76
REMARK SMILES IDX 39 77 36 78 38 79 37 80
REMARK H PARENT 64 26 54 48 32 59
REMARK Flexibility Score: inf
ROOT
ATOM      1  C   UNL     1      -4.253  -0.968  -2.381  1.00  0.00     0.274 C 
ENDROOT
BRANCH   1   2
ATOM      2  O   UNL     1      -2.881  -0.534  -2.234  1.00  0.00    -0.462 OA
BRANCH   2   3
ATOM      3  C   UNL     1      -1.990  -1.490  -1.876  1.00  0.00     0.310 C 
ATOM      4  O   UNL     1      -2.279  -2.675  -1.720  1.00  0.00    -0.252 OA
BRANCH   3   5
ATOM      5  C   UNL     1      -0.583  -1.013  -1.627  1.00  0.00     0.160 C 
BRANCH   5   6
ATOM      6  C   UNL     1      -0.209   0.439  -1.745  1.00  0.00    -0.008 A 
ATOM      7  C   UNL     1       1.111   0.634   0.493  1.00  0.00     0.065 C 
ATOM      8  C   UNL     1       0.539   1.132  -0.798  1.00  0.00     0.028 A 
ATOM      9  N   UNL     1       0.710   2.448  -1.228  1.00  0.00    -0.280 N 
ATOM     10  C   UNL     1      -0.306   1.300  -2.887  1.00  0.00     0.008 A 
ATOM     11  C   UNL     1       0.366   2.491  -2.586  1.00  0.00     0.057 A 
ATOM     12  C   UNL     1      -0.841   1.155  -4.185  1.00  0.00     0.056 A 
ATOM     13  C   UNL     1       0.585   3.469  -3.586  1.00  0.00     0.031 A 
ATOM     14  C   UNL     1      -0.626   2.129  -5.160  1.00  0.00     0.116 A 
ATOM     15  C   UNL     1       0.084   3.274  -4.873  1.00  0.00     0.048 A 
BRANCH   9  16
ATOM     16  C   UNL     1       1.185   3.529  -0.436  1.00  0.00     0.262 C 
ATOM     17  O   UNL     1       1.566   3.313   0.713  1.00  0.00    -0.268 OA
BRANCH  16  18
ATOM     18  C   UNL     1       1.253   4.924  -0.893  1.00  0.00     0.040 A 
ATOM     19  C   UNL     1       0.081   5.628  -1.190  1.00  0.00     0.015 A 
ATOM     20  C   UNL     1       2.513   5.497  -1.087  1.00  0.00     0.015 A 
ATOM     21  C   UNL     1       0.180   6.902  -1.751  1.00  0.00     0.021 A 
ATOM     22  C   UNL     1       2.603   6.769  -1.649  1.00  0.00     0.021 A 
ATOM     23  C   UNL     1       1.438   7.460  -1.990  1.00  0.00     0.041 A 
ATOM     24  Cl  UNL     1       1.556   9.004  -2.738  1.00  0.00    -0.084 Cl
ENDBRANCH  16  18
ENDBRANCH   9  16
BRANCH  14  25
ATOM     25  O   UNL     1      -1.113   1.897  -6.412  1.00  0.00    -0.508 OA
ATOM     26  H   UNL     1      -1.593   1.113  -6.590  1.00  0.00     0.293 HD
ENDBRANCH  14  25
ENDBRANCH   5   6
ENDBRANCH   3   5
ENDBRANCH   2   3
ENDBRANCH   1   2
BRANCH   1  27
ATOM     27  C   UNL     1      -4.667  -1.010  -3.856  1.00  0.00     0.275 C 
BRANCH  27  28
ATOM     28  O   UNL     1      -4.041  -2.145  -4.470  1.00  0.00    -0.458 OA
BRANCH  28  29
ATOM     29  C   UNL     1      -3.099  -1.888  -5.413  1.00  0.00     0.338 C 
ATOM     30  O   UNL     1      -2.983  -0.897  -6.096  1.00  0.00    -0.246 OA
BRANCH  29  31
ATOM     31  C   UNL     1      -2.042  -2.891  -5.166  1.00  0.00     0.060 A 
ATOM     32  C   UNL     1      -2.380  -4.213  -4.871  1.00  0.00     0.016 A 
ATOM     33  C   UNL     1      -0.742  -2.418  -4.964  1.00  0.00     0.016 A 
ATOM     34  C   UNL     1      -1.447  -5.019  -4.237  1.00  0.00     0.010 A 
ATOM     35  C   UNL     1       0.172  -3.212  -4.289  1.00  0.00     0.010 A 
ATOM     36  C   UNL     1      -0.197  -4.493  -3.884  1.00  0.00    -0.014 A 
BRANCH  36  37
ATOM     37  C   UNL     1       0.786  -5.401  -3.316  1.00  0.00     0.031 A 
ATOM     38  C   UNL     1       1.629  -6.060  -4.333  1.00  0.00     0.074 A 
ATOM     39  C   UNL     1       1.040  -5.661  -2.022  1.00  0.00     0.049 A 
ATOM     40  N   UNL     1       1.498  -7.260  -4.788  1.00  0.00    -0.248 NA
ATOM     41  C   UNL     1       2.662  -5.257  -4.997  1.00  0.00     0.031 C 
ATOM     42  C   UNL     1       0.648  -4.920  -0.826  1.00  0.00     0.029 A 
ATOM     43  N   UNL     1       1.804  -6.682  -1.531  1.00  0.00    -0.354 N 
ATOM     44  C   UNL     1       2.517  -7.421  -5.714  1.00  0.00     0.074 A 
ATOM     45  C   UNL     1       3.102  -6.118  -5.913  1.00  0.00     0.031 C 
ATOM     46  C   UNL     1       1.334  -5.409   0.238  1.00  0.00     0.029 A 
ATOM     47  C   UNL     1       2.070  -6.596  -0.177  1.00  0.00     0.049 A 
ATOM     48  H   UNL     1       2.138  -7.417  -2.094  1.00  0.00     0.167 HD
ATOM     49  C   UNL     1       2.939  -8.651  -6.107  1.00  0.00     0.031 A 
ATOM     50  C   UNL     1       2.856  -7.441   0.530  1.00  0.00     0.031 A 
ATOM     51  C   UNL     1       2.042  -9.692  -5.677  1.00  0.00     0.049 A 
ATOM     52  C   UNL     1       2.939  -8.728  -0.199  1.00  0.00     0.074 A 
ATOM     53  C   UNL     1       0.750 -10.064  -5.975  1.00  0.00     0.029 A 
ATOM     54  N   UNL     1       2.378 -10.322  -4.505  1.00  0.00    -0.354 N 
ATOM     55  N   UNL     1       1.937  -9.546  -0.346  1.00  0.00    -0.248 NA
ATOM     56  C   UNL     1       4.107  -9.029  -1.014  1.00  0.00     0.031 C 
ATOM     57  C   UNL     1       0.231 -10.644  -4.780  1.00  0.00     0.029 A 
ATOM     58  C   UNL     1       1.231 -10.606  -3.805  1.00  0.00     0.049 A 
ATOM     59  H   UNL     1       3.293 -10.537  -4.212  1.00  0.00     0.167 HD
ATOM     60  C   UNL     1       2.179 -10.191  -1.545  1.00  0.00     0.074 A 
ATOM     61  C   UNL     1       3.594  -9.974  -1.806  1.00  0.00     0.031 C 
ATOM     62  C   UNL     1       1.153 -10.582  -2.355  1.00  0.00     0.031 A 
BRANCH  49  63
ATOM     63  C   UNL     1       4.341  -8.949  -6.564  1.00  0.00    -0.014 A 
ATOM     64  C   UNL     1       5.437  -8.102  -6.311  1.00  0.00     0.009 A 
ATOM     65  C   UNL     1       4.634 -10.233  -7.053  1.00  0.00     0.009 A 
ATOM     66  C   UNL     1       6.754  -8.503  -6.548  1.00  0.00     0.001 A 
ATOM     67  C   UNL     1       5.955 -10.655  -7.247  1.00  0.00     0.001 A 
ATOM     68  C   UNL     1       7.014  -9.789  -6.997  1.00  0.00     0.000 A 
ENDBRANCH  49  63
BRANCH  50  69
ATOM     69  C   UNL     1       3.703  -7.175   1.709  1.00  0.00    -0.014 A 
ATOM     70  C   UNL     1       4.323  -5.923   1.857  1.00  0.00     0.009 A 
ATOM     71  C   UNL     1       4.146  -8.232   2.522  1.00  0.00     0.009 A 
ATOM     72  C   UNL     1       5.386  -5.746   2.748  1.00  0.00     0.001 A 
ATOM     73  C   UNL     1       5.213  -8.055   3.411  1.00  0.00     0.001 A 
ATOM     74  C   UNL     1       5.843  -6.817   3.510  1.00  0.00     0.000 A 
ENDBRANCH  50  69
BRANCH  62  75
ATOM     75  C   UNL     1      -0.219 -10.722  -1.738  1.00  0.00    -0.014 A 
ATOM     76  C   UNL     1      -0.909 -11.933  -1.916  1.00  0.00     0.009 A 
ATOM     77  C   UNL     1      -0.886  -9.669  -1.090  1.00  0.00     0.009 A 
ATOM     78  C   UNL     1      -2.220 -12.088  -1.459  1.00  0.00     0.001 A 
ATOM     79  C   UNL     1      -2.188  -9.835  -0.605  1.00  0.00     0.001 A 
ATOM     80  C   UNL     1      -2.856 -11.042  -0.797  1.00  0.00     0.000 A 
ENDBRANCH  62  75
ENDBRANCH  36  37
ENDBRANCH  29  31
ENDBRANCH  28  29
ENDBRANCH  27  28
ENDBRANCH   1  27
TORSDOF 15
