REMARK SMILES Cn1nc(C(=O)OCCOC(=O)c2ccc(-c3c4nc(c(-c5ccccc5)c5ccc([nH]5)c(-c5ccccc5)c5nc(c(-c6ccccc6)c6ccc3[nH]6)C=C5)C=C4)cc2)cc1C1CC1
REMARK SMILES IDX 9 1 8 2 7 3 5 4 6 5 4 6 1 7 2 8 3 9 62 10 61 11 63 12 64 13
REMARK SMILES IDX 65 14 10 15 11 16 12 17 13 18 14 19 60 20 15 21 59 22 16 23
REMARK SMILES IDX 17 24 18 25 53 26 19 27 58 28 52 29 54 30 20 31 57 32 51 33
REMARK SMILES IDX 50 34 21 36 43 37 28 38 42 39 29 40 32 41 41 42 55 43 30 44
REMARK SMILES IDX 31 45 40 47 56 48 33 49 22 50 23 51 27 52 24 53 26 54 25 55
REMARK SMILES IDX 44 56 45 57 49 58 46 59 48 60 47 61 34 62 35 63 39 64 36 65
REMARK SMILES IDX 38 66 37 67
REMARK H PARENT 54 35 32 46
REMARK Flexibility Score: inf
ROOT
ATOM      1  C   UNL     1       4.592   2.833  -1.333  1.00  0.00     0.275 C 
ENDROOT
BRANCH   1   2
ATOM      2  C   UNL     1       4.711   1.997  -0.051  1.00  0.00     0.275 C 
BRANCH   2   3
ATOM      3  O   UNL     1       3.721   0.953   0.013  1.00  0.00    -0.457 OA
BRANCH   3   4
ATOM      4  C   UNL     1       2.569   1.280   0.683  1.00  0.00     0.358 C 
ATOM      5  O   UNL     1       2.405   2.344   1.263  1.00  0.00    -0.244 OA
BRANCH   4   6
ATOM      6  C   UNL     1       1.527   0.245   0.564  1.00  0.00     0.170 A 
ATOM      7  C   UNL     1      -1.867  -0.414   0.213  1.00  0.00     0.174 C 
ATOM      8  N   UNL     1      -0.446  -0.562   0.410  1.00  0.00    -0.272 N 
ATOM      9  N   UNL     1       0.228   0.557   0.728  1.00  0.00    -0.166 NA
ATOM     10  C   UNL     1       0.374  -1.648   0.271  1.00  0.00     0.042 A 
ATOM     11  C   UNL     1       1.659  -1.138   0.281  1.00  0.00     0.061 A 
BRANCH  10  12
ATOM     12  C   UNL     1       0.083  -3.136   0.147  1.00  0.00     0.038 C 
ATOM     13  C   UNL     1      -1.087  -3.696   0.929  1.00  0.00     0.010 C 
ATOM     14  C   UNL     1      -1.132  -3.677  -0.562  1.00  0.00     0.010 C 
ENDBRANCH  10  12
ENDBRANCH   4   6
ENDBRANCH   3   4
ENDBRANCH   2   3
ENDBRANCH   1   2
BRANCH   1  15
ATOM     15  O   UNL     1       3.419   3.670  -1.337  1.00  0.00    -0.458 OA
BRANCH  15  16
ATOM     16  C   UNL     1       2.344   3.155  -1.981  1.00  0.00     0.338 C 
ATOM     17  O   UNL     1       2.283   2.088  -2.569  1.00  0.00    -0.246 OA
BRANCH  16  18
ATOM     18  C   UNL     1       1.169   4.019  -1.773  1.00  0.00     0.060 A 
ATOM     19  C   UNL     1       0.084   3.475  -1.086  1.00  0.00     0.016 A 
ATOM     20  C   UNL     1       1.084   5.305  -2.309  1.00  0.00     0.016 A 
ATOM     21  C   UNL     1      -1.090   4.201  -0.922  1.00  0.00     0.010 A 
ATOM     22  C   UNL     1      -0.101   6.039  -2.149  1.00  0.00     0.010 A 
ATOM     23  C   UNL     1      -1.198   5.487  -1.461  1.00  0.00    -0.014 A 
BRANCH  23  24
ATOM     24  C   UNL     1      -2.485   6.213  -1.339  1.00  0.00     0.031 A 
ATOM     25  C   UNL     1      -3.393   6.334  -2.529  1.00  0.00     0.074 A 
ATOM     26  C   UNL     1      -2.866   6.711  -0.148  1.00  0.00     0.049 A 
ATOM     27  N   UNL     1      -4.540   6.957  -2.634  1.00  0.00    -0.248 NA
ATOM     28  C   UNL     1      -2.958   5.660  -3.763  1.00  0.00     0.031 C 
ATOM     29  C   UNL     1      -2.106   6.600   1.097  1.00  0.00     0.029 A 
ATOM     30  N   UNL     1      -3.997   7.401   0.209  1.00  0.00    -0.354 N 
ATOM     31  C   UNL     1      -4.953   6.770  -3.946  1.00  0.00     0.074 A 
ATOM     32  C   UNL     1      -3.931   5.984  -4.604  1.00  0.00     0.031 C 
ATOM     33  C   UNL     1      -2.797   7.194   2.085  1.00  0.00     0.029 A 
ATOM     34  C   UNL     1      -4.023   7.764   1.533  1.00  0.00     0.049 A 
ATOM     35  H   UNL     1      -4.721   7.615  -0.423  1.00  0.00     0.167 HD
ATOM     36  C   UNL     1      -6.082   7.214  -4.548  1.00  0.00     0.031 A 
ATOM     37  C   UNL     1      -4.922   8.494   2.220  1.00  0.00     0.031 A 
ATOM     38  C   UNL     1      -7.102   7.989  -3.895  1.00  0.00     0.049 A 
ATOM     39  C   UNL     1      -6.132   9.032   1.509  1.00  0.00     0.074 A 
ATOM     40  C   UNL     1      -8.282   8.484  -4.426  1.00  0.00     0.029 A 
ATOM     41  N   UNL     1      -7.066   8.380  -2.566  1.00  0.00    -0.354 N 
ATOM     42  N   UNL     1      -6.503   8.861   0.264  1.00  0.00    -0.248 NA
ATOM     43  C   UNL     1      -7.046   9.869   2.300  1.00  0.00     0.031 C 
ATOM     44  C   UNL     1      -8.940   9.211  -3.427  1.00  0.00     0.029 A 
ATOM     45  C   UNL     1      -8.191   9.128  -2.264  1.00  0.00     0.049 A 
ATOM     46  H   UNL     1      -6.347   8.159  -1.932  1.00  0.00     0.167 HD
ATOM     47  C   UNL     1      -7.700   9.551   0.127  1.00  0.00     0.074 A 
ATOM     48  C   UNL     1      -8.003  10.129   1.420  1.00  0.00     0.031 C 
ATOM     49  C   UNL     1      -8.478   9.695  -0.973  1.00  0.00     0.031 A 
BRANCH  36  50
ATOM     50  C   UNL     1      -6.254   6.903  -6.007  1.00  0.00    -0.014 A 
ATOM     51  C   UNL     1      -6.613   5.619  -6.443  1.00  0.00     0.009 A 
ATOM     52  C   UNL     1      -6.093   7.925  -6.956  1.00  0.00     0.009 A 
ATOM     53  C   UNL     1      -6.783   5.359  -7.804  1.00  0.00     0.001 A 
ATOM     54  C   UNL     1      -6.285   7.667  -8.314  1.00  0.00     0.001 A 
ATOM     55  C   UNL     1      -6.623   6.383  -8.738  1.00  0.00     0.000 A 
ENDBRANCH  36  50
BRANCH  37  56
ATOM     56  C   UNL     1      -4.695   8.796   3.657  1.00  0.00    -0.014 A 
ATOM     57  C   UNL     1      -5.507   8.223   4.647  1.00  0.00     0.009 A 
ATOM     58  C   UNL     1      -3.672   9.677   4.043  1.00  0.00     0.009 A 
ATOM     59  C   UNL     1      -5.313   8.545   5.993  1.00  0.00     0.001 A 
ATOM     60  C   UNL     1      -3.464   9.976   5.390  1.00  0.00     0.001 A 
ATOM     61  C   UNL     1      -4.290   9.417   6.363  1.00  0.00     0.000 A 
ENDBRANCH  37  56
BRANCH  49  62
ATOM     62  C   UNL     1      -9.745  10.484  -0.816  1.00  0.00    -0.014 A 
ATOM     63  C   UNL     1      -9.721  11.883  -0.719  1.00  0.00     0.009 A 
ATOM     64  C   UNL     1     -10.981   9.819  -0.800  1.00  0.00     0.009 A 
ATOM     65  C   UNL     1     -10.911  12.600  -0.580  1.00  0.00     0.001 A 
ATOM     66  C   UNL     1     -12.170  10.540  -0.685  1.00  0.00     0.001 A 
ATOM     67  C   UNL     1     -12.134  11.929  -0.567  1.00  0.00     0.000 A 
ENDBRANCH  49  62
ENDBRANCH  23  24
ENDBRANCH  16  18
ENDBRANCH  15  16
ENDBRANCH   1  15
TORSDOF 12
