REMARK SMILES C#CCNC(=O)[C@H](C)S(=O)(=O)c1ccc(C(=O)OCCOC(=O)c2ccc(-c3c4nc(c(-c5ccccc5)c5ccc([nH]5)c(-c5ccccc5)c5nc(c(-c6ccccc6)c6ccc3[nH]6)C=C5)C=C4)cc2)cc1F
REMARK SMILES IDX 18 1 16 2 17 3 15 4 12 5 13 6 73 7 14 8 72 9 74 10 9 11
REMARK SMILES IDX 10 12 11 13 7 14 8 15 5 16 4 17 6 19 3 20 2 21 1 22 19 23
REMARK SMILES IDX 20 24 21 25 22 26 23 27 24 28 25 29 71 30 26 31 70 32 27 33
REMARK SMILES IDX 28 34 29 35 64 36 30 37 69 38 63 39 65 40 31 41 68 42 62 43
REMARK SMILES IDX 61 44 32 46 54 47 39 48 53 49 40 50 43 51 52 52 66 53 41 54
REMARK SMILES IDX 42 55 51 57 67 58 44 59 33 60 34 61 38 62 35 63 37 64 36 65
REMARK SMILES IDX 55 66 56 67 60 68 57 69 59 70 58 71 45 72 46 73 50 74 47 75
REMARK SMILES IDX 49 76 48 77
REMARK H PARENT 4 18 65 45 43 56
REMARK Flexibility Score: inf
ROOT
ATOM      1  O   UNL     1      -1.496  -2.473  -4.296  1.00  0.00    -0.458 OA
ENDROOT
BRANCH   1   2
ATOM      2  C   UNL     1      -0.939  -1.490  -3.551  1.00  0.00     0.338 C 
ATOM      3  O   UNL     1       0.202  -1.068  -3.633  1.00  0.00    -0.246 OA
BRANCH   2   4
ATOM      4  C   UNL     1      -1.954  -0.873  -2.670  1.00  0.00     0.063 A 
ATOM      5  C   UNL     1      -3.763   0.399  -0.982  1.00  0.00     0.103 A 
ATOM      6  C   UNL     1      -2.845   1.158  -1.700  1.00  0.00     0.024 A 
ATOM      7  C   UNL     1      -3.811  -0.981  -1.142  1.00  0.00     0.142 A 
ATOM      8  C   UNL     1      -1.901   0.510  -2.475  1.00  0.00     0.017 A 
ATOM      9  C   UNL     1      -2.926  -1.623  -2.009  1.00  0.00     0.056 A 
ATOM     10  F   UNL     1      -4.672  -1.738  -0.453  1.00  0.00    -0.206 F 
BRANCH   5  11
ATOM     11  S   UNL     1      -4.827   1.253   0.126  1.00  0.00     0.192 S 
ATOM     12  O   UNL     1      -5.809   0.323   0.649  1.00  0.00    -0.223 OA
ATOM     13  O   UNL     1      -5.307   2.410  -0.608  1.00  0.00    -0.223 OA
BRANCH  11  14
ATOM     14  C   UNL     1      -3.787   1.780   1.490  1.00  0.00     0.199 C 
ATOM     15  C   UNL     1      -3.350   0.545   2.295  1.00  0.00     0.036 C 
BRANCH  14  16
ATOM     16  C   UNL     1      -2.552   2.568   1.074  1.00  0.00     0.239 C 
ATOM     17  N   UNL     1      -2.606   3.866   0.658  1.00  0.00    -0.344 N 
ATOM     18  H   UNL     1      -1.763   4.372   0.721  1.00  0.00     0.164 HD
ATOM     19  O   UNL     1      -1.421   2.080   1.173  1.00  0.00    -0.274 OA
BRANCH  17  20
ATOM     20  C   UNL     1      -3.738   4.597   0.138  1.00  0.00     0.206 C 
BRANCH  20  21
ATOM     21  C   UNL     1      -3.620   6.044   0.301  1.00  0.00    -0.085 C 
ATOM     22  C   UNL     1      -3.678   7.238   0.388  1.00  0.00     0.006 C 
ENDBRANCH  20  21
ENDBRANCH  17  20
ENDBRANCH  14  16
ENDBRANCH  11  14
ENDBRANCH   5  11
ENDBRANCH   2   4
ENDBRANCH   1   2
BRANCH   1  23
ATOM     23  C   UNL     1      -0.652  -3.033  -5.323  1.00  0.00     0.275 C 
BRANCH  23  24
ATOM     24  C   UNL     1      -0.994  -2.467  -6.704  1.00  0.00     0.275 C 
BRANCH  24  25
ATOM     25  O   UNL     1      -0.561  -1.099  -6.842  1.00  0.00    -0.458 OA
BRANCH  25  26
ATOM     26  C   UNL     1      -1.526  -0.178  -6.628  1.00  0.00     0.338 C 
ATOM     27  O   UNL     1      -2.693  -0.379  -6.335  1.00  0.00    -0.246 OA
BRANCH  26  28
ATOM     28  C   UNL     1      -0.968   1.180  -6.661  1.00  0.00     0.060 A 
ATOM     29  C   UNL     1      -0.531   1.702  -5.454  1.00  0.00     0.016 A 
ATOM     30  C   UNL     1      -1.089   2.008  -7.770  1.00  0.00     0.016 A 
ATOM     31  C   UNL     1      -0.396   3.072  -5.283  1.00  0.00     0.010 A 
ATOM     32  C   UNL     1      -0.776   3.370  -7.642  1.00  0.00     0.010 A 
ATOM     33  C   UNL     1      -0.473   3.931  -6.384  1.00  0.00    -0.014 A 
BRANCH  33  34
ATOM     34  C   UNL     1      -0.224   5.392  -6.206  1.00  0.00     0.031 A 
ATOM     35  C   UNL     1      -1.228   6.411  -6.687  1.00  0.00     0.074 A 
ATOM     36  C   UNL     1       0.906   5.815  -5.600  1.00  0.00     0.049 A 
ATOM     37  N   UNL     1      -1.113   7.714  -6.759  1.00  0.00    -0.248 NA
ATOM     38  C   UNL     1      -2.523   5.900  -7.165  1.00  0.00     0.031 C 
ATOM     39  C   UNL     1       1.948   4.949  -5.036  1.00  0.00     0.029 A 
ATOM     40  N   UNL     1       1.371   7.083  -5.347  1.00  0.00    -0.354 N 
ATOM     41  C   UNL     1      -2.293   8.171  -7.336  1.00  0.00     0.074 A 
ATOM     42  C   UNL     1      -3.103   7.004  -7.614  1.00  0.00     0.031 C 
ATOM     43  C   UNL     1       2.895   5.705  -4.465  1.00  0.00     0.029 A 
ATOM     44  C   UNL     1       2.598   7.105  -4.725  1.00  0.00     0.049 A 
ATOM     45  H   UNL     1       0.874   7.898  -5.588  1.00  0.00     0.167 HD
ATOM     46  C   UNL     1      -2.667   9.444  -7.611  1.00  0.00     0.031 A 
ATOM     47  C   UNL     1       3.429   8.125  -4.443  1.00  0.00     0.031 A 
ATOM     48  C   UNL     1      -1.864  10.604  -7.317  1.00  0.00     0.049 A 
ATOM     49  C   UNL     1       3.030   9.515  -4.840  1.00  0.00     0.074 A 
ATOM     50  C   UNL     1      -2.162  11.938  -7.543  1.00  0.00     0.029 A 
ATOM     51  N   UNL     1      -0.606  10.570  -6.736  1.00  0.00    -0.354 N 
ATOM     52  N   UNL     1       1.919   9.928  -5.399  1.00  0.00    -0.248 NA
ATOM     53  C   UNL     1       4.005  10.581  -4.573  1.00  0.00     0.031 C 
ATOM     54  C   UNL     1      -1.054  12.703  -7.167  1.00  0.00     0.029 A 
ATOM     55  C   UNL     1      -0.099  11.855  -6.629  1.00  0.00     0.049 A 
ATOM     56  H   UNL     1      -0.141   9.753  -6.443  1.00  0.00     0.167 HD
ATOM     57  C   UNL     1       2.050  11.303  -5.527  1.00  0.00     0.074 A 
ATOM     58  C   UNL     1       3.336  11.656  -4.962  1.00  0.00     0.031 C 
ATOM     59  C   UNL     1       1.183  12.194  -6.066  1.00  0.00     0.031 A 
BRANCH  46  60
ATOM     60  C   UNL     1      -3.986   9.653  -8.310  1.00  0.00    -0.014 A 
ATOM     61  C   UNL     1      -5.212   9.396  -7.675  1.00  0.00     0.009 A 
ATOM     62  C   UNL     1      -3.999  10.155  -9.623  1.00  0.00     0.009 A 
ATOM     63  C   UNL     1      -6.417   9.598  -8.354  1.00  0.00     0.001 A 
ATOM     64  C   UNL     1      -5.205  10.390 -10.285  1.00  0.00     0.001 A 
ATOM     65  C   UNL     1      -6.413  10.100  -9.655  1.00  0.00     0.000 A 
ENDBRANCH  46  60
BRANCH  47  66
ATOM     66  C   UNL     1       4.750   7.862  -3.808  1.00  0.00    -0.014 A 
ATOM     67  C   UNL     1       5.038   8.351  -2.525  1.00  0.00     0.009 A 
ATOM     68  C   UNL     1       5.738   7.130  -4.488  1.00  0.00     0.009 A 
ATOM     69  C   UNL     1       6.295   8.141  -1.952  1.00  0.00     0.001 A 
ATOM     70  C   UNL     1       6.979   6.885  -3.897  1.00  0.00     0.001 A 
ATOM     71  C   UNL     1       7.261   7.402  -2.635  1.00  0.00     0.000 A 
ENDBRANCH  47  66
BRANCH  59  72
ATOM     72  C   UNL     1       1.577  13.645  -6.025  1.00  0.00    -0.014 A 
ATOM     73  C   UNL     1       2.631  14.143  -6.807  1.00  0.00     0.009 A 
ATOM     74  C   UNL     1       0.858  14.533  -5.209  1.00  0.00     0.009 A 
ATOM     75  C   UNL     1       2.982  15.493  -6.740  1.00  0.00     0.001 A 
ATOM     76  C   UNL     1       1.186  15.889  -5.174  1.00  0.00     0.001 A 
ATOM     77  C   UNL     1       2.256  16.365  -5.930  1.00  0.00     0.000 A 
ENDBRANCH  59  72
ENDBRANCH  33  34
ENDBRANCH  26  28
ENDBRANCH  25  26
ENDBRANCH  24  25
ENDBRANCH  23  24
ENDBRANCH   1  23
TORSDOF 16
