REMARK SMILES C[C@@H](C(=O)OCCOC(=O)c1ccc(-c2c3nc(c(-c4ccccc4)c4ccc([nH]4)c(-c4ccccc4)c4nc(c(-c5ccccc5)c5ccc2[nH]5)C=C4)C=C3)cc1)c1ccc(C[C@H]2CCCC2=O)c(-c2ccccc2)c1
REMARK SMILES IDX 6 1 5 2 3 3 4 4 2 5 1 6 59 7 60 8 77 9 61 10 70 11 62 12
REMARK SMILES IDX 71 13 72 14 76 15 73 16 75 17 74 18 63 19 64 20 65 21 68 22
REMARK SMILES IDX 66 23 67 24 69 25 7 26 8 27 9 28 10 29 11 30 12 31 58 32
REMARK SMILES IDX 13 33 57 34 14 35 15 36 16 37 51 38 17 39 56 40 50 41 52 42
REMARK SMILES IDX 18 43 55 44 49 45 48 46 19 48 41 49 26 50 40 51 27 52 30 53
REMARK SMILES IDX 39 54 53 55 28 56 29 57 38 59 54 60 31 61 20 62 21 63 25 64
REMARK SMILES IDX 22 65 24 66 23 67 42 68 43 69 47 70 44 71 46 72 45 73 32 74
REMARK SMILES IDX 33 75 37 76 34 77 36 78 35 79
REMARK H PARENT 52 47 30 58
REMARK Flexibility Score: inf
ROOT
ATOM      1  C   UNL     1       2.345   1.225   3.616  1.00  0.00     0.274 C 
ENDROOT
BRANCH   1   2
ATOM      2  O   UNL     1       1.948   0.561   2.394  1.00  0.00    -0.462 OA
BRANCH   2   3
ATOM      3  C   UNL     1       0.793  -0.166   2.424  1.00  0.00     0.313 C 
ATOM      4  O   UNL     1       0.065  -0.252   3.406  1.00  0.00    -0.252 OA
BRANCH   3   5
ATOM      5  C   UNL     1       0.577  -0.945   1.109  1.00  0.00     0.126 C 
ATOM      6  C   UNL     1       1.175  -0.221  -0.103  1.00  0.00     0.025 C 
BRANCH   5   7
ATOM      7  C   UNL     1      -0.899  -1.293   0.905  1.00  0.00    -0.033 A 
ATOM      8  C   UNL     1      -1.821  -0.322   0.504  1.00  0.00     0.005 A 
ATOM      9  C   UNL     1      -1.385  -2.585   1.196  1.00  0.00     0.013 A 
ATOM     10  C   UNL     1      -3.191  -0.583   0.551  1.00  0.00     0.004 A 
ATOM     11  C   UNL     1      -2.766  -2.889   1.188  1.00  0.00    -0.015 A 
ATOM     12  C   UNL     1      -3.686  -1.833   0.970  1.00  0.00    -0.039 A 
BRANCH  11  13
ATOM     13  C   UNL     1      -3.245  -4.265   1.435  1.00  0.00    -0.018 A 
ATOM     14  C   UNL     1      -4.159  -4.859   0.545  1.00  0.00     0.009 A 
ATOM     15  C   UNL     1      -2.954  -4.943   2.628  1.00  0.00     0.009 A 
ATOM     16  C   UNL     1      -4.900  -5.980   0.915  1.00  0.00     0.001 A 
ATOM     17  C   UNL     1      -3.688  -6.075   2.996  1.00  0.00     0.001 A 
ATOM     18  C   UNL     1      -4.685  -6.569   2.156  1.00  0.00     0.000 A 
ENDBRANCH  11  13
BRANCH  12  19
ATOM     19  C   UNL     1      -5.189  -1.950   1.253  1.00  0.00     0.047 C 
BRANCH  19  20
ATOM     20  C   UNL     1      -5.666  -1.653   2.694  1.00  0.00     0.060 C 
ATOM     21  C   UNL     1      -5.108  -2.465   3.862  1.00  0.00     0.012 C 
ATOM     22  C   UNL     1      -5.221  -0.275   3.035  1.00  0.00     0.136 C 
ATOM     23  C   UNL     1      -4.407  -1.510   4.825  1.00  0.00     0.009 C 
ATOM     24  C   UNL     1      -4.082  -0.274   4.019  1.00  0.00     0.076 C 
ATOM     25  O   UNL     1      -5.671   0.692   2.438  1.00  0.00    -0.299 OA
ENDBRANCH  19  20
ENDBRANCH  12  19
ENDBRANCH   5   7
ENDBRANCH   3   5
ENDBRANCH   2   3
ENDBRANCH   1   2
BRANCH   1  26
ATOM     26  C   UNL     1       2.050   2.724   3.551  1.00  0.00     0.275 C 
BRANCH  26  27
ATOM     27  O   UNL     1       0.638   2.938   3.723  1.00  0.00    -0.458 OA
BRANCH  27  28
ATOM     28  C   UNL     1       0.074   3.886   2.939  1.00  0.00     0.338 C 
ATOM     29  O   UNL     1       0.623   4.611   2.132  1.00  0.00    -0.246 OA
BRANCH  28  30
ATOM     30  C   UNL     1      -1.385   3.838   3.135  1.00  0.00     0.060 A 
ATOM     31  C   UNL     1      -2.058   2.756   2.593  1.00  0.00     0.016 A 
ATOM     32  C   UNL     1      -2.105   4.875   3.739  1.00  0.00     0.016 A 
ATOM     33  C   UNL     1      -3.447   2.728   2.634  1.00  0.00     0.010 A 
ATOM     34  C   UNL     1      -3.513   4.799   3.838  1.00  0.00     0.010 A 
ATOM     35  C   UNL     1      -4.205   3.713   3.287  1.00  0.00    -0.014 A 
BRANCH  35  36
ATOM     36  C   UNL     1      -5.700   3.579   3.279  1.00  0.00     0.031 A 
ATOM     37  C   UNL     1      -6.461   3.913   2.021  1.00  0.00     0.074 A 
ATOM     38  C   UNL     1      -6.359   2.920   4.260  1.00  0.00     0.049 A 
ATOM     39  N   UNL     1      -7.733   3.749   1.747  1.00  0.00    -0.248 NA
ATOM     40  C   UNL     1      -5.684   4.520   0.929  1.00  0.00     0.031 C 
ATOM     41  C   UNL     1      -5.747   2.365   5.462  1.00  0.00     0.029 A 
ATOM     42  N   UNL     1      -7.660   2.446   4.304  1.00  0.00    -0.354 N 
ATOM     43  C   UNL     1      -7.919   4.282   0.479  1.00  0.00     0.074 A 
ATOM     44  C   UNL     1      -6.621   4.722   0.013  1.00  0.00     0.031 C 
ATOM     45  C   UNL     1      -6.590   1.465   6.002  1.00  0.00     0.029 A 
ATOM     46  C   UNL     1      -7.843   1.453   5.246  1.00  0.00     0.049 A 
ATOM     47  H   UNL     1      -8.380   2.783   3.723  1.00  0.00     0.167 HD
ATOM     48  C   UNL     1      -9.073   4.451  -0.210  1.00  0.00     0.031 A 
ATOM     49  C   UNL     1      -8.877   0.607   5.447  1.00  0.00     0.031 A 
ATOM     50  C   UNL     1     -10.370   4.017   0.231  1.00  0.00     0.049 A 
ATOM     51  C   UNL     1     -10.164   0.808   4.684  1.00  0.00     0.074 A 
ATOM     52  C   UNL     1     -11.614   4.313  -0.302  1.00  0.00     0.029 A 
ATOM     53  N   UNL     1     -10.587   3.161   1.295  1.00  0.00    -0.354 N 
ATOM     54  N   UNL     1     -10.392   1.502   3.599  1.00  0.00    -0.248 NA
ATOM     55  C   UNL     1     -11.364   0.147   5.233  1.00  0.00     0.031 C 
ATOM     56  C   UNL     1     -12.589   3.659   0.462  1.00  0.00     0.029 A 
ATOM     57  C   UNL     1     -11.944   2.924   1.441  1.00  0.00     0.049 A 
ATOM     58  H   UNL     1      -9.881   2.777   1.864  1.00  0.00     0.167 HD
ATOM     59  C   UNL     1     -11.761   1.410   3.372  1.00  0.00     0.074 A 
ATOM     60  C   UNL     1     -12.302   0.518   4.372  1.00  0.00     0.031 C 
ATOM     61  C   UNL     1     -12.504   2.059   2.444  1.00  0.00     0.031 A 
BRANCH  48  62
ATOM     62  C   UNL     1      -8.995   5.290  -1.448  1.00  0.00    -0.014 A 
ATOM     63  C   UNL     1      -8.569   4.773  -2.677  1.00  0.00     0.009 A 
ATOM     64  C   UNL     1      -9.361   6.644  -1.359  1.00  0.00     0.009 A 
ATOM     65  C   UNL     1      -8.489   5.609  -3.794  1.00  0.00     0.001 A 
ATOM     66  C   UNL     1      -9.298   7.470  -2.478  1.00  0.00     0.001 A 
ATOM     67  C   UNL     1      -8.854   6.953  -3.694  1.00  0.00     0.000 A 
ENDBRANCH  48  62
BRANCH  49  68
ATOM     68  C   UNL     1      -8.813  -0.509   6.436  1.00  0.00    -0.014 A 
ATOM     69  C   UNL     1      -9.006  -1.836   6.005  1.00  0.00     0.009 A 
ATOM     70  C   UNL     1      -8.680  -0.266   7.810  1.00  0.00     0.009 A 
ATOM     71  C   UNL     1      -9.093  -2.883   6.927  1.00  0.00     0.001 A 
ATOM     72  C   UNL     1      -8.732  -1.319   8.728  1.00  0.00     0.001 A 
ATOM     73  C   UNL     1      -8.952  -2.624   8.288  1.00  0.00     0.000 A 
ENDBRANCH  49  68
BRANCH  61  74
ATOM     74  C   UNL     1     -13.998   1.898   2.506  1.00  0.00    -0.014 A 
ATOM     75  C   UNL     1     -14.732   2.500   3.543  1.00  0.00     0.009 A 
ATOM     76  C   UNL     1     -14.688   1.200   1.505  1.00  0.00     0.009 A 
ATOM     77  C   UNL     1     -16.122   2.384   3.591  1.00  0.00     0.001 A 
ATOM     78  C   UNL     1     -16.082   1.103   1.544  1.00  0.00     0.001 A 
ATOM     79  C   UNL     1     -16.797   1.689   2.589  1.00  0.00     0.000 A 
ENDBRANCH  61  74
ENDBRANCH  35  36
ENDBRANCH  28  30
ENDBRANCH  27  28
ENDBRANCH  26  27
ENDBRANCH   1  26
TORSDOF 15
