REMARK SMILES O=C(OCCOC(=O)[C@@H]1CCC[C@@H](C(=O)N2CCN3C(=O)NC[C@@H]3C2)C1)c1ccc(-c2c3nc(c(-c4ccccc4)c4ccc([nH]4)c(-c4ccccc4)c4nc(c(-c5ccccc5)c5ccc2[nH]5)C=C4)C=C3)cc1
REMARK SMILES IDX 4 1 3 2 2 3 1 4 27 5 28 6 74 7 29 8 73 9 30 10 31 11 32 12
REMARK SMILES IDX 67 13 33 14 72 15 66 16 68 17 34 18 71 19 65 20 64 21 35 23
REMARK SMILES IDX 57 24 42 25 56 26 43 27 46 28 55 29 69 30 44 31 45 32 54 34
REMARK SMILES IDX 70 35 47 36 36 37 37 38 41 39 38 40 40 41 39 42 58 43 59 44
REMARK SMILES IDX 63 45 60 46 62 47 61 48 48 49 49 50 53 51 50 52 52 53 51 54
REMARK SMILES IDX 5 55 6 56 7 57 8 58 9 59 10 60 26 61 11 62 13 63 12 64 14 65
REMARK SMILES IDX 15 66 16 67 17 68 25 69 18 70 24 71 19 72 23 73 20 74 22 75
REMARK SMILES IDX 21 76
REMARK H PARENT 68 22 46 33 22 77
REMARK Flexibility Score: inf
ROOT
ATOM      1  C   UNL     1       4.203   0.368  -1.679  1.00  0.00     0.275 C 
ENDROOT
BRANCH   1   2
ATOM      2  O   UNL     1       3.258  -0.570  -1.159  1.00  0.00    -0.458 OA
BRANCH   2   3
ATOM      3  C   UNL     1       3.225  -1.158   0.054  1.00  0.00     0.338 C 
ATOM      4  O   UNL     1       2.268  -1.892   0.306  1.00  0.00    -0.246 OA
BRANCH   3   5
ATOM      5  C   UNL     1       4.201  -0.886   1.168  1.00  0.00     0.060 A 
ATOM      6  C   UNL     1       5.388  -0.145   1.127  1.00  0.00     0.016 A 
ATOM      7  C   UNL     1       3.777  -1.332   2.427  1.00  0.00     0.016 A 
ATOM      8  C   UNL     1       6.035   0.276   2.300  1.00  0.00     0.010 A 
ATOM      9  C   UNL     1       4.364  -0.848   3.595  1.00  0.00     0.010 A 
ATOM     10  C   UNL     1       5.492  -0.014   3.546  1.00  0.00    -0.014 A 
BRANCH  10  11
ATOM     11  C   UNL     1       6.113   0.463   4.809  1.00  0.00     0.031 A 
ATOM     12  C   UNL     1       6.528  -0.578   5.808  1.00  0.00     0.074 A 
ATOM     13  C   UNL     1       6.245   1.776   5.102  1.00  0.00     0.049 A 
ATOM     14  N   UNL     1       7.003  -0.425   7.014  1.00  0.00    -0.248 NA
ATOM     15  C   UNL     1       6.357  -1.987   5.403  1.00  0.00     0.031 C 
ATOM     16  C   UNL     1       5.885   2.899   4.232  1.00  0.00     0.029 A 
ATOM     17  N   UNL     1       6.681   2.393   6.251  1.00  0.00    -0.354 N 
ATOM     18  C   UNL     1       7.209  -1.714   7.481  1.00  0.00     0.074 A 
ATOM     19  C   UNL     1       6.627  -2.623   6.526  1.00  0.00     0.031 C 
ATOM     20  C   UNL     1       6.045   4.057   4.901  1.00  0.00     0.029 A 
ATOM     21  C   UNL     1       6.547   3.765   6.237  1.00  0.00     0.049 A 
ATOM     22  H   UNL     1       7.056   1.900   7.016  1.00  0.00     0.167 HD
ATOM     23  C   UNL     1       7.937  -2.123   8.543  1.00  0.00     0.031 A 
ATOM     24  C   UNL     1       6.808   4.677   7.195  1.00  0.00     0.031 A 
ATOM     25  C   UNL     1       8.542  -1.222   9.473  1.00  0.00     0.049 A 
ATOM     26  C   UNL     1       7.476   4.206   8.462  1.00  0.00     0.074 A 
ATOM     27  C   UNL     1       9.351  -1.508  10.554  1.00  0.00     0.029 A 
ATOM     28  N   UNL     1       8.390   0.155   9.426  1.00  0.00    -0.354 N 
ATOM     29  N   UNL     1       7.797   2.986   8.820  1.00  0.00    -0.248 NA
ATOM     30  C   UNL     1       7.888   5.242   9.420  1.00  0.00     0.031 C 
ATOM     31  C   UNL     1       9.643  -0.301  11.198  1.00  0.00     0.029 A 
ATOM     32  C   UNL     1       9.066   0.737  10.479  1.00  0.00     0.049 A 
ATOM     33  H   UNL     1       7.877   0.645   8.743  1.00  0.00     0.167 HD
ATOM     34  C   UNL     1       8.523   3.115   9.998  1.00  0.00     0.074 A 
ATOM     35  C   UNL     1       8.573   4.530  10.304  1.00  0.00     0.031 C 
ATOM     36  C   UNL     1       9.120   2.152  10.743  1.00  0.00     0.031 A 
BRANCH  23  37
ATOM     37  C   UNL     1       8.134  -3.605   8.672  1.00  0.00    -0.014 A 
ATOM     38  C   UNL     1       8.875  -4.313   7.705  1.00  0.00     0.009 A 
ATOM     39  C   UNL     1       7.503  -4.315   9.699  1.00  0.00     0.009 A 
ATOM     40  C   UNL     1       8.911  -5.707   7.720  1.00  0.00     0.001 A 
ATOM     41  C   UNL     1       7.575  -5.709   9.734  1.00  0.00     0.001 A 
ATOM     42  C   UNL     1       8.260  -6.404   8.735  1.00  0.00     0.000 A 
ENDBRANCH  23  37
BRANCH  24  43
ATOM     43  C   UNL     1       6.523   6.127   6.992  1.00  0.00    -0.014 A 
ATOM     44  C   UNL     1       7.570   7.040   6.785  1.00  0.00     0.009 A 
ATOM     45  C   UNL     1       5.211   6.619   7.077  1.00  0.00     0.009 A 
ATOM     46  C   UNL     1       7.317   8.414   6.716  1.00  0.00     0.001 A 
ATOM     47  C   UNL     1       4.958   7.993   6.986  1.00  0.00     0.001 A 
ATOM     48  C   UNL     1       6.011   8.890   6.819  1.00  0.00     0.000 A 
ENDBRANCH  24  43
BRANCH  36  49
ATOM     49  C   UNL     1       9.949   2.597  11.913  1.00  0.00    -0.014 A 
ATOM     50  C   UNL     1       9.363   3.112  13.077  1.00  0.00     0.009 A 
ATOM     51  C   UNL     1      11.342   2.419  11.867  1.00  0.00     0.009 A 
ATOM     52  C   UNL     1      10.162   3.465  14.166  1.00  0.00     0.001 A 
ATOM     53  C   UNL     1      12.132   2.736  12.970  1.00  0.00     0.001 A 
ATOM     54  C   UNL     1      11.542   3.267  14.115  1.00  0.00     0.000 A 
ENDBRANCH  36  49
ENDBRANCH  10  11
ENDBRANCH   3   5
ENDBRANCH   2   3
ENDBRANCH   1   2
BRANCH   1  55
ATOM     55  C   UNL     1       3.952   1.818  -1.241  1.00  0.00     0.274 C 
BRANCH  55  56
ATOM     56  O   UNL     1       3.546   1.984   0.139  1.00  0.00    -0.462 OA
BRANCH  56  57
ATOM     57  C   UNL     1       2.243   2.344   0.348  1.00  0.00     0.309 C 
ATOM     58  O   UNL     1       1.414   2.467  -0.547  1.00  0.00    -0.252 OA
BRANCH  57  59
ATOM     59  C   UNL     1       1.907   2.631   1.817  1.00  0.00     0.100 C 
ATOM     60  C   UNL     1       2.535   3.929   2.311  1.00  0.00     0.015 C 
ATOM     61  C   UNL     1       2.311   1.494   2.745  1.00  0.00     0.028 C 
ATOM     62  C   UNL     1       2.099   4.223   3.747  1.00  0.00     0.002 C 
ATOM     63  C   UNL     1       1.981   1.686   4.240  1.00  0.00     0.079 C 
ATOM     64  C   UNL     1       2.377   3.083   4.733  1.00  0.00     0.013 C 
BRANCH  63  65
ATOM     65  C   UNL     1       0.512   1.389   4.506  1.00  0.00     0.225 C 
ATOM     66  O   UNL     1      -0.290   2.268   4.819  1.00  0.00    -0.275 OA
BRANCH  65  67
ATOM     67  N   UNL     1       0.084   0.124   4.168  1.00  0.00    -0.339 N 
ATOM     68  C   UNL     1       0.651  -1.159   4.626  1.00  0.00     0.141 C 
ATOM     69  C   UNL     1      -0.998   0.052   3.200  1.00  0.00     0.146 C 
ATOM     70  C   UNL     1      -0.397  -2.292   4.844  1.00  0.00     0.143 C 
ATOM     71  C   UNL     1      -2.112  -0.792   3.763  1.00  0.00     0.125 C 
ATOM     72  N   UNL     1      -1.618  -2.118   4.073  1.00  0.00    -0.317 N 
ATOM     73  C   UNL     1      -3.243  -1.058   2.787  1.00  0.00     0.144 C 
ATOM     74  C   UNL     1      -2.569  -3.077   3.763  1.00  0.00     0.317 C 
ATOM     75  N   UNL     1      -3.582  -2.430   3.059  1.00  0.00    -0.336 N 
ATOM     76  O   UNL     1      -2.549  -4.258   4.037  1.00  0.00    -0.249 OA
ATOM     77  H   UNL     1      -4.424  -2.858   2.782  1.00  0.00     0.165 HD
ENDBRANCH  65  67
ENDBRANCH  63  65
ENDBRANCH  57  59
ENDBRANCH  56  57
ENDBRANCH  55  56
ENDBRANCH   1  55
TORSDOF 13
