REMARK SMILES O=C(OCCOC(=O)c1ccc(-c2c3nc(c(-c4ccccc4)c4ccc([nH]4)c(-c4ccccc4)c4nc(c(-c5ccccc5)c5ccc2[nH]5)C=C4)C=C3)cc1)c1ccc(NC(=O)[C@@H]2CC=CC[C@H]2C(=O)Nc2cccc([N+](=O)[O-])c2)cc1
REMARK SMILES IDX 3 1 2 2 1 3 57 4 58 5 83 6 59 7 82 8 60 9 61 10 62 11 63 13
REMARK SMILES IDX 64 14 65 15 69 16 66 17 68 18 67 19 70 20 71 21 72 22 73 24
REMARK SMILES IDX 74 25 81 26 75 27 77 28 76 29 78 30 79 31 80 32 4 33 5 34
REMARK SMILES IDX 6 35 7 36 8 37 9 38 10 39 56 40 11 41 55 42 12 43 13 44
REMARK SMILES IDX 14 45 49 46 15 47 54 48 48 49 50 50 16 51 53 52 47 53 46 54
REMARK SMILES IDX 17 56 39 57 24 58 38 59 25 60 28 61 37 62 51 63 26 64 27 65
REMARK SMILES IDX 36 67 52 68 29 69 18 70 19 71 23 72 20 73 22 74 21 75 40 76
REMARK SMILES IDX 41 77 45 78 42 79 44 80 43 81 30 82 31 83 35 84 32 85 34 86
REMARK SMILES IDX 33 87
REMARK H PARENT 61 12 72 23 50 55 28 66
REMARK Flexibility Score: inf
ROOT
ATOM      1  O   UNL     1       4.633  -3.037  -8.163  1.00  0.00    -0.458 OA
ENDROOT
BRANCH   1   2
ATOM      2  C   UNL     1       4.119  -2.177  -7.246  1.00  0.00     0.338 C 
ATOM      3  O   UNL     1       3.365  -1.283  -7.628  1.00  0.00    -0.246 OA
BRANCH   2   4
ATOM      4  C   UNL     1       4.365  -2.277  -5.770  1.00  0.00     0.060 A 
ATOM      5  C   UNL     1       5.559  -2.692  -5.210  1.00  0.00     0.018 A 
ATOM      6  C   UNL     1       3.397  -1.766  -4.885  1.00  0.00     0.018 A 
ATOM      7  C   UNL     1       5.789  -2.580  -3.841  1.00  0.00     0.027 A 
ATOM      8  C   UNL     1       3.622  -1.706  -3.488  1.00  0.00     0.027 A 
ATOM      9  C   UNL     1       4.829  -2.141  -2.950  1.00  0.00     0.041 A 
BRANCH   9  10
ATOM     10  N   UNL     1       5.119  -2.022  -1.574  1.00  0.00    -0.326 N 
ATOM     11  C   UNL     1       6.067  -2.675  -0.799  1.00  0.00     0.228 C 
ATOM     12  H   UNL     1       4.560  -1.374  -1.087  1.00  0.00     0.169 HD
ATOM     13  O   UNL     1       6.381  -2.200   0.293  1.00  0.00    -0.274 OA
BRANCH  11  14
ATOM     14  C   UNL     1       6.545  -4.077  -1.216  1.00  0.00     0.095 C 
ATOM     15  C   UNL     1       5.945  -5.093  -0.223  1.00  0.00     0.041 C 
ATOM     16  C   UNL     1       8.078  -4.260  -1.362  1.00  0.00     0.095 C 
ATOM     17  C   UNL     1       6.383  -6.493  -0.534  1.00  0.00    -0.030 C 
ATOM     18  C   UNL     1       8.651  -5.660  -1.034  1.00  0.00     0.041 C 
ATOM     19  C   UNL     1       7.637  -6.750  -0.921  1.00  0.00    -0.030 C 
BRANCH  16  20
ATOM     20  C   UNL     1       8.741  -3.807  -2.667  1.00  0.00     0.228 C 
ATOM     21  O   UNL     1       9.381  -2.745  -2.650  1.00  0.00    -0.274 OA
ATOM     22  N   UNL     1       8.797  -4.500  -3.845  1.00  0.00    -0.326 N 
ATOM     23  H   UNL     1       9.540  -4.187  -4.410  1.00  0.00     0.169 HD
BRANCH  22  24
ATOM     24  C   UNL     1       8.082  -5.542  -4.469  1.00  0.00     0.048 A 
ATOM     25  C   UNL     1       8.675  -6.166  -5.574  1.00  0.00     0.026 A 
ATOM     26  C   UNL     1       6.777  -5.899  -4.167  1.00  0.00     0.111 A 
ATOM     27  C   UNL     1       7.985  -7.130  -6.328  1.00  0.00     0.009 A 
ATOM     28  C   UNL     1       6.054  -6.807  -4.952  1.00  0.00     0.271 A 
ATOM     29  C   UNL     1       6.661  -7.446  -6.029  1.00  0.00     0.086 A 
BRANCH  28  30
ATOM     30  N   UNL     1       4.621  -7.001  -4.678  1.00  0.00     0.062 N 
ATOM     31  O   UNL     1       3.973  -7.686  -5.480  1.00  0.00    -0.258 OA
ATOM     32  O   UNL     1       4.140  -6.436  -3.686  1.00  0.00    -0.258 OA
ENDBRANCH  28  30
ENDBRANCH  22  24
ENDBRANCH  16  20
ENDBRANCH  11  14
ENDBRANCH   9  10
ENDBRANCH   2   4
ENDBRANCH   1   2
BRANCH   1  33
ATOM     33  C   UNL     1       5.724  -3.972  -8.023  1.00  0.00     0.275 C 
BRANCH  33  34
ATOM     34  C   UNL     1       7.073  -3.307  -8.344  1.00  0.00     0.275 C 
BRANCH  34  35
ATOM     35  O   UNL     1       7.096  -1.970  -7.808  1.00  0.00    -0.458 OA
BRANCH  35  36
ATOM     36  C   UNL     1       8.237  -1.575  -7.192  1.00  0.00     0.338 C 
ATOM     37  O   UNL     1       9.306  -2.145  -7.221  1.00  0.00    -0.246 OA
BRANCH  36  38
ATOM     38  C   UNL     1       7.862  -0.532  -6.199  1.00  0.00     0.060 A 
ATOM     39  C   UNL     1       6.911   0.468  -6.433  1.00  0.00     0.016 A 
ATOM     40  C   UNL     1       8.390  -0.692  -4.918  1.00  0.00     0.016 A 
ATOM     41  C   UNL     1       6.524   1.328  -5.389  1.00  0.00     0.010 A 
ATOM     42  C   UNL     1       7.929   0.096  -3.865  1.00  0.00     0.010 A 
ATOM     43  C   UNL     1       7.036   1.157  -4.093  1.00  0.00    -0.014 A 
BRANCH  43  44
ATOM     44  C   UNL     1       6.795   2.132  -2.988  1.00  0.00     0.031 A 
ATOM     45  C   UNL     1       7.978   2.878  -2.413  1.00  0.00     0.074 A 
ATOM     46  C   UNL     1       5.582   2.321  -2.432  1.00  0.00     0.049 A 
ATOM     47  N   UNL     1       8.028   3.715  -1.407  1.00  0.00    -0.248 NA
ATOM     48  C   UNL     1       9.284   2.626  -3.045  1.00  0.00     0.031 C 
ATOM     49  C   UNL     1       4.339   1.682  -2.852  1.00  0.00     0.029 A 
ATOM     50  N   UNL     1       5.207   3.098  -1.358  1.00  0.00    -0.354 N 
ATOM     51  C   UNL     1       9.367   4.059  -1.274  1.00  0.00     0.074 A 
ATOM     52  C   UNL     1      10.104   3.284  -2.244  1.00  0.00     0.031 C 
ATOM     53  C   UNL     1       3.347   2.059  -2.026  1.00  0.00     0.029 A 
ATOM     54  C   UNL     1       3.881   2.974  -1.019  1.00  0.00     0.049 A 
ATOM     55  H   UNL     1       5.831   3.688  -0.878  1.00  0.00     0.167 HD
ATOM     56  C   UNL     1       9.944   4.968  -0.452  1.00  0.00     0.031 A 
ATOM     57  C   UNL     1       3.171   3.532  -0.017  1.00  0.00     0.031 A 
ATOM     58  C   UNL     1       9.231   5.763   0.505  1.00  0.00     0.049 A 
ATOM     59  C   UNL     1       3.824   4.525   0.909  1.00  0.00     0.074 A 
ATOM     60  C   UNL     1       9.715   6.775   1.315  1.00  0.00     0.029 A 
ATOM     61  N   UNL     1       7.883   5.626   0.791  1.00  0.00    -0.354 N 
ATOM     62  N   UNL     1       5.069   4.933   0.938  1.00  0.00    -0.248 NA
ATOM     63  C   UNL     1       2.962   5.163   1.918  1.00  0.00     0.031 C 
ATOM     64  C   UNL     1       8.669   7.213   2.133  1.00  0.00     0.029 A 
ATOM     65  C   UNL     1       7.523   6.514   1.789  1.00  0.00     0.049 A 
ATOM     66  H   UNL     1       7.273   4.992   0.350  1.00  0.00     0.167 HD
ATOM     67  C   UNL     1       5.130   5.903   1.932  1.00  0.00     0.074 A 
ATOM     68  C   UNL     1       3.799   6.022   2.487  1.00  0.00     0.031 C 
ATOM     69  C   UNL     1       6.196   6.639   2.333  1.00  0.00     0.031 A 
BRANCH  56  70
ATOM     70  C   UNL     1      11.433   5.136  -0.569  1.00  0.00    -0.014 A 
ATOM     71  C   UNL     1      12.016   5.687  -1.722  1.00  0.00     0.009 A 
ATOM     72  C   UNL     1      12.266   4.714   0.478  1.00  0.00     0.009 A 
ATOM     73  C   UNL     1      13.404   5.751  -1.852  1.00  0.00     0.001 A 
ATOM     74  C   UNL     1      13.653   4.814   0.361  1.00  0.00     0.001 A 
ATOM     75  C   UNL     1      14.221   5.316  -0.809  1.00  0.00     0.000 A 
ENDBRANCH  56  70
BRANCH  57  76
ATOM     76  C   UNL     1       1.732   3.192   0.145  1.00  0.00    -0.014 A 
ATOM     77  C   UNL     1       0.734   4.105  -0.227  1.00  0.00     0.009 A 
ATOM     78  C   UNL     1       1.352   1.949   0.676  1.00  0.00     0.009 A 
ATOM     79  C   UNL     1      -0.616   3.788  -0.054  1.00  0.00     0.001 A 
ATOM     80  C   UNL     1       0.001   1.627   0.827  1.00  0.00     0.001 A 
ATOM     81  C   UNL     1      -0.982   2.548   0.467  1.00  0.00     0.000 A 
ENDBRANCH  57  76
BRANCH  69  82
ATOM     82  C   UNL     1       5.977   7.682   3.393  1.00  0.00    -0.014 A 
ATOM     83  C   UNL     1       5.787   7.334   4.738  1.00  0.00     0.009 A 
ATOM     84  C   UNL     1       6.056   9.042   3.048  1.00  0.00     0.009 A 
ATOM     85  C   UNL     1       5.664   8.327   5.714  1.00  0.00     0.001 A 
ATOM     86  C   UNL     1       5.960  10.031   4.028  1.00  0.00     0.001 A 
ATOM     87  C   UNL     1       5.759   9.673   5.359  1.00  0.00     0.000 A 
ENDBRANCH  69  82
ENDBRANCH  43  44
ENDBRANCH  36  38
ENDBRANCH  35  36
ENDBRANCH  34  35
ENDBRANCH  33  34
ENDBRANCH   1  33
TORSDOF 16
