REMARK SMILES O=C(OCCOC(=O)c1cc(-c2ccccc2)nc(Nc2nc3ccccc3s2)n1)c1ccc(-c2c3nc(c(-c4ccccc4)c4ccc([nH]4)c(-c4ccccc4)c4nc(c(-c5ccccc5)c5ccc2[nH]5)C=C4)C=C3)cc1
REMARK SMILES IDX 4 1 3 2 2 3 1 4 31 5 32 6 78 7 33 8 77 9 34 10 35 11 36 12
REMARK SMILES IDX 71 13 37 14 76 15 70 16 72 17 38 18 75 19 69 20 68 21 39 23
REMARK SMILES IDX 61 24 46 25 60 26 47 27 50 28 59 29 73 30 48 31 49 32 58 34
REMARK SMILES IDX 74 35 51 36 40 37 41 38 45 39 42 40 44 41 43 42 62 43 63 44
REMARK SMILES IDX 67 45 64 46 66 47 65 48 52 49 53 50 57 51 54 52 56 53 55 54
REMARK SMILES IDX 5 55 6 56 7 57 8 58 9 59 10 60 30 61 11 62 19 63 18 64 12 65
REMARK SMILES IDX 13 66 17 67 14 68 16 69 15 70 20 71 21 73 22 74 29 75 23 76
REMARK SMILES IDX 28 77 24 78 27 79 25 80 26 81
REMARK H PARENT 72 22 50 33 20 72
REMARK Flexibility Score: inf
ROOT
ATOM      1  C   UNL     1       4.697  -1.460   0.662  1.00  0.00     0.275 C 
ENDROOT
BRANCH   1   2
ATOM      2  O   UNL     1       3.948  -0.383   1.240  1.00  0.00    -0.458 OA
BRANCH   2   3
ATOM      3  C   UNL     1       3.484   0.758   0.688  1.00  0.00     0.338 C 
ATOM      4  O   UNL     1       2.574   1.333   1.276  1.00  0.00    -0.246 OA
BRANCH   3   5
ATOM      5  C   UNL     1       4.019   1.387  -0.568  1.00  0.00     0.060 A 
ATOM      6  C   UNL     1       5.186   1.027  -1.246  1.00  0.00     0.016 A 
ATOM      7  C   UNL     1       3.275   2.454  -1.099  1.00  0.00     0.016 A 
ATOM      8  C   UNL     1       5.592   1.691  -2.414  1.00  0.00     0.010 A 
ATOM      9  C   UNL     1       3.648   3.098  -2.283  1.00  0.00     0.010 A 
ATOM     10  C   UNL     1       4.838   2.744  -2.930  1.00  0.00    -0.014 A 
BRANCH  10  11
ATOM     11  C   UNL     1       5.396   3.655  -3.962  1.00  0.00     0.031 A 
ATOM     12  C   UNL     1       5.785   5.037  -3.509  1.00  0.00     0.074 A 
ATOM     13  C   UNL     1       5.564   3.287  -5.248  1.00  0.00     0.049 A 
ATOM     14  N   UNL     1       6.140   6.077  -4.216  1.00  0.00    -0.248 NA
ATOM     15  C   UNL     1       5.780   5.274  -2.052  1.00  0.00     0.031 C 
ATOM     16  C   UNL     1       5.339   1.950  -5.792  1.00  0.00     0.029 A 
ATOM     17  N   UNL     1       5.913   4.036  -6.351  1.00  0.00    -0.354 N 
ATOM     18  C   UNL     1       6.427   7.071  -3.289  1.00  0.00     0.074 A 
ATOM     19  C   UNL     1       6.102   6.554  -1.982  1.00  0.00     0.031 C 
ATOM     20  C   UNL     1       5.450   1.996  -7.132  1.00  0.00     0.029 A 
ATOM     21  C   UNL     1       5.714   3.369  -7.543  1.00  0.00     0.049 A 
ATOM     22  H   UNL     1       6.268   4.952  -6.294  1.00  0.00     0.167 HD
ATOM     23  C   UNL     1       6.973   8.290  -3.504  1.00  0.00     0.031 A 
ATOM     24  C   UNL     1       5.664   3.850  -8.803  1.00  0.00     0.031 A 
ATOM     25  C   UNL     1       7.272   8.794  -4.812  1.00  0.00     0.049 A 
ATOM     26  C   UNL     1       6.004   5.297  -9.024  1.00  0.00     0.074 A 
ATOM     27  C   UNL     1       7.905   9.969  -5.170  1.00  0.00     0.029 A 
ATOM     28  N   UNL     1       6.928   8.143  -5.987  1.00  0.00    -0.354 N 
ATOM     29  N   UNL     1       6.251   6.235  -8.144  1.00  0.00    -0.248 NA
ATOM     30  C   UNL     1       6.105   5.734 -10.425  1.00  0.00     0.031 C 
ATOM     31  C   UNL     1       7.888  10.057  -6.566  1.00  0.00     0.029 A 
ATOM     32  C   UNL     1       7.302   8.908  -7.074  1.00  0.00     0.049 A 
ATOM     33  H   UNL     1       6.485   7.265  -6.038  1.00  0.00     0.167 HD
ATOM     34  C   UNL     1       6.611   7.353  -8.883  1.00  0.00     0.074 A 
ATOM     35  C   UNL     1       6.465   7.000 -10.281  1.00  0.00     0.031 C 
ATOM     36  C   UNL     1       7.098   8.539  -8.448  1.00  0.00     0.031 A 
BRANCH  23  37
ATOM     37  C   UNL     1       7.269   9.129  -2.293  1.00  0.00    -0.014 A 
ATOM     38  C   UNL     1       8.241   8.735  -1.355  1.00  0.00     0.009 A 
ATOM     39  C   UNL     1       6.549  10.309  -2.063  1.00  0.00     0.009 A 
ATOM     40  C   UNL     1       8.436   9.468  -0.183  1.00  0.00     0.001 A 
ATOM     41  C   UNL     1       6.771  11.060  -0.907  1.00  0.00     0.001 A 
ATOM     42  C   UNL     1       7.700  10.630   0.040  1.00  0.00     0.000 A 
ENDBRANCH  23  37
BRANCH  24  43
ATOM     43  C   UNL     1       5.192   3.034  -9.958  1.00  0.00    -0.014 A 
ATOM     44  C   UNL     1       5.949   1.994 -10.510  1.00  0.00     0.009 A 
ATOM     45  C   UNL     1       3.955   3.351 -10.555  1.00  0.00     0.009 A 
ATOM     46  C   UNL     1       5.458   1.262 -11.600  1.00  0.00     0.001 A 
ATOM     47  C   UNL     1       3.466   2.619 -11.641  1.00  0.00     0.001 A 
ATOM     48  C   UNL     1       4.213   1.565 -12.155  1.00  0.00     0.000 A 
ENDBRANCH  24  43
BRANCH  36  49
ATOM     49  C   UNL     1       7.594   9.480  -9.500  1.00  0.00    -0.014 A 
ATOM     50  C   UNL     1       6.723  10.253 -10.278  1.00  0.00     0.009 A 
ATOM     51  C   UNL     1       8.981   9.595  -9.691  1.00  0.00     0.009 A 
ATOM     52  C   UNL     1       7.237  11.114 -11.247  1.00  0.00     0.001 A 
ATOM     53  C   UNL     1       9.490  10.477 -10.640  1.00  0.00     0.001 A 
ATOM     54  C   UNL     1       8.617  11.231 -11.422  1.00  0.00     0.000 A 
ENDBRANCH  36  49
ENDBRANCH  10  11
ENDBRANCH   3   5
ENDBRANCH   2   3
ENDBRANCH   1   2
BRANCH   1  55
ATOM     55  C   UNL     1       3.974  -2.234  -0.440  1.00  0.00     0.275 C 
BRANCH  55  56
ATOM     56  O   UNL     1       3.364  -1.378  -1.417  1.00  0.00    -0.457 OA
BRANCH  56  57
ATOM     57  C   UNL     1       1.997  -1.297  -1.372  1.00  0.00     0.357 C 
ATOM     58  O   UNL     1       1.260  -1.968  -0.687  1.00  0.00    -0.244 OA
BRANCH  57  59
ATOM     59  C   UNL     1       1.559  -0.222  -2.307  1.00  0.00     0.154 A 
ATOM     60  C   UNL     1       2.054  -0.201  -3.582  1.00  0.00     0.065 A 
ATOM     61  N   UNL     1       0.681   0.681  -1.830  1.00  0.00    -0.206 NA
ATOM     62  C   UNL     1       1.544   0.786  -4.388  1.00  0.00     0.077 A 
ATOM     63  C   UNL     1       0.310   1.671  -2.650  1.00  0.00     0.230 A 
ATOM     64  N   UNL     1       0.681   1.722  -3.932  1.00  0.00    -0.213 NA
BRANCH  62  65
ATOM     65  C   UNL     1       1.869   0.871  -5.813  1.00  0.00     0.000 A 
ATOM     66  C   UNL     1       1.940   2.115  -6.456  1.00  0.00     0.010 A 
ATOM     67  C   UNL     1       2.094  -0.289  -6.579  1.00  0.00     0.010 A 
ATOM     68  C   UNL     1       2.208   2.194  -7.818  1.00  0.00     0.001 A 
ATOM     69  C   UNL     1       2.385  -0.211  -7.936  1.00  0.00     0.001 A 
ATOM     70  C   UNL     1       2.429   1.030  -8.552  1.00  0.00     0.000 A 
ENDBRANCH  62  65
BRANCH  63  71
ATOM     71  N   UNL     1      -0.532   2.693  -2.228  1.00  0.00    -0.300 N 
ATOM     72  H   UNL     1      -0.942   3.269  -2.913  1.00  0.00     0.172 HD
BRANCH  71  73
ATOM     73  C   UNL     1      -0.818   2.937  -0.940  1.00  0.00     0.190 A 
ATOM     74  N   UNL     1       0.063   2.941   0.030  1.00  0.00    -0.220 NA
ATOM     75  S   UNL     1      -2.421   3.308  -0.435  1.00  0.00    -0.097 S 
ATOM     76  C   UNL     1      -0.567   2.905   1.253  1.00  0.00     0.084 A 
ATOM     77  C   UNL     1      -1.954   3.033   1.203  1.00  0.00     0.056 A 
ATOM     78  C   UNL     1       0.056   2.707   2.499  1.00  0.00     0.030 A 
ATOM     79  C   UNL     1      -2.744   2.923   2.358  1.00  0.00     0.021 A 
ATOM     80  C   UNL     1      -0.721   2.533   3.644  1.00  0.00     0.002 A 
ATOM     81  C   UNL     1      -2.105   2.633   3.570  1.00  0.00     0.002 A 
ENDBRANCH  71  73
ENDBRANCH  63  71
ENDBRANCH  57  59
ENDBRANCH  56  57
ENDBRANCH  55  56
ENDBRANCH   1  55
TORSDOF 14
