REMARK SMILES Cc1nc(C(=O)N[C@H](CCC(N)=O)C(=O)OCCOC(=O)c2ccc(-c3c4nc(c(-c5ccccc5)c5ccc([nH]5)c(-c5ccccc5)c5nc(c(-c6ccccc6)c6ccc3[nH]6)C=C5)C=C4)cc2)ccc1C#N
REMARK SMILES IDX 17 1 16 2 14 3 15 4 8 5 7 6 5 7 6 8 4 10 1 11 2 12 3 13
REMARK SMILES IDX 72 14 71 15 70 16 73 17 74 18 9 19 10 20 11 21 12 22 13 23
REMARK SMILES IDX 18 26 19 27 20 28 21 29 22 30 23 31 69 32 24 33 68 34 25 35
REMARK SMILES IDX 26 36 27 37 62 38 28 39 67 40 61 41 63 42 29 43 66 44 60 45
REMARK SMILES IDX 59 46 30 48 52 49 37 50 51 51 38 52 41 53 50 54 64 55 39 56
REMARK SMILES IDX 40 57 49 59 65 60 42 61 31 62 32 63 36 64 33 65 35 66 34 67
REMARK SMILES IDX 53 68 54 69 58 70 55 71 57 72 56 73 43 74 44 75 48 76 45 77
REMARK SMILES IDX 47 78 46 79
REMARK H PARENT 7 9 12 24 12 25 63 47 41 58
REMARK Flexibility Score: inf
ROOT
ATOM      1  C   UNL     1       6.117  -3.396  -3.022  1.00  0.00     0.274 C 
ENDROOT
BRANCH   1   2
ATOM      2  O   UNL     1       5.427  -3.893  -1.850  1.00  0.00    -0.461 OA
BRANCH   2   3
ATOM      3  C   UNL     1       4.926  -2.973  -1.008  1.00  0.00     0.328 C 
ATOM      4  O   UNL     1       5.209  -1.773  -1.088  1.00  0.00    -0.250 OA
BRANCH   3   5
ATOM      5  C   UNL     1       4.095  -3.493   0.186  1.00  0.00     0.193 C 
BRANCH   5   6
ATOM      6  N   UNL     1       4.997  -3.516   1.354  1.00  0.00    -0.337 N 
ATOM      7  C   UNL     1       5.764  -4.486   1.950  1.00  0.00     0.270 C 
ATOM      8  O   UNL     1       6.599  -4.091   2.771  1.00  0.00    -0.267 OA
ATOM      9  H   UNL     1       5.064  -2.643   1.804  1.00  0.00     0.164 HD
BRANCH   7  10
ATOM     10  C   UNL     1       5.589  -5.965   1.765  1.00  0.00     0.128 A 
ATOM     11  C   UNL     1       3.730  -8.277  -0.440  1.00  0.00     0.068 C 
ATOM     12  C   UNL     1       4.601  -7.796   0.691  1.00  0.00     0.056 A 
ATOM     13  N   UNL     1       4.913  -6.462   0.702  1.00  0.00    -0.247 NA
ATOM     14  C   UNL     1       4.995  -8.664   1.707  1.00  0.00     0.073 A 
ATOM     15  C   UNL     1       5.745  -8.146   2.760  1.00  0.00     0.024 A 
ATOM     16  C   UNL     1       6.045  -6.786   2.792  1.00  0.00     0.035 A 
BRANCH  14  17
ATOM     17  C   UNL     1       4.607 -10.040   1.715  1.00  0.00     0.101 C 
ATOM     18  N   UNL     1       4.259 -11.149   1.710  1.00  0.00    -0.192 NA
ENDBRANCH  14  17
ENDBRANCH   7  10
ENDBRANCH   5   6
BRANCH   5  19
ATOM     19  C   UNL     1       2.882  -4.443   0.272  1.00  0.00     0.047 C 
BRANCH  19  20
ATOM     20  C   UNL     1       2.062  -4.953  -0.910  1.00  0.00     0.102 C 
BRANCH  20  21
ATOM     21  C   UNL     1       2.741  -5.751  -2.013  1.00  0.00     0.217 C 
ATOM     22  N   UNL     1       1.885  -6.267  -2.947  1.00  0.00    -0.370 N 
ATOM     23  O   UNL     1       3.938  -5.966  -2.126  1.00  0.00    -0.275 OA
ATOM     24  H   UNL     1       0.917  -6.104  -2.871  1.00  0.00     0.159 HD
ATOM     25  H   UNL     1       2.237  -6.803  -3.694  1.00  0.00     0.159 HD
ENDBRANCH  20  21
ENDBRANCH  19  20
ENDBRANCH   5  19
ENDBRANCH   3   5
ENDBRANCH   2   3
ENDBRANCH   1   2
BRANCH   1  26
ATOM     26  C   UNL     1       5.205  -3.372  -4.260  1.00  0.00     0.275 C 
BRANCH  26  27
ATOM     27  O   UNL     1       4.317  -2.223  -4.274  1.00  0.00    -0.458 OA
BRANCH  27  28
ATOM     28  C   UNL     1       3.206  -2.445  -3.557  1.00  0.00     0.338 C 
ATOM     29  O   UNL     1       2.929  -3.471  -2.970  1.00  0.00    -0.246 OA
BRANCH  28  30
ATOM     30  C   UNL     1       2.219  -1.397  -3.417  1.00  0.00     0.060 A 
ATOM     31  C   UNL     1       2.145  -0.767  -2.170  1.00  0.00     0.016 A 
ATOM     32  C   UNL     1       1.119  -1.433  -4.277  1.00  0.00     0.016 A 
ATOM     33  C   UNL     1       0.967  -0.143  -1.790  1.00  0.00     0.010 A 
ATOM     34  C   UNL     1      -0.042  -0.754  -3.921  1.00  0.00     0.010 A 
ATOM     35  C   UNL     1      -0.114  -0.096  -2.684  1.00  0.00    -0.014 A 
BRANCH  35  36
ATOM     36  C   UNL     1      -1.245   0.803  -2.395  1.00  0.00     0.031 A 
ATOM     37  C   UNL     1      -2.605   0.284  -2.062  1.00  0.00     0.074 A 
ATOM     38  C   UNL     1      -0.994   2.123  -2.476  1.00  0.00     0.049 A 
ATOM     39  N   UNL     1      -3.707   0.961  -1.877  1.00  0.00    -0.248 NA
ATOM     40  C   UNL     1      -2.757  -1.172  -1.916  1.00  0.00     0.031 C 
ATOM     41  C   UNL     1       0.320   2.710  -2.768  1.00  0.00     0.029 A 
ATOM     42  N   UNL     1      -1.813   3.205  -2.318  1.00  0.00    -0.354 N 
ATOM     43  C   UNL     1      -4.687   0.020  -1.599  1.00  0.00     0.074 A 
ATOM     44  C   UNL     1      -4.056  -1.281  -1.657  1.00  0.00     0.031 C 
ATOM     45  C   UNL     1       0.222   4.044  -2.733  1.00  0.00     0.029 A 
ATOM     46  C   UNL     1      -1.168   4.403  -2.494  1.00  0.00     0.049 A 
ATOM     47  H   UNL     1      -2.771   3.132  -2.099  1.00  0.00     0.167 HD
ATOM     48  C   UNL     1      -5.992   0.240  -1.318  1.00  0.00     0.031 A 
ATOM     49  C   UNL     1      -1.645   5.658  -2.493  1.00  0.00     0.031 A 
ATOM     50  C   UNL     1      -6.592   1.549  -1.272  1.00  0.00     0.049 A 
ATOM     51  C   UNL     1      -3.108   5.863  -2.257  1.00  0.00     0.074 A 
ATOM     52  C   UNL     1      -7.906   1.880  -0.993  1.00  0.00     0.029 A 
ATOM     53  N   UNL     1      -5.918   2.738  -1.509  1.00  0.00    -0.354 N 
ATOM     54  N   UNL     1      -4.028   4.963  -2.006  1.00  0.00    -0.248 NA
ATOM     55  C   UNL     1      -3.603   7.242  -2.311  1.00  0.00     0.031 C 
ATOM     56  C   UNL     1      -8.038   3.265  -1.113  1.00  0.00     0.029 A 
ATOM     57  C   UNL     1      -6.795   3.803  -1.408  1.00  0.00     0.049 A 
ATOM     58  H   UNL     1      -4.958   2.812  -1.718  1.00  0.00     0.167 HD
ATOM     59  C   UNL     1      -5.211   5.667  -1.854  1.00  0.00     0.074 A 
ATOM     60  C   UNL     1      -4.890   7.070  -2.032  1.00  0.00     0.031 C 
ATOM     61  C   UNL     1      -6.450   5.190  -1.590  1.00  0.00     0.031 A 
BRANCH  48  62
ATOM     62  C   UNL     1      -6.875  -0.943  -1.046  1.00  0.00    -0.014 A 
ATOM     63  C   UNL     1      -6.813  -1.622   0.180  1.00  0.00     0.009 A 
ATOM     64  C   UNL     1      -7.863  -1.306  -1.975  1.00  0.00     0.009 A 
ATOM     65  C   UNL     1      -7.722  -2.643   0.469  1.00  0.00     0.001 A 
ATOM     66  C   UNL     1      -8.783  -2.312  -1.676  1.00  0.00     0.001 A 
ATOM     67  C   UNL     1      -8.712  -2.980  -0.455  1.00  0.00     0.000 A 
ENDBRANCH  48  62
BRANCH  49  68
ATOM     68  C   UNL     1      -0.709   6.785  -2.720  1.00  0.00    -0.014 A 
ATOM     69  C   UNL     1      -0.320   7.603  -1.651  1.00  0.00     0.009 A 
ATOM     70  C   UNL     1      -0.119   6.982  -3.980  1.00  0.00     0.009 A 
ATOM     71  C   UNL     1       0.644   8.596  -1.839  1.00  0.00     0.001 A 
ATOM     72  C   UNL     1       0.862   7.958  -4.158  1.00  0.00     0.001 A 
ATOM     73  C   UNL     1       1.241   8.766  -3.088  1.00  0.00     0.000 A 
ENDBRANCH  49  68
BRANCH  61  74
ATOM     74  C   UNL     1      -7.563   6.186  -1.462  1.00  0.00    -0.014 A 
ATOM     75  C   UNL     1      -8.133   6.776  -2.599  1.00  0.00     0.009 A 
ATOM     76  C   UNL     1      -8.129   6.435  -0.201  1.00  0.00     0.009 A 
ATOM     77  C   UNL     1      -9.252   7.599  -2.475  1.00  0.00     0.001 A 
ATOM     78  C   UNL     1      -9.263   7.237  -0.084  1.00  0.00     0.001 A 
ATOM     79  C   UNL     1      -9.823   7.818  -1.221  1.00  0.00     0.000 A 
ENDBRANCH  61  74
ENDBRANCH  35  36
ENDBRANCH  28  30
ENDBRANCH  27  28
ENDBRANCH  26  27
ENDBRANCH   1  26
TORSDOF 17
