REMARK SMILES O=C(C[C@@H]1C(=O)O[C@H]2[C@@H]3OC(=O)c4cc(O)c(O)c(O)c4-c4ccccc4C(=O)OC[C@@H]2O[C@@H](OC(=O)c2cc(O)c(O)c(O)c2)[C@@H]3OC(=O)c2cc(O)c(O)c3c2[C@H]1[C@H](O)C(=O)O3)OCCOC(=O)c1ccc(-c2c3nc(c(-c4ccccc4)c4ccc([nH]4)c(-c4ccccc4)c4nc(c(-c5ccccc5)c5ccc2[nH]5)C=C4)C=C3)cc1
REMARK SMILES IDX 4 1 3 3 2 4 1 5 65 6 66 7 67 8 68 9 69 10 70 11 71 12 72 13
REMARK SMILES IDX 118 14 73 15 117 16 74 17 75 18 76 19 111 20 77 21 116 22
REMARK SMILES IDX 110 23 112 24 78 25 115 26 109 27 108 28 79 30 101 31 86 32
REMARK SMILES IDX 100 33 87 34 90 35 99 36 113 37 88 38 89 39 98 41 114 42
REMARK SMILES IDX 91 43 80 44 81 45 85 46 82 47 84 48 83 49 102 50 103 51
REMARK SMILES IDX 107 52 104 53 106 54 105 55 92 56 93 57 97 58 94 59 96 60
REMARK SMILES IDX 95 61 5 62 6 63 7 64 8 65 9 66 32 67 47 68 33 69 34 71 10 72
REMARK SMILES IDX 11 73 12 74 13 75 14 76 21 77 15 78 19 79 17 80 22 81 23 82
REMARK SMILES IDX 27 83 24 84 26 85 25 86 28 87 29 88 30 89 31 90 16 92 20 94
REMARK SMILES IDX 18 96 48 98 49 99 50 100 51 101 52 102 58 103 53 104 57 105
REMARK SMILES IDX 59 106 55 107 64 108 60 109 62 111 63 112 54 113 56 115
REMARK SMILES IDX 61 117 35 119 36 120 37 121 38 122 39 123 46 124 40 125
REMARK SMILES IDX 44 126 42 127 41 128 45 130 43 132
REMARK H PARENT 112 29 90 40 16 93 20 95 18 97 54 114 56 116 61 118 41 129
REMARK H PARENT 45 131 43 133
REMARK Flexibility Score: 170.00
ROOT
ATOM      1  C   UNL     1       5.267  -3.007   0.855  1.00  0.00     0.121 CG0
ATOM      2  G   UNL     1       6.321  -3.675   2.199  1.00  0.00     0.000 G0
ENDROOT
BRANCH   1   3
ATOM      3  C   UNL     1       4.125  -1.215   0.485  1.00  0.00     0.138 C 
BRANCH   3   4
ATOM      4  C   UNL     1       3.150  -0.233  -0.421  1.00  0.00     0.306 C 
ATOM      5  O   UNL     1       2.182   0.364   0.082  1.00  0.00    -0.252 OA
BRANCH   4   6
ATOM      6  O   UNL     1       3.706   0.319  -1.486  1.00  0.00    -0.462 OA
BRANCH   6   7
ATOM      7  C   UNL     1       4.090   1.649  -1.149  1.00  0.00     0.274 C 
BRANCH   7   8
ATOM      8  C   UNL     1       3.854   2.452   0.196  1.00  0.00     0.275 C 
BRANCH   8   9
ATOM      9  O   UNL     1       3.987   1.746   1.470  1.00  0.00    -0.458 OA
BRANCH   9  10
ATOM     10  C   UNL     1       3.327   2.297   2.548  1.00  0.00     0.338 C 
ATOM     11  O   UNL     1       2.760   3.377   2.562  1.00  0.00    -0.246 OA
BRANCH  10  12
ATOM     12  C   UNL     1       3.194   1.315   3.678  1.00  0.00     0.060 A 
ATOM     13  C   UNL     1       3.776   1.355   4.944  1.00  0.00     0.016 A 
ATOM     14  C   UNL     1       2.312   0.285   3.462  1.00  0.00     0.016 A 
ATOM     15  C   UNL     1       3.535   0.301   5.903  1.00  0.00     0.010 A 
ATOM     16  C   UNL     1       2.131  -0.757   4.392  1.00  0.00     0.010 A 
ATOM     17  C   UNL     1       2.712  -0.819   5.635  1.00  0.00    -0.014 A 
BRANCH  17  18
ATOM     18  C   UNL     1       2.303  -1.939   6.594  1.00  0.00     0.031 A 
ATOM     19  C   UNL     1       2.334  -3.453   6.296  1.00  0.00     0.074 A 
ATOM     20  C   UNL     1       1.766  -1.607   7.784  1.00  0.00     0.049 A 
ATOM     21  N   UNL     1       2.689  -4.757   7.359  1.00  0.00    -0.248 NA
ATOM     22  C   UNL     1       1.826  -4.261   4.473  1.00  0.00     0.031 C 
ATOM     23  C   UNL     1       1.506  -0.226   8.173  1.00  0.00     0.029 A 
ATOM     24  N   UNL     1       1.374  -2.349   8.882  1.00  0.00    -0.354 N 
ATOM     25  C   UNL     1       2.383  -6.409   6.503  1.00  0.00     0.074 A 
ATOM     26  C   UNL     1       1.743  -5.949   4.670  1.00  0.00     0.031 C 
ATOM     27  C   UNL     1       1.167  -0.194   9.463  1.00  0.00     0.029 A 
ATOM     28  C   UNL     1       1.087  -1.558   9.979  1.00  0.00     0.049 A 
ATOM     29  H   UNL     1       1.308  -3.331   8.883  1.00  0.00     0.167 HD
ATOM     30  C   UNL     1       1.974  -7.605   7.037  1.00  0.00     0.031 A 
ATOM     31  C   UNL     1       0.833  -1.841  11.275  1.00  0.00     0.031 A 
ATOM     32  C   UNL     1       1.679  -7.819   8.438  1.00  0.00     0.049 A 
ATOM     33  C   UNL     1       0.804  -3.260  11.765  1.00  0.00     0.074 A 
ATOM     34  C   UNL     1       1.376  -9.025   9.058  1.00  0.00     0.029 A 
ATOM     35  N   UNL     1       1.516  -6.828   9.402  1.00  0.00    -0.354 N 
ATOM     36  N   UNL     1       0.934  -4.378  11.094  1.00  0.00    -0.248 NA
ATOM     37  C   UNL     1       0.616  -3.442  13.213  1.00  0.00     0.031 C 
ATOM     38  C   UNL     1       0.924  -8.759  10.349  1.00  0.00     0.029 A 
ATOM     39  C   UNL     1       1.089  -7.406  10.595  1.00  0.00     0.049 A 
ATOM     40  H   UNL     1       1.677  -5.867   9.262  1.00  0.00     0.167 HD
ATOM     41  C   UNL     1       0.869  -5.396  12.040  1.00  0.00     0.074 A 
ATOM     42  C   UNL     1       0.718  -4.758  13.332  1.00  0.00     0.031 C 
ATOM     43  C   UNL     1       0.924  -6.738  11.864  1.00  0.00     0.031 A 
BRANCH  30  44
ATOM     44  C   UNL     1       1.737  -8.791   6.105  1.00  0.00    -0.014 A 
ATOM     45  C   UNL     1       0.511  -9.486   6.045  1.00  0.00     0.009 A 
ATOM     46  C   UNL     1       2.819  -9.370   5.427  1.00  0.00     0.009 A 
ATOM     47  C   UNL     1       0.378 -10.674   5.302  1.00  0.00     0.001 A 
ATOM     48  C   UNL     1       2.672 -10.505   4.619  1.00  0.00     0.001 A 
ATOM     49  C   UNL     1       1.452 -11.165   4.564  1.00  0.00     0.000 A 
ENDBRANCH  30  44
BRANCH  31  50
ATOM     50  C   UNL     1       0.756  -0.689  12.227  1.00  0.00    -0.014 A 
ATOM     51  C   UNL     1      -0.282   0.255  12.149  1.00  0.00     0.009 A 
ATOM     52  C   UNL     1       1.836  -0.433  13.090  1.00  0.00     0.009 A 
ATOM     53  C   UNL     1      -0.190   1.468  12.838  1.00  0.00     0.001 A 
ATOM     54  C   UNL     1       1.897   0.756  13.820  1.00  0.00     0.001 A 
ATOM     55  C   UNL     1       0.900   1.718  13.670  1.00  0.00     0.000 A 
ENDBRANCH  31  50
BRANCH  43  56
ATOM     56  C   UNL     1       0.817  -7.623  13.089  1.00  0.00    -0.014 A 
ATOM     57  C   UNL     1       1.885  -8.479  13.409  1.00  0.00     0.009 A 
ATOM     58  C   UNL     1      -0.361  -7.710  13.850  1.00  0.00     0.009 A 
ATOM     59  C   UNL     1       1.772  -9.413  14.440  1.00  0.00     0.001 A 
ATOM     60  C   UNL     1      -0.458  -8.617  14.910  1.00  0.00     0.001 A 
ATOM     61  C   UNL     1       0.602  -9.478  15.194  1.00  0.00     0.000 A 
ENDBRANCH  43  56
ENDBRANCH  17  18
ENDBRANCH  10  12
ENDBRANCH   9  10
ENDBRANCH   8   9
ENDBRANCH   7   8
ENDBRANCH   6   7
ENDBRANCH   4   6
ENDBRANCH   3   4
ENDBRANCH   1   3
BRANCH   1  62
ATOM     62  C   UNL     1       4.786  -4.487   0.642  1.00  0.00     0.310 C 
ATOM     63  O   UNL     1       5.242  -5.339  -0.093  1.00  0.00    -0.252 OA
BRANCH  62  64
ATOM     64  O   UNL     1       3.777  -4.655   1.475  1.00  0.00    -0.455 OA
BRANCH  64  65
ATOM     65  C   UNL     1       3.250  -3.418   1.235  1.00  0.00     0.254 C 
ATOM     66  C   UNL     1       3.449  -2.242   2.179  1.00  0.00     0.267 C 
ATOM     67  C   UNL     1       3.487  -3.005  -0.478  1.00  0.00     0.205 CG1
ATOM     68  C   UNL     1       5.230  -1.301   2.178  1.00  0.00     0.290 C 
ATOM     69  O   UNL     1       5.073  -2.082  -0.940  1.00  0.00    -0.329 OA
ATOM     70  G   UNL     1       2.128  -4.105  -0.776  1.00  0.00     0.000 G1
ATOM     71  C   UNL     1       6.197  -1.250   0.396  1.00  0.00     0.357 C 
BRANCH  66  72
ATOM     72  O   UNL     1       1.865  -1.677   1.404  1.00  0.00    -0.450 OA
BRANCH  72  73
ATOM     73  C   UNL     1       1.094  -1.744   0.009  1.00  0.00     0.339 C 
ATOM     74  O   UNL     1       1.665  -1.775  -1.087  1.00  0.00    -0.246 OA
BRANCH  73  75
ATOM     75  C   UNL     1      -0.411  -2.007  -0.297  1.00  0.00     0.075 A 
ATOM     76  C   UNL     1      -0.831  -2.920  -1.304  1.00  0.00     0.066 A 
ATOM     77  C   UNL     1      -1.352  -1.717   0.654  1.00  0.00     0.043 A 
ATOM     78  C   UNL     1      -2.034  -3.640  -1.166  1.00  0.00     0.162 A 
ATOM     79  C   UNL     1      -2.644  -2.308   0.694  1.00  0.00     0.170 A 
ATOM     80  C   UNL     1      -2.940  -3.332  -0.172  1.00  0.00     0.200 A 
BRANCH  77  81
ATOM     81  C   UNL     1      -0.781  -1.421   1.900  1.00  0.00     0.001 A 
ATOM     82  C   UNL     1      -0.967  -0.137   2.444  1.00  0.00     0.010 A 
ATOM     83  C   UNL     1      -0.362  -2.605   2.540  1.00  0.00     0.068 A 
ATOM     84  C   UNL     1      -0.965  -0.025   3.807  1.00  0.00     0.001 A 
ATOM     85  C   UNL     1      -0.624  -2.490   3.916  1.00  0.00     0.016 A 
ATOM     86  C   UNL     1      -0.885  -1.213   4.540  1.00  0.00     0.001 A 
BRANCH  83  87
ATOM     87  C   UNL     1       0.037  -4.013   1.669  1.00  0.00     0.338 C 
ATOM     88  O   UNL     1      -0.456  -5.012   2.206  1.00  0.00    -0.246 OA
BRANCH  87  89
ATOM     89  O   UNL     1       0.865  -4.291   0.484  1.00  0.00    -0.459 OA
BRANCH  89  90
ATOM     90  C   UNL     1       2.128  -4.105  -0.776  1.00  0.00     0.269 CG1
ATOM     91  G   UNL     1       3.487  -3.005  -0.478  1.00  0.00     0.000 G1
ENDBRANCH  89  90
ENDBRANCH  87  89
ENDBRANCH  83  87
ENDBRANCH  77  81
BRANCH  78  92
ATOM     92  O   UNL     1      -2.231  -4.778  -1.899  1.00  0.00    -0.504 OA
ATOM     93  H   UNL     1      -1.629  -5.008  -2.579  1.00  0.00     0.293 HD
ENDBRANCH  78  92
BRANCH  79  94
ATOM     94  O   UNL     1      -3.496  -2.182   1.773  1.00  0.00    -0.504 OA
ATOM     95  H   UNL     1      -4.340  -2.590   1.754  1.00  0.00     0.293 HD
ENDBRANCH  79  94
BRANCH  80  96
ATOM     96  O   UNL     1      -3.999  -4.160   0.083  1.00  0.00    -0.502 OA
ATOM     97  H   UNL     1      -4.200  -4.858  -0.509  1.00  0.00     0.293 HD
ENDBRANCH  80  96
ENDBRANCH  73  75
ENDBRANCH  72  73
ENDBRANCH  66  72
BRANCH  68  98
ATOM     98  O   UNL     1       6.101  -1.424   3.361  1.00  0.00    -0.448 OA
BRANCH  98  99
ATOM     99  C   UNL     1       5.759  -1.962   4.560  1.00  0.00     0.339 C 
ATOM    100  O   UNL     1       5.971  -1.397   5.620  1.00  0.00    -0.246 OA
BRANCH  99 101
ATOM    101  C   UNL     1       5.271  -3.358   4.522  1.00  0.00     0.071 A 
ATOM    102  C   UNL     1       4.410  -3.821   5.571  1.00  0.00     0.066 A 
ATOM    103  C   UNL     1       5.613  -4.173   3.461  1.00  0.00     0.021 A 
ATOM    104  C   UNL     1       3.513  -5.012   5.461  1.00  0.00     0.162 A 
ATOM    105  C   UNL     1       5.189  -5.497   3.576  1.00  0.00     0.180 A 
ATOM    106  C   UNL     1       6.321  -3.675   2.199  1.00  0.00     0.079 CG0
ATOM    107  C   UNL     1       4.104  -5.916   4.423  1.00  0.00     0.201 A 
ATOM    108  O   UNL     1       5.689  -6.492   2.689  1.00  0.00    -0.420 OA
ATOM    109  C   UNL     1       7.296  -4.851   1.768  1.00  0.00     0.232 C 
ATOM    110  G   UNL     1       5.267  -3.007   0.855  1.00  0.00     0.000 G0
ATOM    111  C   UNL     1       6.734  -6.289   1.798  1.00  0.00     0.341 C 
ATOM    112  O   UNL     1       7.151  -7.193   1.081  1.00  0.00    -0.249 OA
BRANCH 104 113
ATOM    113  O   UNL     1       1.554  -4.914   6.077  1.00  0.00    -0.504 OA
ATOM    114  H   UNL     1       1.302  -4.303   6.740  1.00  0.00     0.293 HD
ENDBRANCH 104 113
BRANCH 107 115
ATOM    115  O   UNL     1       3.679  -7.178   4.078  1.00  0.00    -0.502 OA
ATOM    116  H   UNL     1       2.975  -7.580   4.548  1.00  0.00     0.293 HD
ENDBRANCH 107 115
BRANCH 109 117
ATOM    117  O   UNL     1       7.929  -4.490   0.543  1.00  0.00    -0.381 OA
ATOM    118  H   UNL     1       7.261  -4.413  -0.156  1.00  0.00     0.211 HD
ENDBRANCH 109 117
ENDBRANCH  99 101
ENDBRANCH  98  99
ENDBRANCH  68  98
BRANCH  71 119
ATOM    119  O   UNL     1       6.654   0.212   0.107  1.00  0.00    -0.428 OA
BRANCH 119 120
ATOM    120  C   UNL     1       7.357   0.591  -1.016  1.00  0.00     0.340 C 
ATOM    121  O   UNL     1       7.729  -0.185  -1.879  1.00  0.00    -0.246 OA
BRANCH 120 122
ATOM    122  C   UNL     1       7.492   2.119  -1.207  1.00  0.00     0.067 A 
ATOM    123  C   UNL     1       6.647   2.772  -2.137  1.00  0.00     0.066 A 
ATOM    124  C   UNL     1       8.444   2.920  -0.556  1.00  0.00     0.066 A 
ATOM    125  C   UNL     1       6.530   4.163  -2.172  1.00  0.00     0.162 A 
ATOM    126  C   UNL     1       8.451   4.320  -0.774  1.00  0.00     0.162 A 
ATOM    127  C   UNL     1       7.453   4.944  -1.515  1.00  0.00     0.200 A 
BRANCH 125 128
ATOM    128  O   UNL     1       5.482   4.739  -2.833  1.00  0.00    -0.504 OA
ATOM    129  H   UNL     1       4.857   4.202  -3.278  1.00  0.00     0.293 HD
ENDBRANCH 125 128
BRANCH 126 130
ATOM    130  O   UNL     1       9.437   5.133  -0.284  1.00  0.00    -0.504 OA
ATOM    131  H   UNL     1       9.409   6.055  -0.448  1.00  0.00     0.293 HD
ENDBRANCH 126 130
BRANCH 127 132
ATOM    132  O   UNL     1       7.388   6.302  -1.661  1.00  0.00    -0.502 OA
ATOM    133  H   UNL     1       6.700   6.686  -2.169  1.00  0.00     0.293 HD
ENDBRANCH 127 132
ENDBRANCH 120 122
ENDBRANCH 119 120
ENDBRANCH  71 119
ENDBRANCH  64  65
ENDBRANCH  62  64
ENDBRANCH   1  62
TORSDOF 24
