REMARK SMILES C[C@H](Oc1ccc(/C=C2/SC(=S)N(c3ccc(F)cc3)C2=O)cc1)C(=O)OCCOC(=O)c1ccc(-c2c3nc(c(-c4ccccc4)c4ccc([nH]4)c(-c4ccccc4)c4nc(c(-c5ccccc5)c5ccc2[nH]5)C=C4)C=C3)cc1
REMARK SMILES IDX 28 1 27 2 25 3 26 4 2 5 1 6 3 7 4 8 5 9 24 10 6 11 23 12
REMARK SMILES IDX 7 13 8 14 9 15 10 16 21 17 11 18 13 19 22 20 12 21 14 22
REMARK SMILES IDX 15 23 20 24 16 25 19 26 17 27 18 28 29 29 30 30 31 31 32 32
REMARK SMILES IDX 33 33 34 34 80 35 35 36 79 37 36 38 37 39 38 40 73 41 39 42
REMARK SMILES IDX 78 43 72 44 74 45 40 46 77 47 71 48 70 49 41 51 63 52 48 53
REMARK SMILES IDX 62 54 49 55 52 56 61 57 75 58 50 59 51 60 60 62 76 63 53 64
REMARK SMILES IDX 42 65 43 66 47 67 44 68 46 69 45 70 64 71 65 72 69 73 66 74
REMARK SMILES IDX 68 75 67 76 54 77 55 78 59 79 56 80 58 81 57 82
REMARK H PARENT 74 50 52 61
REMARK Flexibility Score: inf
ROOT
ATOM      1  C   UNL     1      -2.943  -1.232  -0.026  1.00  0.00     0.274 C 
ENDROOT
BRANCH   1   2
ATOM      2  O   UNL     1      -1.513  -1.293   0.118  1.00  0.00    -0.459 OA
BRANCH   2   3
ATOM      3  C   UNL     1      -0.809  -1.761  -0.951  1.00  0.00     0.347 C 
ATOM      4  O   UNL     1      -1.310  -2.169  -1.994  1.00  0.00    -0.248 OA
BRANCH   3   5
ATOM      5  C   UNL     1       0.699  -1.784  -0.692  1.00  0.00     0.279 C 
ATOM      6  C   UNL     1       1.038  -3.090   0.026  1.00  0.00     0.066 C 
BRANCH   5   7
ATOM      7  O   UNL     1       1.060  -0.614   0.038  1.00  0.00    -0.479 OA
BRANCH   7   8
ATOM      8  C   UNL     1       2.372  -0.347   0.298  1.00  0.00     0.120 A 
ATOM      9  C   UNL     1       3.473  -1.040  -0.199  1.00  0.00     0.047 A 
ATOM     10  C   UNL     1       2.576   0.708   1.189  1.00  0.00     0.047 A 
ATOM     11  C   UNL     1       4.757  -0.763   0.288  1.00  0.00     0.012 A 
ATOM     12  C   UNL     1       3.856   1.004   1.659  1.00  0.00     0.012 A 
ATOM     13  C   UNL     1       4.946   0.224   1.259  1.00  0.00    -0.024 A 
BRANCH  13  14
ATOM     14  C   UNL     1       6.259   0.390   1.889  1.00  0.00     0.029 C 
ATOM     15  C   UNL     1       6.512   0.161   3.188  1.00  0.00     0.081 C 
ATOM     16  S   UNL     1       8.045   0.464   3.906  1.00  0.00    -0.054 SA
ATOM     17  C   UNL     1       5.552  -0.318   4.230  1.00  0.00     0.270 C 
ATOM     18  C   UNL     1       7.449   0.167   5.542  1.00  0.00     0.152 C 
ATOM     19  N   UNL     1       6.099  -0.155   5.503  1.00  0.00    -0.261 N 
ATOM     20  O   UNL     1       4.447  -0.770   3.962  1.00  0.00    -0.268 OA
ATOM     21  S   UNL     1       8.508   0.199   6.839  1.00  0.00    -0.051 S 
BRANCH  19  22
ATOM     22  C   UNL     1       5.259  -0.306   6.655  1.00  0.00     0.051 A 
ATOM     23  C   UNL     1       4.299  -1.331   6.724  1.00  0.00     0.030 A 
ATOM     24  C   UNL     1       5.302   0.630   7.703  1.00  0.00     0.030 A 
ATOM     25  C   UNL     1       3.418  -1.425   7.806  1.00  0.00     0.041 A 
ATOM     26  C   UNL     1       4.418   0.540   8.783  1.00  0.00     0.041 A 
ATOM     27  C   UNL     1       3.484  -0.486   8.825  1.00  0.00     0.123 A 
ATOM     28  F   UNL     1       2.628  -0.561   9.852  1.00  0.00    -0.207 F 
ENDBRANCH  19  22
ENDBRANCH  13  14
ENDBRANCH   7   8
ENDBRANCH   5   7
ENDBRANCH   3   5
ENDBRANCH   2   3
ENDBRANCH   1   2
BRANCH   1  29
ATOM     29  C   UNL     1      -3.418   0.174  -0.400  1.00  0.00     0.275 C 
BRANCH  29  30
ATOM     30  O   UNL     1      -3.012   0.528  -1.734  1.00  0.00    -0.458 OA
BRANCH  30  31
ATOM     31  C   UNL     1      -1.849   1.214  -1.816  1.00  0.00     0.338 C 
ATOM     32  O   UNL     1      -1.154   1.614  -0.901  1.00  0.00    -0.246 OA
BRANCH  31  33
ATOM     33  C   UNL     1      -1.451   1.321  -3.228  1.00  0.00     0.060 A 
ATOM     34  C   UNL     1      -0.234   0.753  -3.618  1.00  0.00     0.016 A 
ATOM     35  C   UNL     1      -2.235   2.028  -4.142  1.00  0.00     0.016 A 
ATOM     36  C   UNL     1       0.206   0.887  -4.932  1.00  0.00     0.010 A 
ATOM     37  C   UNL     1      -1.786   2.170  -5.457  1.00  0.00     0.010 A 
ATOM     38  C   UNL     1      -0.560   1.609  -5.855  1.00  0.00    -0.014 A 
BRANCH  38  39
ATOM     39  C   UNL     1      -0.053   1.833  -7.228  1.00  0.00     0.031 A 
ATOM     40  C   UNL     1       0.527   3.166  -7.598  1.00  0.00     0.074 A 
ATOM     41  C   UNL     1      -0.123   0.847  -8.139  1.00  0.00     0.049 A 
ATOM     42  N   UNL     1       0.939   3.593  -8.764  1.00  0.00    -0.248 NA
ATOM     43  C   UNL     1       0.657   4.149  -6.511  1.00  0.00     0.031 C 
ATOM     44  C   UNL     1      -0.631  -0.502  -7.889  1.00  0.00     0.029 A 
ATOM     45  N   UNL     1       0.224   0.837  -9.466  1.00  0.00    -0.354 N 
ATOM     46  C   UNL     1       1.357   4.901  -8.557  1.00  0.00     0.074 A 
ATOM     47  C   UNL     1       1.137   5.202  -7.159  1.00  0.00     0.031 C 
ATOM     48  C   UNL     1      -0.575  -1.206  -9.031  1.00  0.00     0.029 A 
ATOM     49  C   UNL     1      -0.068  -0.347 -10.098  1.00  0.00     0.049 A 
ATOM     50  H   UNL     1       0.642   1.603  -9.922  1.00  0.00     0.167 HD
ATOM     51  C   UNL     1       1.873   5.774  -9.455  1.00  0.00     0.031 A 
ATOM     52  C   UNL     1       0.031  -0.689 -11.396  1.00  0.00     0.031 A 
ATOM     53  C   UNL     1       2.086   5.474 -10.846  1.00  0.00     0.049 A 
ATOM     54  C   UNL     1       0.551   0.316 -12.386  1.00  0.00     0.074 A 
ATOM     55  C   UNL     1       2.628   6.283 -11.830  1.00  0.00     0.029 A 
ATOM     56  N   UNL     1       1.758   4.271 -11.451  1.00  0.00    -0.354 N 
ATOM     57  N   UNL     1       0.960   1.544 -12.177  1.00  0.00    -0.248 NA
ATOM     58  C   UNL     1       0.620  -0.111 -13.790  1.00  0.00     0.031 C 
ATOM     59  C   UNL     1       2.584   5.585 -13.041  1.00  0.00     0.029 A 
ATOM     60  C   UNL     1       2.059   4.325 -12.802  1.00  0.00     0.049 A 
ATOM     61  H   UNL     1       1.369   3.494 -10.990  1.00  0.00     0.167 HD
ATOM     62  C   UNL     1       1.351   2.030 -13.417  1.00  0.00     0.074 A 
ATOM     63  C   UNL     1       1.143   0.960 -14.372  1.00  0.00     0.031 C 
ATOM     64  C   UNL     1       1.841   3.253 -13.737  1.00  0.00     0.031 A 
BRANCH  51  65
ATOM     65  C   UNL     1       2.201   7.154  -8.962  1.00  0.00    -0.014 A 
ATOM     66  C   UNL     1       3.315   7.392  -8.142  1.00  0.00     0.009 A 
ATOM     67  C   UNL     1       1.393   8.236  -9.344  1.00  0.00     0.009 A 
ATOM     68  C   UNL     1       3.591   8.683  -7.685  1.00  0.00     0.001 A 
ATOM     69  C   UNL     1       1.685   9.528  -8.905  1.00  0.00     0.001 A 
ATOM     70  C   UNL     1       2.778   9.749  -8.069  1.00  0.00     0.000 A 
ENDBRANCH  51  65
BRANCH  52  71
ATOM     71  C   UNL     1      -0.410  -2.036 -11.837  1.00  0.00    -0.014 A 
ATOM     72  C   UNL     1       0.525  -3.005 -12.227  1.00  0.00     0.009 A 
ATOM     73  C   UNL     1      -1.776  -2.361 -11.858  1.00  0.00     0.009 A 
ATOM     74  C   UNL     1       0.100  -4.269 -12.643  1.00  0.00     0.001 A 
ATOM     75  C   UNL     1      -2.196  -3.633 -12.249  1.00  0.00     0.001 A 
ATOM     76  C   UNL     1      -1.258  -4.584 -12.648  1.00  0.00     0.000 A 
ENDBRANCH  52  71
BRANCH  64  77
ATOM     77  C   UNL     1       2.207   3.492 -15.173  1.00  0.00    -0.014 A 
ATOM     78  C   UNL     1       1.220   3.708 -16.147  1.00  0.00     0.009 A 
ATOM     79  C   UNL     1       3.559   3.551 -15.545  1.00  0.00     0.009 A 
ATOM     80  C   UNL     1       1.582   3.958 -17.472  1.00  0.00     0.001 A 
ATOM     81  C   UNL     1       3.917   3.824 -16.866  1.00  0.00     0.001 A 
ATOM     82  C   UNL     1       2.929   4.020 -17.829  1.00  0.00     0.000 A 
ENDBRANCH  64  77
ENDBRANCH  38  39
ENDBRANCH  31  33
ENDBRANCH  30  31
ENDBRANCH  29  30
ENDBRANCH   1  29
TORSDOF 15
