REMARK SMILES Cc1occc1C(=O)NN1C(=O)/C(=C\c2ccc(O[C@H](C)C(=O)OCCOC(=O)c3ccc(-c4c5nc(c(-c6ccccc6)c6ccc([nH]6)c(-c6ccccc6)c6nc(c(-c7ccccc7)c7ccc4[nH]7)C=C6)C=C5)cc3)cc2)SC1=S
REMARK SMILES IDX 24 1 22 2 23 3 20 4 21 5 19 6 18 7 15 8 16 9 79 10 17 11
REMARK SMILES IDX 78 12 14 13 10 14 11 15 81 16 12 17 13 18 80 19 82 20 9 21
REMARK SMILES IDX 7 22 8 23 6 25 1 26 2 27 3 28 4 29 5 30 25 31 26 32 27 33
REMARK SMILES IDX 28 34 29 35 30 36 31 37 77 38 32 39 76 40 33 41 34 42 35 43
REMARK SMILES IDX 70 44 36 45 75 46 69 47 71 48 37 49 74 50 68 51 67 52 38 54
REMARK SMILES IDX 60 55 45 56 59 57 46 58 49 59 58 60 72 61 47 62 48 63 57 65
REMARK SMILES IDX 73 66 50 67 39 68 40 69 44 70 41 71 43 72 42 73 61 74 62 75
REMARK SMILES IDX 66 76 63 77 65 78 64 79 51 80 52 81 56 82 53 83 55 84 54 85
REMARK H PARENT 9 24 71 53 49 64
REMARK Flexibility Score: inf
ROOT
ATOM      1  O   UNL     1       5.687  -2.716  -6.585  1.00  0.00    -0.459 OA
ENDROOT
BRANCH   1   2
ATOM      2  C   UNL     1       5.417  -3.932  -7.132  1.00  0.00     0.347 C 
ATOM      3  O   UNL     1       5.042  -4.104  -8.289  1.00  0.00    -0.248 OA
BRANCH   2   4
ATOM      4  C   UNL     1       5.600  -5.085  -6.149  1.00  0.00     0.279 C 
ATOM      5  C   UNL     1       6.942  -5.146  -5.415  1.00  0.00     0.066 C 
BRANCH   4   6
ATOM      6  O   UNL     1       4.416  -5.287  -5.385  1.00  0.00    -0.479 OA
BRANCH   6   7
ATOM      7  C   UNL     1       4.215  -4.742  -4.160  1.00  0.00     0.120 A 
ATOM      8  C   UNL     1       3.747  -4.092  -1.470  1.00  0.00    -0.024 A 
ATOM      9  C   UNL     1       4.753  -3.446  -2.194  1.00  0.00     0.012 A 
ATOM     10  C   UNL     1       2.876  -4.945  -2.149  1.00  0.00     0.012 A 
ATOM     11  C   UNL     1       4.970  -3.755  -3.541  1.00  0.00     0.047 A 
ATOM     12  C   UNL     1       3.130  -5.290  -3.476  1.00  0.00     0.047 A 
BRANCH   8  13
ATOM     13  C   UNL     1       3.679  -3.874  -0.019  1.00  0.00     0.029 C 
ATOM     14  N   UNL     1       3.243  -6.925   1.908  1.00  0.00    -0.198 N 
ATOM     15  C   UNL     1       3.575  -6.312   0.712  1.00  0.00     0.285 C 
ATOM     16  C   UNL     1       3.364  -6.187   3.065  1.00  0.00     0.168 C 
ATOM     17  O   UNL     1       3.826  -6.911  -0.323  1.00  0.00    -0.266 OA
ATOM     18  C   UNL     1       3.638  -4.835   0.917  1.00  0.00     0.082 C 
ATOM     19  S   UNL     1       3.627  -4.497   2.620  1.00  0.00    -0.052 SA
ATOM     20  S   UNL     1       3.310  -6.721   4.641  1.00  0.00    -0.050 S 
BRANCH  14  21
ATOM     21  N   UNL     1       3.076  -8.305   1.874  1.00  0.00    -0.254 N 
ATOM     22  C   UNL     1       1.894  -9.004   1.969  1.00  0.00     0.273 C 
ATOM     23  O   UNL     1       1.933 -10.209   1.710  1.00  0.00    -0.267 OA
ATOM     24  H   UNL     1       3.894  -8.842   1.770  1.00  0.00     0.192 HD
BRANCH  22  25
ATOM     25  C   UNL     1       0.662  -8.407   2.471  1.00  0.00     0.082 A 
ATOM     26  C   UNL     1       0.257  -6.022   1.355  1.00  0.00     0.088 C 
ATOM     27  C   UNL     1       0.032  -7.195   2.221  1.00  0.00     0.113 A 
ATOM     28  O   UNL     1      -1.129  -7.110   2.938  1.00  0.00    -0.469 OA
ATOM     29  C   UNL     1      -1.295  -8.278   3.596  1.00  0.00     0.196 A 
ATOM     30  C   UNL     1      -0.246  -9.116   3.329  1.00  0.00     0.056 A 
ENDBRANCH  22  25
ENDBRANCH  14  21
ENDBRANCH   8  13
ENDBRANCH   6   7
ENDBRANCH   4   6
ENDBRANCH   2   4
ENDBRANCH   1   2
BRANCH   1  31
ATOM     31  C   UNL     1       5.481  -1.585  -7.452  1.00  0.00     0.274 C 
BRANCH  31  32
ATOM     32  C   UNL     1       6.781  -1.118  -8.115  1.00  0.00     0.275 C 
BRANCH  32  33
ATOM     33  O   UNL     1       7.316  -2.100  -9.023  1.00  0.00    -0.458 OA
BRANCH  33  34
ATOM     34  C   UNL     1       8.190  -2.970  -8.467  1.00  0.00     0.338 C 
ATOM     35  O   UNL     1       8.587  -2.984  -7.314  1.00  0.00    -0.246 OA
BRANCH  34  36
ATOM     36  C   UNL     1       8.513  -4.041  -9.421  1.00  0.00     0.060 A 
ATOM     37  C   UNL     1       8.130  -5.342  -9.089  1.00  0.00     0.016 A 
ATOM     38  C   UNL     1       9.270  -3.798 -10.567  1.00  0.00     0.016 A 
ATOM     39  C   UNL     1       8.521  -6.415  -9.877  1.00  0.00     0.010 A 
ATOM     40  C   UNL     1       9.652  -4.878 -11.372  1.00  0.00     0.010 A 
ATOM     41  C   UNL     1       9.293  -6.191 -11.021  1.00  0.00    -0.014 A 
BRANCH  41  42
ATOM     42  C   UNL     1       9.756  -7.352 -11.812  1.00  0.00     0.031 A 
ATOM     43  C   UNL     1      11.188  -7.789 -11.727  1.00  0.00     0.074 A 
ATOM     44  C   UNL     1       8.877  -8.041 -12.562  1.00  0.00     0.049 A 
ATOM     45  N   UNL     1      11.802  -8.735 -12.390  1.00  0.00    -0.248 NA
ATOM     46  C   UNL     1      12.042  -7.070 -10.768  1.00  0.00     0.031 C 
ATOM     47  C   UNL     1       7.445  -7.756 -12.664  1.00  0.00     0.029 A 
ATOM     48  N   UNL     1       9.063  -9.129 -13.375  1.00  0.00    -0.354 N 
ATOM     49  C   UNL     1      13.118  -8.710 -11.948  1.00  0.00     0.074 A 
ATOM     50  C   UNL     1      13.217  -7.651 -10.966  1.00  0.00     0.031 C 
ATOM     51  C   UNL     1       6.880  -8.652 -13.490  1.00  0.00     0.029 A 
ATOM     52  C   UNL     1       7.917  -9.537 -14.011  1.00  0.00     0.049 A 
ATOM     53  H   UNL     1       9.934  -9.574 -13.491  1.00  0.00     0.167 HD
ATOM     54  C   UNL     1      14.151  -9.498 -12.330  1.00  0.00     0.031 A 
ATOM     55  C   UNL     1       7.731 -10.499 -14.934  1.00  0.00     0.031 A 
ATOM     56  C   UNL     1      14.049 -10.551 -13.303  1.00  0.00     0.049 A 
ATOM     57  C   UNL     1       8.909 -11.308 -15.396  1.00  0.00     0.074 A 
ATOM     58  C   UNL     1      15.040 -11.402 -13.763  1.00  0.00     0.029 A 
ATOM     59  N   UNL     1      12.882 -10.900 -13.966  1.00  0.00    -0.354 N 
ATOM     60  N   UNL     1      10.155 -11.256 -14.993  1.00  0.00    -0.248 NA
ATOM     61  C   UNL     1       8.654 -12.304 -16.446  1.00  0.00     0.031 C 
ATOM     62  C   UNL     1      14.480 -12.239 -14.734  1.00  0.00     0.029 A 
ATOM     63  C   UNL     1      13.132 -11.939 -14.846  1.00  0.00     0.049 A 
ATOM     64  H   UNL     1      12.006 -10.472 -13.830  1.00  0.00     0.167 HD
ATOM     65  C   UNL     1      10.831 -12.220 -15.729  1.00  0.00     0.074 A 
ATOM     66  C   UNL     1       9.853 -12.852 -16.590  1.00  0.00     0.031 C 
ATOM     67  C   UNL     1      12.145 -12.550 -15.697  1.00  0.00     0.031 A 
BRANCH  54  68
ATOM     68  C   UNL     1      15.493  -9.213 -11.722  1.00  0.00    -0.014 A 
ATOM     69  C   UNL     1      15.790  -9.582 -10.401  1.00  0.00     0.009 A 
ATOM     70  C   UNL     1      16.484  -8.588 -12.495  1.00  0.00     0.009 A 
ATOM     71  C   UNL     1      17.046  -9.302  -9.857  1.00  0.00     0.001 A 
ATOM     72  C   UNL     1      17.745  -8.329 -11.956  1.00  0.00     0.001 A 
ATOM     73  C   UNL     1      18.022  -8.680 -10.635  1.00  0.00     0.000 A 
ENDBRANCH  54  68
BRANCH  55  74
ATOM     74  C   UNL     1       6.383 -10.718 -15.514  1.00  0.00    -0.014 A 
ATOM     75  C   UNL     1       5.649 -11.872 -15.204  1.00  0.00     0.009 A 
ATOM     76  C   UNL     1       5.825  -9.770 -16.387  1.00  0.00     0.009 A 
ATOM     77  C   UNL     1       4.390 -12.081 -15.771  1.00  0.00     0.001 A 
ATOM     78  C   UNL     1       4.556  -9.970 -16.932  1.00  0.00     0.001 A 
ATOM     79  C   UNL     1       3.842 -11.128 -16.630  1.00  0.00     0.000 A 
ENDBRANCH  55  74
BRANCH  67  80
ATOM     80  C   UNL     1      12.589 -13.660 -16.603  1.00  0.00    -0.014 A 
ATOM     81  C   UNL     1      12.742 -13.451 -17.982  1.00  0.00     0.009 A 
ATOM     82  C   UNL     1      12.888 -14.921 -16.065  1.00  0.00     0.009 A 
ATOM     83  C   UNL     1      13.160 -14.494 -18.810  1.00  0.00     0.001 A 
ATOM     84  C   UNL     1      13.327 -15.955 -16.892  1.00  0.00     0.001 A 
ATOM     85  C   UNL     1      13.455 -15.743 -18.264  1.00  0.00     0.000 A 
ENDBRANCH  67  80
ENDBRANCH  41  42
ENDBRANCH  34  36
ENDBRANCH  33  34
ENDBRANCH  32  33
ENDBRANCH  31  32
ENDBRANCH   1  31
TORSDOF 16
