REMARK SMILES COCC[C@@H](C)NC(=O)N[C@@H]1C=C[C@@H](C(=O)OCCOC(=O)c2ccc(-c3c4nc(c(-c5ccccc5)c5ccc([nH]5)c(-c5ccccc5)c5nc(c(-c6ccccc6)c6ccc3[nH]6)C=C5)C=C4)cc2)C1
REMARK SMILES IDX 17 1 15 2 16 3 14 4 11 5 12 6 71 7 13 8 10 9 7 10 8 11 9 13
REMARK SMILES IDX 5 15 6 16 4 17 3 18 2 19 1 20 18 21 19 22 20 23 21 24 22 25
REMARK SMILES IDX 23 26 24 27 70 28 25 29 69 30 26 31 27 32 28 33 63 34 29 35
REMARK SMILES IDX 68 36 62 37 64 38 30 39 67 40 61 41 60 42 31 44 53 45 38 46
REMARK SMILES IDX 52 47 39 48 42 49 51 50 65 51 40 52 41 53 50 55 66 56 43 57
REMARK SMILES IDX 32 58 33 59 37 60 34 61 36 62 35 63 54 64 55 65 59 66 56 67
REMARK SMILES IDX 58 68 57 69 44 70 45 71 49 72 46 73 48 74 47 75
REMARK H PARENT 7 12 10 14 64 43 42 54
REMARK Flexibility Score: inf
ROOT
ATOM      1  O   UNL     1      -3.570   2.152  -1.964  1.00  0.00    -0.462 OA
ENDROOT
BRANCH   1   2
ATOM      2  C   UNL     1      -2.458   2.808  -2.434  1.00  0.00     0.312 C 
ATOM      3  O   UNL     1      -2.491   3.921  -2.946  1.00  0.00    -0.252 OA
BRANCH   2   4
ATOM      4  C   UNL     1      -1.173   2.054  -2.052  1.00  0.00     0.124 C 
ATOM      5  C   UNL     1       0.414   0.353  -2.859  1.00  0.00     0.107 C 
ATOM      6  C   UNL     1       0.964   1.737  -2.988  1.00  0.00    -0.006 C 
ATOM      7  C   UNL     1      -1.068   0.605  -2.562  1.00  0.00     0.048 C 
ATOM      8  C   UNL     1       0.090   2.668  -2.589  1.00  0.00    -0.014 C 
BRANCH   5   9
ATOM      9  N   UNL     1       1.331  -0.435  -2.039  1.00  0.00    -0.332 N 
ATOM     10  N   UNL     1       0.762  -1.064   0.189  1.00  0.00    -0.336 N 
ATOM     11  C   UNL     1       1.539  -1.059  -0.888  1.00  0.00     0.315 C 
ATOM     12  H   UNL     1       0.929  -1.821   0.795  1.00  0.00     0.165 HD
ATOM     13  O   UNL     1       2.580  -1.724  -0.811  1.00  0.00    -0.249 OA
ATOM     14  H   UNL     1       2.150  -0.554  -2.572  1.00  0.00     0.165 HD
BRANCH  10  15
ATOM     15  C   UNL     1      -0.278  -0.177   0.641  1.00  0.00     0.083 C 
ATOM     16  C   UNL     1       0.338   0.898   1.529  1.00  0.00     0.031 C 
BRANCH  15  17
ATOM     17  C   UNL     1      -1.426  -0.929   1.346  1.00  0.00     0.053 C 
BRANCH  17  18
ATOM     18  C   UNL     1      -2.776  -0.689   0.664  1.00  0.00     0.162 C 
BRANCH  18  19
ATOM     19  O   UNL     1      -2.977  -1.650  -0.369  1.00  0.00    -0.385 OA
ATOM     20  C   UNL     1      -4.099  -1.330  -1.182  1.00  0.00     0.194 C 
ENDBRANCH  18  19
ENDBRANCH  17  18
ENDBRANCH  15  17
ENDBRANCH  10  15
ENDBRANCH   5   9
ENDBRANCH   2   4
ENDBRANCH   1   2
BRANCH   1  21
ATOM     21  C   UNL     1      -4.688   3.016  -1.625  1.00  0.00     0.274 C 
BRANCH  21  22
ATOM     22  C   UNL     1      -5.524   2.405  -0.466  1.00  0.00     0.275 C 
BRANCH  22  23
ATOM     23  O   UNL     1      -5.104   2.603   0.924  1.00  0.00    -0.458 OA
BRANCH  23  24
ATOM     24  C   UNL     1      -3.798   2.765   1.173  1.00  0.00     0.338 C 
ATOM     25  O   UNL     1      -2.924   2.857   0.315  1.00  0.00    -0.246 OA
BRANCH  24  26
ATOM     26  C   UNL     1      -3.345   2.779   2.575  1.00  0.00     0.060 A 
ATOM     27  C   UNL     1      -2.022   3.207   2.708  1.00  0.00     0.016 A 
ATOM     28  C   UNL     1      -4.013   2.280   3.695  1.00  0.00     0.016 A 
ATOM     29  C   UNL     1      -1.324   3.012   3.880  1.00  0.00     0.010 A 
ATOM     30  C   UNL     1      -3.337   2.224   4.938  1.00  0.00     0.010 A 
ATOM     31  C   UNL     1      -1.981   2.589   5.038  1.00  0.00    -0.014 A 
BRANCH  31  32
ATOM     32  C   UNL     1      -1.182   2.652   6.295  1.00  0.00     0.031 A 
ATOM     33  C   UNL     1      -0.854   1.431   7.104  1.00  0.00     0.074 A 
ATOM     34  C   UNL     1      -0.597   3.830   6.608  1.00  0.00     0.049 A 
ATOM     35  N   UNL     1      -0.142   1.349   8.200  1.00  0.00    -0.248 NA
ATOM     36  C   UNL     1      -1.386   0.144   6.635  1.00  0.00     0.031 C 
ATOM     37  C   UNL     1      -0.779   5.083   5.863  1.00  0.00     0.029 A 
ATOM     38  N   UNL     1       0.331   4.156   7.565  1.00  0.00    -0.354 N 
ATOM     39  C   UNL     1      -0.187   0.017   8.588  1.00  0.00     0.074 A 
ATOM     40  C   UNL     1      -0.979  -0.680   7.594  1.00  0.00     0.031 C 
ATOM     41  C   UNL     1       0.101   5.990   6.300  1.00  0.00     0.029 A 
ATOM     42  C   UNL     1       0.802   5.443   7.452  1.00  0.00     0.049 A 
ATOM     43  H   UNL     1       0.630   3.530   8.263  1.00  0.00     0.167 HD
ATOM     44  C   UNL     1       0.362  -0.560   9.685  1.00  0.00     0.031 A 
ATOM     45  C   UNL     1       1.666   6.140   8.212  1.00  0.00     0.031 A 
ATOM     46  C   UNL     1       1.173   0.135  10.655  1.00  0.00     0.049 A 
ATOM     47  C   UNL     1       2.235   5.488   9.431  1.00  0.00     0.074 A 
ATOM     48  C   UNL     1       1.748  -0.360  11.814  1.00  0.00     0.029 A 
ATOM     49  N   UNL     1       1.540   1.470  10.571  1.00  0.00    -0.354 N 
ATOM     50  N   UNL     1       2.091   4.252   9.841  1.00  0.00    -0.248 NA
ATOM     51  C   UNL     1       3.046   6.335  10.314  1.00  0.00     0.031 C 
ATOM     52  C   UNL     1       2.425   0.686  12.452  1.00  0.00     0.029 A 
ATOM     53  C   UNL     1       2.315   1.820  11.665  1.00  0.00     0.049 A 
ATOM     54  H   UNL     1       1.286   2.080   9.841  1.00  0.00     0.167 HD
ATOM     55  C   UNL     1       2.772   4.177  11.045  1.00  0.00     0.074 A 
ATOM     56  C   UNL     1       3.366   5.479  11.275  1.00  0.00     0.031 C 
ATOM     57  C   UNL     1       2.877   3.126  11.893  1.00  0.00     0.031 A 
BRANCH  44  58
ATOM     58  C   UNL     1       0.039  -2.005   9.944  1.00  0.00    -0.014 A 
ATOM     59  C   UNL     1       0.637  -3.043   9.215  1.00  0.00     0.009 A 
ATOM     60  C   UNL     1      -0.855  -2.329  10.979  1.00  0.00     0.009 A 
ATOM     61  C   UNL     1       0.324  -4.376   9.500  1.00  0.00     0.001 A 
ATOM     62  C   UNL     1      -1.148  -3.661  11.276  1.00  0.00     0.001 A 
ATOM     63  C   UNL     1      -0.564  -4.683  10.531  1.00  0.00     0.000 A 
ENDBRANCH  44  58
BRANCH  45  64
ATOM     64  C   UNL     1       1.942   7.564   7.888  1.00  0.00    -0.014 A 
ATOM     65  C   UNL     1       3.203   7.974   7.434  1.00  0.00     0.009 A 
ATOM     66  C   UNL     1       0.914   8.517   7.989  1.00  0.00     0.009 A 
ATOM     67  C   UNL     1       3.424   9.309   7.082  1.00  0.00     0.001 A 
ATOM     68  C   UNL     1       1.127   9.840   7.602  1.00  0.00     0.001 A 
ATOM     69  C   UNL     1       2.384  10.236   7.153  1.00  0.00     0.000 A 
ENDBRANCH  45  64
BRANCH  57  70
ATOM     70  C   UNL     1       3.665   3.359  13.148  1.00  0.00    -0.014 A 
ATOM     71  C   UNL     1       3.130   4.114  14.204  1.00  0.00     0.009 A 
ATOM     72  C   UNL     1       4.955   2.825  13.273  1.00  0.00     0.009 A 
ATOM     73  C   UNL     1       3.889   4.358  15.350  1.00  0.00     0.001 A 
ATOM     74  C   UNL     1       5.703   3.052  14.429  1.00  0.00     0.001 A 
ATOM     75  C   UNL     1       5.174   3.826  15.461  1.00  0.00     0.000 A 
ENDBRANCH  57  70
ENDBRANCH  31  32
ENDBRANCH  24  26
ENDBRANCH  23  24
ENDBRANCH  22  23
ENDBRANCH  21  22
ENDBRANCH   1  21
TORSDOF 16
