REMARK SMILES Cc1c(Cl)cccc1NC(=O)NCc1cn([C@@H]2C[NH2+][C@H](C(=O)OCCOC(=O)c3ccc(-c4c5nc(c(-c6ccccc6)c6ccc([nH]6)c(-c6ccccc6)c6nc(c(-c7ccccc7)c7ccc4[nH]7)C=C6)C=C5)cc3)C2)nn1
REMARK SMILES IDX 24 1 23 2 21 3 22 4 20 5 17 6 18 7 77 8 19 9 16 12 14 13
REMARK SMILES IDX 15 14 79 15 78 16 13 17 12 18 9 19 10 20 11 22 8 24 1 25
REMARK SMILES IDX 2 26 3 27 4 28 5 29 7 30 6 31 25 32 26 33 27 34 28 35 29 36
REMARK SMILES IDX 30 37 76 38 31 39 75 40 32 41 33 42 34 43 69 44 35 45 74 46
REMARK SMILES IDX 68 47 70 48 36 49 73 50 67 51 66 52 37 54 59 55 44 56 58 57
REMARK SMILES IDX 45 58 48 59 57 60 71 61 46 62 47 63 56 65 72 66 49 67 38 68
REMARK SMILES IDX 39 69 43 70 40 71 42 72 41 73 60 74 61 75 65 76 62 77 64 78
REMARK SMILES IDX 63 79 50 80 51 81 55 82 52 83 54 84 53 85
REMARK H PARENT 19 10 19 11 9 21 12 23 70 53 48 64
REMARK Flexibility Score: inf
ROOT
ATOM      1  C   UNL     1      -2.928  -7.313  -0.175  1.00  0.00     0.274 C 
ENDROOT
BRANCH   1   2
ATOM      2  O   UNL     1      -3.137  -6.548   1.023  1.00  0.00    -0.458 OA
BRANCH   2   3
ATOM      3  C   UNL     1      -4.427  -6.239   1.327  1.00  0.00     0.365 C 
ATOM      4  O   UNL     1      -5.367  -6.358   0.545  1.00  0.00    -0.245 OA
BRANCH   3   5
ATOM      5  C   UNL     1      -4.619  -5.824   2.799  1.00  0.00     0.295 C 
ATOM      6  C   UNL     1      -4.750  -3.504   3.532  1.00  0.00     0.170 C 
ATOM      7  C   UNL     1      -3.304  -3.974   3.405  1.00  0.00     0.289 C 
ATOM      8  C   UNL     1      -5.577  -4.642   2.930  1.00  0.00     0.110 C 
ATOM      9  N   UNL     1      -3.360  -5.431   3.475  1.00  0.00    -0.333 N 
ATOM     10  H   UNL     1      -3.368  -5.739   4.448  1.00  0.00     0.347 HD
ATOM     11  H   UNL     1      -2.547  -5.858   3.030  1.00  0.00     0.347 HD
BRANCH   6  12
ATOM     12  N   UNL     1      -4.958  -2.240   2.867  1.00  0.00    -0.243 N 
ATOM     13  C   UNL     1      -4.927  -0.629   1.433  1.00  0.00     0.102 A 
ATOM     14  C   UNL     1      -4.778  -1.991   1.546  1.00  0.00     0.137 A 
ATOM     15  N   UNL     1      -5.269  -0.115   2.655  1.00  0.00    -0.134 NA
ATOM     16  N   UNL     1      -5.285  -1.120   3.532  1.00  0.00    -0.067 NA
BRANCH  13  17
ATOM     17  C   UNL     1      -4.724   0.122   0.181  1.00  0.00     0.178 C 
BRANCH  17  18
ATOM     18  N   UNL     1      -4.457   1.521   0.326  1.00  0.00    -0.332 N 
ATOM     19  N   UNL     1      -2.260   2.067  -0.506  1.00  0.00    -0.308 N 
ATOM     20  C   UNL     1      -3.526   2.351  -0.147  1.00  0.00     0.319 C 
ATOM     21  H   UNL     1      -1.807   2.861  -0.871  1.00  0.00     0.171 HD
ATOM     22  O   UNL     1      -3.834   3.551  -0.172  1.00  0.00    -0.248 OA
ATOM     23  H   UNL     1      -5.108   1.974   0.909  1.00  0.00     0.165 HD
BRANCH  19  24
ATOM     24  C   UNL     1      -1.403   0.949  -0.503  1.00  0.00     0.047 A 
ATOM     25  C   UNL     1       0.567   2.420   0.241  1.00  0.00     0.048 C 
ATOM     26  C   UNL     1      -0.069   1.081  -0.048  1.00  0.00    -0.009 A 
ATOM     27  C   UNL     1       0.721  -0.087   0.078  1.00  0.00     0.046 A 
ATOM     28  Cl  UNL     1       2.356  -0.034   0.647  1.00  0.00    -0.084 Cl
ATOM     29  C   UNL     1       0.221  -1.341  -0.271  1.00  0.00     0.021 A 
ATOM     30  C   UNL     1      -1.790  -0.279  -1.041  1.00  0.00     0.026 A 
ATOM     31  C   UNL     1      -1.024  -1.432  -0.871  1.00  0.00     0.004 A 
ENDBRANCH  19  24
ENDBRANCH  17  18
ENDBRANCH  13  17
ENDBRANCH   6  12
ENDBRANCH   3   5
ENDBRANCH   2   3
ENDBRANCH   1   2
BRANCH   1  32
ATOM     32  C   UNL     1      -2.872  -8.800   0.150  1.00  0.00     0.275 C 
BRANCH  32  33
ATOM     33  O   UNL     1      -4.151  -9.312   0.536  1.00  0.00    -0.458 OA
BRANCH  33  34
ATOM     34  C   UNL     1      -4.372  -9.348   1.870  1.00  0.00     0.338 C 
ATOM     35  O   UNL     1      -3.768  -8.751   2.740  1.00  0.00    -0.246 OA
BRANCH  34  36
ATOM     36  C   UNL     1      -5.366 -10.382   2.175  1.00  0.00     0.060 A 
ATOM     37  C   UNL     1      -5.924 -10.397   3.458  1.00  0.00     0.016 A 
ATOM     38  C   UNL     1      -5.551 -11.443   1.280  1.00  0.00     0.016 A 
ATOM     39  C   UNL     1      -6.583 -11.534   3.885  1.00  0.00     0.010 A 
ATOM     40  C   UNL     1      -6.198 -12.579   1.711  1.00  0.00     0.010 A 
ATOM     41  C   UNL     1      -6.661 -12.635   3.025  1.00  0.00    -0.014 A 
BRANCH  41  42
ATOM     42  C   UNL     1      -7.324 -13.836   3.498  1.00  0.00     0.031 A 
ATOM     43  C   UNL     1      -8.794 -13.721   3.627  1.00  0.00     0.074 A 
ATOM     44  C   UNL     1      -6.682 -15.010   3.641  1.00  0.00     0.049 A 
ATOM     45  N   UNL     1      -9.515 -13.900   4.683  1.00  0.00    -0.248 NA
ATOM     46  C   UNL     1      -9.546 -13.265   2.446  1.00  0.00     0.031 C 
ATOM     47  C   UNL     1      -5.303 -15.326   3.255  1.00  0.00     0.029 A 
ATOM     48  N   UNL     1      -7.179 -16.212   4.047  1.00  0.00    -0.354 N 
ATOM     49  C   UNL     1     -10.833 -13.747   4.266  1.00  0.00     0.074 A 
ATOM     50  C   UNL     1     -10.788 -13.227   2.923  1.00  0.00     0.031 C 
ATOM     51  C   UNL     1      -5.147 -16.669   3.235  1.00  0.00     0.029 A 
ATOM     52  C   UNL     1      -6.364 -17.288   3.733  1.00  0.00     0.049 A 
ATOM     53  H   UNL     1      -8.037 -16.306   4.521  1.00  0.00     0.167 HD
ATOM     54  C   UNL     1     -11.870 -14.284   4.960  1.00  0.00     0.031 A 
ATOM     55  C   UNL     1      -6.685 -18.600   3.820  1.00  0.00     0.031 A 
ATOM     56  C   UNL     1     -11.507 -14.626   6.308  1.00  0.00     0.049 A 
ATOM     57  C   UNL     1      -7.840 -18.730   4.733  1.00  0.00     0.074 A 
ATOM     58  C   UNL     1     -11.092 -13.925   7.420  1.00  0.00     0.029 A 
ATOM     59  N   UNL     1     -11.212 -15.944   6.546  1.00  0.00    -0.354 N 
ATOM     60  N   UNL     1      -7.774 -18.501   6.012  1.00  0.00    -0.248 NA
ATOM     61  C   UNL     1      -9.185 -18.784   4.181  1.00  0.00     0.031 C 
ATOM     62  C   UNL     1     -10.200 -14.800   8.106  1.00  0.00     0.029 A 
ATOM     63  C   UNL     1     -10.137 -16.000   7.394  1.00  0.00     0.049 A 
ATOM     64  H   UNL     1     -11.691 -16.719   6.172  1.00  0.00     0.167 HD
ATOM     65  C   UNL     1      -9.005 -17.953   6.335  1.00  0.00     0.074 A 
ATOM     66  C   UNL     1      -9.876 -18.308   5.221  1.00  0.00     0.031 C 
ATOM     67  C   UNL     1      -9.113 -17.022   7.328  1.00  0.00     0.031 A 
BRANCH  54  68
ATOM     68  C   UNL     1     -13.072 -14.885   4.278  1.00  0.00    -0.014 A 
ATOM     69  C   UNL     1     -14.155 -15.319   5.060  1.00  0.00     0.009 A 
ATOM     70  C   UNL     1     -13.056 -15.297   2.930  1.00  0.00     0.009 A 
ATOM     71  C   UNL     1     -15.142 -16.160   4.529  1.00  0.00     0.001 A 
ATOM     72  C   UNL     1     -14.061 -16.099   2.386  1.00  0.00     0.001 A 
ATOM     73  C   UNL     1     -15.092 -16.551   3.195  1.00  0.00     0.000 A 
ENDBRANCH  54  68
BRANCH  55  74
ATOM     74  C   UNL     1      -6.191 -19.725   3.005  1.00  0.00    -0.014 A 
ATOM     75  C   UNL     1      -6.298 -21.047   3.461  1.00  0.00     0.009 A 
ATOM     76  C   UNL     1      -5.842 -19.518   1.658  1.00  0.00     0.009 A 
ATOM     77  C   UNL     1      -6.098 -22.124   2.588  1.00  0.00     0.001 A 
ATOM     78  C   UNL     1      -5.638 -20.593   0.788  1.00  0.00     0.001 A 
ATOM     79  C   UNL     1      -5.782 -21.896   1.250  1.00  0.00     0.000 A 
ENDBRANCH  55  74
BRANCH  67  80
ATOM     80  C   UNL     1      -7.935 -16.870   8.260  1.00  0.00    -0.014 A 
ATOM     81  C   UNL     1      -6.661 -16.467   7.822  1.00  0.00     0.009 A 
ATOM     82  C   UNL     1      -8.142 -17.034   9.637  1.00  0.00     0.009 A 
ATOM     83  C   UNL     1      -5.615 -16.277   8.730  1.00  0.00     0.001 A 
ATOM     84  C   UNL     1      -7.104 -16.820  10.547  1.00  0.00     0.001 A 
ATOM     85  C   UNL     1      -5.839 -16.452  10.093  1.00  0.00     0.000 A 
ENDBRANCH  67  80
ENDBRANCH  41  42
ENDBRANCH  34  36
ENDBRANCH  33  34
ENDBRANCH  32  33
ENDBRANCH   1  32
TORSDOF 15
