REMARK SMILES O=C1NC[C@@H](CSc2ccnc(C(=O)OCCOC(=O)c3ccc(-c4c5nc(c(-c6ccccc6)c6ccc([nH]6)c(-c6ccccc6)c6nc(c(-c7ccccc7)c7ccc4[nH]7)C=C6)C=C5)cc3)c2)O1
REMARK SMILES IDX 16 1 15 2 13 3 14 4 12 5 8 6 9 7 69 8 10 9 11 10 7 11 6 12
REMARK SMILES IDX 5 13 1 14 2 15 3 16 70 17 4 18 17 20 18 21 19 22 20 23 21 24
REMARK SMILES IDX 22 25 68 26 23 27 67 28 24 29 25 30 26 31 61 32 27 33 66 34
REMARK SMILES IDX 60 35 62 36 28 37 65 38 59 39 58 40 29 42 51 43 36 44 50 45
REMARK SMILES IDX 37 46 40 47 49 48 63 49 38 50 39 51 48 53 64 54 41 55 30 56
REMARK SMILES IDX 31 57 35 58 32 59 34 60 33 61 52 62 53 63 57 64 54 65 56 66
REMARK SMILES IDX 55 67 42 68 43 69 47 70 44 71 46 72 45 73
REMARK H PARENT 3 19 62 41 40 52
REMARK Flexibility Score: inf
ROOT
ATOM      1  C   UNL     1       3.560  -4.734  -6.527  1.00  0.00     0.275 C 
ENDROOT
BRANCH   1   2
ATOM      2  O   UNL     1       2.891  -3.811  -5.643  1.00  0.00    -0.457 OA
BRANCH   2   3
ATOM      3  C   UNL     1       1.866  -4.356  -4.935  1.00  0.00     0.357 C 
ATOM      4  O   UNL     1       1.449  -5.498  -5.075  1.00  0.00    -0.244 OA
BRANCH   3   5
ATOM      5  C   UNL     1       1.341  -3.428  -3.882  1.00  0.00     0.149 A 
ATOM      6  C   UNL     1       0.876  -1.293  -2.922  1.00  0.00     0.011 A 
ATOM      7  C   UNL     1       0.091  -1.940  -1.973  1.00  0.00     0.035 A 
ATOM      8  C   UNL     1       1.509  -2.048  -3.914  1.00  0.00     0.051 A 
ATOM      9  C   UNL     1       0.033  -3.314  -1.974  1.00  0.00     0.113 A 
ATOM     10  N   UNL     1       0.631  -4.063  -2.908  1.00  0.00    -0.249 NA
BRANCH   6  11
ATOM     11  S   UNL     1       0.890   0.487  -2.965  1.00  0.00    -0.122 SA
BRANCH  11  12
ATOM     12  C   UNL     1       1.995   0.940  -1.564  1.00  0.00     0.122 C 
BRANCH  12  13
ATOM     13  C   UNL     1       1.451   0.954  -0.124  1.00  0.00     0.208 C 
ATOM     14  O   UNL     1      -1.803   0.363   0.883  1.00  0.00    -0.225 OA
ATOM     15  C   UNL     1      -0.605   0.367   0.670  1.00  0.00     0.407 C 
ATOM     16  N   UNL     1       0.260  -0.605   1.078  1.00  0.00    -0.318 N 
ATOM     17  O   UNL     1       0.061   1.313  -0.050  1.00  0.00    -0.443 OA
ATOM     18  C   UNL     1       1.586  -0.350   0.640  1.00  0.00     0.165 C 
ATOM     19  H   UNL     1      -0.003  -1.388   1.613  1.00  0.00     0.167 HD
ENDBRANCH  12  13
ENDBRANCH  11  12
ENDBRANCH   6  11
ENDBRANCH   3   5
ENDBRANCH   2   3
ENDBRANCH   1   2
BRANCH   1  20
ATOM     20  C   UNL     1       4.798  -5.361  -5.872  1.00  0.00     0.275 C 
BRANCH  20  21
ATOM     21  O   UNL     1       4.470  -6.267  -4.801  1.00  0.00    -0.458 OA
BRANCH  21  22
ATOM     22  C   UNL     1       4.386  -5.704  -3.573  1.00  0.00     0.338 C 
ATOM     23  O   UNL     1       4.551  -4.529  -3.284  1.00  0.00    -0.246 OA
BRANCH  22  24
ATOM     24  C   UNL     1       3.995  -6.715  -2.579  1.00  0.00     0.060 A 
ATOM     25  C   UNL     1       2.761  -6.579  -1.942  1.00  0.00     0.016 A 
ATOM     26  C   UNL     1       4.883  -7.714  -2.184  1.00  0.00     0.016 A 
ATOM     27  C   UNL     1       2.418  -7.410  -0.880  1.00  0.00     0.010 A 
ATOM     28  C   UNL     1       4.525  -8.572  -1.138  1.00  0.00     0.010 A 
ATOM     29  C   UNL     1       3.299  -8.413  -0.463  1.00  0.00    -0.014 A 
BRANCH  29  30
ATOM     30  C   UNL     1       2.975  -9.268   0.707  1.00  0.00     0.031 A 
ATOM     31  C   UNL     1       3.816  -9.177   1.949  1.00  0.00     0.074 A 
ATOM     32  C   UNL     1       1.946 -10.134   0.653  1.00  0.00     0.049 A 
ATOM     33  N   UNL     1       3.829  -9.954   3.002  1.00  0.00    -0.248 NA
ATOM     34  C   UNL     1       4.779  -8.065   2.010  1.00  0.00     0.031 C 
ATOM     35  C   UNL     1       1.008 -10.271  -0.461  1.00  0.00     0.029 A 
ATOM     36  N   UNL     1       1.528 -11.077   1.560  1.00  0.00    -0.354 N 
ATOM     37  C   UNL     1       4.827  -9.453   3.828  1.00  0.00     0.074 A 
ATOM     38  C   UNL     1       5.405  -8.312   3.151  1.00  0.00     0.031 C 
ATOM     39  C   UNL     1       0.126 -11.242  -0.174  1.00  0.00     0.029 A 
ATOM     40  C   UNL     1       0.482 -11.844   1.107  1.00  0.00     0.049 A 
ATOM     41  H   UNL     1       1.938 -11.193   2.447  1.00  0.00     0.167 HD
ATOM     42  C   UNL     1       5.229  -9.909   5.040  1.00  0.00     0.031 A 
ATOM     43  C   UNL     1      -0.094 -12.938   1.639  1.00  0.00     0.031 A 
ATOM     44  C   UNL     1       4.645 -11.042   5.707  1.00  0.00     0.049 A 
ATOM     45  C   UNL     1       0.425 -13.478   2.943  1.00  0.00     0.074 A 
ATOM     46  C   UNL     1       4.976 -11.584   6.938  1.00  0.00     0.029 A 
ATOM     47  N   UNL     1       3.606 -11.808   5.199  1.00  0.00    -0.354 N 
ATOM     48  N   UNL     1       1.386 -13.015   3.705  1.00  0.00    -0.248 NA
ATOM     49  C   UNL     1      -0.219 -14.695   3.458  1.00  0.00     0.031 C 
ATOM     50  C   UNL     1       4.176 -12.711   7.147  1.00  0.00     0.029 A 
ATOM     51  C   UNL     1       3.298 -12.829   6.081  1.00  0.00     0.049 A 
ATOM     52  H   UNL     1       3.155 -11.648   4.339  1.00  0.00     0.167 HD
ATOM     53  C   UNL     1       1.437 -13.860   4.807  1.00  0.00     0.074 A 
ATOM     54  C   UNL     1       0.406 -14.860   4.616  1.00  0.00     0.031 C 
ATOM     55  C   UNL     1       2.259 -13.807   5.883  1.00  0.00     0.031 A 
BRANCH  42  56
ATOM     56  C   UNL     1       6.389  -9.210   5.695  1.00  0.00    -0.014 A 
ATOM     57  C   UNL     1       6.272  -7.910   6.209  1.00  0.00     0.009 A 
ATOM     58  C   UNL     1       7.616  -9.881   5.823  1.00  0.00     0.009 A 
ATOM     59  C   UNL     1       7.372  -7.281   6.800  1.00  0.00     0.001 A 
ATOM     60  C   UNL     1       8.704  -9.263   6.443  1.00  0.00     0.001 A 
ATOM     61  C   UNL     1       8.584  -7.960   6.920  1.00  0.00     0.000 A 
ENDBRANCH  42  56
BRANCH  43  62
ATOM     62  C   UNL     1      -1.202 -13.622   0.919  1.00  0.00    -0.014 A 
ATOM     63  C   UNL     1      -2.503 -13.619   1.443  1.00  0.00     0.009 A 
ATOM     64  C   UNL     1      -0.962 -14.289  -0.293  1.00  0.00     0.009 A 
ATOM     65  C   UNL     1      -3.535 -14.290   0.780  1.00  0.00     0.001 A 
ATOM     66  C   UNL     1      -2.001 -14.930  -0.970  1.00  0.00     0.001 A 
ATOM     67  C   UNL     1      -3.284 -14.939  -0.427  1.00  0.00     0.000 A 
ENDBRANCH  43  62
BRANCH  55  68
ATOM     68  C   UNL     1       2.036 -14.816   6.975  1.00  0.00    -0.014 A 
ATOM     69  C   UNL     1       2.384 -16.165   6.815  1.00  0.00     0.009 A 
ATOM     70  C   UNL     1       1.519 -14.387   8.209  1.00  0.00     0.009 A 
ATOM     71  C   UNL     1       2.194 -17.070   7.862  1.00  0.00     0.001 A 
ATOM     72  C   UNL     1       1.360 -15.287   9.263  1.00  0.00     0.001 A 
ATOM     73  C   UNL     1       1.690 -16.629   9.086  1.00  0.00     0.000 A 
ENDBRANCH  55  68
ENDBRANCH  29  30
ENDBRANCH  22  24
ENDBRANCH  21  22
ENDBRANCH  20  21
ENDBRANCH   1  20
TORSDOF 14
