REMARK SMILES CC1(C(=O)N2CC[C@H](C(=O)OCCOC(=O)c3ccc(-c4c5nc(c(-c6ccccc6)c6ccc([nH]6)c(-c6ccccc6)c6nc(c(-c7ccccc7)c7ccc4[nH]7)C=C6)C=C5)cc3)C2)CCCC1
REMARK SMILES IDX 12 1 11 2 9 3 10 4 8 5 5 6 6 7 65 8 7 9 3 10 4 11 2 12 1 13
REMARK SMILES IDX 66 14 69 15 67 16 68 17 13 18 14 19 15 20 16 21 17 22 18 23
REMARK SMILES IDX 64 24 19 25 63 26 20 27 21 28 22 29 57 30 23 31 62 32 56 33
REMARK SMILES IDX 58 34 24 35 61 36 55 37 54 38 25 40 47 41 32 42 46 43 33 44
REMARK SMILES IDX 36 45 45 46 59 47 34 48 35 49 44 51 60 52 37 53 26 54 27 55
REMARK SMILES IDX 31 56 28 57 30 58 29 59 48 60 49 61 53 62 50 63 52 64 51 65
REMARK SMILES IDX 38 66 39 67 43 68 40 69 42 70 41 71
REMARK H PARENT 58 39 36 50
REMARK Flexibility Score: inf
ROOT
ATOM      1  C   UNL     1       1.939  -6.180   2.871  1.00  0.00     0.274 C 
ENDROOT
BRANCH   1   2
ATOM      2  O   UNL     1       2.354  -4.886   2.394  1.00  0.00    -0.462 OA
BRANCH   2   3
ATOM      3  C   UNL     1       3.044  -4.097   3.256  1.00  0.00     0.310 C 
ATOM      4  O   UNL     1       3.240  -4.354   4.437  1.00  0.00    -0.252 OA
BRANCH   3   5
ATOM      5  C   UNL     1       3.571  -2.838   2.605  1.00  0.00     0.120 C 
ATOM      6  N   UNL     1       2.540  -0.957   1.620  1.00  0.00    -0.341 N 
ATOM      7  C   UNL     1       3.515  -1.444   0.669  1.00  0.00     0.120 C 
ATOM      8  C   UNL     1       2.670  -1.647   2.891  1.00  0.00     0.134 C 
ATOM      9  C   UNL     1       3.708  -2.886   1.079  1.00  0.00     0.038 C 
BRANCH   6  10
ATOM     10  C   UNL     1       1.701   0.128   1.512  1.00  0.00     0.228 C 
ATOM     11  O   UNL     1       1.527   0.873   2.478  1.00  0.00    -0.274 OA
BRANCH  10  12
ATOM     12  C   UNL     1       0.809   0.208   0.256  1.00  0.00     0.047 C 
ATOM     13  C   UNL     1       1.562   0.418  -1.063  1.00  0.00     0.022 C 
ATOM     14  C   UNL     1      -0.259   1.312   0.420  1.00  0.00     0.016 C 
ATOM     15  C   UNL     1      -0.078  -1.054   0.230  1.00  0.00     0.016 C 
ATOM     16  C   UNL     1      -1.450   0.854  -0.417  1.00  0.00     0.001 C 
ATOM     17  C   UNL     1      -1.350  -0.664  -0.508  1.00  0.00     0.001 C 
ENDBRANCH  10  12
ENDBRANCH   6  10
ENDBRANCH   3   5
ENDBRANCH   2   3
ENDBRANCH   1   2
BRANCH   1  18
ATOM     18  C   UNL     1       2.830  -7.285   2.294  1.00  0.00     0.275 C 
BRANCH  18  19
ATOM     19  O   UNL     1       4.179  -7.188   2.790  1.00  0.00    -0.458 OA
BRANCH  19  20
ATOM     20  C   UNL     1       5.032  -6.494   2.000  1.00  0.00     0.338 C 
ATOM     21  O   UNL     1       4.795  -5.984   0.919  1.00  0.00    -0.246 OA
BRANCH  20  22
ATOM     22  C   UNL     1       6.304  -6.287   2.708  1.00  0.00     0.060 A 
ATOM     23  C   UNL     1       6.660  -4.975   3.029  1.00  0.00     0.016 A 
ATOM     24  C   UNL     1       7.177  -7.341   2.975  1.00  0.00     0.016 A 
ATOM     25  C   UNL     1       7.887  -4.702   3.620  1.00  0.00     0.010 A 
ATOM     26  C   UNL     1       8.416  -7.067   3.567  1.00  0.00     0.010 A 
ATOM     27  C   UNL     1       8.781  -5.746   3.884  1.00  0.00    -0.014 A 
BRANCH  27  28
ATOM     28  C   UNL     1      10.118  -5.429   4.434  1.00  0.00     0.031 A 
ATOM     29  C   UNL     1      11.322  -5.471   3.540  1.00  0.00     0.074 A 
ATOM     30  C   UNL     1      10.242  -5.054   5.721  1.00  0.00     0.049 A 
ATOM     31  N   UNL     1      12.582  -5.287   3.842  1.00  0.00    -0.248 NA
ATOM     32  C   UNL     1      11.077  -5.753   2.116  1.00  0.00     0.031 C 
ATOM     33  C   UNL     1       9.139  -4.907   6.670  1.00  0.00     0.029 A 
ATOM     34  N   UNL     1      11.357  -4.722   6.447  1.00  0.00    -0.354 N 
ATOM     35  C   UNL     1      13.282  -5.452   2.654  1.00  0.00     0.074 A 
ATOM     36  C   UNL     1      12.309  -5.760   1.627  1.00  0.00     0.031 C 
ATOM     37  C   UNL     1       9.633  -4.507   7.854  1.00  0.00     0.029 A 
ATOM     38  C   UNL     1      11.086  -4.417   7.758  1.00  0.00     0.049 A 
ATOM     39  H   UNL     1      12.265  -4.703   6.065  1.00  0.00     0.167 HD
ATOM     40  C   UNL     1      14.615  -5.357   2.440  1.00  0.00     0.031 A 
ATOM     41  C   UNL     1      11.920  -4.127   8.774  1.00  0.00     0.031 A 
ATOM     42  C   UNL     1      15.582  -5.048   3.459  1.00  0.00     0.049 A 
ATOM     43  C   UNL     1      13.402  -4.101   8.525  1.00  0.00     0.074 A 
ATOM     44  C   UNL     1      16.956  -4.938   3.341  1.00  0.00     0.029 A 
ATOM     45  N   UNL     1      15.272  -4.797   4.787  1.00  0.00    -0.354 N 
ATOM     46  N   UNL     1      14.054  -4.286   7.403  1.00  0.00    -0.248 NA
ATOM     47  C   UNL     1      14.262  -3.832   9.686  1.00  0.00     0.031 C 
ATOM     48  C   UNL     1      17.483  -4.658   4.607  1.00  0.00     0.029 A 
ATOM     49  C   UNL     1      16.431  -4.550   5.503  1.00  0.00     0.049 A 
ATOM     50  H   UNL     1      14.363  -4.794   5.164  1.00  0.00     0.167 HD
ATOM     51  C   UNL     1      15.398  -4.139   7.718  1.00  0.00     0.074 A 
ATOM     52  C   UNL     1      15.467  -3.833   9.132  1.00  0.00     0.031 C 
ATOM     53  C   UNL     1      16.479  -4.249   6.909  1.00  0.00     0.031 A 
BRANCH  40  54
ATOM     54  C   UNL     1      15.111  -5.635   1.050  1.00  0.00    -0.014 A 
ATOM     55  C   UNL     1      14.945  -4.702   0.016  1.00  0.00     0.009 A 
ATOM     56  C   UNL     1      15.781  -6.839   0.782  1.00  0.00     0.009 A 
ATOM     57  C   UNL     1      15.418  -4.981  -1.268  1.00  0.00     0.001 A 
ATOM     58  C   UNL     1      16.272  -7.106  -0.497  1.00  0.00     0.001 A 
ATOM     59  C   UNL     1      16.084  -6.180  -1.522  1.00  0.00     0.000 A 
ENDBRANCH  40  54
BRANCH  41  60
ATOM     60  C   UNL     1      11.376  -3.877  10.133  1.00  0.00    -0.014 A 
ATOM     61  C   UNL     1      11.415  -2.592  10.695  1.00  0.00     0.009 A 
ATOM     62  C   UNL     1      10.825  -4.930  10.881  1.00  0.00     0.009 A 
ATOM     63  C   UNL     1      10.931  -2.372  11.987  1.00  0.00     0.001 A 
ATOM     64  C   UNL     1      10.318  -4.701  12.161  1.00  0.00     0.001 A 
ATOM     65  C   UNL     1      10.379  -3.424  12.716  1.00  0.00     0.000 A 
ENDBRANCH  41  60
BRANCH  53  66
ATOM     66  C   UNL     1      17.824  -4.009   7.531  1.00  0.00    -0.014 A 
ATOM     67  C   UNL     1      18.421  -4.970   8.361  1.00  0.00     0.009 A 
ATOM     68  C   UNL     1      18.514  -2.818   7.256  1.00  0.00     0.009 A 
ATOM     69  C   UNL     1      19.674  -4.729   8.927  1.00  0.00     0.001 A 
ATOM     70  C   UNL     1      19.777  -2.591   7.805  1.00  0.00     0.001 A 
ATOM     71  C   UNL     1      20.352  -3.542   8.646  1.00  0.00     0.000 A 
ENDBRANCH  53  66
ENDBRANCH  27  28
ENDBRANCH  20  22
ENDBRANCH  19  20
ENDBRANCH  18  19
ENDBRANCH   1  18
TORSDOF 13
