REMARK SMILES O=C(NC[C@@H]1CC[C@H](C(=O)OCCOC(=O)c2ccc(-c3c4nc(c(-c5ccccc5)c5ccc([nH]5)c(-c5ccccc5)c5nc(c(-c6ccccc6)c6ccc3[nH]6)C=C5)C=C4)cc2)O1)c1ccc(CO)cc1
REMARK SMILES IDX 11 1 9 2 10 3 8 4 5 5 6 6 65 7 7 8 4 9 3 10 1 11 2 12 66 14
REMARK SMILES IDX 67 15 73 16 68 17 72 18 69 19 70 20 71 21 12 23 13 24 14 25
REMARK SMILES IDX 15 26 16 27 17 28 18 29 64 30 19 31 63 32 20 33 21 34 22 35
REMARK SMILES IDX 57 36 23 37 62 38 56 39 58 40 24 41 61 42 55 43 54 44 25 46
REMARK SMILES IDX 47 47 32 48 46 49 33 50 36 51 45 52 59 53 34 54 35 55 44 57
REMARK SMILES IDX 60 58 37 59 26 60 27 61 31 62 28 63 30 64 29 65 48 66 49 67
REMARK SMILES IDX 53 68 50 69 52 70 51 71 38 72 39 73 43 74 40 75 42 76 41 77
REMARK H PARENT 3 13 71 22 58 45 36 56
REMARK Flexibility Score: inf
ROOT
ATOM      1  O   UNL     1       6.986  -3.929   0.292  1.00  0.00    -0.460 OA
ENDROOT
BRANCH   1   2
ATOM      2  C   UNL     1       5.928  -4.333   1.050  1.00  0.00     0.335 C 
ATOM      3  O   UNL     1       5.314  -5.380   0.877  1.00  0.00    -0.249 OA
BRANCH   2   4
ATOM      4  C   UNL     1       5.555  -3.319   2.146  1.00  0.00     0.228 C 
ATOM      5  C   UNL     1       4.844  -1.221   1.412  1.00  0.00     0.138 C 
ATOM      6  C   UNL     1       6.351  -1.154   1.625  1.00  0.00     0.037 C 
ATOM      7  O   UNL     1       4.413  -2.546   1.772  1.00  0.00    -0.361 OA
ATOM      8  C   UNL     1       6.630  -2.322   2.535  1.00  0.00     0.047 C 
BRANCH   5   9
ATOM      9  C   UNL     1       4.455  -0.970  -0.047  1.00  0.00     0.148 C 
BRANCH   9  10
ATOM     10  N   UNL     1       3.013  -0.812  -0.193  1.00  0.00    -0.349 N 
ATOM     11  O   UNL     1       1.049   0.309  -0.158  1.00  0.00    -0.269 OA
ATOM     12  C   UNL     1       2.270   0.339  -0.260  1.00  0.00     0.251 C 
ATOM     13  H   UNL     1       2.500  -1.650  -0.253  1.00  0.00     0.163 HD
BRANCH  12  14
ATOM     14  C   UNL     1       2.960   1.636  -0.411  1.00  0.00     0.039 A 
ATOM     15  C   UNL     1       3.849   1.857  -1.466  1.00  0.00     0.014 A 
ATOM     16  C   UNL     1       2.706   2.643   0.522  1.00  0.00     0.014 A 
ATOM     17  C   UNL     1       4.554   3.058  -1.536  1.00  0.00     0.007 A 
ATOM     18  C   UNL     1       3.399   3.852   0.440  1.00  0.00     0.007 A 
ATOM     19  C   UNL     1       4.337   4.063  -0.582  1.00  0.00    -0.023 A 
BRANCH  19  20
ATOM     20  C   UNL     1       5.148   5.330  -0.631  1.00  0.00     0.191 C 
BRANCH  20  21
ATOM     21  O   UNL     1       6.428   5.113  -0.052  1.00  0.00    -0.392 OA
ATOM     22  H   UNL     1       6.322   4.842   0.874  1.00  0.00     0.211 HD
ENDBRANCH  20  21
ENDBRANCH  19  20
ENDBRANCH  12  14
ENDBRANCH   9  10
ENDBRANCH   5   9
ENDBRANCH   2   4
ENDBRANCH   1   2
BRANCH   1  23
ATOM     23  C   UNL     1       7.410  -4.833  -0.749  1.00  0.00     0.274 C 
BRANCH  23  24
ATOM     24  C   UNL     1       8.670  -5.607  -0.351  1.00  0.00     0.275 C 
BRANCH  24  25
ATOM     25  O   UNL     1       8.429  -6.477   0.771  1.00  0.00    -0.458 OA
BRANCH  25  26
ATOM     26  C   UNL     1       8.744  -5.946   1.974  1.00  0.00     0.338 C 
ATOM     27  O   UNL     1       9.237  -4.852   2.195  1.00  0.00    -0.246 OA
BRANCH  26  28
ATOM     28  C   UNL     1       8.247  -6.809   3.055  1.00  0.00     0.060 A 
ATOM     29  C   UNL     1       7.217  -6.301   3.847  1.00  0.00     0.016 A 
ATOM     30  C   UNL     1       8.856  -8.022   3.377  1.00  0.00     0.016 A 
ATOM     31  C   UNL     1       6.798  -6.986   4.979  1.00  0.00     0.010 A 
ATOM     32  C   UNL     1       8.436  -8.713   4.521  1.00  0.00     0.010 A 
ATOM     33  C   UNL     1       7.422  -8.185   5.340  1.00  0.00    -0.014 A 
BRANCH  33  34
ATOM     34  C   UNL     1       7.064  -8.797   6.641  1.00  0.00     0.031 A 
ATOM     35  C   UNL     1       7.989  -8.641   7.815  1.00  0.00     0.074 A 
ATOM     36  C   UNL     1       5.870  -9.397   6.798  1.00  0.00     0.049 A 
ATOM     37  N   UNL     1       7.850  -9.078   9.041  1.00  0.00    -0.248 NA
ATOM     38  C   UNL     1       9.232  -7.889   7.580  1.00  0.00     0.031 C 
ATOM     39  C   UNL     1       4.857  -9.550   5.754  1.00  0.00     0.029 A 
ATOM     40  N   UNL     1       5.299  -9.963   7.909  1.00  0.00    -0.354 N 
ATOM     41  C   UNL     1       8.995  -8.677   9.716  1.00  0.00     0.074 A 
ATOM     42  C   UNL     1       9.824  -7.970   8.763  1.00  0.00     0.031 C 
ATOM     43  C   UNL     1       3.775 -10.148   6.282  1.00  0.00     0.029 A 
ATOM     44  C   UNL     1       4.035 -10.450   7.686  1.00  0.00     0.049 A 
ATOM     45  H   UNL     1       5.751 -10.014   8.782  1.00  0.00     0.167 HD
ATOM     46  C   UNL     1       9.329  -8.879  11.013  1.00  0.00     0.031 A 
ATOM     47  C   UNL     1       3.186 -11.079   8.520  1.00  0.00     0.031 A 
ATOM     48  C   UNL     1       8.504  -9.569  11.967  1.00  0.00     0.049 A 
ATOM     49  C   UNL     1       3.593 -11.319   9.946  1.00  0.00     0.074 A 
ATOM     50  C   UNL     1       8.764  -9.837  13.300  1.00  0.00     0.029 A 
ATOM     51  N   UNL     1       7.250 -10.091  11.690  1.00  0.00    -0.354 N 
ATOM     52  N   UNL     1       4.695 -10.965  10.561  1.00  0.00    -0.248 NA
ATOM     53  C   UNL     1       2.636 -12.048  10.791  1.00  0.00     0.031 C 
ATOM     54  C   UNL     1       7.677 -10.550  13.822  1.00  0.00     0.029 A 
ATOM     55  C   UNL     1       6.728 -10.690  12.824  1.00  0.00     0.049 A 
ATOM     56  H   UNL     1       6.799 -10.044  10.816  1.00  0.00     0.167 HD
ATOM     57  C   UNL     1       4.561 -11.419  11.866  1.00  0.00     0.074 A 
ATOM     58  C   UNL     1       3.262 -12.054  11.960  1.00  0.00     0.031 C 
ATOM     59  C   UNL     1       5.437 -11.322  12.895  1.00  0.00     0.031 A 
BRANCH  46  60
ATOM     60  C   UNL     1      10.672  -8.379  11.458  1.00  0.00    -0.014 A 
ATOM     61  C   UNL     1      10.900  -7.016  11.697  1.00  0.00     0.009 A 
ATOM     62  C   UNL     1      11.720  -9.292  11.652  1.00  0.00     0.009 A 
ATOM     63  C   UNL     1      12.164  -6.572  12.092  1.00  0.00     0.001 A 
ATOM     64  C   UNL     1      12.976  -8.848  12.067  1.00  0.00     0.001 A 
ATOM     65  C   UNL     1      13.200  -7.489  12.279  1.00  0.00     0.000 A 
ENDBRANCH  46  60
BRANCH  47  66
ATOM     66  C   UNL     1       1.867 -11.543   8.021  1.00  0.00    -0.014 A 
ATOM     67  C   UNL     1       0.686 -10.896   8.412  1.00  0.00     0.009 A 
ATOM     68  C   UNL     1       1.788 -12.641   7.150  1.00  0.00     0.009 A 
ATOM     69  C   UNL     1      -0.552 -11.353   7.953  1.00  0.00     0.001 A 
ATOM     70  C   UNL     1       0.551 -13.080   6.676  1.00  0.00     0.001 A 
ATOM     71  C   UNL     1      -0.618 -12.440   7.083  1.00  0.00     0.000 A 
ENDBRANCH  47  66
BRANCH  59  72
ATOM     72  C   UNL     1       5.006 -11.902  14.210  1.00  0.00    -0.014 A 
ATOM     73  C   UNL     1       5.011 -13.289  14.424  1.00  0.00     0.009 A 
ATOM     74  C   UNL     1       4.611 -11.050  15.252  1.00  0.00     0.009 A 
ATOM     75  C   UNL     1       4.596 -13.813  15.649  1.00  0.00     0.001 A 
ATOM     76  C   UNL     1       4.216 -11.577  16.483  1.00  0.00     0.001 A 
ATOM     77  C   UNL     1       4.201 -12.957  16.677  1.00  0.00     0.000 A 
ENDBRANCH  59  72
ENDBRANCH  33  34
ENDBRANCH  26  28
ENDBRANCH  25  26
ENDBRANCH  24  25
ENDBRANCH  23  24
ENDBRANCH   1  23
TORSDOF 16
