REMARK SMILES Cc1c(-c2nn(-c3ccccc3)cc2/C=N/O)nnn1-c1ccc(C(=O)OCCOC(=O)c2ccc(-c3c4nc(c(-c5ccccc5)c5ccc([nH]5)c(-c5ccccc5)c5nc(c(-c6ccccc6)c6ccc3[nH]6)C=C5)C=C4)cc2)cc1
REMARK SMILES IDX 28 1 27 2 25 3 26 4 24 5 21 6 22 7 82 8 23 9 81 10 20 11
REMARK SMILES IDX 1 12 2 13 3 14 18 15 19 16 4 17 5 18 14 19 6 20 13 21 15 22
REMARK SMILES IDX 16 23 17 24 7 26 8 27 12 28 9 29 11 30 10 31 29 32 30 33
REMARK SMILES IDX 31 34 32 35 33 36 34 37 80 38 35 39 79 40 36 41 37 42 38 43
REMARK SMILES IDX 73 44 39 45 78 46 72 47 74 48 40 49 77 50 71 51 70 52 41 54
REMARK SMILES IDX 63 55 48 56 62 57 49 58 52 59 61 60 75 61 50 62 51 63 60 65
REMARK SMILES IDX 76 66 53 67 42 68 43 69 47 70 44 71 46 72 45 73 64 74 65 75
REMARK SMILES IDX 69 76 66 77 68 78 67 79 54 80 55 81 59 82 56 83 58 84 57 85
REMARK H PARENT 17 25 74 53 52 64
REMARK Flexibility Score: inf
ROOT
ATOM      1  C   UNL     1       2.767   4.970  -5.516  1.00  0.00     0.275 C 
ENDROOT
BRANCH   1   2
ATOM      2  O   UNL     1       2.213   4.347  -4.346  1.00  0.00    -0.458 OA
BRANCH   2   3
ATOM      3  C   UNL     1       3.061   4.198  -3.296  1.00  0.00     0.338 C 
ATOM      4  O   UNL     1       4.264   4.419  -3.300  1.00  0.00    -0.246 OA
BRANCH   3   5
ATOM      5  C   UNL     1       2.317   3.796  -2.077  1.00  0.00     0.060 A 
ATOM      6  C   UNL     1       1.113   2.828   0.236  1.00  0.00     0.067 A 
ATOM      7  C   UNL     1       2.283   3.582   0.345  1.00  0.00     0.029 A 
ATOM      8  C   UNL     1       0.481   2.658  -1.004  1.00  0.00     0.029 A 
ATOM      9  C   UNL     1       2.899   4.040  -0.822  1.00  0.00     0.018 A 
ATOM     10  C   UNL     1       1.076   3.157  -2.160  1.00  0.00     0.018 A 
BRANCH   6  11
ATOM     11  N   UNL     1       0.631   2.130   1.362  1.00  0.00    -0.217 N 
ATOM     12  C   UNL     1       0.596  -0.208   0.370  1.00  0.00     0.069 C 
ATOM     13  C   UNL     1       0.318   0.786   1.435  1.00  0.00     0.071 A 
ATOM     14  C   UNL     1      -0.129   0.636   2.731  1.00  0.00     0.137 A 
ATOM     15  N   UNL     1       0.010   1.810   3.415  1.00  0.00    -0.128 NA
ATOM     16  N   UNL     1       0.553   2.698   2.588  1.00  0.00    -0.061 NA
BRANCH  14  17
ATOM     17  C   UNL     1      -0.575  -0.593   3.376  1.00  0.00     0.124 A 
ATOM     18  N   UNL     1       0.271  -1.600   3.628  1.00  0.00    -0.165 NA
ATOM     19  C   UNL     1      -1.912  -0.915   3.702  1.00  0.00     0.044 A 
ATOM     20  N   UNL     1      -0.523  -2.618   4.023  1.00  0.00    -0.240 N 
ATOM     21  C   UNL     1      -1.847  -2.246   4.070  1.00  0.00     0.125 A 
BRANCH  19  22
ATOM     22  C   UNL     1      -3.121  -0.131   3.671  1.00  0.00     0.166 C 
ATOM     23  N   UNL     1      -3.109   1.061   3.176  1.00  0.00    -0.097 NA
BRANCH  23  24
ATOM     24  O   UNL     1      -4.384   1.625   3.296  1.00  0.00    -0.411 OA
ATOM     25  H   UNL     1      -4.544   2.493   2.982  1.00  0.00     0.330 HD
ENDBRANCH  23  24
ENDBRANCH  19  22
BRANCH  20  26
ATOM     26  C   UNL     1       0.021  -3.893   4.306  1.00  0.00     0.065 A 
ATOM     27  C   UNL     1       1.317  -3.982   4.831  1.00  0.00     0.028 A 
ATOM     28  C   UNL     1      -0.720  -5.056   4.058  1.00  0.00     0.028 A 
ATOM     29  C   UNL     1       1.855  -5.231   5.140  1.00  0.00     0.002 A 
ATOM     30  C   UNL     1      -0.152  -6.304   4.322  1.00  0.00     0.002 A 
ATOM     31  C   UNL     1       1.127  -6.391   4.876  1.00  0.00     0.000 A 
ENDBRANCH  20  26
ENDBRANCH  14  17
ENDBRANCH   6  11
ENDBRANCH   3   5
ENDBRANCH   2   3
ENDBRANCH   1   2
BRANCH   1  32
ATOM     32  C   UNL     1       2.632   6.485  -5.456  1.00  0.00     0.275 C 
BRANCH  32  33
ATOM     33  O   UNL     1       3.493   7.050  -4.469  1.00  0.00    -0.458 OA
BRANCH  33  34
ATOM     34  C   UNL     1       2.929   7.228  -3.253  1.00  0.00     0.338 C 
ATOM     35  O   UNL     1       1.875   6.768  -2.848  1.00  0.00    -0.246 OA
BRANCH  34  36
ATOM     36  C   UNL     1       3.665   8.269  -2.532  1.00  0.00     0.060 A 
ATOM     37  C   UNL     1       3.317   8.499  -1.197  1.00  0.00     0.016 A 
ATOM     38  C   UNL     1       4.443   9.176  -3.264  1.00  0.00     0.016 A 
ATOM     39  C   UNL     1       3.608   9.728  -0.641  1.00  0.00     0.010 A 
ATOM     40  C   UNL     1       4.716  10.404  -2.716  1.00  0.00     0.010 A 
ATOM     41  C   UNL     1       4.232  10.690  -1.440  1.00  0.00    -0.014 A 
BRANCH  41  42
ATOM     42  C   UNL     1       4.432  12.018  -0.901  1.00  0.00     0.031 A 
ATOM     43  C   UNL     1       5.527  12.122   0.089  1.00  0.00     0.074 A 
ATOM     44  C   UNL     1       3.795  13.084  -1.421  1.00  0.00     0.049 A 
ATOM     45  N   UNL     1       5.467  12.601   1.286  1.00  0.00    -0.248 NA
ATOM     46  C   UNL     1       6.828  11.529  -0.262  1.00  0.00     0.031 C 
ATOM     47  C   UNL     1       2.918  13.121  -2.595  1.00  0.00     0.029 A 
ATOM     48  N   UNL     1       3.935  14.396  -1.096  1.00  0.00    -0.354 N 
ATOM     49  C   UNL     1       6.758  12.513   1.794  1.00  0.00     0.074 A 
ATOM     50  C   UNL     1       7.520  11.727   0.858  1.00  0.00     0.031 C 
ATOM     51  C   UNL     1       2.821  14.398  -3.028  1.00  0.00     0.029 A 
ATOM     52  C   UNL     1       3.536  15.263  -2.103  1.00  0.00     0.049 A 
ATOM     53  H   UNL     1       4.286  14.703  -0.229  1.00  0.00     0.167 HD
ATOM     54  C   UNL     1       7.170  13.274   2.841  1.00  0.00     0.031 A 
ATOM     55  C   UNL     1       3.861  16.574  -2.215  1.00  0.00     0.031 A 
ATOM     56  C   UNL     1       6.066  13.830   3.575  1.00  0.00     0.049 A 
ATOM     57  C   UNL     1       4.334  17.038  -0.888  1.00  0.00     0.074 A 
ATOM     58  C   UNL     1       4.997  13.291   4.262  1.00  0.00     0.029 A 
ATOM     59  N   UNL     1       5.748  15.148   3.347  1.00  0.00    -0.354 N 
ATOM     60  N   UNL     1       3.552  17.172   0.145  1.00  0.00    -0.248 NA
ATOM     61  C   UNL     1       5.753  16.931  -0.580  1.00  0.00     0.031 C 
ATOM     62  C   UNL     1       3.907  14.166   3.988  1.00  0.00     0.029 A 
ATOM     63  C   UNL     1       4.386  15.212   3.197  1.00  0.00     0.049 A 
ATOM     64  H   UNL     1       6.378  15.902   3.300  1.00  0.00     0.167 HD
ATOM     65  C   UNL     1       4.305  16.718   1.219  1.00  0.00     0.074 A 
ATOM     66  C   UNL     1       5.684  16.699   0.735  1.00  0.00     0.031 C 
ATOM     67  C   UNL     1       3.712  16.118   2.294  1.00  0.00     0.031 A 
BRANCH  54  68
ATOM     68  C   UNL     1       8.566  13.820   2.955  1.00  0.00    -0.014 A 
ATOM     69  C   UNL     1       8.926  14.522   4.117  1.00  0.00     0.009 A 
ATOM     70  C   UNL     1       9.441  13.918   1.855  1.00  0.00     0.009 A 
ATOM     71  C   UNL     1      10.064  15.335   4.149  1.00  0.00     0.001 A 
ATOM     72  C   UNL     1      10.600  14.693   1.898  1.00  0.00     0.001 A 
ATOM     73  C   UNL     1      10.896  15.426   3.037  1.00  0.00     0.000 A 
ENDBRANCH  54  68
BRANCH  55  74
ATOM     74  C   UNL     1       4.022  17.375  -3.448  1.00  0.00    -0.014 A 
ATOM     75  C   UNL     1       4.068  18.776  -3.397  1.00  0.00     0.009 A 
ATOM     76  C   UNL     1       4.361  16.757  -4.667  1.00  0.00     0.009 A 
ATOM     77  C   UNL     1       4.464  19.525  -4.514  1.00  0.00     0.001 A 
ATOM     78  C   UNL     1       4.745  17.504  -5.785  1.00  0.00     0.001 A 
ATOM     79  C   UNL     1       4.810  18.889  -5.704  1.00  0.00     0.000 A 
ENDBRANCH  55  74
BRANCH  67  80
ATOM     80  C   UNL     1       2.205  16.147   2.381  1.00  0.00    -0.014 A 
ATOM     81  C   UNL     1       1.377  15.593   1.387  1.00  0.00     0.009 A 
ATOM     82  C   UNL     1       1.608  16.583   3.573  1.00  0.00     0.009 A 
ATOM     83  C   UNL     1      -0.007  15.512   1.567  1.00  0.00     0.001 A 
ATOM     84  C   UNL     1       0.228  16.479   3.762  1.00  0.00     0.001 A 
ATOM     85  C   UNL     1      -0.580  15.950   2.757  1.00  0.00     0.000 A 
ENDBRANCH  67  80
ENDBRANCH  41  42
ENDBRANCH  34  36
ENDBRANCH  33  34
ENDBRANCH  32  33
ENDBRANCH   1  32
TORSDOF 16
