REMARK SMILES O=C1CC[C@@H](CC(=O)N2CCC(Oc3ccccc3)(C(=O)OCCOC(=O)c3ccc(-c4c5nc(c(-c6ccccc6)c6ccc([nH]6)c(-c6ccccc6)c6nc(c(-c7ccccc7)c7ccc4[nH]7)C=C6)C=C5)cc3)CC2)N1
REMARK SMILES IDX 23 1 22 2 20 3 21 4 12 5 7 6 8 7 9 8 10 9 77 10 11 11 76 12
REMARK SMILES IDX 6 13 5 14 1 15 2 16 3 17 78 18 4 19 13 21 14 22 15 23 19 24
REMARK SMILES IDX 16 25 18 26 17 27 24 28 25 29 26 30 27 31 28 32 29 33 75 34
REMARK SMILES IDX 30 35 74 36 31 37 32 38 33 39 68 40 34 41 73 42 67 43 69 44
REMARK SMILES IDX 35 45 72 46 66 47 65 48 36 50 58 51 43 52 57 53 44 54 47 55
REMARK SMILES IDX 56 56 70 57 45 58 46 59 55 61 71 62 48 63 37 64 38 65 42 66
REMARK SMILES IDX 39 67 41 68 40 69 59 70 60 71 64 72 61 73 63 74 62 75 49 76
REMARK SMILES IDX 50 77 54 78 51 79 53 80 52 81
REMARK H PARENT 78 20 69 49 47 60
REMARK Flexibility Score: inf
ROOT
ATOM      1  C   UNL     1       0.507   3.534  -5.790  1.00  0.00     0.274 C 
ENDROOT
BRANCH   1   2
ATOM      2  O   UNL     1       0.655   2.105  -5.625  1.00  0.00    -0.459 OA
BRANCH   2   3
ATOM      3  C   UNL     1       1.380   1.706  -4.544  1.00  0.00     0.350 C 
ATOM      4  O   UNL     1       1.802   2.483  -3.691  1.00  0.00    -0.247 OA
BRANCH   3   5
ATOM      5  C   UNL     1       1.649   0.182  -4.500  1.00  0.00     0.209 C 
ATOM      6  C   UNL     1      -1.223  -2.259  -2.720  1.00  0.00     0.224 C 
ATOM      7  O   UNL     1      -1.493  -3.226  -3.438  1.00  0.00    -0.275 OA
ATOM      8  N   UNL     1      -0.642  -1.116  -3.246  1.00  0.00    -0.342 N 
ATOM      9  C   UNL     1      -0.721  -0.834  -4.679  1.00  0.00     0.124 C 
ATOM     10  C   UNL     1       0.165  -0.177  -2.507  1.00  0.00     0.124 C 
ATOM     11  C   UNL     1       0.655  -0.669  -5.322  1.00  0.00     0.082 C 
ATOM     12  C   UNL     1       1.598  -0.227  -3.009  1.00  0.00     0.082 C 
BRANCH   6  13
ATOM     13  C   UNL     1      -1.727  -2.256  -1.275  1.00  0.00     0.125 C 
BRANCH  13  14
ATOM     14  C   UNL     1      -0.790  -2.361  -0.068  1.00  0.00     0.091 C 
ATOM     15  O   UNL     1       2.654  -2.037   0.499  1.00  0.00    -0.275 OA
ATOM     16  C   UNL     1       1.451  -1.907   0.475  1.00  0.00     0.220 C 
ATOM     17  C   UNL     1       0.650  -0.927   1.291  1.00  0.00     0.102 C 
ATOM     18  N   UNL     1       0.589  -2.635  -0.321  1.00  0.00    -0.353 N 
ATOM     19  C   UNL     1      -0.775  -1.093   0.782  1.00  0.00     0.035 C 
ATOM     20  H   UNL     1       0.895  -3.281  -0.997  1.00  0.00     0.163 HD
ENDBRANCH  13  14
ENDBRANCH   6  13
BRANCH   5  21
ATOM     21  O   UNL     1       2.978   0.141  -5.101  1.00  0.00    -0.475 OA
BRANCH  21  22
ATOM     22  C   UNL     1       3.726  -0.960  -4.792  1.00  0.00     0.121 A 
ATOM     23  C   UNL     1       4.624  -0.899  -3.727  1.00  0.00     0.046 A 
ATOM     24  C   UNL     1       3.626  -2.116  -5.562  1.00  0.00     0.046 A 
ATOM     25  C   UNL     1       5.339  -2.040  -3.363  1.00  0.00     0.004 A 
ATOM     26  C   UNL     1       4.333  -3.258  -5.192  1.00  0.00     0.004 A 
ATOM     27  C   UNL     1       5.179  -3.224  -4.083  1.00  0.00     0.000 A 
ENDBRANCH  21  22
ENDBRANCH   5  21
ENDBRANCH   3   5
ENDBRANCH   2   3
ENDBRANCH   1   2
BRANCH   1  28
ATOM     28  C   UNL     1      -0.877   4.005  -5.346  1.00  0.00     0.275 C 
BRANCH  28  29
ATOM     29  O   UNL     1      -0.983   3.942  -3.910  1.00  0.00    -0.458 OA
BRANCH  29  30
ATOM     30  C   UNL     1      -2.000   3.201  -3.412  1.00  0.00     0.338 C 
ATOM     31  O   UNL     1      -2.850   2.599  -4.047  1.00  0.00    -0.246 OA
BRANCH  30  32
ATOM     32  C   UNL     1      -1.927   3.144  -1.934  1.00  0.00     0.060 A 
ATOM     33  C   UNL     1      -0.708   2.912  -1.311  1.00  0.00     0.016 A 
ATOM     34  C   UNL     1      -3.096   3.130  -1.169  1.00  0.00     0.016 A 
ATOM     35  C   UNL     1      -0.686   2.504   0.023  1.00  0.00     0.010 A 
ATOM     36  C   UNL     1      -3.042   2.864   0.214  1.00  0.00     0.010 A 
ATOM     37  C   UNL     1      -1.843   2.477   0.832  1.00  0.00    -0.014 A 
BRANCH  37  38
ATOM     38  C   UNL     1      -1.768   1.980   2.259  1.00  0.00     0.031 A 
ATOM     39  C   UNL     1      -2.713   0.910   2.803  1.00  0.00     0.074 A 
ATOM     40  C   UNL     1      -0.746   2.354   3.066  1.00  0.00     0.049 A 
ATOM     41  N   UNL     1      -2.727   0.356   3.997  1.00  0.00    -0.248 NA
ATOM     42  C   UNL     1      -3.718   0.340   1.889  1.00  0.00     0.031 C 
ATOM     43  C   UNL     1       0.317   3.297   2.712  1.00  0.00     0.029 A 
ATOM     44  N   UNL     1      -0.398   1.944   4.336  1.00  0.00    -0.354 N 
ATOM     45  C   UNL     1      -3.716  -0.623   3.969  1.00  0.00     0.074 A 
ATOM     46  C   UNL     1      -4.299  -0.583   2.645  1.00  0.00     0.031 C 
ATOM     47  C   UNL     1       1.248   3.299   3.673  1.00  0.00     0.029 A 
ATOM     48  C   UNL     1       0.767   2.511   4.801  1.00  0.00     0.049 A 
ATOM     49  H   UNL     1      -0.933   1.305   4.861  1.00  0.00     0.167 HD
ATOM     50  C   UNL     1      -4.109  -1.489   4.937  1.00  0.00     0.031 A 
ATOM     51  C   UNL     1       1.361   2.496   6.011  1.00  0.00     0.031 A 
ATOM     52  C   UNL     1      -3.601  -1.526   6.285  1.00  0.00     0.049 A 
ATOM     53  C   UNL     1       0.720   1.761   7.149  1.00  0.00     0.074 A 
ATOM     54  C   UNL     1      -4.030  -2.311   7.345  1.00  0.00     0.029 A 
ATOM     55  N   UNL     1      -2.575  -0.737   6.769  1.00  0.00    -0.354 N 
ATOM     56  N   UNL     1      -0.279   0.917   7.123  1.00  0.00    -0.248 NA
ATOM     57  C   UNL     1       1.259   2.020   8.493  1.00  0.00     0.031 C 
ATOM     58  C   UNL     1      -3.323  -1.931   8.492  1.00  0.00     0.029 A 
ATOM     59  C   UNL     1      -2.406  -0.963   8.128  1.00  0.00     0.049 A 
ATOM     60  H   UNL     1      -2.043  -0.108   6.231  1.00  0.00     0.167 HD
ATOM     61  C   UNL     1      -0.496   0.555   8.447  1.00  0.00     0.074 A 
ATOM     62  C   UNL     1       0.497   1.239   9.245  1.00  0.00     0.031 C 
ATOM     63  C   UNL     1      -1.451  -0.265   8.946  1.00  0.00     0.031 A 
BRANCH  50  64
ATOM     64  C   UNL     1      -5.221  -2.447   4.608  1.00  0.00    -0.014 A 
ATOM     65  C   UNL     1      -4.979  -3.634   3.900  1.00  0.00     0.009 A 
ATOM     66  C   UNL     1      -6.512  -2.198   5.102  1.00  0.00     0.009 A 
ATOM     67  C   UNL     1      -6.015  -4.547   3.684  1.00  0.00     0.001 A 
ATOM     68  C   UNL     1      -7.539  -3.121   4.901  1.00  0.00     0.001 A 
ATOM     69  C   UNL     1      -7.291  -4.293   4.190  1.00  0.00     0.000 A 
ENDBRANCH  50  64
BRANCH  51  70
ATOM     70  C   UNL     1       2.556   3.354   6.253  1.00  0.00    -0.014 A 
ATOM     71  C   UNL     1       3.793   2.805   6.615  1.00  0.00     0.009 A 
ATOM     72  C   UNL     1       2.446   4.752   6.132  1.00  0.00     0.009 A 
ATOM     73  C   UNL     1       4.893   3.638   6.843  1.00  0.00     0.001 A 
ATOM     74  C   UNL     1       3.554   5.576   6.312  1.00  0.00     0.001 A 
ATOM     75  C   UNL     1       4.776   5.019   6.676  1.00  0.00     0.000 A 
ENDBRANCH  51  70
BRANCH  63  76
ATOM     76  C   UNL     1      -1.485  -0.461  10.435  1.00  0.00    -0.014 A 
ATOM     77  C   UNL     1      -1.916   0.570  11.287  1.00  0.00     0.009 A 
ATOM     78  C   UNL     1      -1.097  -1.686  10.998  1.00  0.00     0.009 A 
ATOM     79  C   UNL     1      -1.925   0.388  12.671  1.00  0.00     0.001 A 
ATOM     80  C   UNL     1      -1.134  -1.875  12.381  1.00  0.00     0.001 A 
ATOM     81  C   UNL     1      -1.538  -0.835  13.217  1.00  0.00     0.000 A 
ENDBRANCH  63  76
ENDBRANCH  37  38
ENDBRANCH  30  32
ENDBRANCH  29  30
ENDBRANCH  28  29
ENDBRANCH   1  28
TORSDOF 15
