REMARK SMILES O=C(OCCOC(=O)c1ccc(-c2c3nc(c(-c4ccccc4)c4ccc([nH]4)c(-c4ccccc4)c4nc(c(-c5ccccc5)c5ccc2[nH]5)C=C4)C=C3)cc1)c1ccc(CN2C(=O)CSC2=S)cc1
REMARK SMILES IDX 4 1 3 2 2 3 1 4 57 5 58 6 70 7 59 8 69 9 60 10 61 11 62 12
REMARK SMILES IDX 63 13 67 14 64 15 65 16 66 17 68 18 5 19 6 20 7 21 8 22 9 23
REMARK SMILES IDX 10 24 56 25 11 26 55 27 12 28 13 29 14 30 49 31 15 32 54 33
REMARK SMILES IDX 48 34 50 35 16 36 53 37 47 38 46 39 17 41 39 42 24 43 38 44
REMARK SMILES IDX 25 45 28 46 37 47 51 48 26 49 27 50 36 52 52 53 29 54 18 55
REMARK SMILES IDX 19 56 23 57 20 58 22 59 21 60 40 61 41 62 45 63 42 64 44 65
REMARK SMILES IDX 43 66 30 67 31 68 35 69 32 70 34 71 33 72
REMARK H PARENT 50 40 28 51
REMARK Flexibility Score: inf
ROOT
ATOM      1  C   UNL     1       4.090  -1.370   0.060  1.00  0.00     0.275 C 
ENDROOT
BRANCH   1   2
ATOM      2  O   UNL     1       3.004  -0.606   0.618  1.00  0.00    -0.458 OA
BRANCH   2   3
ATOM      3  C   UNL     1       2.955   0.709   0.939  1.00  0.00     0.338 C 
ATOM      4  O   UNL     1       2.117   1.073   1.764  1.00  0.00    -0.246 OA
BRANCH   3   5
ATOM      5  C   UNL     1       3.755   1.778   0.247  1.00  0.00     0.060 A 
ATOM      6  C   UNL     1       4.782   1.575  -0.671  1.00  0.00     0.016 A 
ATOM      7  C   UNL     1       3.374   3.111   0.486  1.00  0.00     0.016 A 
ATOM      8  C   UNL     1       5.302   2.627  -1.427  1.00  0.00     0.006 A 
ATOM      9  C   UNL     1       3.947   4.179  -0.220  1.00  0.00     0.006 A 
ATOM     10  C   UNL     1       4.872   3.939  -1.236  1.00  0.00    -0.028 A 
BRANCH  10  11
ATOM     11  C   UNL     1       5.402   5.047  -2.124  1.00  0.00     0.162 C 
BRANCH  11  12
ATOM     12  N   UNL     1       6.816   5.288  -1.855  1.00  0.00    -0.293 N 
ATOM     13  C   UNL     1       7.761   4.526  -2.518  1.00  0.00     0.238 C 
ATOM     14  C   UNL     1       7.288   6.218  -0.959  1.00  0.00     0.143 C 
ATOM     15  O   UNL     1       7.537   3.774  -3.463  1.00  0.00    -0.273 OA
ATOM     16  C   UNL     1       9.121   4.658  -1.898  1.00  0.00     0.177 C 
ATOM     17  S   UNL     1       9.039   6.126  -0.864  1.00  0.00    -0.086 SA
ATOM     18  S   UNL     1       6.419   7.323  -0.062  1.00  0.00    -0.052 S 
ENDBRANCH  11  12
ENDBRANCH  10  11
ENDBRANCH   3   5
ENDBRANCH   2   3
ENDBRANCH   1   2
BRANCH   1  19
ATOM     19  C   UNL     1       3.869  -1.698  -1.425  1.00  0.00     0.275 C 
BRANCH  19  20
ATOM     20  O   UNL     1       3.523  -0.533  -2.203  1.00  0.00    -0.458 OA
BRANCH  20  21
ATOM     21  C   UNL     1       2.190  -0.319  -2.370  1.00  0.00     0.338 C 
ATOM     22  O   UNL     1       1.297  -1.089  -2.074  1.00  0.00    -0.246 OA
BRANCH  21  23
ATOM     23  C   UNL     1       1.938   1.070  -2.842  1.00  0.00     0.060 A 
ATOM     24  C   UNL     1       0.805   1.726  -2.344  1.00  0.00     0.016 A 
ATOM     25  C   UNL     1       2.773   1.734  -3.746  1.00  0.00     0.016 A 
ATOM     26  C   UNL     1       0.499   3.031  -2.751  1.00  0.00     0.010 A 
ATOM     27  C   UNL     1       2.471   3.047  -4.145  1.00  0.00     0.010 A 
ATOM     28  C   UNL     1       1.325   3.706  -3.660  1.00  0.00    -0.014 A 
BRANCH  28  29
ATOM     29  C   UNL     1       0.975   5.079  -4.129  1.00  0.00     0.031 A 
ATOM     30  C   UNL     1       0.427   5.295  -5.513  1.00  0.00     0.074 A 
ATOM     31  C   UNL     1       1.142   6.152  -3.330  1.00  0.00     0.049 A 
ATOM     32  N   UNL     1       0.066   6.417  -6.087  1.00  0.00    -0.248 NA
ATOM     33  C   UNL     1       0.243   4.101  -6.350  1.00  0.00     0.031 C 
ATOM     34  C   UNL     1       1.592   6.108  -1.945  1.00  0.00     0.029 A 
ATOM     35  N   UNL     1       0.969   7.494  -3.576  1.00  0.00    -0.354 N 
ATOM     36  C   UNL     1      -0.414   6.062  -7.339  1.00  0.00     0.074 A 
ATOM     37  C   UNL     1      -0.247   4.629  -7.463  1.00  0.00     0.031 C 
ATOM     38  C   UNL     1       1.730   7.361  -1.480  1.00  0.00     0.029 A 
ATOM     39  C   UNL     1       1.353   8.301  -2.532  1.00  0.00     0.049 A 
ATOM     40  H   UNL     1       0.603   7.844  -4.421  1.00  0.00     0.167 HD
ATOM     41  C   UNL     1      -0.970   6.851  -8.290  1.00  0.00     0.031 A 
ATOM     42  C   UNL     1       1.403   9.644  -2.426  1.00  0.00     0.031 A 
ATOM     43  C   UNL     1      -1.140   8.276  -8.191  1.00  0.00     0.049 A 
ATOM     44  C   UNL     1       0.908  10.505  -3.555  1.00  0.00     0.074 A 
ATOM     45  C   UNL     1      -1.753   9.132  -9.091  1.00  0.00     0.029 A 
ATOM     46  N   UNL     1      -0.680   9.060  -7.147  1.00  0.00    -0.354 N 
ATOM     47  N   UNL     1       0.373  10.144  -4.694  1.00  0.00    -0.248 NA
ATOM     48  C   UNL     1       0.998  11.963  -3.370  1.00  0.00     0.031 C 
ATOM     49  C   UNL     1      -1.607  10.442  -8.624  1.00  0.00     0.029 A 
ATOM     50  C   UNL     1      -0.948  10.395  -7.407  1.00  0.00     0.049 A 
ATOM     51  H   UNL     1      -0.230   8.720  -6.340  1.00  0.00     0.167 HD
ATOM     52  C   UNL     1       0.024  11.324  -5.339  1.00  0.00     0.074 A 
ATOM     53  C   UNL     1       0.404  12.413  -4.466  1.00  0.00     0.031 C 
ATOM     54  C   UNL     1      -0.570  11.484  -6.546  1.00  0.00     0.031 A 
BRANCH  41  55
ATOM     55  C   UNL     1      -1.444   6.184  -9.548  1.00  0.00    -0.014 A 
ATOM     56  C   UNL     1      -2.631   5.435  -9.562  1.00  0.00     0.009 A 
ATOM     57  C   UNL     1      -0.740   6.375 -10.746  1.00  0.00     0.009 A 
ATOM     58  C   UNL     1      -3.093   4.872 -10.753  1.00  0.00     0.001 A 
ATOM     59  C   UNL     1      -1.217   5.828 -11.938  1.00  0.00     0.001 A 
ATOM     60  C   UNL     1      -2.390   5.074 -11.940  1.00  0.00     0.000 A 
ENDBRANCH  41  55
BRANCH  42  61
ATOM     61  C   UNL     1       1.957  10.282  -1.204  1.00  0.00    -0.014 A 
ATOM     62  C   UNL     1       1.125  10.978  -0.314  1.00  0.00     0.009 A 
ATOM     63  C   UNL     1       3.340  10.257  -0.964  1.00  0.00     0.009 A 
ATOM     64  C   UNL     1       1.673  11.669   0.770  1.00  0.00     0.001 A 
ATOM     65  C   UNL     1       3.881  10.927   0.135  1.00  0.00     0.001 A 
ATOM     66  C   UNL     1       3.049  11.644   0.993  1.00  0.00     0.000 A 
ENDBRANCH  42  61
BRANCH  54  67
ATOM     67  C   UNL     1      -0.873  12.887  -6.992  1.00  0.00    -0.014 A 
ATOM     68  C   UNL     1       0.149  13.757  -7.400  1.00  0.00     0.009 A 
ATOM     69  C   UNL     1      -2.204  13.333  -7.040  1.00  0.00     0.009 A 
ATOM     70  C   UNL     1      -0.152  15.054  -7.822  1.00  0.00     0.001 A 
ATOM     71  C   UNL     1      -2.505  14.620  -7.489  1.00  0.00     0.001 A 
ATOM     72  C   UNL     1      -1.478  15.482  -7.871  1.00  0.00     0.000 A 
ENDBRANCH  54  67
ENDBRANCH  28  29
ENDBRANCH  21  23
ENDBRANCH  20  21
ENDBRANCH  19  20
ENDBRANCH   1  19
TORSDOF 13
