REMARK SMILES O=C(Cc1cccn1-c1ccccc1F)OCCOC(=O)c1ccc(-c2c3nc(c(-c4ccccc4)c4ccc([nH]4)c(-c4ccccc4)c4nc(c(-c5ccccc5)c5ccc2[nH]5)C=C4)C=C3)cc1
REMARK SMILES IDX 17 1 16 2 2 3 1 4 3 5 4 6 5 7 8 8 6 9 7 10 9 11 10 12 14 13
REMARK SMILES IDX 11 14 13 15 15 16 12 17 18 18 19 19 20 20 21 21 22 22 23 23
REMARK SMILES IDX 69 24 24 25 68 26 25 27 26 28 27 29 62 30 28 31 67 32 61 33
REMARK SMILES IDX 63 34 29 35 66 36 60 37 59 38 30 40 52 41 37 42 51 43 38 44
REMARK SMILES IDX 41 45 50 46 64 47 39 48 40 49 49 51 65 52 42 53 31 54 32 55
REMARK SMILES IDX 36 56 33 57 35 58 34 59 53 60 54 61 58 62 55 63 57 64 56 65
REMARK SMILES IDX 43 66 44 67 48 68 45 69 47 70 46 71
REMARK H PARENT 63 39 41 50
REMARK Flexibility Score: inf
ROOT
ATOM      1  C   UNL     1       4.634  -0.807  -0.911  1.00  0.00     0.274 C 
ENDROOT
BRANCH   1   2
ATOM      2  O   UNL     1       3.221  -1.006  -0.667  1.00  0.00    -0.462 OA
BRANCH   2   3
ATOM      3  C   UNL     1       2.455  -0.429   0.291  1.00  0.00     0.311 C 
ATOM      4  O   UNL     1       1.250  -0.681   0.345  1.00  0.00    -0.252 OA
BRANCH   3   5
ATOM      5  C   UNL     1       3.054   0.560   1.261  1.00  0.00     0.177 C 
BRANCH   5   6
ATOM      6  C   UNL     1       4.006   0.071   2.313  1.00  0.00     0.034 A 
ATOM      7  C   UNL     1       4.844   0.877   3.073  1.00  0.00     0.024 A 
ATOM      8  N   UNL     1       4.203  -1.238   2.735  1.00  0.00    -0.318 N 
ATOM      9  C   UNL     1       5.570   0.051   3.954  1.00  0.00     0.020 A 
ATOM     10  C   UNL     1       5.167  -1.242   3.716  1.00  0.00     0.091 A 
BRANCH   8  11
ATOM     11  C   UNL     1       3.537  -2.388   2.285  1.00  0.00     0.081 A 
ATOM     12  C   UNL     1       2.260  -2.670   2.767  1.00  0.00     0.030 A 
ATOM     13  C   UNL     1       4.081  -3.117   1.231  1.00  0.00     0.147 A 
ATOM     14  C   UNL     1       1.503  -3.652   2.127  1.00  0.00     0.002 A 
ATOM     15  C   UNL     1       3.299  -4.043   0.549  1.00  0.00     0.041 A 
ATOM     16  F   UNL     1       5.322  -2.862   0.791  1.00  0.00    -0.205 F 
ATOM     17  C   UNL     1       2.003  -4.305   0.995  1.00  0.00     0.003 A 
ENDBRANCH   8  11
ENDBRANCH   5   6
ENDBRANCH   3   5
ENDBRANCH   2   3
ENDBRANCH   1   2
BRANCH   1  18
ATOM     18  C   UNL     1       4.872   0.133  -2.068  1.00  0.00     0.275 C 
BRANCH  18  19
ATOM     19  O   UNL     1       4.490   1.421  -1.632  1.00  0.00    -0.458 OA
BRANCH  19  20
ATOM     20  C   UNL     1       3.188   1.720  -1.831  1.00  0.00     0.338 C 
ATOM     21  O   UNL     1       2.316   1.016  -2.290  1.00  0.00    -0.246 OA
BRANCH  20  22
ATOM     22  C   UNL     1       3.038   3.150  -1.557  1.00  0.00     0.060 A 
ATOM     23  C   UNL     1       1.770   3.647  -1.858  1.00  0.00     0.016 A 
ATOM     24  C   UNL     1       4.214   3.900  -1.685  1.00  0.00     0.016 A 
ATOM     25  C   UNL     1       1.720   4.788  -2.611  1.00  0.00     0.010 A 
ATOM     26  C   UNL     1       4.182   4.953  -2.548  1.00  0.00     0.010 A 
ATOM     27  C   UNL     1       2.933   5.367  -3.012  1.00  0.00    -0.014 A 
BRANCH  27  28
ATOM     28  C   UNL     1       2.865   6.628  -3.721  1.00  0.00     0.031 A 
ATOM     29  C   UNL     1       2.808   7.749  -2.666  1.00  0.00     0.074 A 
ATOM     30  C   UNL     1       2.793   6.516  -5.083  1.00  0.00     0.049 A 
ATOM     31  N   UNL     1       2.306   8.932  -2.767  1.00  0.00    -0.248 NA
ATOM     32  C   UNL     1       3.313   7.518  -1.271  1.00  0.00     0.031 C 
ATOM     33  C   UNL     1       2.911   5.254  -5.865  1.00  0.00     0.029 A 
ATOM     34  N   UNL     1       2.592   7.423  -6.093  1.00  0.00    -0.354 N 
ATOM     35  C   UNL     1       2.592   9.626  -1.575  1.00  0.00     0.074 A 
ATOM     36  C   UNL     1       3.126   8.682  -0.653  1.00  0.00     0.031 C 
ATOM     37  C   UNL     1       2.674   5.470  -7.182  1.00  0.00     0.029 A 
ATOM     38  C   UNL     1       2.399   6.878  -7.391  1.00  0.00     0.049 A 
ATOM     39  H   UNL     1       2.583   8.393  -5.929  1.00  0.00     0.167 HD
ATOM     40  C   UNL     1       2.494  10.980  -1.486  1.00  0.00     0.031 A 
ATOM     41  C   UNL     1       1.990   7.529  -8.525  1.00  0.00     0.031 A 
ATOM     42  C   UNL     1       1.914  11.497  -2.678  1.00  0.00     0.049 A 
ATOM     43  C   UNL     1       1.946   8.946  -8.138  1.00  0.00     0.074 A 
ATOM     44  C   UNL     1       0.645  11.375  -3.185  1.00  0.00     0.029 A 
ATOM     45  N   UNL     1       2.791  11.782  -3.699  1.00  0.00    -0.354 N 
ATOM     46  N   UNL     1       2.988   9.691  -7.938  1.00  0.00    -0.248 NA
ATOM     47  C   UNL     1       0.643   9.557  -7.853  1.00  0.00     0.031 C 
ATOM     48  C   UNL     1       0.884  11.055  -4.538  1.00  0.00     0.029 A 
ATOM     49  C   UNL     1       2.229  11.291  -4.850  1.00  0.00     0.049 A 
ATOM     50  H   UNL     1       3.655  12.248  -3.619  1.00  0.00     0.167 HD
ATOM     51  C   UNL     1       2.481  10.677  -7.131  1.00  0.00     0.074 A 
ATOM     52  C   UNL     1       1.058  10.737  -7.400  1.00  0.00     0.031 C 
ATOM     53  C   UNL     1       3.097  10.968  -5.954  1.00  0.00     0.031 A 
BRANCH  40  54
ATOM     54  C   UNL     1       3.113  11.938  -0.522  1.00  0.00    -0.014 A 
ATOM     55  C   UNL     1       2.666  13.277  -0.584  1.00  0.00     0.009 A 
ATOM     56  C   UNL     1       4.306  11.682   0.162  1.00  0.00     0.009 A 
ATOM     57  C   UNL     1       3.446  14.330  -0.111  1.00  0.00     0.001 A 
ATOM     58  C   UNL     1       5.071  12.738   0.675  1.00  0.00     0.001 A 
ATOM     59  C   UNL     1       4.661  14.059   0.501  1.00  0.00     0.000 A 
ENDBRANCH  40  54
BRANCH  41  60
ATOM     60  C   UNL     1       1.503   7.241  -9.925  1.00  0.00    -0.014 A 
ATOM     61  C   UNL     1       1.453   5.998 -10.556  1.00  0.00     0.009 A 
ATOM     62  C   UNL     1       0.946   8.324 -10.671  1.00  0.00     0.009 A 
ATOM     63  C   UNL     1       0.797   5.844 -11.803  1.00  0.00     0.001 A 
ATOM     64  C   UNL     1       0.249   8.170 -11.871  1.00  0.00     0.001 A 
ATOM     65  C   UNL     1       0.162   6.916 -12.435  1.00  0.00     0.000 A 
ENDBRANCH  41  60
BRANCH  53  66
ATOM     66  C   UNL     1       4.557  10.531  -5.847  1.00  0.00    -0.014 A 
ATOM     67  C   UNL     1       5.487  10.963  -6.807  1.00  0.00     0.009 A 
ATOM     68  C   UNL     1       5.021   9.603  -4.896  1.00  0.00     0.009 A 
ATOM     69  C   UNL     1       6.801  10.473  -6.836  1.00  0.00     0.001 A 
ATOM     70  C   UNL     1       6.336   9.103  -4.922  1.00  0.00     0.001 A 
ATOM     71  C   UNL     1       7.226   9.539  -5.897  1.00  0.00     0.000 A 
ENDBRANCH  53  66
ENDBRANCH  27  28
ENDBRANCH  20  22
ENDBRANCH  19  20
ENDBRANCH  18  19
ENDBRANCH   1  18
TORSDOF 13
