REMARK SMILES COC(=O)c1ccc2oc(=O)c([C@H]3N=c4ccc(C(=O)OCCOC(=O)c5ccc(-c6c7nc(c(-c8ccccc8)c8ccc([nH]8)c(-c8ccccc8)c8nc(c(-c9ccccc9)c9ccc6[nH]9)C=C8)C=C7)cc5)cc4=N3)cc2c1
REMARK SMILES IDX 22 1 21 2 19 3 20 4 18 5 13 6 14 7 77 8 15 9 76 10 16 11
REMARK SMILES IDX 75 12 17 13 12 14 5 15 6 16 80 17 7 18 79 19 8 20 78 21 9 22
REMARK SMILES IDX 10 23 11 24 3 25 4 26 2 27 1 28 23 29 24 30 25 31 26 32
REMARK SMILES IDX 27 33 28 34 74 35 29 36 73 37 30 38 31 39 32 40 67 41 33 42
REMARK SMILES IDX 72 43 66 44 68 45 34 46 71 47 65 48 64 49 35 51 57 52 42 53
REMARK SMILES IDX 56 54 43 55 46 56 55 57 69 58 44 59 45 60 54 62 70 63 47 64
REMARK SMILES IDX 36 65 37 66 41 67 38 68 40 69 39 70 58 71 59 72 63 73 60 74
REMARK SMILES IDX 62 75 61 76 48 77 49 78 53 79 50 80 52 81 51 82
REMARK H PARENT 68 50 46 61
REMARK Flexibility Score: inf
ROOT
ATOM      1  C   UNL     1      -0.809   6.254 -16.116  1.00  0.00     0.275 C 
ENDROOT
BRANCH   1   2
ATOM      2  O   UNL     1      -0.263   5.392 -15.094  1.00  0.00    -0.458 OA
BRANCH   2   3
ATOM      3  C   UNL     1       0.579   5.970 -14.200  1.00  0.00     0.338 C 
ATOM      4  O   UNL     1       0.906   7.147 -14.180  1.00  0.00    -0.246 OA
BRANCH   3   5
ATOM      5  C   UNL     1       1.003   4.983 -13.158  1.00  0.00     0.062 A 
ATOM      6  C   UNL     1       2.077   3.522  -9.036  1.00  0.00     0.260 C 
ATOM      7  N   UNL     1       2.073   2.473 -10.093  1.00  0.00    -0.251 NA
ATOM      8  N   UNL     1       1.752   4.856  -9.605  1.00  0.00    -0.251 NA
ATOM      9  C   UNL     1       1.728   3.140 -11.139  1.00  0.00     0.086 A 
ATOM     10  C   UNL     1       1.580   4.581 -10.853  1.00  0.00     0.087 A 
ATOM     11  C   UNL     1       1.481   2.656 -12.502  1.00  0.00     0.031 A 
ATOM     12  C   UNL     1       1.278   5.503 -11.948  1.00  0.00     0.046 A 
ATOM     13  C   UNL     1       1.115   3.555 -13.430  1.00  0.00     0.018 A 
BRANCH   6  14
ATOM     14  C   UNL     1       1.169   3.144  -7.897  1.00  0.00     0.085 A 
ATOM     15  C   UNL     1       0.455   1.718  -3.303  1.00  0.00     0.060 A 
ATOM     16  C   UNL     1      -0.869   1.376  -3.615  1.00  0.00     0.019 A 
ATOM     17  C   UNL     1       1.279   2.298  -4.281  1.00  0.00     0.027 A 
ATOM     18  C   UNL     1      -1.362   1.606  -4.902  1.00  0.00     0.049 A 
ATOM     19  C   UNL     1       0.793   2.507  -5.574  1.00  0.00     0.019 A 
ATOM     20  C   UNL     1      -0.520   2.163  -5.864  1.00  0.00     0.138 A 
ATOM     21  C   UNL     1       1.637   3.009  -6.644  1.00  0.00     0.027 A 
ATOM     22  O   UNL     1      -1.037   2.358  -7.157  1.00  0.00    -0.422 OA
ATOM     23  C   UNL     1      -0.258   2.861  -8.203  1.00  0.00     0.343 A 
ATOM     24  O   UNL     1      -0.755   3.046  -9.310  1.00  0.00    -0.246 OA
BRANCH  15  25
ATOM     25  C   UNL     1       1.043   1.476  -1.958  1.00  0.00     0.337 C 
ATOM     26  O   UNL     1       2.019   2.062  -1.537  1.00  0.00    -0.246 OA
BRANCH  25  27
ATOM     27  O   UNL     1       0.374   0.473  -1.331  1.00  0.00    -0.465 OA
ATOM     28  C   UNL     1       0.942   0.092  -0.076  1.00  0.00     0.282 C 
ENDBRANCH  25  27
ENDBRANCH  15  25
ENDBRANCH   6  14
ENDBRANCH   3   5
ENDBRANCH   2   3
ENDBRANCH   1   2
BRANCH   1  29
ATOM     29  C   UNL     1      -2.292   6.544 -15.873  1.00  0.00     0.275 C 
BRANCH  29  30
ATOM     30  O   UNL     1      -2.460   7.410 -14.735  1.00  0.00    -0.458 OA
BRANCH  30  31
ATOM     31  C   UNL     1      -2.891   6.808 -13.603  1.00  0.00     0.338 C 
ATOM     32  O   UNL     1      -3.196   5.639 -13.451  1.00  0.00    -0.246 OA
BRANCH  31  33
ATOM     33  C   UNL     1      -2.781   7.764 -12.492  1.00  0.00     0.060 A 
ATOM     34  C   UNL     1      -3.793   8.665 -12.179  1.00  0.00     0.016 A 
ATOM     35  C   UNL     1      -1.642   7.682 -11.694  1.00  0.00     0.016 A 
ATOM     36  C   UNL     1      -3.634   9.507 -11.070  1.00  0.00     0.010 A 
ATOM     37  C   UNL     1      -1.496   8.492 -10.573  1.00  0.00     0.010 A 
ATOM     38  C   UNL     1      -2.485   9.426 -10.253  1.00  0.00    -0.014 A 
BRANCH  38  39
ATOM     39  C   UNL     1      -2.342  10.267  -9.035  1.00  0.00     0.031 A 
ATOM     40  C   UNL     1      -1.244  11.290  -8.913  1.00  0.00     0.074 A 
ATOM     41  C   UNL     1      -3.182  10.068  -8.000  1.00  0.00     0.049 A 
ATOM     42  N   UNL     1      -1.032  12.156  -7.952  1.00  0.00    -0.248 NA
ATOM     43  C   UNL     1      -0.240  11.336  -9.988  1.00  0.00     0.031 C 
ATOM     44  C   UNL     1      -4.221   9.038  -7.946  1.00  0.00     0.029 A 
ATOM     45  N   UNL     1      -3.305  10.729  -6.802  1.00  0.00    -0.354 N 
ATOM     46  C   UNL     1       0.126  12.839  -8.302  1.00  0.00     0.074 A 
ATOM     47  C   UNL     1       0.605  12.253  -9.534  1.00  0.00     0.031 C 
ATOM     48  C   UNL     1      -4.915   9.176  -6.807  1.00  0.00     0.029 A 
ATOM     49  C   UNL     1      -4.357  10.284  -6.037  1.00  0.00     0.049 A 
ATOM     50  H   UNL     1      -2.699  11.451  -6.519  1.00  0.00     0.167 HD
ATOM     51  C   UNL     1       0.721  13.879  -7.670  1.00  0.00     0.031 A 
ATOM     52  C   UNL     1      -4.839  10.731  -4.861  1.00  0.00     0.031 A 
ATOM     53  C   UNL     1       0.230  14.475  -6.455  1.00  0.00     0.049 A 
ATOM     54  C   UNL     1      -4.199  11.923  -4.206  1.00  0.00     0.074 A 
ATOM     55  C   UNL     1       0.713  15.589  -5.790  1.00  0.00     0.029 A 
ATOM     56  N   UNL     1      -0.851  14.008  -5.725  1.00  0.00    -0.354 N 
ATOM     57  N   UNL     1      -3.175  12.633  -4.611  1.00  0.00    -0.248 NA
ATOM     58  C   UNL     1      -4.793  12.389  -2.943  1.00  0.00     0.031 C 
ATOM     59  C   UNL     1      -0.043  15.766  -4.630  1.00  0.00     0.029 A 
ATOM     60  C   UNL     1      -1.038  14.802  -4.606  1.00  0.00     0.049 A 
ATOM     61  H   UNL     1      -1.404  13.230  -5.966  1.00  0.00     0.167 HD
ATOM     62  C   UNL     1      -3.012  13.638  -3.667  1.00  0.00     0.074 A 
ATOM     63  C   UNL     1      -4.055  13.460  -2.678  1.00  0.00     0.031 C 
ATOM     64  C   UNL     1      -2.079  14.619  -3.627  1.00  0.00     0.031 A 
BRANCH  51  65
ATOM     65  C   UNL     1       1.954  14.478  -8.290  1.00  0.00    -0.014 A 
ATOM     66  C   UNL     1       3.188  14.400  -7.623  1.00  0.00     0.009 A 
ATOM     67  C   UNL     1       1.875  15.220  -9.480  1.00  0.00     0.009 A 
ATOM     68  C   UNL     1       4.311  15.059  -8.127  1.00  0.00     0.001 A 
ATOM     69  C   UNL     1       3.006  15.853  -9.998  1.00  0.00     0.001 A 
ATOM     70  C   UNL     1       4.220  15.781  -9.316  1.00  0.00     0.000 A 
ENDBRANCH  51  65
BRANCH  52  71
ATOM     71  C   UNL     1      -6.045  10.086  -4.279  1.00  0.00    -0.014 A 
ATOM     72  C   UNL     1      -5.982   8.785  -3.755  1.00  0.00     0.009 A 
ATOM     73  C   UNL     1      -7.282  10.747  -4.307  1.00  0.00     0.009 A 
ATOM     74  C   UNL     1      -7.138   8.152  -3.292  1.00  0.00     0.001 A 
ATOM     75  C   UNL     1      -8.431  10.122  -3.816  1.00  0.00     0.001 A 
ATOM     76  C   UNL     1      -8.360   8.822  -3.319  1.00  0.00     0.000 A 
ENDBRANCH  52  71
BRANCH  64  77
ATOM     77  C   UNL     1      -2.128  15.598  -2.488  1.00  0.00    -0.014 A 
ATOM     78  C   UNL     1      -2.466  16.939  -2.736  1.00  0.00     0.009 A 
ATOM     79  C   UNL     1      -1.723  15.226  -1.197  1.00  0.00     0.009 A 
ATOM     80  C   UNL     1      -2.380  17.891  -1.720  1.00  0.00     0.001 A 
ATOM     81  C   UNL     1      -1.665  16.176  -0.176  1.00  0.00     0.001 A 
ATOM     82  C   UNL     1      -1.982  17.509  -0.441  1.00  0.00     0.000 A 
ENDBRANCH  64  77
ENDBRANCH  38  39
ENDBRANCH  31  33
ENDBRANCH  30  31
ENDBRANCH  29  30
ENDBRANCH   1  29
TORSDOF 14
