REMARK SMILES CN(C(=O)C[C@](C)(C(=O)OCCOC(=O)c1ccc(-c2c3nc(c(-c4ccccc4)c4ccc([nH]4)c(-c4ccccc4)c4nc(c(-c5ccccc5)c5ccc2[nH]5)C=C4)C=C3)cc1)c1ccccc1)[C@@H]1CCSC1
REMARK SMILES IDX 11 1 10 2 8 3 9 4 6 5 7 6 5 7 3 8 4 9 2 10 1 11 70 12 71 13
REMARK SMILES IDX 74 14 72 15 73 16 64 17 65 18 69 19 66 20 68 21 67 22 12 23
REMARK SMILES IDX 13 24 14 25 15 26 16 27 17 28 63 29 18 30 62 31 19 32 20 33
REMARK SMILES IDX 21 34 56 35 22 36 61 37 55 38 57 39 23 40 60 41 54 42 53 43
REMARK SMILES IDX 24 45 46 46 31 47 45 48 32 49 35 50 44 51 58 52 33 53 34 54
REMARK SMILES IDX 43 56 59 57 36 58 25 59 26 60 30 61 27 62 29 63 28 64 47 65
REMARK SMILES IDX 48 66 52 67 49 68 51 69 50 70 37 71 38 72 42 73 39 74 41 75
REMARK SMILES IDX 40 76
REMARK H PARENT 57 44 35 55
REMARK Flexibility Score: inf
ROOT
ATOM      1  C   UNL     1      -0.668   3.069   4.521  1.00  0.00     0.274 C 
ENDROOT
BRANCH   1   2
ATOM      2  O   UNL     1      -0.553   1.871   3.722  1.00  0.00    -0.461 OA
BRANCH   2   3
ATOM      3  C   UNL     1       0.656   1.234   3.733  1.00  0.00     0.316 C 
ATOM      4  O   UNL     1       1.599   1.612   4.416  1.00  0.00    -0.251 OA
BRANCH   3   5
ATOM      5  C   UNL     1       0.684   0.014   2.746  1.00  0.00     0.099 C 
ATOM      6  C   UNL     1      -0.764  -0.526   2.590  1.00  0.00     0.029 C 
BRANCH   5   7
ATOM      7  C   UNL     1       1.232   0.497   1.381  1.00  0.00     0.123 C 
BRANCH   7   8
ATOM      8  C   UNL     1       0.442   1.651   0.788  1.00  0.00     0.224 C 
ATOM      9  O   UNL     1       0.751   2.791   1.139  1.00  0.00    -0.275 OA
BRANCH   8  10
ATOM     10  N   UNL     1      -0.618   1.407  -0.074  1.00  0.00    -0.342 N 
ATOM     11  C   UNL     1      -0.978   0.095  -0.608  1.00  0.00     0.147 C 
BRANCH  10  12
ATOM     12  C   UNL     1      -1.459   2.524  -0.568  1.00  0.00     0.095 C 
ATOM     13  C   UNL     1      -0.785   3.364  -1.659  1.00  0.00     0.037 C 
ATOM     14  C   UNL     1      -2.044   3.456   0.507  1.00  0.00     0.094 C 
ATOM     15  C   UNL     1      -0.211   4.628  -1.048  1.00  0.00     0.072 C 
ATOM     16  S   UNL     1      -1.437   5.136   0.179  1.00  0.00    -0.160 SA
ENDBRANCH  10  12
ENDBRANCH   8  10
ENDBRANCH   7   8
ENDBRANCH   5   7
BRANCH   5  17
ATOM     17  C   UNL     1       1.651  -1.120   3.228  1.00  0.00    -0.030 A 
ATOM     18  C   UNL     1       1.323  -2.487   3.121  1.00  0.00     0.005 A 
ATOM     19  C   UNL     1       2.925  -0.822   3.755  1.00  0.00     0.005 A 
ATOM     20  C   UNL     1       2.194  -3.490   3.569  1.00  0.00     0.000 A 
ATOM     21  C   UNL     1       3.785  -1.821   4.225  1.00  0.00     0.000 A 
ATOM     22  C   UNL     1       3.417  -3.156   4.138  1.00  0.00     0.000 A 
ENDBRANCH   5  17
ENDBRANCH   3   5
ENDBRANCH   2   3
ENDBRANCH   1   2
BRANCH   1  23
ATOM     23  C   UNL     1      -1.614   2.830   5.697  1.00  0.00     0.275 C 
BRANCH  23  24
ATOM     24  O   UNL     1      -1.034   1.868   6.598  1.00  0.00    -0.458 OA
BRANCH  24  25
ATOM     25  C   UNL     1      -1.663   0.673   6.670  1.00  0.00     0.338 C 
ATOM     26  O   UNL     1      -2.725   0.350   6.169  1.00  0.00    -0.246 OA
BRANCH  25  27
ATOM     27  C   UNL     1      -0.747  -0.292   7.293  1.00  0.00     0.060 A 
ATOM     28  C   UNL     1      -0.001  -1.087   6.429  1.00  0.00     0.016 A 
ATOM     29  C   UNL     1      -0.652  -0.471   8.673  1.00  0.00     0.016 A 
ATOM     30  C   UNL     1       0.851  -2.061   6.925  1.00  0.00     0.010 A 
ATOM     31  C   UNL     1       0.212  -1.456   9.178  1.00  0.00     0.010 A 
ATOM     32  C   UNL     1       0.966  -2.257   8.302  1.00  0.00    -0.014 A 
BRANCH  32  33
ATOM     33  C   UNL     1       1.839  -3.360   8.764  1.00  0.00     0.031 A 
ATOM     34  C   UNL     1       1.238  -4.693   9.100  1.00  0.00     0.074 A 
ATOM     35  C   UNL     1       3.178  -3.219   8.726  1.00  0.00     0.049 A 
ATOM     36  N   UNL     1       1.834  -5.796   9.476  1.00  0.00    -0.248 NA
ATOM     37  C   UNL     1      -0.222  -4.807   8.968  1.00  0.00     0.031 C 
ATOM     38  C   UNL     1       3.889  -2.018   8.286  1.00  0.00     0.029 A 
ATOM     39  N   UNL     1       4.176  -4.111   9.026  1.00  0.00    -0.354 N 
ATOM     40  C   UNL     1       0.822  -6.732   9.637  1.00  0.00     0.074 A 
ATOM     41  C   UNL     1      -0.425  -6.069   9.320  1.00  0.00     0.031 C 
ATOM     42  C   UNL     1       5.211  -2.257   8.323  1.00  0.00     0.029 A 
ATOM     43  C   UNL     1       5.439  -3.607   8.833  1.00  0.00     0.049 A 
ATOM     44  H   UNL     1       4.003  -5.024   9.350  1.00  0.00     0.167 HD
ATOM     45  C   UNL     1       0.922  -8.026  10.022  1.00  0.00     0.031 A 
ATOM     46  C   UNL     1       6.642  -4.166   9.059  1.00  0.00     0.031 A 
ATOM     47  C   UNL     1       2.154  -8.687  10.357  1.00  0.00     0.049 A 
ATOM     48  C   UNL     1       6.715  -5.563   9.612  1.00  0.00     0.074 A 
ATOM     49  C   UNL     1       2.344  -9.979  10.815  1.00  0.00     0.029 A 
ATOM     50  N   UNL     1       3.408  -8.104  10.273  1.00  0.00    -0.354 N 
ATOM     51  N   UNL     1       5.747  -6.422   9.822  1.00  0.00    -0.248 NA
ATOM     52  C   UNL     1       8.051  -6.061   9.975  1.00  0.00     0.031 C 
ATOM     53  C   UNL     1       3.711 -10.163  11.053  1.00  0.00     0.029 A 
ATOM     54  C   UNL     1       4.375  -9.000  10.696  1.00  0.00     0.049 A 
ATOM     55  H   UNL     1       3.585  -7.188   9.958  1.00  0.00     0.167 HD
ATOM     56  C   UNL     1       6.356  -7.560  10.335  1.00  0.00     0.074 A 
ATOM     57  C   UNL     1       7.779  -7.294  10.376  1.00  0.00     0.031 C 
ATOM     58  C   UNL     1       5.786  -8.719  10.746  1.00  0.00     0.031 A 
BRANCH  45  59
ATOM     59  C   UNL     1      -0.360  -8.792  10.168  1.00  0.00    -0.014 A 
ATOM     60  C   UNL     1      -1.049  -9.284   9.049  1.00  0.00     0.009 A 
ATOM     61  C   UNL     1      -0.876  -9.031  11.450  1.00  0.00     0.009 A 
ATOM     62  C   UNL     1      -2.248  -9.981   9.214  1.00  0.00     0.001 A 
ATOM     63  C   UNL     1      -2.064  -9.745  11.612  1.00  0.00     0.001 A 
ATOM     64  C   UNL     1      -2.753 -10.212  10.493  1.00  0.00     0.000 A 
ENDBRANCH  45  59
BRANCH  46  65
ATOM     65  C   UNL     1       7.888  -3.391   8.821  1.00  0.00    -0.014 A 
ATOM     66  C   UNL     1       8.782  -3.765   7.806  1.00  0.00     0.009 A 
ATOM     67  C   UNL     1       8.209  -2.299   9.641  1.00  0.00     0.009 A 
ATOM     68  C   UNL     1       9.984  -3.074   7.636  1.00  0.00     0.001 A 
ATOM     69  C   UNL     1       9.398  -1.594   9.451  1.00  0.00     0.001 A 
ATOM     70  C   UNL     1      10.290  -1.988   8.455  1.00  0.00     0.000 A 
ENDBRANCH  46  65
BRANCH  58  71
ATOM     71  C   UNL     1       6.705  -9.785  11.271  1.00  0.00    -0.014 A 
ATOM     72  C   UNL     1       7.306  -9.662  12.533  1.00  0.00     0.009 A 
ATOM     73  C   UNL     1       6.951 -10.936  10.508  1.00  0.00     0.009 A 
ATOM     74  C   UNL     1       8.163 -10.657  13.007  1.00  0.00     0.001 A 
ATOM     75  C   UNL     1       7.788 -11.942  10.995  1.00  0.00     0.001 A 
ATOM     76  C   UNL     1       8.400 -11.797  12.239  1.00  0.00     0.000 A 
ENDBRANCH  58  71
ENDBRANCH  32  33
ENDBRANCH  25  27
ENDBRANCH  24  25
ENDBRANCH  23  24
ENDBRANCH   1  23
TORSDOF 16
