REMARK SMILES CC(=O)Oc1ccccc1C(=O)OCCOC(=O)c1ccc(-c2c3nc(c(-c4ccccc4)c4ccc([nH]4)c(-c4ccccc4)c4nc(c(-c5ccccc5)c5ccc2[nH]5)C=C4)C=C3)cc1
REMARK SMILES IDX 14 1 13 2 11 3 12 4 10 5 5 6 6 7 7 8 9 9 8 10 4 11 2 12 1 13
REMARK SMILES IDX 3 14 15 15 16 16 17 17 18 18 19 19 20 20 66 21 21 22 65 23
REMARK SMILES IDX 22 24 23 25 24 26 59 27 25 28 64 29 58 30 60 31 26 32 63 33
REMARK SMILES IDX 57 34 56 35 27 37 49 38 34 39 48 40 35 41 38 42 47 43 61 44
REMARK SMILES IDX 36 45 37 46 46 48 62 49 39 50 28 51 29 52 33 53 30 54 32 55
REMARK SMILES IDX 31 56 50 57 51 58 55 59 52 60 54 61 53 62 40 63 41 64 45 65
REMARK SMILES IDX 42 66 44 67 43 68
REMARK H PARENT 60 36 38 47
REMARK Flexibility Score: inf
ROOT
ATOM      1  C   UNL     1      -2.270   0.646  -0.452  1.00  0.00     0.275 C 
ENDROOT
BRANCH   1   2
ATOM      2  O   UNL     1      -1.337   1.718  -0.205  1.00  0.00    -0.458 OA
BRANCH   2   3
ATOM      3  C   UNL     1      -1.227   2.657  -1.183  1.00  0.00     0.342 C 
ATOM      4  O   UNL     1      -1.915   2.735  -2.182  1.00  0.00    -0.246 OA
BRANCH   3   5
ATOM      5  C   UNL     1      -0.202   3.674  -0.829  1.00  0.00     0.102 A 
ATOM      6  C   UNL     1       0.996   3.381  -0.167  1.00  0.00     0.145 A 
ATOM      7  C   UNL     1       1.899   4.401   0.159  1.00  0.00     0.048 A 
ATOM      8  C   UNL     1       1.614   5.722  -0.189  1.00  0.00     0.004 A 
ATOM      9  C   UNL     1      -0.451   5.004  -1.209  1.00  0.00     0.019 A 
ATOM     10  C   UNL     1       0.439   6.025  -0.871  1.00  0.00     0.001 A 
BRANCH   6  11
ATOM     11  O   UNL     1       1.338   2.094   0.273  1.00  0.00    -0.426 OA
BRANCH  11  12
ATOM     12  C   UNL     1       1.473   1.139  -0.728  1.00  0.00     0.308 C 
ATOM     13  C   UNL     1       1.605  -0.215  -0.098  1.00  0.00     0.139 C 
ATOM     14  O   UNL     1       1.489   1.344  -1.933  1.00  0.00    -0.252 OA
ENDBRANCH  11  12
ENDBRANCH   6  11
ENDBRANCH   3   5
ENDBRANCH   2   3
ENDBRANCH   1   2
BRANCH   1  15
ATOM     15  C   UNL     1      -3.515   0.782   0.421  1.00  0.00     0.275 C 
BRANCH  15  16
ATOM     16  O   UNL     1      -4.266   1.941   0.024  1.00  0.00    -0.458 OA
BRANCH  16  17
ATOM     17  C   UNL     1      -4.265   2.967   0.901  1.00  0.00     0.338 C 
ATOM     18  O   UNL     1      -3.784   3.000   2.024  1.00  0.00    -0.246 OA
BRANCH  17  19
ATOM     19  C   UNL     1      -4.888   4.134   0.268  1.00  0.00     0.060 A 
ATOM     20  C   UNL     1      -4.143   4.846  -0.668  1.00  0.00     0.016 A 
ATOM     21  C   UNL     1      -6.136   4.597   0.672  1.00  0.00     0.016 A 
ATOM     22  C   UNL     1      -4.605   6.060  -1.160  1.00  0.00     0.010 A 
ATOM     23  C   UNL     1      -6.640   5.777   0.112  1.00  0.00     0.010 A 
ATOM     24  C   UNL     1      -5.869   6.535  -0.791  1.00  0.00    -0.014 A 
BRANCH  24  25
ATOM     25  C   UNL     1      -6.363   7.832  -1.327  1.00  0.00     0.031 A 
ATOM     26  C   UNL     1      -6.705   8.958  -0.389  1.00  0.00     0.074 A 
ATOM     27  C   UNL     1      -6.487   8.014  -2.657  1.00  0.00     0.049 A 
ATOM     28  N   UNL     1      -7.299  10.096  -0.646  1.00  0.00    -0.248 NA
ATOM     29  C   UNL     1      -6.343   8.775   1.025  1.00  0.00     0.031 C 
ATOM     30  C   UNL     1      -6.130   7.035  -3.687  1.00  0.00     0.029 A 
ATOM     31  N   UNL     1      -6.937   9.096  -3.373  1.00  0.00    -0.354 N 
ATOM     32  C   UNL     1      -7.440  10.734   0.581  1.00  0.00     0.074 A 
ATOM     33  C   UNL     1      -6.867   9.858   1.580  1.00  0.00     0.031 C 
ATOM     34  C   UNL     1      -6.330   7.577  -4.897  1.00  0.00     0.029 A 
ATOM     35  C   UNL     1      -6.920   8.899  -4.733  1.00  0.00     0.049 A 
ATOM     36  H   UNL     1      -7.242   9.932  -2.952  1.00  0.00     0.167 HD
ATOM     37  C   UNL     1      -8.004  11.937   0.849  1.00  0.00     0.031 A 
ATOM     38  C   UNL     1      -7.372   9.671  -5.738  1.00  0.00     0.031 A 
ATOM     39  C   UNL     1      -8.538  12.822  -0.153  1.00  0.00     0.049 A 
ATOM     40  C   UNL     1      -8.048  10.971  -5.412  1.00  0.00     0.074 A 
ATOM     41  C   UNL     1      -9.106  14.073   0.015  1.00  0.00     0.029 A 
ATOM     42  N   UNL     1      -8.562  12.551  -1.513  1.00  0.00    -0.354 N 
ATOM     43  N   UNL     1      -8.221  11.540  -4.245  1.00  0.00    -0.248 NA
ATOM     44  C   UNL     1      -8.615  11.720  -6.542  1.00  0.00     0.031 C 
ATOM     45  C   UNL     1      -9.521  14.536  -1.239  1.00  0.00     0.029 A 
ATOM     46  C   UNL     1      -9.162  13.598  -2.193  1.00  0.00     0.049 A 
ATOM     47  H   UNL     1      -8.204  11.735  -1.933  1.00  0.00     0.167 HD
ATOM     48  C   UNL     1      -8.915  12.715  -4.497  1.00  0.00     0.074 A 
ATOM     49  C   UNL     1      -9.107  12.789  -5.932  1.00  0.00     0.031 C 
ATOM     50  C   UNL     1      -9.360  13.646  -3.618  1.00  0.00     0.031 A 
BRANCH  37  51
ATOM     51  C   UNL     1      -8.127  12.337   2.294  1.00  0.00    -0.014 A 
ATOM     52  C   UNL     1      -7.013  12.717   3.057  1.00  0.00     0.009 A 
ATOM     53  C   UNL     1      -9.397  12.350   2.895  1.00  0.00     0.009 A 
ATOM     54  C   UNL     1      -7.164  13.064   4.402  1.00  0.00     0.001 A 
ATOM     55  C   UNL     1      -9.549  12.725   4.231  1.00  0.00     0.001 A 
ATOM     56  C   UNL     1      -8.431  13.071   4.987  1.00  0.00     0.000 A 
ENDBRANCH  37  51
BRANCH  38  57
ATOM     57  C   UNL     1      -7.252   9.202  -7.143  1.00  0.00    -0.014 A 
ATOM     58  C   UNL     1      -6.370   9.833  -8.033  1.00  0.00     0.009 A 
ATOM     59  C   UNL     1      -8.001   8.103  -7.595  1.00  0.00     0.009 A 
ATOM     60  C   UNL     1      -6.246   9.376  -9.347  1.00  0.00     0.001 A 
ATOM     61  C   UNL     1      -7.852   7.630  -8.899  1.00  0.00     0.001 A 
ATOM     62  C   UNL     1      -6.979   8.270  -9.776  1.00  0.00     0.000 A 
ENDBRANCH  38  57
BRANCH  50  63
ATOM     63  C   UNL     1     -10.086  14.828  -4.193  1.00  0.00    -0.014 A 
ATOM     64  C   UNL     1     -11.398  14.706  -4.677  1.00  0.00     0.009 A 
ATOM     65  C   UNL     1      -9.459  16.082  -4.229  1.00  0.00     0.009 A 
ATOM     66  C   UNL     1     -12.055  15.813  -5.217  1.00  0.00     0.001 A 
ATOM     67  C   UNL     1     -10.128  17.192  -4.744  1.00  0.00     0.001 A 
ATOM     68  C   UNL     1     -11.422  17.055  -5.246  1.00  0.00     0.000 A 
ENDBRANCH  50  63
ENDBRANCH  24  25
ENDBRANCH  17  19
ENDBRANCH  16  17
ENDBRANCH  15  16
ENDBRANCH   1  15
TORSDOF 13
