REMARK SMILES C[C@H]1[C@H](C(=O)OCCOC(=O)c2ccc(-c3c4nc(c(-c5ccccc5)c5ccc([nH]5)c(-c5ccccc5)c5nc(c(-c6ccccc6)c6ccc3[nH]6)C=C5)C=C4)cc2)CCN1C(=O)c1ccc2ccccc2c1
REMARK SMILES IDX 7 1 6 2 4 3 5 4 3 5 1 6 2 7 62 8 60 9 61 10 63 11 64 12
REMARK SMILES IDX 65 13 66 14 74 15 67 16 73 17 68 18 72 19 69 20 71 21 70 22
REMARK SMILES IDX 8 23 9 24 10 25 11 26 12 27 13 28 59 29 14 30 58 31 15 32
REMARK SMILES IDX 16 33 17 34 52 35 18 36 57 37 51 38 53 39 19 40 56 41 50 42
REMARK SMILES IDX 49 43 20 45 42 46 27 47 41 48 28 49 31 50 40 51 54 52 29 53
REMARK SMILES IDX 30 54 39 56 55 57 32 58 21 59 22 60 26 61 23 62 25 63 24 64
REMARK SMILES IDX 43 65 44 66 48 67 45 68 47 69 46 70 33 71 34 72 38 73 35 74
REMARK SMILES IDX 37 75 36 76
REMARK H PARENT 53 44 31 55
REMARK Flexibility Score: inf
ROOT
ATOM      1  C   UNL     1      -0.381   2.850   3.419  1.00  0.00     0.274 C 
ENDROOT
BRANCH   1   2
ATOM      2  O   UNL     1      -0.323   1.761   2.477  1.00  0.00    -0.462 OA
BRANCH   2   3
ATOM      3  C   UNL     1      -0.661   2.058   1.198  1.00  0.00     0.311 C 
ATOM      4  O   UNL     1      -1.066   3.153   0.821  1.00  0.00    -0.252 OA
BRANCH   3   5
ATOM      5  C   UNL     1      -0.558   0.883   0.253  1.00  0.00     0.123 C 
ATOM      6  C   UNL     1       1.677  -0.092  -0.396  1.00  0.00     0.032 C 
ATOM      7  C   UNL     1       0.506  -0.187   0.589  1.00  0.00     0.096 C 
ATOM      8  N   UNL     1      -0.218  -1.461   0.458  1.00  0.00    -0.335 N 
ATOM      9  C   UNL     1      -1.896   0.149   0.210  1.00  0.00     0.039 C 
ATOM     10  C   UNL     1      -1.516  -1.266  -0.154  1.00  0.00     0.121 C 
BRANCH   8  11
ATOM     11  C   UNL     1       0.164  -2.731   0.847  1.00  0.00     0.254 C 
ATOM     12  O   UNL     1      -0.583  -3.705   0.802  1.00  0.00    -0.269 OA
BRANCH  11  13
ATOM     13  C   UNL     1       1.559  -2.973   1.247  1.00  0.00     0.040 A 
ATOM     14  C   UNL     1       2.412  -3.514   0.282  1.00  0.00     0.014 A 
ATOM     15  C   UNL     1       1.986  -2.799   2.564  1.00  0.00     0.022 A 
ATOM     16  C   UNL     1       3.716  -3.857   0.626  1.00  0.00     0.009 A 
ATOM     17  C   UNL     1       3.296  -3.167   2.927  1.00  0.00    -0.018 A 
ATOM     18  C   UNL     1       4.168  -3.699   1.944  1.00  0.00    -0.018 A 
ATOM     19  C   UNL     1       3.759  -3.044   4.248  1.00  0.00     0.009 A 
ATOM     20  C   UNL     1       5.468  -4.082   2.305  1.00  0.00     0.009 A 
ATOM     21  C   UNL     1       5.054  -3.442   4.593  1.00  0.00     0.001 A 
ATOM     22  C   UNL     1       5.908  -3.959   3.622  1.00  0.00     0.001 A 
ENDBRANCH  11  13
ENDBRANCH   8  11
ENDBRANCH   3   5
ENDBRANCH   2   3
ENDBRANCH   1   2
BRANCH   1  23
ATOM     23  C   UNL     1       0.993   3.495   3.627  1.00  0.00     0.275 C 
BRANCH  23  24
ATOM     24  O   UNL     1       1.443   4.197   2.454  1.00  0.00    -0.458 OA
BRANCH  24  25
ATOM     25  C   UNL     1       2.171   3.454   1.589  1.00  0.00     0.338 C 
ATOM     26  O   UNL     1       2.496   2.286   1.708  1.00  0.00    -0.246 OA
BRANCH  25  27
ATOM     27  C   UNL     1       2.440   4.234   0.374  1.00  0.00     0.060 A 
ATOM     28  C   UNL     1       1.790   3.877  -0.811  1.00  0.00     0.016 A 
ATOM     29  C   UNL     1       3.402   5.242   0.381  1.00  0.00     0.016 A 
ATOM     30  C   UNL     1       2.109   4.514  -2.005  1.00  0.00     0.010 A 
ATOM     31  C   UNL     1       3.711   5.893  -0.815  1.00  0.00     0.010 A 
ATOM     32  C   UNL     1       3.075   5.524  -2.015  1.00  0.00    -0.014 A 
BRANCH  32  33
ATOM     33  C   UNL     1       3.462   6.183  -3.282  1.00  0.00     0.031 A 
ATOM     34  C   UNL     1       4.811   5.907  -3.876  1.00  0.00     0.074 A 
ATOM     35  C   UNL     1       2.620   7.048  -3.874  1.00  0.00     0.049 A 
ATOM     36  N   UNL     1       5.427   6.526  -4.848  1.00  0.00    -0.248 NA
ATOM     37  C   UNL     1       5.569   4.788  -3.292  1.00  0.00     0.031 C 
ATOM     38  C   UNL     1       1.257   7.343  -3.432  1.00  0.00     0.029 A 
ATOM     39  N   UNL     1       2.802   7.856  -4.967  1.00  0.00    -0.354 N 
ATOM     40  C   UNL     1       6.660   5.899  -4.970  1.00  0.00     0.074 A 
ATOM     41  C   UNL     1       6.705   4.851  -3.973  1.00  0.00     0.031 C 
ATOM     42  C   UNL     1       0.731   8.280  -4.237  1.00  0.00     0.029 A 
ATOM     43  C   UNL     1       1.741   8.694  -5.206  1.00  0.00     0.049 A 
ATOM     44  H   UNL     1       3.613   7.838  -5.525  1.00  0.00     0.167 HD
ATOM     45  C   UNL     1       7.666   6.183  -5.830  1.00  0.00     0.031 A 
ATOM     46  C   UNL     1       1.617   9.716  -6.073  1.00  0.00     0.031 A 
ATOM     47  C   UNL     1       7.609   7.226  -6.819  1.00  0.00     0.049 A 
ATOM     48  C   UNL     1       2.777  10.067  -6.962  1.00  0.00     0.074 A 
ATOM     49  C   UNL     1       8.574   7.595  -7.740  1.00  0.00     0.029 A 
ATOM     50  N   UNL     1       6.523   8.064  -7.015  1.00  0.00    -0.354 N 
ATOM     51  N   UNL     1       3.951   9.490  -7.051  1.00  0.00    -0.248 NA
ATOM     52  C   UNL     1       2.599  11.215  -7.862  1.00  0.00     0.031 C 
ATOM     53  C   UNL     1       8.086   8.687  -8.465  1.00  0.00     0.029 A 
ATOM     54  C   UNL     1       6.800   8.963  -8.030  1.00  0.00     0.049 A 
ATOM     55  H   UNL     1       5.680   8.026  -6.508  1.00  0.00     0.167 HD
ATOM     56  C   UNL     1       4.641  10.186  -8.035  1.00  0.00     0.074 A 
ATOM     57  C   UNL     1       3.753  11.225  -8.515  1.00  0.00     0.031 C 
ATOM     58  C   UNL     1       5.896   9.980  -8.501  1.00  0.00     0.031 A 
BRANCH  45  59
ATOM     59  C   UNL     1       8.932   5.385  -5.704  1.00  0.00    -0.014 A 
ATOM     60  C   UNL     1       9.004   4.051  -6.132  1.00  0.00     0.009 A 
ATOM     61  C   UNL     1      10.081   5.994  -5.175  1.00  0.00     0.009 A 
ATOM     62  C   UNL     1      10.195   3.333  -6.005  1.00  0.00     0.001 A 
ATOM     63  C   UNL     1      11.277   5.281  -5.071  1.00  0.00     0.001 A 
ATOM     64  C   UNL     1      11.331   3.950  -5.479  1.00  0.00     0.000 A 
ENDBRANCH  45  59
BRANCH  46  65
ATOM     65  C   UNL     1       0.363  10.512  -6.105  1.00  0.00    -0.014 A 
ATOM     66  C   UNL     1      -0.513  10.420  -7.196  1.00  0.00     0.009 A 
ATOM     67  C   UNL     1       0.034  11.363  -5.038  1.00  0.00     0.009 A 
ATOM     68  C   UNL     1      -1.686  11.178  -7.226  1.00  0.00     0.001 A 
ATOM     69  C   UNL     1      -1.153  12.099  -5.058  1.00  0.00     0.001 A 
ATOM     70  C   UNL     1      -2.007  12.012  -6.155  1.00  0.00     0.000 A 
ENDBRANCH  46  65
BRANCH  58  71
ATOM     71  C   UNL     1       6.368  10.858  -9.623  1.00  0.00    -0.014 A 
ATOM     72  C   UNL     1       6.777  12.179  -9.390  1.00  0.00     0.009 A 
ATOM     73  C   UNL     1       6.469  10.327 -10.918  1.00  0.00     0.009 A 
ATOM     74  C   UNL     1       7.263  12.958 -10.442  1.00  0.00     0.001 A 
ATOM     75  C   UNL     1       6.976  11.101 -11.962  1.00  0.00     0.001 A 
ATOM     76  C   UNL     1       7.368  12.417 -11.724  1.00  0.00     0.000 A 
ENDBRANCH  58  71
ENDBRANCH  32  33
ENDBRANCH  25  27
ENDBRANCH  24  25
ENDBRANCH  23  24
ENDBRANCH   1  23
TORSDOF 13
