REMARK SMILES O=C(OCCOC(=O)c1ccc(Br)c(NC(=S)NC(=O)c2cccs2)c1)c1ccc(-c2c3nc(c(-c4ccccc4)c4ccc([nH]4)c(-c4ccccc4)c4nc(c(-c5ccccc5)c5ccc2[nH]5)C=C4)C=C3)cc1
REMARK SMILES IDX 5 1 4 2 3 3 2 4 1 5 27 6 28 7 74 8 29 9 73 10 30 11 31 12
REMARK SMILES IDX 32 13 67 14 33 15 72 16 66 17 68 18 34 19 71 20 65 21 64 22
REMARK SMILES IDX 35 24 57 25 42 26 56 27 43 28 46 29 55 30 69 31 44 32 45 33
REMARK SMILES IDX 54 35 70 36 47 37 36 38 37 39 41 40 38 41 40 42 39 43 58 44
REMARK SMILES IDX 59 45 63 46 60 47 62 48 61 49 48 50 49 51 53 52 50 53 52 54
REMARK SMILES IDX 51 55 6 56 7 57 8 58 9 59 10 60 26 61 11 62 14 63 12 64
REMARK SMILES IDX 13 65 15 66 16 68 17 69 18 70 19 71 20 73 21 74 22 75 25 76
REMARK SMILES IDX 23 77 24 78
REMARK H PARENT 68 23 46 34 15 67 18 72
REMARK Flexibility Score: inf
ROOT
ATOM      1  C   UNL     1       4.040  -1.928  -0.862  1.00  0.00     0.275 C 
ENDROOT
BRANCH   1   2
ATOM      2  C   UNL     1       4.758  -1.510   0.442  1.00  0.00     0.275 C 
BRANCH   2   3
ATOM      3  O   UNL     1       4.024  -0.585   1.240  1.00  0.00    -0.458 OA
BRANCH   3   4
ATOM      4  C   UNL     1       3.712   0.679   0.890  1.00  0.00     0.338 C 
ATOM      5  O   UNL     1       2.730   1.201   1.419  1.00  0.00    -0.246 OA
BRANCH   4   6
ATOM      6  C   UNL     1       4.473   1.484  -0.135  1.00  0.00     0.060 A 
ATOM      7  C   UNL     1       5.424   1.034  -1.063  1.00  0.00     0.016 A 
ATOM      8  C   UNL     1       4.007   2.788  -0.295  1.00  0.00     0.016 A 
ATOM      9  C   UNL     1       5.750   1.765  -2.211  1.00  0.00     0.010 A 
ATOM     10  C   UNL     1       4.231   3.463  -1.496  1.00  0.00     0.010 A 
ATOM     11  C   UNL     1       5.107   2.961  -2.476  1.00  0.00    -0.014 A 
BRANCH  11  12
ATOM     12  C   UNL     1       5.463   3.818  -3.636  1.00  0.00     0.031 A 
ATOM     13  C   UNL     1       5.877   5.218  -3.303  1.00  0.00     0.074 A 
ATOM     14  C   UNL     1       5.418   3.436  -4.931  1.00  0.00     0.049 A 
ATOM     15  N   UNL     1       5.996   6.257  -4.079  1.00  0.00    -0.248 NA
ATOM     16  C   UNL     1       6.144   5.493  -1.875  1.00  0.00     0.031 C 
ATOM     17  C   UNL     1       5.189   2.084  -5.434  1.00  0.00     0.029 A 
ATOM     18  N   UNL     1       5.537   4.186  -6.082  1.00  0.00    -0.354 N 
ATOM     19  C   UNL     1       6.341   7.282  -3.218  1.00  0.00     0.074 A 
ATOM     20  C   UNL     1       6.151   6.810  -1.870  1.00  0.00     0.031 C 
ATOM     21  C   UNL     1       5.105   2.113  -6.777  1.00  0.00     0.029 A 
ATOM     22  C   UNL     1       5.249   3.486  -7.234  1.00  0.00     0.049 A 
ATOM     23  H   UNL     1       5.804   5.133  -6.081  1.00  0.00     0.167 HD
ATOM     24  C   UNL     1       6.930   8.460  -3.504  1.00  0.00     0.031 A 
ATOM     25  C   UNL     1       5.104   3.907  -8.508  1.00  0.00     0.031 A 
ATOM     26  C   UNL     1       7.195   8.892  -4.838  1.00  0.00     0.049 A 
ATOM     27  C   UNL     1       5.517   5.316  -8.835  1.00  0.00     0.074 A 
ATOM     28  C   UNL     1       7.820  10.045  -5.259  1.00  0.00     0.029 A 
ATOM     29  N   UNL     1       6.836   8.175  -5.970  1.00  0.00    -0.354 N 
ATOM     30  N   UNL     1       5.914   6.260  -8.017  1.00  0.00    -0.248 NA
ATOM     31  C   UNL     1       5.565   5.689 -10.256  1.00  0.00     0.031 C 
ATOM     32  C   UNL     1       7.753  10.073  -6.654  1.00  0.00     0.029 A 
ATOM     33  C   UNL     1       7.176   8.891  -7.098  1.00  0.00     0.049 A 
ATOM     34  H   UNL     1       6.404   7.291  -5.968  1.00  0.00     0.167 HD
ATOM     35  C   UNL     1       6.359   7.298  -8.823  1.00  0.00     0.074 A 
ATOM     36  C   UNL     1       6.133   6.888 -10.195  1.00  0.00     0.031 C 
ATOM     37  C   UNL     1       6.954   8.458  -8.455  1.00  0.00     0.031 A 
BRANCH  24  38
ATOM     38  C   UNL     1       7.308   9.306  -2.324  1.00  0.00    -0.014 A 
ATOM     39  C   UNL     1       8.251   8.864  -1.375  1.00  0.00     0.009 A 
ATOM     40  C   UNL     1       6.602  10.489  -2.084  1.00  0.00     0.009 A 
ATOM     41  C   UNL     1       8.395   9.534  -0.160  1.00  0.00     0.001 A 
ATOM     42  C   UNL     1       6.788  11.185  -0.891  1.00  0.00     0.001 A 
ATOM     43  C   UNL     1       7.661  10.693   0.080  1.00  0.00     0.000 A 
ENDBRANCH  24  38
BRANCH  25  44
ATOM     44  C   UNL     1       4.605   2.989  -9.572  1.00  0.00    -0.014 A 
ATOM     45  C   UNL     1       5.472   2.414 -10.513  1.00  0.00     0.009 A 
ATOM     46  C   UNL     1       3.233   2.707  -9.673  1.00  0.00     0.009 A 
ATOM     47  C   UNL     1       4.975   1.595 -11.535  1.00  0.00     0.001 A 
ATOM     48  C   UNL     1       2.738   1.874 -10.683  1.00  0.00     0.001 A 
ATOM     49  C   UNL     1       3.610   1.322 -11.617  1.00  0.00     0.000 A 
ENDBRANCH  25  44
BRANCH  37  50
ATOM     50  C   UNL     1       7.485   9.356  -9.533  1.00  0.00    -0.014 A 
ATOM     51  C   UNL     1       6.635  10.120 -10.341  1.00  0.00     0.009 A 
ATOM     52  C   UNL     1       8.876   9.544  -9.625  1.00  0.00     0.009 A 
ATOM     53  C   UNL     1       7.170  11.061 -11.222  1.00  0.00     0.001 A 
ATOM     54  C   UNL     1       9.403  10.511 -10.477  1.00  0.00     0.001 A 
ATOM     55  C   UNL     1       8.550  11.267 -11.277  1.00  0.00     0.000 A 
ENDBRANCH  37  50
ENDBRANCH  11  12
ENDBRANCH   4   6
ENDBRANCH   3   4
ENDBRANCH   2   3
ENDBRANCH   1   2
BRANCH   1  56
ATOM     56  O   UNL     1       3.383  -0.856  -1.608  1.00  0.00    -0.458 OA
BRANCH  56  57
ATOM     57  C   UNL     1       2.152  -1.159  -2.140  1.00  0.00     0.338 C 
ATOM     58  O   UNL     1       1.654  -2.271  -2.055  1.00  0.00    -0.246 OA
BRANCH  57  59
ATOM     59  C   UNL     1       1.561   0.020  -3.036  1.00  0.00     0.062 A 
ATOM     60  C   UNL     1       2.502   0.043  -4.590  1.00  0.00     0.017 A 
ATOM     61  C   UNL     1       0.053   1.424  -2.963  1.00  0.00     0.043 A 
ATOM     62  C   UNL     1       2.025   1.269  -5.801  1.00  0.00     0.019 A 
ATOM     63  C   UNL     1      -0.198   2.607  -4.091  1.00  0.00     0.055 A 
ATOM     64  C   UNL     1       0.755   2.501  -5.530  1.00  0.00     0.041 A 
ATOM     65  Br  UNL     1       0.696   3.975  -6.726  1.00  0.00    -0.049 Br
BRANCH  63  66
ATOM     66  N   UNL     1      -0.723   3.736  -3.413  1.00  0.00    -0.331 N 
ATOM     67  H   UNL     1      -0.921   4.510  -3.987  1.00  0.00     0.169 HD
BRANCH  66  68
ATOM     68  C   UNL     1      -1.002   3.922  -2.058  1.00  0.00     0.177 C 
ATOM     69  S   UNL     1      -1.536   5.457  -1.622  1.00  0.00    -0.040 S 
BRANCH  68  70
ATOM     70  N   UNL     1      -0.906   2.969  -0.969  1.00  0.00    -0.298 N 
ATOM     71  C   UNL     1      -0.552   1.598  -0.368  1.00  0.00     0.267 C 
ATOM     72  H   UNL     1      -1.259   3.469  -0.198  1.00  0.00     0.172 HD
ATOM     73  O   UNL     1      -1.061   1.288   0.706  1.00  0.00    -0.268 OA
BRANCH  71  74
ATOM     74  C   UNL     1       0.451   0.721  -1.127  1.00  0.00     0.092 A 
ATOM     75  C   UNL     1       1.679   1.698  -1.757  1.00  0.00     0.025 A 
ATOM     76  S   UNL     1      -0.587  -0.647  -2.669  1.00  0.00    -0.139 S 
ATOM     77  C   UNL     1       1.734   1.761  -3.656  1.00  0.00     0.012 A 
ATOM     78  C   UNL     1       0.443   0.476  -4.444  1.00  0.00     0.065 A 
ENDBRANCH  71  74
ENDBRANCH  68  70
ENDBRANCH  66  68
ENDBRANCH  63  66
ENDBRANCH  57  59
ENDBRANCH  56  57
ENDBRANCH   1  56
TORSDOF 15
