REMARK SMILES O=C(OCCOC(=O)[C@H]1CC2(CC[NH+](C(=O)C3CC3)CC2)CN1C(=O)CCn1cccn1)c1ccc(-c2c3nc(c(-c4ccccc4)c4ccc([nH]4)c(-c4ccccc4)c4nc(c(-c5ccccc5)c5ccc2[nH]5)C=C4)C=C3)cc1
REMARK SMILES IDX 5 1 4 2 3 3 2 4 1 5 33 6 34 7 80 8 35 9 79 10 36 11 37 12
REMARK SMILES IDX 38 13 73 14 39 15 78 16 72 17 74 18 40 19 77 20 71 21 70 22
REMARK SMILES IDX 41 24 63 25 48 26 62 27 49 28 52 29 61 30 75 31 50 32 51 33
REMARK SMILES IDX 60 35 76 36 53 37 42 38 43 39 47 40 44 41 46 42 45 43 64 44
REMARK SMILES IDX 65 45 69 46 66 47 68 48 67 49 54 50 55 51 59 52 56 53 58 54
REMARK SMILES IDX 57 55 6 56 7 57 8 58 9 59 10 60 23 61 11 62 22 63 12 64
REMARK SMILES IDX 21 65 13 66 20 67 14 68 24 70 25 71 26 72 27 73 28 74 29 75
REMARK SMILES IDX 32 76 30 77 31 78 15 79 16 80 17 81 18 82 19 83
REMARK H PARENT 74 23 52 34 14 69
REMARK Flexibility Score: inf
ROOT
ATOM      1  C   UNL     1       0.994   0.122   1.739  1.00  0.00     0.274 C 
ENDROOT
BRANCH   1   2
ATOM      2  C   UNL     1       1.260  -0.587   3.062  1.00  0.00     0.275 C 
BRANCH   2   3
ATOM      3  O   UNL     1       1.072   0.318   4.164  1.00  0.00    -0.458 OA
BRANCH   3   4
ATOM      4  C   UNL     1       2.075   0.819   4.917  1.00  0.00     0.338 C 
ATOM      5  O   UNL     1       1.843   1.414   5.965  1.00  0.00    -0.246 OA
BRANCH   4   6
ATOM      6  C   UNL     1       3.457   0.890   4.406  1.00  0.00     0.060 A 
ATOM      7  C   UNL     1       4.521   0.319   5.103  1.00  0.00     0.016 A 
ATOM      8  C   UNL     1       3.708   1.944   3.546  1.00  0.00     0.016 A 
ATOM      9  C   UNL     1       5.776   0.948   5.077  1.00  0.00     0.010 A 
ATOM     10  C   UNL     1       4.957   2.527   3.482  1.00  0.00     0.010 A 
ATOM     11  C   UNL     1       5.946   2.133   4.357  1.00  0.00    -0.014 A 
BRANCH  11  12
ATOM     12  C   UNL     1       7.160   2.942   4.340  1.00  0.00     0.031 A 
ATOM     13  C   UNL     1       7.966   2.713   3.124  1.00  0.00     0.074 A 
ATOM     14  C   UNL     1       7.504   3.968   5.148  1.00  0.00     0.049 A 
ATOM     15  N   UNL     1       8.675   1.657   2.907  1.00  0.00    -0.248 NA
ATOM     16  C   UNL     1       7.810   3.584   1.946  1.00  0.00     0.031 C 
ATOM     17  C   UNL     1       6.722   4.693   6.151  1.00  0.00     0.029 A 
ATOM     18  N   UNL     1       8.715   4.604   5.192  1.00  0.00    -0.354 N 
ATOM     19  C   UNL     1       9.328   1.906   1.716  1.00  0.00     0.074 A 
ATOM     20  C   UNL     1       8.533   2.906   1.047  1.00  0.00     0.031 C 
ATOM     21  C   UNL     1       7.442   5.752   6.612  1.00  0.00     0.029 A 
ATOM     22  C   UNL     1       8.788   5.686   6.063  1.00  0.00     0.049 A 
ATOM     23  H   UNL     1       9.481   4.316   4.645  1.00  0.00     0.167 HD
ATOM     24  C   UNL     1      10.642   1.568   1.578  1.00  0.00     0.031 A 
ATOM     25  C   UNL     1       9.896   6.428   6.330  1.00  0.00     0.031 A 
ATOM     26  C   UNL     1      11.114   0.841   2.747  1.00  0.00     0.049 A 
ATOM     27  C   UNL     1      11.067   5.572   6.031  1.00  0.00     0.074 A 
ATOM     28  C   UNL     1      10.722  -0.285   3.447  1.00  0.00     0.029 A 
ATOM     29  N   UNL     1      11.911   1.557   3.612  1.00  0.00    -0.354 N 
ATOM     30  N   UNL     1      11.380   4.519   6.729  1.00  0.00    -0.248 NA
ATOM     31  C   UNL     1      11.693   5.662   4.724  1.00  0.00     0.031 C 
ATOM     32  C   UNL     1      10.937   0.034   4.825  1.00  0.00     0.029 A 
ATOM     33  C   UNL     1      11.520   1.300   4.896  1.00  0.00     0.049 A 
ATOM     34  H   UNL     1      12.645   2.157   3.347  1.00  0.00     0.167 HD
ATOM     35  C   UNL     1      11.829   3.605   5.789  1.00  0.00     0.074 A 
ATOM     36  C   UNL     1      12.139   4.408   4.608  1.00  0.00     0.031 C 
ATOM     37  C   UNL     1      11.622   2.266   5.970  1.00  0.00     0.031 A 
BRANCH  24  38
ATOM     38  C   UNL     1      11.628   2.305   0.693  1.00  0.00    -0.014 A 
ATOM     39  C   UNL     1      12.967   1.869   0.711  1.00  0.00     0.009 A 
ATOM     40  C   UNL     1      11.382   3.545   0.080  1.00  0.00     0.009 A 
ATOM     41  C   UNL     1      14.010   2.691   0.274  1.00  0.00     0.001 A 
ATOM     42  C   UNL     1      12.418   4.350  -0.401  1.00  0.00     0.001 A 
ATOM     43  C   UNL     1      13.735   3.940  -0.267  1.00  0.00     0.000 A 
ENDBRANCH  24  38
BRANCH  25  44
ATOM     44  C   UNL     1      10.092   7.844   6.711  1.00  0.00    -0.014 A 
ATOM     45  C   UNL     1      11.308   8.276   7.277  1.00  0.00     0.009 A 
ATOM     46  C   UNL     1       9.224   8.826   6.208  1.00  0.00     0.009 A 
ATOM     47  C   UNL     1      11.668   9.631   7.281  1.00  0.00     0.001 A 
ATOM     48  C   UNL     1       9.584  10.181   6.214  1.00  0.00     0.001 A 
ATOM     49  C   UNL     1      10.813  10.581   6.731  1.00  0.00     0.000 A 
ENDBRANCH  25  44
BRANCH  37  50
ATOM     50  C   UNL     1      11.245   1.791   7.353  1.00  0.00    -0.014 A 
ATOM     51  C   UNL     1      10.100   2.223   8.046  1.00  0.00     0.009 A 
ATOM     52  C   UNL     1      12.028   0.781   7.933  1.00  0.00     0.009 A 
ATOM     53  C   UNL     1       9.771   1.683   9.295  1.00  0.00     0.001 A 
ATOM     54  C   UNL     1      11.687   0.225   9.168  1.00  0.00     0.001 A 
ATOM     55  C   UNL     1      10.563   0.681   9.852  1.00  0.00     0.000 A 
ENDBRANCH  37  50
ENDBRANCH  11  12
ENDBRANCH   4   6
ENDBRANCH   3   4
ENDBRANCH   2   3
ENDBRANCH   1   2
BRANCH   1  56
ATOM     56  O   UNL     1       1.900   1.231   1.582  1.00  0.00    -0.461 OA
BRANCH  56  57
ATOM     57  C   UNL     1       1.675   1.986   0.482  1.00  0.00     0.328 C 
ATOM     58  O   UNL     1       0.855   1.653  -0.372  1.00  0.00    -0.250 OA
BRANCH  57  59
ATOM     59  C   UNL     1       2.698   3.153   0.270  1.00  0.00     0.195 C 
ATOM     60  C   UNL     1       2.293   3.881  -1.022  1.00  0.00     0.046 C 
ATOM     61  N   UNL     1       3.678   4.124   0.864  1.00  0.00    -0.328 N 
ATOM     62  C   UNL     1       3.483   4.795  -1.393  1.00  0.00     0.001 C 
ATOM     63  C   UNL     1       4.522   4.488  -0.297  1.00  0.00     0.128 C 
ATOM     64  C   UNL     1       3.074   6.282  -1.332  1.00  0.00     0.071 C 
ATOM     65  C   UNL     1       3.978   4.476  -2.812  1.00  0.00     0.071 C 
ATOM     66  C   UNL     1       2.066   6.646  -2.415  1.00  0.00     0.270 C 
ATOM     67  C   UNL     1       2.924   4.859  -3.861  1.00  0.00     0.270 C 
ATOM     68  N   UNL     1       2.561   6.272  -3.735  1.00  0.00    -0.272 N 
ATOM     69  H   UNL     1       3.220   5.949  -3.079  1.00  0.00     0.356 HD
BRANCH  61  70
ATOM     70  C   UNL     1       3.592   5.154   1.813  1.00  0.00     0.225 C 
ATOM     71  O   UNL     1       4.324   6.153   1.667  1.00  0.00    -0.275 OA
BRANCH  70  72
ATOM     72  C   UNL     1       2.930   5.097   3.188  1.00  0.00     0.124 C 
BRANCH  72  73
ATOM     73  C   UNL     1       1.451   5.145   3.462  1.00  0.00     0.154 C 
BRANCH  73  74
ATOM     74  N   UNL     1       0.578   4.704   2.419  1.00  0.00    -0.272 N 
ATOM     75  C   UNL     1      -0.174   3.569   2.416  1.00  0.00     0.108 A 
ATOM     76  N   UNL     1       0.330   5.517   1.382  1.00  0.00    -0.182 NA
ATOM     77  C   UNL     1      -0.981   3.660   1.307  1.00  0.00     0.042 A 
ATOM     78  C   UNL     1      -0.655   4.898   0.729  1.00  0.00     0.135 A 
ENDBRANCH  73  74
ENDBRANCH  72  73
ENDBRANCH  70  72
ENDBRANCH  61  70
BRANCH  68  79
ATOM     79  C   UNL     1       2.652   7.065  -4.875  1.00  0.00     0.315 C 
ATOM     80  O   UNL     1       2.906   6.556  -5.971  1.00  0.00    -0.231 OA
BRANCH  79  81
ATOM     81  C   UNL     1       2.545   8.555  -4.885  1.00  0.00     0.119 C 
ATOM     82  C   UNL     1       1.719   9.481  -4.042  1.00  0.00     0.019 C 
ATOM     83  C   UNL     1       3.209   9.401  -3.828  1.00  0.00     0.019 C 
ENDBRANCH  79  81
ENDBRANCH  68  79
ENDBRANCH  57  59
ENDBRANCH  56  57
ENDBRANCH   1  56
TORSDOF 17
