REMARK SMILES CCNC(=O)c1ccc(N2C[C@@H](C)[C@H](C(=O)OCCOC(=O)c3ccc(-c4c5nc(c(-c6ccccc6)c6ccc([nH]6)c(-c6ccccc6)c6nc(c(-c7ccccc7)c7ccc4[nH]7)C=C6)C=C5)cc3)C2)nn1
REMARK SMILES IDX 18 1 17 2 15 3 16 4 14 5 10 6 11 7 71 8 12 9 13 10 9 11 6 12
REMARK SMILES IDX 7 13 73 14 8 15 72 16 4 17 3 18 5 20 2 21 1 22 19 23 20 24
REMARK SMILES IDX 21 25 22 26 23 27 24 28 70 29 25 30 69 31 26 32 27 33 28 34
REMARK SMILES IDX 63 35 29 36 68 37 62 38 64 39 30 40 67 41 61 42 60 43 31 45
REMARK SMILES IDX 53 46 38 47 52 48 39 49 42 50 51 51 65 52 40 53 41 54 50 56
REMARK SMILES IDX 66 57 43 58 32 59 33 60 37 61 34 62 36 63 35 64 54 65 55 66
REMARK SMILES IDX 59 67 56 68 58 69 57 70 44 71 45 72 49 73 46 74 48 75 47 76
REMARK H PARENT 3 19 64 44 42 55
REMARK Flexibility Score: inf
ROOT
ATOM      1  C   UNL     1      -4.462  -2.055  -0.351  1.00  0.00     0.274 C 
ENDROOT
BRANCH   1   2
ATOM      2  O   UNL     1      -5.188  -1.171   0.524  1.00  0.00    -0.462 OA
BRANCH   2   3
ATOM      3  C   UNL     1      -5.896  -0.172  -0.066  1.00  0.00     0.311 C 
ATOM      4  O   UNL     1      -5.903   0.056  -1.271  1.00  0.00    -0.252 OA
BRANCH   3   5
ATOM      5  C   UNL     1      -6.705   0.660   0.913  1.00  0.00     0.123 C 
ATOM      6  N   UNL     1      -5.279   1.406   2.578  1.00  0.00    -0.354 N 
ATOM      7  C   UNL     1      -6.210   0.567   3.311  1.00  0.00     0.122 C 
ATOM      8  C   UNL     1      -5.877   1.866   1.336  1.00  0.00     0.133 C 
ATOM      9  C   UNL     1      -7.095  -0.061   2.222  1.00  0.00     0.021 C 
ATOM     10  C   UNL     1      -8.581   0.080   2.539  1.00  0.00     0.010 C 
BRANCH   6  11
ATOM     11  C   UNL     1      -3.917   1.456   2.701  1.00  0.00     0.151 A 
ATOM     12  C   UNL     1      -1.178   1.606   2.775  1.00  0.00     0.150 A 
ATOM     13  C   UNL     1      -1.793   0.522   3.369  1.00  0.00     0.040 A 
ATOM     14  N   UNL     1      -1.876   2.584   2.174  1.00  0.00    -0.143 NA
ATOM     15  C   UNL     1      -3.184   0.458   3.333  1.00  0.00     0.051 A 
ATOM     16  N   UNL     1      -3.250   2.489   2.132  1.00  0.00    -0.132 NA
BRANCH  12  17
ATOM     17  C   UNL     1       0.292   1.746   2.793  1.00  0.00     0.271 C 
ATOM     18  N   UNL     1       1.075   0.832   2.125  1.00  0.00    -0.351 N 
ATOM     19  H   UNL     1       2.043   0.899   2.296  1.00  0.00     0.163 HD
ATOM     20  O   UNL     1       0.821   2.648   3.436  1.00  0.00    -0.267 OA
BRANCH  18  21
ATOM     21  C   UNL     1       0.676  -0.217   1.204  1.00  0.00     0.113 C 
ATOM     22  C   UNL     1       1.234   0.044  -0.182  1.00  0.00     0.027 C 
ENDBRANCH  18  21
ENDBRANCH  12  17
ENDBRANCH   6  11
ENDBRANCH   3   5
ENDBRANCH   2   3
ENDBRANCH   1   2
BRANCH   1  23
ATOM     23  C   UNL     1      -5.210  -3.376  -0.556  1.00  0.00     0.275 C 
BRANCH  23  24
ATOM     24  O   UNL     1      -6.433  -3.182  -1.291  1.00  0.00    -0.458 OA
BRANCH  24  25
ATOM     25  C   UNL     1      -7.542  -3.037  -0.530  1.00  0.00     0.338 C 
ATOM     26  O   UNL     1      -7.627  -3.101   0.683  1.00  0.00    -0.246 OA
BRANCH  25  27
ATOM     27  C   UNL     1      -8.668  -2.627  -1.381  1.00  0.00     0.060 A 
ATOM     28  C   UNL     1      -9.167  -1.334  -1.218  1.00  0.00     0.016 A 
ATOM     29  C   UNL     1      -9.283  -3.521  -2.257  1.00  0.00     0.016 A 
ATOM     30  C   UNL     1     -10.293  -0.922  -1.918  1.00  0.00     0.010 A 
ATOM     31  C   UNL     1     -10.413  -3.105  -2.968  1.00  0.00     0.010 A 
ATOM     32  C   UNL     1     -10.930  -1.809  -2.792  1.00  0.00    -0.014 A 
BRANCH  32  33
ATOM     33  C   UNL     1     -12.168  -1.381  -3.479  1.00  0.00     0.031 A 
ATOM     34  C   UNL     1     -13.496  -1.905  -3.021  1.00  0.00     0.074 A 
ATOM     35  C   UNL     1     -12.098  -0.501  -4.494  1.00  0.00     0.049 A 
ATOM     36  N   UNL     1     -14.684  -1.701  -3.530  1.00  0.00    -0.248 NA
ATOM     37  C   UNL     1     -13.487  -2.773  -1.834  1.00  0.00     0.031 C 
ATOM     38  C   UNL     1     -10.869   0.115  -4.995  1.00  0.00     0.029 A 
ATOM     39  N   UNL     1     -13.086   0.023  -5.286  1.00  0.00    -0.354 N 
ATOM     40  C   UNL     1     -15.560  -2.439  -2.747  1.00  0.00     0.074 A 
ATOM     41  C   UNL     1     -14.767  -3.100  -1.731  1.00  0.00     0.031 C 
ATOM     42  C   UNL     1     -11.177   0.934  -6.013  1.00  0.00     0.029 A 
ATOM     43  C   UNL     1     -12.614   0.864  -6.262  1.00  0.00     0.049 A 
ATOM     44  H   UNL     1     -14.041  -0.183  -5.166  1.00  0.00     0.167 HD
ATOM     45  C   UNL     1     -16.903  -2.559  -2.867  1.00  0.00     0.031 A 
ATOM     46  C   UNL     1     -13.262   1.484  -7.266  1.00  0.00     0.031 A 
ATOM     47  C   UNL     1     -17.689  -1.897  -3.874  1.00  0.00     0.049 A 
ATOM     48  C   UNL     1     -14.745   1.297  -7.409  1.00  0.00     0.074 A 
ATOM     49  C   UNL     1     -19.059  -1.935  -4.063  1.00  0.00     0.029 A 
ATOM     50  N   UNL     1     -17.170  -1.079  -4.865  1.00  0.00    -0.354 N 
ATOM     51  N   UNL     1     -15.563   0.599  -6.661  1.00  0.00    -0.248 NA
ATOM     52  C   UNL     1     -15.391   1.982  -8.537  1.00  0.00     0.031 C 
ATOM     53  C   UNL     1     -19.364  -1.175  -5.199  1.00  0.00     0.029 A 
ATOM     54  C   UNL     1     -18.189  -0.628  -5.688  1.00  0.00     0.049 A 
ATOM     55  H   UNL     1     -16.218  -0.852  -4.969  1.00  0.00     0.167 HD
ATOM     56  C   UNL     1     -16.823   0.765  -7.220  1.00  0.00     0.074 A 
ATOM     57  C   UNL     1     -16.662   1.646  -8.360  1.00  0.00     0.031 C 
ATOM     58  C   UNL     1     -18.006   0.235  -6.826  1.00  0.00     0.031 A 
BRANCH  45  59
ATOM     59  C   UNL     1     -17.596  -3.488  -1.912  1.00  0.00    -0.014 A 
ATOM     60  C   UNL     1     -17.790  -3.145  -0.565  1.00  0.00     0.009 A 
ATOM     61  C   UNL     1     -18.067  -4.726  -2.374  1.00  0.00     0.009 A 
ATOM     62  C   UNL     1     -18.411  -4.041   0.308  1.00  0.00     0.001 A 
ATOM     63  C   UNL     1     -18.709  -5.610  -1.505  1.00  0.00     0.001 A 
ATOM     64  C   UNL     1     -18.871  -5.271  -0.163  1.00  0.00     0.000 A 
ENDBRANCH  45  59
BRANCH  46  65
ATOM     65  C   UNL     1     -12.494   2.305  -8.234  1.00  0.00    -0.014 A 
ATOM     66  C   UNL     1     -12.578   3.704  -8.212  1.00  0.00     0.009 A 
ATOM     67  C   UNL     1     -11.647   1.687  -9.168  1.00  0.00     0.009 A 
ATOM     68  C   UNL     1     -11.835   4.469  -9.115  1.00  0.00     0.001 A 
ATOM     69  C   UNL     1     -10.888   2.455 -10.053  1.00  0.00     0.001 A 
ATOM     70  C   UNL     1     -10.986   3.845 -10.029  1.00  0.00     0.000 A 
ENDBRANCH  46  65
BRANCH  58  71
ATOM     71  C   UNL     1     -19.220   0.605  -7.629  1.00  0.00    -0.014 A 
ATOM     72  C   UNL     1     -19.454   0.033  -8.889  1.00  0.00     0.009 A 
ATOM     73  C   UNL     1     -20.157   1.506  -7.102  1.00  0.00     0.009 A 
ATOM     74  C   UNL     1     -20.593   0.379  -9.618  1.00  0.00     0.001 A 
ATOM     75  C   UNL     1     -21.306   1.833  -7.823  1.00  0.00     0.001 A 
ATOM     76  C   UNL     1     -21.519   1.275  -9.083  1.00  0.00     0.000 A 
ENDBRANCH  58  71
ENDBRANCH  32  33
ENDBRANCH  25  27
ENDBRANCH  24  25
ENDBRANCH  23  24
ENDBRANCH   1  23
TORSDOF 14
