REMARK SMILES Cc1ccc(OC(F)(F)F)cc1C(=O)OCCOC(=O)c1ccc(-c2c3nc(c(-c4ccccc4)c4ccc([nH]4)c(-c4ccccc4)c4nc(c(-c5ccccc5)c5ccc2[nH]5)C=C4)C=C3)cc1
REMARK SMILES IDX 16 1 15 2 13 3 14 4 12 5 1 6 2 7 3 8 4 9 11 10 5 11 6 12
REMARK SMILES IDX 7 13 8 14 9 15 10 16 17 17 18 18 19 19 20 20 21 21 22 22
REMARK SMILES IDX 68 23 23 24 67 25 24 26 25 27 26 28 61 29 27 30 66 31 60 32
REMARK SMILES IDX 62 33 28 34 65 35 59 36 58 37 29 39 51 40 36 41 50 42 37 43
REMARK SMILES IDX 40 44 49 45 63 46 38 47 39 48 48 50 64 51 41 52 30 53 31 54
REMARK SMILES IDX 35 55 32 56 34 57 33 58 52 59 53 60 57 61 54 62 56 63 55 64
REMARK SMILES IDX 42 65 43 66 47 67 44 68 46 69 45 70
REMARK H PARENT 62 38 40 49
REMARK Flexibility Score: inf
ROOT
ATOM      1  C   UNL     1       3.083   2.715  -2.130  1.00  0.00     0.275 C 
ENDROOT
BRANCH   1   2
ATOM      2  O   UNL     1       1.935   1.845  -2.095  1.00  0.00    -0.458 OA
BRANCH   2   3
ATOM      3  C   UNL     1       1.901   1.109  -0.952  1.00  0.00     0.338 C 
ATOM      4  O   UNL     1       2.686   1.230  -0.022  1.00  0.00    -0.246 OA
BRANCH   3   5
ATOM      5  C   UNL     1       0.875   0.044  -0.905  1.00  0.00     0.066 A 
ATOM      6  C   UNL     1       2.729  -1.676  -0.418  1.00  0.00     0.045 C 
ATOM      7  C   UNL     1       1.287  -1.250  -0.519  1.00  0.00    -0.036 A 
ATOM      8  C   UNL     1       0.310  -2.220  -0.262  1.00  0.00     0.008 A 
ATOM      9  C   UNL     1      -1.044  -1.908  -0.360  1.00  0.00     0.047 A 
ATOM     10  C   UNL     1      -0.496   0.344  -1.043  1.00  0.00     0.062 A 
ATOM     11  C   UNL     1      -1.455  -0.628  -0.734  1.00  0.00     0.130 A 
BRANCH  11  12
ATOM     12  O   UNL     1      -2.810  -0.477  -0.805  1.00  0.00    -0.406 OA
BRANCH  12  13
ATOM     13  C   UNL     1      -3.343   0.769  -0.387  1.00  0.00     0.573 C 
ATOM     14  F   UNL     1      -2.804   1.175   0.783  1.00  0.00    -0.132 F 
ATOM     15  F   UNL     1      -3.142   1.715  -1.325  1.00  0.00    -0.132 F 
ATOM     16  F   UNL     1      -4.676   0.627  -0.206  1.00  0.00    -0.132 F 
ENDBRANCH  12  13
ENDBRANCH  11  12
ENDBRANCH   3   5
ENDBRANCH   2   3
ENDBRANCH   1   2
BRANCH   1  17
ATOM     17  C   UNL     1       2.880   4.043  -2.871  1.00  0.00     0.275 C 
BRANCH  17  18
ATOM     18  O   UNL     1       1.563   4.657  -2.927  1.00  0.00    -0.458 OA
BRANCH  18  19
ATOM     19  C   UNL     1       0.540   4.545  -2.053  1.00  0.00     0.338 C 
ATOM     20  O   UNL     1      -0.634   4.615  -2.411  1.00  0.00    -0.246 OA
BRANCH  19  21
ATOM     21  C   UNL     1       0.872   4.322  -0.642  1.00  0.00     0.060 A 
ATOM     22  C   UNL     1       0.012   3.531   0.140  1.00  0.00     0.016 A 
ATOM     23  C   UNL     1       2.066   4.814  -0.129  1.00  0.00     0.016 A 
ATOM     24  C   UNL     1       0.395   3.140   1.413  1.00  0.00     0.010 A 
ATOM     25  C   UNL     1       2.517   4.319   1.065  1.00  0.00     0.010 A 
ATOM     26  C   UNL     1       1.655   3.537   1.851  1.00  0.00    -0.014 A 
BRANCH  26  27
ATOM     27  C   UNL     1       2.019   3.556   3.253  1.00  0.00     0.031 A 
ATOM     28  C   UNL     1       2.599   2.380   3.908  1.00  0.00     0.074 A 
ATOM     29  C   UNL     1       1.875   4.807   3.748  1.00  0.00     0.049 A 
ATOM     30  N   UNL     1       2.588   2.193   5.179  1.00  0.00    -0.248 NA
ATOM     31  C   UNL     1       3.200   1.255   3.192  1.00  0.00     0.031 C 
ATOM     32  C   UNL     1       2.356   5.457   4.948  1.00  0.00     0.029 A 
ATOM     33  N   UNL     1       1.034   5.770   3.177  1.00  0.00    -0.354 N 
ATOM     34  C   UNL     1       3.485   1.178   5.447  1.00  0.00     0.074 A 
ATOM     35  C   UNL     1       3.696   0.513   4.191  1.00  0.00     0.031 C 
ATOM     36  C   UNL     1       1.591   6.549   5.174  1.00  0.00     0.029 A 
ATOM     37  C   UNL     1       0.507   6.551   4.189  1.00  0.00     0.049 A 
ATOM     38  H   UNL     1       0.849   5.873   2.215  1.00  0.00     0.167 HD
ATOM     39  C   UNL     1       4.104   1.176   6.662  1.00  0.00     0.031 A 
ATOM     40  C   UNL     1      -0.821   6.368   4.460  1.00  0.00     0.031 A 
ATOM     41  C   UNL     1       3.568   2.265   7.476  1.00  0.00     0.049 A 
ATOM     42  C   UNL     1      -0.962   5.655   5.785  1.00  0.00     0.074 A 
ATOM     43  C   UNL     1       4.014   3.561   7.673  1.00  0.00     0.029 A 
ATOM     44  N   UNL     1       2.221   2.248   7.816  1.00  0.00    -0.354 N 
ATOM     45  N   UNL     1      -0.135   4.743   6.231  1.00  0.00    -0.248 NA
ATOM     46  C   UNL     1      -1.978   6.033   6.758  1.00  0.00     0.031 C 
ATOM     47  C   UNL     1       2.882   4.353   8.018  1.00  0.00     0.029 A 
ATOM     48  C   UNL     1       1.763   3.534   8.035  1.00  0.00     0.049 A 
ATOM     49  H   UNL     1       1.670   1.435   7.891  1.00  0.00     0.167 HD
ATOM     50  C   UNL     1      -0.405   4.515   7.554  1.00  0.00     0.074 A 
ATOM     51  C   UNL     1      -1.592   5.313   7.824  1.00  0.00     0.031 C 
ATOM     52  C   UNL     1       0.369   3.757   8.385  1.00  0.00     0.031 A 
BRANCH  39  53
ATOM     53  C   UNL     1       5.380   0.444   7.011  1.00  0.00    -0.014 A 
ATOM     54  C   UNL     1       6.115   0.875   8.136  1.00  0.00     0.009 A 
ATOM     55  C   UNL     1       5.946  -0.615   6.282  1.00  0.00     0.009 A 
ATOM     56  C   UNL     1       7.354   0.321   8.484  1.00  0.00     0.001 A 
ATOM     57  C   UNL     1       7.192  -1.172   6.621  1.00  0.00     0.001 A 
ATOM     58  C   UNL     1       7.899  -0.700   7.719  1.00  0.00     0.000 A 
ENDBRANCH  39  53
BRANCH  40  59
ATOM     59  C   UNL     1      -1.690   6.155   3.243  1.00  0.00    -0.014 A 
ATOM     60  C   UNL     1      -1.617   7.105   2.193  1.00  0.00     0.009 A 
ATOM     61  C   UNL     1      -2.373   4.960   2.976  1.00  0.00     0.009 A 
ATOM     62  C   UNL     1      -2.098   6.827   0.906  1.00  0.00     0.001 A 
ATOM     63  C   UNL     1      -2.886   4.697   1.690  1.00  0.00     0.001 A 
ATOM     64  C   UNL     1      -2.720   5.612   0.650  1.00  0.00     0.000 A 
ENDBRANCH  40  59
BRANCH  52  65
ATOM     65  C   UNL     1      -0.113   3.193   9.694  1.00  0.00    -0.014 A 
ATOM     66  C   UNL     1      -1.467   3.002   9.992  1.00  0.00     0.009 A 
ATOM     67  C   UNL     1       0.825   2.652  10.601  1.00  0.00     0.009 A 
ATOM     68  C   UNL     1      -1.866   2.366  11.170  1.00  0.00     0.001 A 
ATOM     69  C   UNL     1       0.432   1.953  11.739  1.00  0.00     0.001 A 
ATOM     70  C   UNL     1      -0.918   1.830  12.035  1.00  0.00     0.000 A 
ENDBRANCH  52  65
ENDBRANCH  26  27
ENDBRANCH  19  21
ENDBRANCH  18  19
ENDBRANCH  17  18
ENDBRANCH   1  17
TORSDOF 13
