REMARK SMILES CC(C)c1ncc(SC[C@H](O)CO)c(C(=O)OCCOC(=O)c2ccc(-c3c4nc(c(-c5ccccc5)c5ccc([nH]5)c(-c5ccccc5)c5nc(c(-c6ccccc6)c6ccc3[nH]6)C=C5)C=C4)cc2)n1
REMARK SMILES IDX 17 1 15 2 16 3 14 4 4 5 5 6 71 7 6 8 7 9 2 10 1 11 3 12 8 13
REMARK SMILES IDX 9 14 10 15 12 16 13 17 11 19 18 21 19 22 20 23 21 24 22 25
REMARK SMILES IDX 23 26 24 27 70 28 25 29 69 30 26 31 27 32 28 33 63 34 29 35
REMARK SMILES IDX 68 36 62 37 64 38 30 39 67 40 61 41 60 42 31 44 53 45 38 46
REMARK SMILES IDX 52 47 39 48 42 49 51 50 65 51 40 52 41 53 50 55 66 56 43 57
REMARK SMILES IDX 32 58 33 59 37 60 34 61 36 62 35 63 54 64 55 65 59 66 56 67
REMARK SMILES IDX 58 68 57 69 44 70 45 71 49 72 46 73 48 74 47 75
REMARK H PARENT 13 18 11 20 64 43 42 54
REMARK Flexibility Score: inf
ROOT
ATOM      1  O   UNL     1      -2.600  -5.662  -2.099  1.00  0.00    -0.457 OA
ENDROOT
BRANCH   1   2
ATOM      2  C   UNL     1      -3.801  -6.211  -1.792  1.00  0.00     0.358 C 
ATOM      3  O   UNL     1      -4.498  -6.873  -2.546  1.00  0.00    -0.244 OA
BRANCH   2   4
ATOM      4  C   UNL     1      -4.091  -6.021  -0.331  1.00  0.00     0.165 A 
ATOM      5  C   UNL     1      -4.894  -7.055   1.576  1.00  0.00     0.131 A 
ATOM      6  N   UNL     1      -4.534  -6.014   2.339  1.00  0.00    -0.240 NA
ATOM      7  N   UNL     1      -4.675  -7.113   0.254  1.00  0.00    -0.224 NA
ATOM      8  C   UNL     1      -3.985  -4.952   1.712  1.00  0.00     0.130 A 
ATOM      9  C   UNL     1      -3.805  -4.842   0.347  1.00  0.00     0.059 A 
BRANCH   5  10
ATOM     10  C   UNL     1      -5.602  -8.195   2.277  1.00  0.00     0.051 C 
ATOM     11  C   UNL     1      -7.012  -8.401   1.723  1.00  0.00     0.016 C 
ATOM     12  C   UNL     1      -4.803  -9.488   2.197  1.00  0.00     0.016 C 
ENDBRANCH   5  10
BRANCH   9  13
ATOM     13  S   UNL     1      -3.355  -3.294  -0.415  1.00  0.00    -0.119 SA
BRANCH  13  14
ATOM     14  C   UNL     1      -4.301  -2.060   0.555  1.00  0.00     0.109 C 
BRANCH  14  15
ATOM     15  C   UNL     1      -5.795  -1.906   0.242  1.00  0.00     0.150 C 
BRANCH  15  16
ATOM     16  C   UNL     1      -6.636  -3.186   0.281  1.00  0.00     0.188 C 
BRANCH  16  17
ATOM     17  O   UNL     1      -8.017  -2.818   0.194  1.00  0.00    -0.394 OA
ATOM     18  H   UNL     1      -8.245  -2.238   0.937  1.00  0.00     0.210 HD
ENDBRANCH  16  17
ENDBRANCH  15  16
BRANCH  15  19
ATOM     19  O   UNL     1      -6.345  -1.004   1.221  1.00  0.00    -0.390 OA
ATOM     20  H   UNL     1      -6.259  -1.394   2.104  1.00  0.00     0.211 HD
ENDBRANCH  15  19
ENDBRANCH  14  15
ENDBRANCH  13  14
ENDBRANCH   9  13
ENDBRANCH   2   4
ENDBRANCH   1   2
BRANCH   1  21
ATOM     21  C   UNL     1      -2.054  -5.898  -3.411  1.00  0.00     0.275 C 
BRANCH  21  22
ATOM     22  C   UNL     1      -0.650  -6.489  -3.271  1.00  0.00     0.275 C 
BRANCH  22  23
ATOM     23  O   UNL     1      -0.736  -7.859  -2.837  1.00  0.00    -0.458 OA
BRANCH  23  24
ATOM     24  C   UNL     1      -0.724  -8.040  -1.497  1.00  0.00     0.338 C 
ATOM     25  O   UNL     1      -0.540  -7.209  -0.626  1.00  0.00    -0.246 OA
BRANCH  24  26
ATOM     26  C   UNL     1      -1.135  -9.419  -1.216  1.00  0.00     0.060 A 
ATOM     27  C   UNL     1      -2.469  -9.639  -0.890  1.00  0.00     0.016 A 
ATOM     28  C   UNL     1      -0.215 -10.467  -1.190  1.00  0.00     0.016 A 
ATOM     29  C   UNL     1      -2.875 -10.901  -0.476  1.00  0.00     0.010 A 
ATOM     30  C   UNL     1      -0.640 -11.746  -0.803  1.00  0.00     0.010 A 
ATOM     31  C   UNL     1      -1.970 -11.967  -0.404  1.00  0.00    -0.014 A 
BRANCH  31  32
ATOM     32  C   UNL     1      -2.428 -13.265   0.167  1.00  0.00     0.031 A 
ATOM     33  C   UNL     1      -1.809 -13.795   1.435  1.00  0.00     0.074 A 
ATOM     34  C   UNL     1      -3.466 -13.927  -0.383  1.00  0.00     0.049 A 
ATOM     35  N   UNL     1      -2.009 -14.942   2.036  1.00  0.00    -0.248 NA
ATOM     36  C   UNL     1      -0.838 -12.924   2.116  1.00  0.00     0.031 C 
ATOM     37  C   UNL     1      -4.227 -13.490  -1.555  1.00  0.00     0.029 A 
ATOM     38  N   UNL     1      -4.087 -15.092  -0.003  1.00  0.00    -0.354 N 
ATOM     39  C   UNL     1      -1.147 -14.955   3.126  1.00  0.00     0.074 A 
ATOM     40  C   UNL     1      -0.427 -13.700   3.109  1.00  0.00     0.031 C 
ATOM     41  C   UNL     1      -5.250 -14.335  -1.756  1.00  0.00     0.029 A 
ATOM     42  C   UNL     1      -5.162 -15.425  -0.791  1.00  0.00     0.049 A 
ATOM     43  H   UNL     1      -3.790 -15.636   0.762  1.00  0.00     0.167 HD
ATOM     44  C   UNL     1      -0.964 -15.927   4.052  1.00  0.00     0.031 A 
ATOM     45  C   UNL     1      -5.969 -16.502  -0.768  1.00  0.00     0.031 A 
ATOM     46  C   UNL     1      -1.710 -17.156   4.101  1.00  0.00     0.049 A 
ATOM     47  C   UNL     1      -5.712 -17.591   0.234  1.00  0.00     0.074 A 
ATOM     48  C   UNL     1      -1.588 -18.205   4.997  1.00  0.00     0.029 A 
ATOM     49  N   UNL     1      -2.732 -17.493   3.228  1.00  0.00    -0.354 N 
ATOM     50  N   UNL     1      -4.832 -17.629   1.203  1.00  0.00    -0.248 NA
ATOM     51  C   UNL     1      -6.544 -18.798   0.124  1.00  0.00     0.031 C 
ATOM     52  C   UNL     1      -2.510 -19.196   4.640  1.00  0.00     0.029 A 
ATOM     53  C   UNL     1      -3.238 -18.741   3.553  1.00  0.00     0.049 A 
ATOM     54  H   UNL     1      -3.052 -16.929   2.488  1.00  0.00     0.167 HD
ATOM     55  C   UNL     1      -5.002 -18.862   1.819  1.00  0.00     0.074 A 
ATOM     56  C   UNL     1      -6.089 -19.529   1.132  1.00  0.00     0.031 C 
ATOM     57  C   UNL     1      -4.312 -19.397   2.854  1.00  0.00     0.031 A 
BRANCH  44  58
ATOM     58  C   UNL     1       0.135 -15.725   5.058  1.00  0.00    -0.014 A 
ATOM     59  C   UNL     1       0.005 -14.825   6.126  1.00  0.00     0.009 A 
ATOM     60  C   UNL     1       1.316 -16.476   4.940  1.00  0.00     0.009 A 
ATOM     61  C   UNL     1       1.051 -14.659   7.038  1.00  0.00     0.001 A 
ATOM     62  C   UNL     1       2.349 -16.326   5.867  1.00  0.00     0.001 A 
ATOM     63  C   UNL     1       2.219 -15.411   6.910  1.00  0.00     0.000 A 
ENDBRANCH  44  58
BRANCH  45  64
ATOM     64  C   UNL     1      -7.062 -16.633  -1.767  1.00  0.00    -0.014 A 
ATOM     65  C   UNL     1      -8.405 -16.559  -1.372  1.00  0.00     0.009 A 
ATOM     66  C   UNL     1      -6.763 -16.827  -3.125  1.00  0.00     0.009 A 
ATOM     67  C   UNL     1      -9.427 -16.687  -2.316  1.00  0.00     0.001 A 
ATOM     68  C   UNL     1      -7.785 -16.923  -4.071  1.00  0.00     0.001 A 
ATOM     69  C   UNL     1      -9.117 -16.860  -3.664  1.00  0.00     0.000 A 
ENDBRANCH  45  64
BRANCH  57  70
ATOM     70  C   UNL     1      -4.724 -20.765   3.314  1.00  0.00    -0.014 A 
ATOM     71  C   UNL     1      -4.395 -21.908   2.569  1.00  0.00     0.009 A 
ATOM     72  C   UNL     1      -5.424 -20.915   4.521  1.00  0.00     0.009 A 
ATOM     73  C   UNL     1      -4.788 -23.173   3.009  1.00  0.00     0.001 A 
ATOM     74  C   UNL     1      -5.795 -22.183   4.970  1.00  0.00     0.001 A 
ATOM     75  C   UNL     1      -5.484 -23.310   4.210  1.00  0.00     0.000 A 
ENDBRANCH  57  70
ENDBRANCH  31  32
ENDBRANCH  24  26
ENDBRANCH  23  24
ENDBRANCH  22  23
ENDBRANCH  21  22
ENDBRANCH   1  21
TORSDOF 18
