REMARK SMILES O=C(CSc1ccc(Cl)cc1)Nc1cccc(C(=O)Nc2ccc(C(=O)OCCOC(=O)c3ccc(-c4c5nc(c(-c6ccccc6)c6ccc([nH]6)c(-c6ccccc6)c6nc(c(-c7ccccc7)c7ccc4[nH]7)C=C6)C=C5)cc3)cc2)c1
REMARK SMILES IDX 25 1 26 2 24 3 21 4 22 5 82 6 23 7 81 8 20 9 18 10 19 11
REMARK SMILES IDX 17 13 13 14 14 15 83 16 15 17 16 18 12 19 1 20 2 21 3 23
REMARK SMILES IDX 4 24 5 25 6 26 11 27 7 28 10 29 8 30 9 31 27 32 28 33 29 34
REMARK SMILES IDX 30 35 31 36 32 37 33 38 34 39 80 40 35 41 79 42 36 43 37 44
REMARK SMILES IDX 38 45 73 46 39 47 78 48 72 49 74 50 40 51 77 52 71 53 70 54
REMARK SMILES IDX 41 56 63 57 48 58 62 59 49 60 52 61 61 62 75 63 50 64 51 65
REMARK SMILES IDX 60 67 76 68 53 69 42 70 43 71 47 72 44 73 46 74 45 75 64 76
REMARK SMILES IDX 65 77 69 78 66 79 68 80 67 81 54 82 55 83 59 84 56 85 58 86
REMARK SMILES IDX 57 87
REMARK H PARENT 20 12 12 22 74 55 52 66
REMARK Flexibility Score: inf
ROOT
ATOM      1  C   UNL     1       1.918   2.399   1.912  1.00  0.00     0.338 C 
ATOM      2  O   UNL     1       1.358   1.532   2.558  1.00  0.00    -0.246 OA
ENDROOT
BRANCH   1   3
ATOM      3  C   UNL     1       1.324   2.969   0.674  1.00  0.00     0.060 A 
ATOM      4  C   UNL     1       0.077   3.325  -1.799  1.00  0.00     0.041 A 
ATOM      5  C   UNL     1      -0.701   3.244  -0.650  1.00  0.00     0.027 A 
ATOM      6  C   UNL     1       1.472   3.417  -1.694  1.00  0.00     0.027 A 
ATOM      7  C   UNL     1      -0.074   3.007   0.569  1.00  0.00     0.018 A 
ATOM      8  C   UNL     1       2.101   3.251  -0.451  1.00  0.00     0.018 A 
BRANCH   4   9
ATOM      9  N   UNL     1      -0.597   3.130  -3.012  1.00  0.00    -0.322 N 
ATOM     10  C   UNL     1      -0.311   2.259  -4.050  1.00  0.00     0.255 C 
ATOM     11  O   UNL     1      -1.007   2.297  -5.065  1.00  0.00    -0.269 OA
ATOM     12  H   UNL     1      -1.391   3.696  -3.147  1.00  0.00     0.170 HD
BRANCH  10  13
ATOM     13  C   UNL     1       0.764   1.225  -3.962  1.00  0.00     0.042 A 
ATOM     14  C   UNL     1       2.284  -0.174  -2.671  1.00  0.00     0.041 A 
ATOM     15  C   UNL     1       2.955  -0.509  -3.849  1.00  0.00     0.026 A 
ATOM     16  C   UNL     1       1.134   0.615  -2.757  1.00  0.00     0.040 A 
ATOM     17  C   UNL     1       2.494  -0.039  -5.082  1.00  0.00     0.003 A 
ATOM     18  C   UNL     1       1.415   0.844  -5.137  1.00  0.00     0.014 A 
BRANCH  14  19
ATOM     19  N   UNL     1       2.861  -0.567  -1.443  1.00  0.00    -0.325 N 
ATOM     20  O   UNL     1       1.129  -0.119   0.029  1.00  0.00    -0.274 OA
ATOM     21  C   UNL     1       2.303  -0.413  -0.189  1.00  0.00     0.234 C 
ATOM     22  H   UNL     1       3.747  -0.992  -1.486  1.00  0.00     0.169 HD
BRANCH  21  23
ATOM     23  C   UNL     1       3.274  -0.567   0.973  1.00  0.00     0.175 C 
BRANCH  23  24
ATOM     24  S   UNL     1       4.309  -2.051   0.871  1.00  0.00    -0.116 SA
BRANCH  24  25
ATOM     25  C   UNL     1       3.141  -3.399   0.997  1.00  0.00     0.008 A 
ATOM     26  C   UNL     1       1.748  -3.273   1.044  1.00  0.00     0.016 A 
ATOM     27  C   UNL     1       3.692  -4.688   0.989  1.00  0.00     0.016 A 
ATOM     28  C   UNL     1       0.924  -4.402   0.993  1.00  0.00     0.021 A 
ATOM     29  C   UNL     1       2.872  -5.819   0.967  1.00  0.00     0.021 A 
ATOM     30  C   UNL     1       1.489  -5.670   0.944  1.00  0.00     0.041 A 
ATOM     31  Cl  UNL     1       0.476  -7.055   0.849  1.00  0.00    -0.084 Cl
ENDBRANCH  24  25
ENDBRANCH  23  24
ENDBRANCH  21  23
ENDBRANCH  14  19
ENDBRANCH  10  13
ENDBRANCH   4   9
ENDBRANCH   1   3
BRANCH   1  32
ATOM     32  O   UNL     1       3.137   2.918   2.205  1.00  0.00    -0.458 OA
BRANCH  32  33
ATOM     33  C   UNL     1       3.725   2.401   3.420  1.00  0.00     0.275 C 
BRANCH  33  34
ATOM     34  C   UNL     1       3.431   3.297   4.625  1.00  0.00     0.275 C 
BRANCH  34  35
ATOM     35  O   UNL     1       2.032   3.277   4.969  1.00  0.00    -0.458 OA
BRANCH  35  36
ATOM     36  C   UNL     1       1.324   4.339   4.527  1.00  0.00     0.338 C 
ATOM     37  O   UNL     1       1.746   5.305   3.907  1.00  0.00    -0.246 OA
BRANCH  36  38
ATOM     38  C   UNL     1      -0.106   4.178   4.822  1.00  0.00     0.060 A 
ATOM     39  C   UNL     1      -0.851   3.307   4.038  1.00  0.00     0.016 A 
ATOM     40  C   UNL     1      -0.753   5.043   5.699  1.00  0.00     0.016 A 
ATOM     41  C   UNL     1      -2.235   3.403   3.994  1.00  0.00     0.010 A 
ATOM     42  C   UNL     1      -2.152   5.029   5.768  1.00  0.00     0.010 A 
ATOM     43  C   UNL     1      -2.912   4.246   4.878  1.00  0.00    -0.014 A 
BRANCH  43  44
ATOM     44  C   UNL     1      -4.399   4.324   4.846  1.00  0.00     0.031 A 
ATOM     45  C   UNL     1      -5.084   5.654   4.670  1.00  0.00     0.074 A 
ATOM     46  C   UNL     1      -5.142   3.203   4.959  1.00  0.00     0.049 A 
ATOM     47  N   UNL     1      -6.348   5.960   4.822  1.00  0.00    -0.248 NA
ATOM     48  C   UNL     1      -4.234   6.794   4.289  1.00  0.00     0.031 C 
ATOM     49  C   UNL     1      -4.620   1.837   5.064  1.00  0.00     0.029 A 
ATOM     50  N   UNL     1      -6.504   3.034   4.999  1.00  0.00    -0.354 N 
ATOM     51  C   UNL     1      -6.431   7.334   4.624  1.00  0.00     0.074 A 
ATOM     52  C   UNL     1      -5.091   7.803   4.346  1.00  0.00     0.031 C 
ATOM     53  C   UNL     1      -5.642   0.973   5.112  1.00  0.00     0.029 A 
ATOM     54  C   UNL     1      -6.888   1.724   5.160  1.00  0.00     0.049 A 
ATOM     55  H   UNL     1      -7.144   3.778   4.920  1.00  0.00     0.167 HD
ATOM     56  C   UNL     1      -7.526   8.130   4.678  1.00  0.00     0.031 A 
ATOM     57  C   UNL     1      -8.099   1.182   5.386  1.00  0.00     0.031 A 
ATOM     58  C   UNL     1      -8.862   7.648   4.918  1.00  0.00     0.049 A 
ATOM     59  C   UNL     1      -9.287   2.090   5.506  1.00  0.00     0.074 A 
ATOM     60  C   UNL     1     -10.041   8.369   4.982  1.00  0.00     0.029 A 
ATOM     61  N   UNL     1      -9.195   6.317   5.121  1.00  0.00    -0.354 N 
ATOM     62  N   UNL     1      -9.345   3.393   5.378  1.00  0.00    -0.248 NA
ATOM     63  C   UNL     1     -10.573   1.454   5.819  1.00  0.00     0.031 C 
ATOM     64  C   UNL     1     -11.081   7.480   5.278  1.00  0.00     0.029 A 
ATOM     65  C   UNL     1     -10.558   6.198   5.332  1.00  0.00     0.049 A 
ATOM     66  H   UNL     1      -8.557   5.567   5.115  1.00  0.00     0.167 HD
ATOM     67  C   UNL     1     -10.676   3.732   5.574  1.00  0.00     0.074 A 
ATOM     68  C   UNL     1     -11.393   2.495   5.808  1.00  0.00     0.031 C 
ATOM     69  C   UNL     1     -11.253   4.958   5.564  1.00  0.00     0.031 A 
BRANCH  56  70
ATOM     70  C   UNL     1      -7.319   9.614   4.527  1.00  0.00    -0.014 A 
ATOM     71  C   UNL     1      -6.960  10.193   3.300  1.00  0.00     0.009 A 
ATOM     72  C   UNL     1      -7.520  10.452   5.637  1.00  0.00     0.009 A 
ATOM     73  C   UNL     1      -6.769  11.574   3.198  1.00  0.00     0.001 A 
ATOM     74  C   UNL     1      -7.359  11.834   5.525  1.00  0.00     0.001 A 
ATOM     75  C   UNL     1      -6.973  12.393   4.308  1.00  0.00     0.000 A 
ENDBRANCH  56  70
BRANCH  57  76
ATOM     76  C   UNL     1      -8.233  -0.287   5.579  1.00  0.00    -0.014 A 
ATOM     77  C   UNL     1      -8.915  -1.074   4.640  1.00  0.00     0.009 A 
ATOM     78  C   UNL     1      -7.669  -0.913   6.704  1.00  0.00     0.009 A 
ATOM     79  C   UNL     1      -9.044  -2.452   4.832  1.00  0.00     0.001 A 
ATOM     80  C   UNL     1      -7.768  -2.294   6.875  1.00  0.00     0.001 A 
ATOM     81  C   UNL     1      -8.464  -3.062   5.944  1.00  0.00     0.000 A 
ENDBRANCH  57  76
BRANCH  69  82
ATOM     82  C   UNL     1     -12.741   5.011   5.768  1.00  0.00    -0.014 A 
ATOM     83  C   UNL     1     -13.317   4.757   7.022  1.00  0.00     0.009 A 
ATOM     84  C   UNL     1     -13.574   5.349   4.690  1.00  0.00     0.009 A 
ATOM     85  C   UNL     1     -14.703   4.803   7.181  1.00  0.00     0.001 A 
ATOM     86  C   UNL     1     -14.956   5.426   4.860  1.00  0.00     0.001 A 
ATOM     87  C   UNL     1     -15.520   5.142   6.103  1.00  0.00     0.000 A 
ENDBRANCH  69  82
ENDBRANCH  43  44
ENDBRANCH  36  38
ENDBRANCH  35  36
ENDBRANCH  34  35
ENDBRANCH  33  34
ENDBRANCH  32  33
ENDBRANCH   1  32
TORSDOF 17
