REMARK SMILES O=C(CNC(=O)[C@@H](CC1=c2ccccc2=NC1)N1C(=O)N=C2C=CC=C[C@H]2C1=O)OCCOC(=O)c1ccc(-c2c3nc(c(-c4ccccc4)c4ccc([nH]4)c(-c4ccccc4)c4nc(c(-c5ccccc5)c5ccc2[nH]5)C=C4)C=C3)cc1
REMARK SMILES IDX 31 1 30 2 2 3 1 4 3 5 4 6 5 7 6 9 7 10 8 11 9 12 10 13 17 14
REMARK SMILES IDX 11 15 15 16 16 17 12 18 14 19 13 20 18 21 19 22 28 23 21 24
REMARK SMILES IDX 20 25 27 26 29 27 22 28 26 29 23 30 25 31 24 32 32 33 33 34
REMARK SMILES IDX 34 35 35 36 36 37 37 38 83 39 38 40 82 41 39 42 40 43 41 44
REMARK SMILES IDX 76 45 42 46 81 47 75 48 77 49 43 50 80 51 74 52 73 53 44 55
REMARK SMILES IDX 66 56 51 57 65 58 52 59 55 60 64 61 78 62 53 63 54 64 63 66
REMARK SMILES IDX 79 67 56 68 45 69 46 70 50 71 47 72 49 73 48 74 67 75 68 76
REMARK SMILES IDX 72 77 69 78 71 79 70 80 57 81 58 82 62 83 59 84 61 85 60 86
REMARK H PARENT 4 8 77 54 55 65
REMARK Flexibility Score: inf
ROOT
ATOM      1  C   UNL     1       5.886  -0.362   0.919  1.00  0.00     0.274 C 
ENDROOT
BRANCH   1   2
ATOM      2  O   UNL     1       4.602   0.306   1.063  1.00  0.00    -0.461 OA
BRANCH   2   3
ATOM      3  C   UNL     1       4.425   1.662   0.962  1.00  0.00     0.325 C 
ATOM      4  O   UNL     1       4.082   2.314   1.951  1.00  0.00    -0.250 OA
BRANCH   3   5
ATOM      5  C   UNL     1       4.135   2.250  -0.449  1.00  0.00     0.238 C 
BRANCH   5   6
ATOM      6  N   UNL     1       4.949   2.030  -1.646  1.00  0.00    -0.343 N 
ATOM      7  C   UNL     1       4.973   1.002  -2.541  1.00  0.00     0.244 C 
ATOM      8  H   UNL     1       5.591   2.751  -1.839  1.00  0.00     0.164 HD
ATOM      9  O   UNL     1       4.976   1.333  -3.733  1.00  0.00    -0.273 OA
BRANCH   7  10
ATOM     10  C   UNL     1       5.041  -0.503  -2.098  1.00  0.00     0.188 C 
BRANCH  10  11
ATOM     11  C   UNL     1       3.498  -0.744  -1.363  1.00  0.00     0.069 C 
BRANCH  11  12
ATOM     12  C   UNL     1       2.608  -1.307  -0.012  1.00  0.00    -0.037 C 
ATOM     13  C   UNL     1       2.424  -2.347   0.859  1.00  0.00     0.001 A 
ATOM     14  C   UNL     1       1.521  -0.289   0.357  1.00  0.00     0.174 C 
ATOM     15  C   UNL     1       3.007  -3.587   1.329  1.00  0.00     0.010 A 
ATOM     16  C   UNL     1       0.995  -2.156   1.272  1.00  0.00     0.065 A 
ATOM     17  N   UNL     1       0.436  -1.019   1.015  1.00  0.00    -0.280 NA
ATOM     18  C   UNL     1       2.293  -4.592   1.860  1.00  0.00     0.001 A 
ATOM     19  C   UNL     1       0.244  -3.322   1.815  1.00  0.00     0.028 A 
ATOM     20  C   UNL     1       0.872  -4.487   2.021  1.00  0.00     0.002 A 
ENDBRANCH  11  12
ENDBRANCH  10  11
BRANCH  10  21
ATOM     21  N   UNL     1       5.686  -1.158  -3.356  1.00  0.00    -0.249 N 
ATOM     22  C   UNL     1       6.903  -0.547  -3.719  1.00  0.00     0.351 C 
ATOM     23  C   UNL     1       6.002  -2.463  -3.594  1.00  0.00     0.244 C 
ATOM     24  N   UNL     1       7.397  -0.720  -5.004  1.00  0.00    -0.197 NA
ATOM     25  O   UNL     1       7.571   0.055  -2.885  1.00  0.00    -0.246 OA
ATOM     26  C   UNL     1       6.107  -2.780  -5.097  1.00  0.00     0.151 C 
ATOM     27  O   UNL     1       6.380  -3.262  -2.741  1.00  0.00    -0.273 OA
ATOM     28  C   UNL     1       7.089  -1.786  -5.663  1.00  0.00     0.062 C 
ATOM     29  C   UNL     1       6.504  -4.182  -5.509  1.00  0.00    -0.007 C 
ATOM     30  C   UNL     1       7.669  -2.061  -7.007  1.00  0.00     0.025 C 
ATOM     31  C   UNL     1       7.207  -4.421  -6.627  1.00  0.00    -0.003 C 
ATOM     32  C   UNL     1       7.681  -3.329  -7.443  1.00  0.00     0.002 C 
ENDBRANCH  10  21
ENDBRANCH   7  10
ENDBRANCH   5   6
ENDBRANCH   3   5
ENDBRANCH   2   3
ENDBRANCH   1   2
BRANCH   1  33
ATOM     33  C   UNL     1       5.795  -1.971   0.655  1.00  0.00     0.275 C 
BRANCH  33  34
ATOM     34  O   UNL     1       4.962  -2.467  -0.517  1.00  0.00    -0.458 OA
BRANCH  34  35
ATOM     35  C   UNL     1       4.627  -3.757  -0.928  1.00  0.00     0.338 C 
ATOM     36  O   UNL     1       5.105  -4.769  -0.434  1.00  0.00    -0.246 OA
BRANCH  35  37
ATOM     37  C   UNL     1       3.632  -3.827  -2.152  1.00  0.00     0.060 A 
ATOM     38  C   UNL     1       3.968  -4.648  -3.217  1.00  0.00     0.016 A 
ATOM     39  C   UNL     1       2.455  -3.091  -2.376  1.00  0.00     0.016 A 
ATOM     40  C   UNL     1       3.404  -4.435  -4.499  1.00  0.00     0.010 A 
ATOM     41  C   UNL     1       1.914  -2.812  -3.656  1.00  0.00     0.010 A 
ATOM     42  C   UNL     1       2.452  -3.426  -4.766  1.00  0.00    -0.014 A 
BRANCH  42  43
ATOM     43  C   UNL     1       1.894  -3.269  -6.143  1.00  0.00     0.031 A 
ATOM     44  C   UNL     1       2.162  -2.102  -7.065  1.00  0.00     0.074 A 
ATOM     45  C   UNL     1       1.212  -4.332  -6.607  1.00  0.00     0.049 A 
ATOM     46  N   UNL     1       2.047  -2.057  -8.374  1.00  0.00    -0.248 NA
ATOM     47  C   UNL     1       2.578  -0.824  -6.468  1.00  0.00     0.031 C 
ATOM     48  C   UNL     1       0.812  -5.465  -5.774  1.00  0.00     0.029 A 
ATOM     49  N   UNL     1       0.849  -4.695  -7.878  1.00  0.00    -0.354 N 
ATOM     50  C   UNL     1       2.372  -0.757  -8.759  1.00  0.00     0.074 A 
ATOM     51  C   UNL     1       2.672  -0.036  -7.538  1.00  0.00     0.031 C 
ATOM     52  C   UNL     1       0.435  -6.469  -6.568  1.00  0.00     0.029 A 
ATOM     53  C   UNL     1       0.485  -6.021  -7.956  1.00  0.00     0.049 A 
ATOM     54  H   UNL     1       0.848  -4.079  -8.646  1.00  0.00     0.167 HD
ATOM     55  C   UNL     1       2.411  -0.229 -10.012  1.00  0.00     0.031 A 
ATOM     56  C   UNL     1       0.261  -6.815  -9.020  1.00  0.00     0.031 A 
ATOM     57  C   UNL     1       2.098  -0.971 -11.215  1.00  0.00     0.049 A 
ATOM     58  C   UNL     1       0.402  -6.243 -10.396  1.00  0.00     0.074 A 
ATOM     59  C   UNL     1       2.161  -0.543 -12.533  1.00  0.00     0.029 A 
ATOM     60  N   UNL     1       1.661  -2.287 -11.249  1.00  0.00    -0.354 N 
ATOM     61  N   UNL     1       0.798  -5.044 -10.748  1.00  0.00    -0.248 NA
ATOM     62  C   UNL     1       0.055  -7.122 -11.519  1.00  0.00     0.031 C 
ATOM     63  C   UNL     1       1.701  -1.576 -13.354  1.00  0.00     0.029 A 
ATOM     64  C   UNL     1       1.421  -2.674 -12.558  1.00  0.00     0.049 A 
ATOM     65  H   UNL     1       1.538  -2.861 -10.459  1.00  0.00     0.167 HD
ATOM     66  C   UNL     1       0.723  -5.014 -12.133  1.00  0.00     0.074 A 
ATOM     67  C   UNL     1       0.293  -6.331 -12.558  1.00  0.00     0.031 C 
ATOM     68  C   UNL     1       0.969  -3.979 -12.970  1.00  0.00     0.031 A 
BRANCH  55  69
ATOM     69  C   UNL     1       2.808   1.220 -10.197  1.00  0.00    -0.014 A 
ATOM     70  C   UNL     1       1.883   2.142 -10.723  1.00  0.00     0.009 A 
ATOM     71  C   UNL     1       4.136   1.637 -10.024  1.00  0.00     0.009 A 
ATOM     72  C   UNL     1       2.280   3.435 -11.082  1.00  0.00     0.001 A 
ATOM     73  C   UNL     1       4.526   2.939 -10.359  1.00  0.00     0.001 A 
ATOM     74  C   UNL     1       3.601   3.833 -10.898  1.00  0.00     0.000 A 
ENDBRANCH  55  69
BRANCH  56  75
ATOM     75  C   UNL     1      -0.071  -8.245  -8.782  1.00  0.00    -0.014 A 
ATOM     76  C   UNL     1      -1.253  -8.590  -8.103  1.00  0.00     0.009 A 
ATOM     77  C   UNL     1       0.840  -9.259  -9.112  1.00  0.00     0.009 A 
ATOM     78  C   UNL     1      -1.488  -9.906  -7.707  1.00  0.00     0.001 A 
ATOM     79  C   UNL     1       0.579 -10.584  -8.752  1.00  0.00     0.001 A 
ATOM     80  C   UNL     1      -0.573 -10.903  -8.034  1.00  0.00     0.000 A 
ENDBRANCH  56  75
BRANCH  68  81
ATOM     81  C   UNL     1       0.744  -4.204 -14.440  1.00  0.00    -0.014 A 
ATOM     82  C   UNL     1       1.833  -4.228 -15.324  1.00  0.00     0.009 A 
ATOM     83  C   UNL     1      -0.557  -4.287 -14.960  1.00  0.00     0.009 A 
ATOM     84  C   UNL     1       1.625  -4.315 -16.702  1.00  0.00     0.001 A 
ATOM     85  C   UNL     1      -0.762  -4.400 -16.337  1.00  0.00     0.001 A 
ATOM     86  C   UNL     1       0.328  -4.403 -17.206  1.00  0.00     0.000 A 
ENDBRANCH  68  81
ENDBRANCH  42  43
ENDBRANCH  35  37
ENDBRANCH  34  35
ENDBRANCH  33  34
ENDBRANCH   1  33
TORSDOF 16
