REMARK SMILES Cc1n[nH]c(S[C@H]2CC[C@]([NH3+])(C(=O)OCCOC(=O)c3ccc(-c4c5nc(c(-c6ccccc6)c6ccc([nH]6)c(-c6ccccc6)c6nc(c(-c7ccccc7)c7ccc4[nH]7)C=C6)C=C5)cc3)C2)n1
REMARK SMILES IDX 15 1 14 2 12 3 13 4 10 5 7 6 8 7 68 8 9 9 6 10 5 11 1 12
REMARK SMILES IDX 2 13 3 14 69 15 4 16 11 18 16 22 17 23 18 24 19 25 20 26
REMARK SMILES IDX 21 27 67 28 22 29 66 30 23 31 24 32 25 33 60 34 26 35 65 36
REMARK SMILES IDX 59 37 61 38 27 39 64 40 58 41 57 42 28 44 50 45 35 46 49 47
REMARK SMILES IDX 36 48 39 49 48 50 62 51 37 52 38 53 47 55 63 56 40 57 29 58
REMARK SMILES IDX 30 59 34 60 31 61 33 62 32 63 51 64 52 65 56 66 53 67 55 68
REMARK SMILES IDX 54 69 41 70 42 71 46 72 43 73 45 74 44 75
REMARK H PARENT 4 17 11 19 11 20 11 21 61 43 39 54
REMARK Flexibility Score: inf
ROOT
ATOM      1  C   UNL     1       2.240  -1.740  -8.846  1.00  0.00     0.274 C 
ENDROOT
BRANCH   1   2
ATOM      2  O   UNL     1       1.311  -0.675  -8.598  1.00  0.00    -0.457 OA
BRANCH   2   3
ATOM      3  C   UNL     1      -0.005  -1.019  -8.487  1.00  0.00     0.368 C 
ATOM      4  O   UNL     1      -0.464  -2.130  -8.736  1.00  0.00    -0.245 OA
BRANCH   3   5
ATOM      5  C   UNL     1      -0.858   0.189  -8.045  1.00  0.00     0.193 C 
ATOM      6  C   UNL     1      -1.192   1.943  -6.361  1.00  0.00     0.062 C 
ATOM      7  C   UNL     1      -2.345   0.939  -6.224  1.00  0.00     0.022 C 
ATOM      8  C   UNL     1      -0.108   1.175  -7.124  1.00  0.00     0.096 C 
ATOM      9  C   UNL     1      -2.034  -0.243  -7.151  1.00  0.00     0.082 C 
BRANCH   6  10
ATOM     10  S   UNL     1      -1.588   3.419  -7.340  1.00  0.00    -0.083 SA
BRANCH  10  11
ATOM     11  C   UNL     1      -2.770   4.308  -6.481  1.00  0.00     0.183 A 
ATOM     12  C   UNL     1      -5.061   6.933  -6.072  1.00  0.00     0.092 C 
ATOM     13  C   UNL     1      -4.205   5.739  -5.952  1.00  0.00     0.148 A 
ATOM     14  N   UNL     1      -4.179   4.941  -4.874  1.00  0.00    -0.158 NA
ATOM     15  N   UNL     1      -3.353   5.379  -6.955  1.00  0.00    -0.206 NA
ATOM     16  N   UNL     1      -3.245   4.039  -5.238  1.00  0.00    -0.254 N 
ATOM     17  H   UNL     1      -2.948   3.286  -4.677  1.00  0.00     0.192 HD
ENDBRANCH  10  11
ENDBRANCH   6  10
BRANCH   5  18
ATOM     18  N   UNL     1      -1.360   0.852  -9.267  1.00  0.00    -0.343 N 
ATOM     19  H   UNL     1      -1.929   1.657  -9.007  1.00  0.00     0.345 HD
ATOM     20  H   UNL     1      -1.925   0.194  -9.803  1.00  0.00     0.345 HD
ATOM     21  H   UNL     1      -0.571   1.162  -9.834  1.00  0.00     0.345 HD
ENDBRANCH   5  18
ENDBRANCH   3   5
ENDBRANCH   2   3
ENDBRANCH   1   2
BRANCH   1  22
ATOM     22  C   UNL     1       2.784  -2.277  -7.530  1.00  0.00     0.275 C 
BRANCH  22  23
ATOM     23  O   UNL     1       1.885  -3.222  -6.939  1.00  0.00    -0.458 OA
BRANCH  23  24
ATOM     24  C   UNL     1       1.001  -2.690  -6.071  1.00  0.00     0.338 C 
ATOM     25  O   UNL     1       0.707  -1.515  -5.938  1.00  0.00    -0.246 OA
BRANCH  24  26
ATOM     26  C   UNL     1       0.638  -3.657  -5.038  1.00  0.00     0.060 A 
ATOM     27  C   UNL     1      -0.298  -3.220  -4.089  1.00  0.00     0.016 A 
ATOM     28  C   UNL     1       1.507  -4.725  -4.796  1.00  0.00     0.016 A 
ATOM     29  C   UNL     1      -0.222  -3.725  -2.812  1.00  0.00     0.010 A 
ATOM     30  C   UNL     1       1.594  -5.212  -3.515  1.00  0.00     0.010 A 
ATOM     31  C   UNL     1       0.781  -4.652  -2.526  1.00  0.00    -0.014 A 
BRANCH  31  32
ATOM     32  C   UNL     1       0.944  -5.069  -1.152  1.00  0.00     0.031 A 
ATOM     33  C   UNL     1      -0.027  -6.083  -0.691  1.00  0.00     0.074 A 
ATOM     34  C   UNL     1       2.015  -4.705  -0.425  1.00  0.00     0.049 A 
ATOM     35  N   UNL     1      -0.796  -6.038   0.344  1.00  0.00    -0.248 NA
ATOM     36  C   UNL     1      -0.217  -7.268  -1.544  1.00  0.00     0.031 C 
ATOM     37  C   UNL     1       3.208  -3.991  -0.887  1.00  0.00     0.029 A 
ATOM     38  N   UNL     1       2.332  -5.063   0.848  1.00  0.00    -0.354 N 
ATOM     39  C   UNL     1      -1.468  -7.255   0.360  1.00  0.00     0.074 A 
ATOM     40  C   UNL     1      -1.177  -7.912  -0.888  1.00  0.00     0.031 C 
ATOM     41  C   UNL     1       4.208  -4.207  -0.004  1.00  0.00     0.029 A 
ATOM     42  C   UNL     1       3.689  -4.981   1.114  1.00  0.00     0.049 A 
ATOM     43  H   UNL     1       1.665  -5.351   1.513  1.00  0.00     0.167 HD
ATOM     44  C   UNL     1      -2.053  -7.748   1.482  1.00  0.00     0.031 A 
ATOM     45  C   UNL     1       4.348  -5.620   2.111  1.00  0.00     0.031 A 
ATOM     46  C   UNL     1      -2.253  -6.747   2.491  1.00  0.00     0.049 A 
ATOM     47  C   UNL     1       3.347  -6.063   3.113  1.00  0.00     0.074 A 
ATOM     48  C   UNL     1      -2.932  -5.545   2.540  1.00  0.00     0.029 A 
ATOM     49  N   UNL     1      -1.409  -6.747   3.575  1.00  0.00    -0.354 N 
ATOM     50  N   UNL     1       2.682  -5.254   3.886  1.00  0.00    -0.248 NA
ATOM     51  C   UNL     1       2.781  -7.399   2.985  1.00  0.00     0.031 C 
ATOM     52  C   UNL     1      -2.127  -4.699   3.356  1.00  0.00     0.029 A 
ATOM     53  C   UNL     1      -1.023  -5.446   3.773  1.00  0.00     0.049 A 
ATOM     54  H   UNL     1      -1.135  -7.529   4.107  1.00  0.00     0.167 HD
ATOM     55  C   UNL     1       1.419  -5.819   3.996  1.00  0.00     0.074 A 
ATOM     56  C   UNL     1       1.577  -7.192   3.527  1.00  0.00     0.031 C 
ATOM     57  C   UNL     1       0.306  -5.045   4.178  1.00  0.00     0.031 A 
BRANCH  44  58
ATOM     58  C   UNL     1      -2.113  -9.220   1.777  1.00  0.00    -0.014 A 
ATOM     59  C   UNL     1      -2.897  -9.672   2.848  1.00  0.00     0.009 A 
ATOM     60  C   UNL     1      -1.221 -10.147   1.199  1.00  0.00     0.009 A 
ATOM     61  C   UNL     1      -2.767 -10.977   3.337  1.00  0.00     0.001 A 
ATOM     62  C   UNL     1      -1.124 -11.462   1.653  1.00  0.00     0.001 A 
ATOM     63  C   UNL     1      -1.882 -11.870   2.740  1.00  0.00     0.000 A 
ENDBRANCH  44  58
BRANCH  45  64
ATOM     64  C   UNL     1       5.743  -6.112   2.099  1.00  0.00    -0.014 A 
ATOM     65  C   UNL     1       6.369  -6.516   3.287  1.00  0.00     0.009 A 
ATOM     66  C   UNL     1       6.404  -6.395   0.888  1.00  0.00     0.009 A 
ATOM     67  C   UNL     1       7.596  -7.193   3.260  1.00  0.00     0.001 A 
ATOM     68  C   UNL     1       7.636  -7.054   0.860  1.00  0.00     0.001 A 
ATOM     69  C   UNL     1       8.226  -7.465   2.048  1.00  0.00     0.000 A 
ENDBRANCH  45  64
BRANCH  57  70
ATOM     70  C   UNL     1       0.495  -3.583   4.504  1.00  0.00    -0.014 A 
ATOM     71  C   UNL     1       1.216  -2.709   3.671  1.00  0.00     0.009 A 
ATOM     72  C   UNL     1      -0.209  -3.035   5.586  1.00  0.00     0.009 A 
ATOM     73  C   UNL     1       1.264  -1.338   3.935  1.00  0.00     0.001 A 
ATOM     74  C   UNL     1      -0.182  -1.660   5.837  1.00  0.00     0.001 A 
ATOM     75  C   UNL     1       0.561  -0.814   5.016  1.00  0.00     0.000 A 
ENDBRANCH  57  70
ENDBRANCH  31  32
ENDBRANCH  24  26
ENDBRANCH  23  24
ENDBRANCH  22  23
ENDBRANCH   1  22
TORSDOF 14
