REMARK SMILES O=C(COc1ccnc(NCc2ccc(Br)cc2)n1)OCCOC(=O)c1ccc(-c2c3nc(c(-c4ccccc4)c4ccc([nH]4)c(-c4ccccc4)c4nc(c(-c5ccccc5)c5ccc2[nH]5)C=C4)C=C3)cc1
REMARK SMILES IDX 20 1 2 2 1 3 3 4 4 5 5 6 6 7 19 8 7 9 9 10 8 11 10 12 11 14
REMARK SMILES IDX 12 15 13 16 18 17 14 18 17 19 15 20 16 21 21 22 22 23 23 24
REMARK SMILES IDX 24 25 25 26 26 27 27 28 73 29 28 30 72 31 29 32 30 33 31 34
REMARK SMILES IDX 66 35 32 36 71 37 65 38 67 39 33 40 70 41 64 42 63 43 34 45
REMARK SMILES IDX 56 46 41 47 55 48 42 49 45 50 54 51 68 52 43 53 44 54 53 56
REMARK SMILES IDX 69 57 46 58 35 59 36 60 40 61 37 62 39 63 38 64 57 65 58 66
REMARK SMILES IDX 62 67 59 68 61 69 60 70 47 71 48 72 52 73 49 74 51 75 50 76
REMARK H PARENT 10 13 67 44 45 55
REMARK Flexibility Score: inf
ROOT
ATOM      1  O   UNL     1       3.099   0.541  -1.024  1.00  0.00    -0.460 OA
ENDROOT
BRANCH   1   2
ATOM      2  C   UNL     1       2.440  -0.263  -0.154  1.00  0.00     0.344 C 
ATOM      3  O   UNL     1       1.213  -0.339  -0.178  1.00  0.00    -0.248 OA
BRANCH   2   4
ATOM      4  C   UNL     1       3.260  -1.129   0.783  1.00  0.00     0.353 C 
BRANCH   4   5
ATOM      5  O   UNL     1       3.947  -2.120   0.024  1.00  0.00    -0.466 OA
BRANCH   5   6
ATOM      6  C   UNL     1       3.242  -3.292   0.102  1.00  0.00     0.218 A 
ATOM      7  C   UNL     1       2.226  -3.540  -0.785  1.00  0.00     0.088 A 
ATOM      8  N   UNL     1       3.607  -4.110   1.095  1.00  0.00    -0.177 NA
ATOM      9  C   UNL     1       1.554  -4.710  -0.560  1.00  0.00     0.121 A 
ATOM     10  C   UNL     1       2.892  -5.230   1.229  1.00  0.00     0.226 A 
ATOM     11  N   UNL     1       1.867  -5.564   0.433  1.00  0.00    -0.221 NA
BRANCH  10  12
ATOM     12  N   UNL     1       3.167  -6.091   2.249  1.00  0.00    -0.350 N 
ATOM     13  H   UNL     1       2.551  -6.838   2.428  1.00  0.00     0.164 HD
BRANCH  12  14
ATOM     14  C   UNL     1       4.334  -5.932   3.066  1.00  0.00     0.152 C 
BRANCH  14  15
ATOM     15  C   UNL     1       4.153  -6.718   4.342  1.00  0.00    -0.029 A 
ATOM     16  C   UNL     1       4.317  -8.111   4.346  1.00  0.00     0.007 A 
ATOM     17  C   UNL     1       3.780  -6.069   5.529  1.00  0.00     0.007 A 
ATOM     18  C   UNL     1       4.140  -8.838   5.522  1.00  0.00     0.016 A 
ATOM     19  C   UNL     1       3.609  -6.797   6.707  1.00  0.00     0.016 A 
ATOM     20  C   UNL     1       3.799  -8.177   6.699  1.00  0.00     0.017 A 
ATOM     21  Br  UNL     1       3.619  -9.179   8.291  1.00  0.00    -0.051 Br
ENDBRANCH  14  15
ENDBRANCH  12  14
ENDBRANCH  10  12
ENDBRANCH   5   6
ENDBRANCH   4   5
ENDBRANCH   2   4
ENDBRANCH   1   2
BRANCH   1  22
ATOM     22  C   UNL     1       4.486   0.912  -0.874  1.00  0.00     0.274 C 
BRANCH  22  23
ATOM     23  C   UNL     1       4.613   2.208  -0.071  1.00  0.00     0.275 C 
BRANCH  23  24
ATOM     24  O   UNL     1       4.154   2.004   1.280  1.00  0.00    -0.458 OA
BRANCH  24  25
ATOM     25  C   UNL     1       2.885   2.410   1.537  1.00  0.00     0.338 C 
ATOM     26  O   UNL     1       2.136   2.997   0.776  1.00  0.00    -0.246 OA
BRANCH  25  27
ATOM     27  C   UNL     1       2.461   1.874   2.849  1.00  0.00     0.060 A 
ATOM     28  C   UNL     1       1.185   1.307   2.955  1.00  0.00     0.016 A 
ATOM     29  C   UNL     1       3.294   1.945   3.969  1.00  0.00     0.016 A 
ATOM     30  C   UNL     1       0.726   0.843   4.190  1.00  0.00     0.010 A 
ATOM     31  C   UNL     1       2.830   1.487   5.206  1.00  0.00     0.010 A 
ATOM     32  C   UNL     1       1.532   0.960   5.331  1.00  0.00    -0.014 A 
BRANCH  32  33
ATOM     33  C   UNL     1       0.967   0.678   6.674  1.00  0.00     0.031 A 
ATOM     34  C   UNL     1       0.463   1.825   7.511  1.00  0.00     0.074 A 
ATOM     35  C   UNL     1       0.891  -0.576   7.156  1.00  0.00     0.049 A 
ATOM     36  N   UNL     1      -0.051   1.811   8.716  1.00  0.00    -0.248 NA
ATOM     37  C   UNL     1       0.559   3.166   6.911  1.00  0.00     0.031 C 
ATOM     38  C   UNL     1       1.328  -1.792   6.470  1.00  0.00     0.029 A 
ATOM     39  N   UNL     1       0.418  -1.023   8.365  1.00  0.00    -0.354 N 
ATOM     40  C   UNL     1      -0.345   3.136   9.016  1.00  0.00     0.074 A 
ATOM     41  C   UNL     1       0.083   3.930   7.883  1.00  0.00     0.031 C 
ATOM     42  C   UNL     1       1.117  -2.847   7.279  1.00  0.00     0.029 A 
ATOM     43  C   UNL     1       0.541  -2.378   8.537  1.00  0.00     0.049 A 
ATOM     44  H   UNL     1       0.027  -0.427   9.044  1.00  0.00     0.167 HD
ATOM     45  C   UNL     1      -0.928   3.652  10.124  1.00  0.00     0.031 A 
ATOM     46  C   UNL     1       0.239  -3.146   9.599  1.00  0.00     0.031 A 
ATOM     47  C   UNL     1      -1.343   2.889  11.270  1.00  0.00     0.049 A 
ATOM     48  C   UNL     1      -0.342  -2.537  10.847  1.00  0.00     0.074 A 
ATOM     49  C   UNL     1      -1.973   3.334  12.421  1.00  0.00     0.029 A 
ATOM     50  N   UNL     1      -1.159   1.526  11.418  1.00  0.00    -0.354 N 
ATOM     51  N   UNL     1      -0.629  -1.288  11.108  1.00  0.00    -0.248 NA
ATOM     52  C   UNL     1      -0.641  -3.467  11.950  1.00  0.00     0.031 C 
ATOM     53  C   UNL     1      -2.123   2.247  13.289  1.00  0.00     0.029 A 
ATOM     54  C   UNL     1      -1.636   1.118  12.653  1.00  0.00     0.049 A 
ATOM     55  H   UNL     1      -0.750   0.934  10.745  1.00  0.00     0.167 HD
ATOM     56  C   UNL     1      -1.154  -1.285  12.396  1.00  0.00     0.074 A 
ATOM     57  C   UNL     1      -1.156  -2.655  12.860  1.00  0.00     0.031 C 
ATOM     58  C   UNL     1      -1.604  -0.238  13.126  1.00  0.00     0.031 A 
BRANCH  45  59
ATOM     59  C   UNL     1      -1.135   5.138  10.160  1.00  0.00    -0.014 A 
ATOM     60  C   UNL     1      -2.133   5.748   9.383  1.00  0.00     0.009 A 
ATOM     61  C   UNL     1      -0.353   5.931  11.014  1.00  0.00     0.009 A 
ATOM     62  C   UNL     1      -2.322   7.130   9.440  1.00  0.00     0.001 A 
ATOM     63  C   UNL     1      -0.562   7.308  11.086  1.00  0.00     0.001 A 
ATOM     64  C   UNL     1      -1.540   7.907  10.294  1.00  0.00     0.000 A 
ENDBRANCH  45  59
BRANCH  46  65
ATOM     65  C   UNL     1       0.519  -4.599   9.600  1.00  0.00    -0.014 A 
ATOM     66  C   UNL     1      -0.514  -5.522   9.383  1.00  0.00     0.009 A 
ATOM     67  C   UNL     1       1.781  -5.053  10.007  1.00  0.00     0.009 A 
ATOM     68  C   UNL     1      -0.300  -6.879   9.627  1.00  0.00     0.001 A 
ATOM     69  C   UNL     1       1.989  -6.409  10.250  1.00  0.00     0.001 A 
ATOM     70  C   UNL     1       0.945  -7.317  10.074  1.00  0.00     0.000 A 
ENDBRANCH  46  65
BRANCH  58  71
ATOM     71  C   UNL     1      -2.150  -0.539  14.492  1.00  0.00    -0.014 A 
ATOM     72  C   UNL     1      -1.302  -0.882  15.557  1.00  0.00     0.009 A 
ATOM     73  C   UNL     1      -3.534  -0.473  14.717  1.00  0.00     0.009 A 
ATOM     74  C   UNL     1      -1.834  -1.187  16.812  1.00  0.00     0.001 A 
ATOM     75  C   UNL     1      -4.060  -0.753  15.979  1.00  0.00     0.001 A 
ATOM     76  C   UNL     1      -3.211  -1.119  17.022  1.00  0.00     0.000 A 
ENDBRANCH  58  71
ENDBRANCH  32  33
ENDBRANCH  25  27
ENDBRANCH  24  25
ENDBRANCH  23  24
ENDBRANCH  22  23
ENDBRANCH   1  22
TORSDOF 16
