REMARK SMILES CCc1ccsc1C(=O)c1c[nH]c(C(=O)OCCOC(=O)c2ccc(-c3c4nc(c(-c5ccccc5)c5ccc([nH]5)c(-c5ccccc5)c5nc(c(-c6ccccc6)c6ccc3[nH]6)C=C5)C=C4)cc2)c1
REMARK SMILES IDX 17 1 16 2 14 3 15 4 13 5 10 6 11 7 70 8 12 9 8 11 9 12 7 13
REMARK SMILES IDX 3 14 4 15 5 16 6 17 2 18 1 19 18 20 19 21 20 22 21 23 22 24
REMARK SMILES IDX 23 25 69 26 24 27 68 28 25 29 26 30 27 31 62 32 28 33 67 34
REMARK SMILES IDX 61 35 63 36 29 37 66 38 60 39 59 40 30 42 52 43 37 44 51 45
REMARK SMILES IDX 38 46 41 47 50 48 64 49 39 50 40 51 49 53 65 54 42 55 31 56
REMARK SMILES IDX 32 57 36 58 33 59 35 60 34 61 53 62 54 63 58 64 55 65 57 66
REMARK SMILES IDX 56 67 43 68 44 69 48 70 45 71 47 72 46 73
REMARK H PARENT 12 10 63 41 41 52
REMARK Flexibility Score: inf
ROOT
ATOM      1  C   UNL     1      -5.297   1.281   4.321  1.00  0.00     0.275 C 
ENDROOT
BRANCH   1   2
ATOM      2  O   UNL     1      -4.232   2.068   3.762  1.00  0.00    -0.457 OA
BRANCH   2   3
ATOM      3  C   UNL     1      -3.026   1.967   4.397  1.00  0.00     0.354 C 
ATOM      4  O   UNL     1      -2.830   1.390   5.447  1.00  0.00    -0.244 OA
BRANCH   3   5
ATOM      5  C   UNL     1      -1.978   2.563   3.593  1.00  0.00     0.125 A 
ATOM      6  C   UNL     1      -0.674   3.543   1.994  1.00  0.00     0.042 A 
ATOM      7  C   UNL     1       0.143   3.052   2.997  1.00  0.00     0.095 A 
ATOM      8  C   UNL     1      -2.014   3.262   2.400  1.00  0.00     0.047 A 
ATOM      9  N   UNL     1      -0.649   2.455   3.943  1.00  0.00    -0.355 N 
ATOM     10  H   UNL     1      -0.317   2.013   4.757  1.00  0.00     0.166 HD
BRANCH   6  11
ATOM     11  C   UNL     1      -0.271   4.325   0.829  1.00  0.00     0.204 C 
ATOM     12  O   UNL     1      -0.644   5.495   0.759  1.00  0.00    -0.288 OA
BRANCH  11  13
ATOM     13  C   UNL     1       0.526   3.660  -0.216  1.00  0.00     0.078 A 
ATOM     14  C   UNL     1       0.870   2.330  -0.491  1.00  0.00    -0.026 A 
ATOM     15  C   UNL     1       1.626   2.242  -1.720  1.00  0.00     0.016 A 
ATOM     16  C   UNL     1       1.837   3.454  -2.325  1.00  0.00     0.066 A 
ATOM     17  S   UNL     1       1.158   4.723  -1.434  1.00  0.00    -0.140 S 
BRANCH  14  18
ATOM     18  C   UNL     1       0.501   1.114   0.329  1.00  0.00     0.034 C 
ATOM     19  C   UNL     1       0.933  -0.224  -0.259  1.00  0.00     0.009 C 
ENDBRANCH  14  18
ENDBRANCH  11  13
ENDBRANCH   6  11
ENDBRANCH   3   5
ENDBRANCH   2   3
ENDBRANCH   1   2
BRANCH   1  20
ATOM     20  C   UNL     1      -5.425  -0.087   3.648  1.00  0.00     0.275 C 
BRANCH  20  21
ATOM     21  O   UNL     1      -4.323  -0.969   3.902  1.00  0.00    -0.458 OA
BRANCH  21  22
ATOM     22  C   UNL     1      -3.323  -0.853   3.002  1.00  0.00     0.338 C 
ATOM     23  O   UNL     1      -3.136   0.058   2.211  1.00  0.00    -0.246 OA
BRANCH  22  24
ATOM     24  C   UNL     1      -2.526  -2.075   2.925  1.00  0.00     0.060 A 
ATOM     25  C   UNL     1      -1.189  -1.941   2.540  1.00  0.00     0.016 A 
ATOM     26  C   UNL     1      -3.168  -3.318   2.936  1.00  0.00     0.016 A 
ATOM     27  C   UNL     1      -0.510  -3.052   2.077  1.00  0.00     0.010 A 
ATOM     28  C   UNL     1      -2.496  -4.426   2.445  1.00  0.00     0.010 A 
ATOM     29  C   UNL     1      -1.178  -4.280   1.992  1.00  0.00    -0.014 A 
BRANCH  29  30
ATOM     30  C   UNL     1      -0.390  -5.450   1.576  1.00  0.00     0.031 A 
ATOM     31  C   UNL     1       0.366  -6.058   2.755  1.00  0.00     0.074 A 
ATOM     32  C   UNL     1      -0.393  -5.767   0.247  1.00  0.00     0.049 A 
ATOM     33  N   UNL     1       1.413  -6.820   2.754  1.00  0.00    -0.248 NA
ATOM     34  C   UNL     1      -0.065  -5.730   4.144  1.00  0.00     0.031 C 
ATOM     35  C   UNL     1      -1.187  -5.061  -0.783  1.00  0.00     0.029 A 
ATOM     36  N   UNL     1       0.260  -6.718  -0.512  1.00  0.00    -0.354 N 
ATOM     37  C   UNL     1       1.654  -7.202   4.087  1.00  0.00     0.074 A 
ATOM     38  C   UNL     1       0.779  -6.423   4.907  1.00  0.00     0.031 C 
ATOM     39  C   UNL     1      -0.924  -5.552  -2.014  1.00  0.00     0.029 A 
ATOM     40  C   UNL     1       0.040  -6.632  -1.910  1.00  0.00     0.049 A 
ATOM     41  H   UNL     1       0.838  -7.406  -0.111  1.00  0.00     0.167 HD
ATOM     42  C   UNL     1       2.462  -8.244   4.426  1.00  0.00     0.031 A 
ATOM     43  C   UNL     1       0.606  -7.357  -2.921  1.00  0.00     0.031 A 
ATOM     44  C   UNL     1       3.140  -8.747   3.280  1.00  0.00     0.049 A 
ATOM     45  C   UNL     1       1.388  -8.426  -2.285  1.00  0.00     0.074 A 
ATOM     46  C   UNL     1       4.125  -8.230   2.480  1.00  0.00     0.029 A 
ATOM     47  N   UNL     1       2.539  -9.797   2.631  1.00  0.00    -0.354 N 
ATOM     48  N   UNL     1       0.880  -9.476  -1.718  1.00  0.00    -0.248 NA
ATOM     49  C   UNL     1       2.853  -8.328  -2.264  1.00  0.00     0.031 C 
ATOM     50  C   UNL     1       3.779  -8.684   1.189  1.00  0.00     0.029 A 
ATOM     51  C   UNL     1       2.708  -9.580   1.288  1.00  0.00     0.049 A 
ATOM     52  H   UNL     1       2.076 -10.559   3.049  1.00  0.00     0.167 HD
ATOM     53  C   UNL     1       1.919  -9.912  -0.936  1.00  0.00     0.074 A 
ATOM     54  C   UNL     1       3.131  -9.417  -1.551  1.00  0.00     0.031 C 
ATOM     55  C   UNL     1       1.704 -10.101   0.391  1.00  0.00     0.031 A 
BRANCH  42  56
ATOM     56  C   UNL     1       2.507  -9.054   5.688  1.00  0.00    -0.014 A 
ATOM     57  C   UNL     1       3.571  -9.976   5.831  1.00  0.00     0.009 A 
ATOM     58  C   UNL     1       1.418  -9.191   6.555  1.00  0.00     0.009 A 
ATOM     59  C   UNL     1       3.496 -11.051   6.716  1.00  0.00     0.001 A 
ATOM     60  C   UNL     1       1.361 -10.247   7.474  1.00  0.00     0.001 A 
ATOM     61  C   UNL     1       2.380 -11.195   7.528  1.00  0.00     0.000 A 
ENDBRANCH  42  56
BRANCH  43  62
ATOM     62  C   UNL     1       0.666  -7.339  -4.428  1.00  0.00    -0.014 A 
ATOM     63  C   UNL     1       0.029  -6.423  -5.266  1.00  0.00     0.009 A 
ATOM     64  C   UNL     1       1.516  -8.277  -5.083  1.00  0.00     0.009 A 
ATOM     65  C   UNL     1       0.293  -6.399  -6.653  1.00  0.00     0.001 A 
ATOM     66  C   UNL     1       1.820  -8.228  -6.445  1.00  0.00     0.001 A 
ATOM     67  C   UNL     1       1.211  -7.274  -7.234  1.00  0.00     0.000 A 
ENDBRANCH  43  62
BRANCH  55  68
ATOM     68  C   UNL     1       0.254 -10.377   0.769  1.00  0.00    -0.014 A 
ATOM     69  C   UNL     1      -0.421 -11.480   0.223  1.00  0.00     0.009 A 
ATOM     70  C   UNL     1      -0.503  -9.491   1.555  1.00  0.00     0.009 A 
ATOM     71  C   UNL     1      -1.795 -11.672   0.431  1.00  0.00     0.001 A 
ATOM     72  C   UNL     1      -1.876  -9.678   1.769  1.00  0.00     0.001 A 
ATOM     73  C   UNL     1      -2.524 -10.769   1.201  1.00  0.00     0.000 A 
ENDBRANCH  55  68
ENDBRANCH  29  30
ENDBRANCH  22  24
ENDBRANCH  21  22
ENDBRANCH  20  21
ENDBRANCH   1  20
TORSDOF 14
