REMARK SMILES NC(=O)C[C@H](NC(=O)[C@@H]1CCC[NH2+]1)C(=O)OCCOC(=O)c1ccc(-c2c3nc(c(-c4ccccc4)c4ccc([nH]4)c(-c4ccccc4)c4nc(c(-c5ccccc5)c5ccc2[nH]5)C=C4)C=C3)cc1
REMARK SMILES IDX 17 1 16 2 14 3 15 4 5 5 4 6 2 7 1 8 3 11 6 12 7 13 8 15 9 16
REMARK SMILES IDX 10 17 13 18 11 19 12 20 18 23 19 24 20 25 21 26 22 27 23 28
REMARK SMILES IDX 69 29 24 30 68 31 25 32 26 33 27 34 62 35 28 36 67 37 61 38
REMARK SMILES IDX 63 39 29 40 66 41 60 42 59 43 30 45 52 46 37 47 51 48 38 49
REMARK SMILES IDX 41 50 50 51 64 52 39 53 40 54 49 56 65 57 42 58 31 59 32 60
REMARK SMILES IDX 36 61 33 62 35 63 34 64 53 65 54 66 58 67 55 68 57 69 56 70
REMARK SMILES IDX 43 71 44 72 48 73 45 74 47 75 46 76
REMARK H PARENT 1 9 1 10 6 14 13 21 13 22 63 44 41 55
REMARK Flexibility Score: inf
ROOT
ATOM      1  C   UNL     1       4.389   2.557   4.689  1.00  0.00     0.274 C 
ENDROOT
BRANCH   1   2
ATOM      2  O   UNL     1       3.347   2.211   3.756  1.00  0.00    -0.461 OA
BRANCH   2   3
ATOM      3  C   UNL     1       3.177   0.879   3.541  1.00  0.00     0.329 C 
ATOM      4  O   UNL     1       3.845  -0.011   4.057  1.00  0.00    -0.250 OA
BRANCH   3   5
ATOM      5  C   UNL     1       1.993   0.579   2.612  1.00  0.00     0.201 C 
BRANCH   5   6
ATOM      6  C   UNL     1       2.485  -0.274   1.437  1.00  0.00     0.136 C 
BRANCH   6   7
ATOM      7  C   UNL     1       3.184   0.583   0.410  1.00  0.00     0.220 C 
ATOM      8  N   UNL     1       2.398   1.020  -0.615  1.00  0.00    -0.370 N 
ATOM      9  H   UNL     1       2.783   1.584  -1.324  1.00  0.00     0.159 HD
ATOM     10  H   UNL     1       1.446   0.772  -0.646  1.00  0.00     0.159 HD
ATOM     11  O   UNL     1       4.353   0.933   0.513  1.00  0.00    -0.275 OA
ENDBRANCH   6   7
ENDBRANCH   5   6
BRANCH   5  12
ATOM     12  N   UNL     1       1.256   1.755   2.139  1.00  0.00    -0.337 N 
ATOM     13  C   UNL     1      -0.068   2.028   2.015  1.00  0.00     0.278 C 
ATOM     14  H   UNL     1       1.838   2.496   1.854  1.00  0.00     0.164 HD
ATOM     15  O   UNL     1      -0.364   3.003   1.316  1.00  0.00    -0.268 OA
BRANCH  13  16
ATOM     16  C   UNL     1      -1.158   1.238   2.739  1.00  0.00     0.272 C 
ATOM     17  C   UNL     1      -1.060   1.300   4.248  1.00  0.00     0.081 C 
ATOM     18  N   UNL     1      -1.234  -0.199   2.389  1.00  0.00    -0.336 N 
ATOM     19  C   UNL     1      -1.948   0.146   4.650  1.00  0.00     0.068 C 
ATOM     20  C   UNL     1      -1.656  -0.914   3.603  1.00  0.00     0.261 C 
ATOM     21  H   UNL     1      -0.321  -0.535   2.083  1.00  0.00     0.346 HD
ATOM     22  H   UNL     1      -1.894  -0.354   1.626  1.00  0.00     0.346 HD
ENDBRANCH  13  16
ENDBRANCH   5  12
ENDBRANCH   3   5
ENDBRANCH   2   3
ENDBRANCH   1   2
BRANCH   1  23
ATOM     23  C   UNL     1       3.801   2.826   6.072  1.00  0.00     0.275 C 
BRANCH  23  24
ATOM     24  O   UNL     1       3.087   1.665   6.547  1.00  0.00    -0.458 OA
BRANCH  24  25
ATOM     25  C   UNL     1       1.817   1.889   6.944  1.00  0.00     0.338 C 
ATOM     26  O   UNL     1       1.230   2.966   6.961  1.00  0.00    -0.246 OA
BRANCH  25  27
ATOM     27  C   UNL     1       1.148   0.643   7.368  1.00  0.00     0.060 A 
ATOM     28  C   UNL     1       1.215  -0.519   6.598  1.00  0.00     0.016 A 
ATOM     29  C   UNL     1       0.287   0.700   8.468  1.00  0.00     0.016 A 
ATOM     30  C   UNL     1       0.326  -1.570   6.859  1.00  0.00     0.010 A 
ATOM     31  C   UNL     1      -0.538  -0.387   8.774  1.00  0.00     0.010 A 
ATOM     32  C   UNL     1      -0.583  -1.510   7.934  1.00  0.00    -0.014 A 
BRANCH  32  33
ATOM     33  C   UNL     1      -1.619  -2.570   8.145  1.00  0.00     0.031 A 
ATOM     34  C   UNL     1      -3.098  -2.229   8.174  1.00  0.00     0.074 A 
ATOM     35  C   UNL     1      -1.259  -3.861   8.294  1.00  0.00     0.049 A 
ATOM     36  N   UNL     1      -4.122  -3.010   8.432  1.00  0.00    -0.248 NA
ATOM     37  C   UNL     1      -3.481  -0.843   7.861  1.00  0.00     0.031 C 
ATOM     38  C   UNL     1       0.110  -4.374   8.245  1.00  0.00     0.029 A 
ATOM     39  N   UNL     1      -2.025  -4.980   8.521  1.00  0.00    -0.354 N 
ATOM     40  C   UNL     1      -5.256  -2.211   8.321  1.00  0.00     0.074 A 
ATOM     41  C   UNL     1      -4.801  -0.882   7.980  1.00  0.00     0.031 C 
ATOM     42  C   UNL     1       0.086  -5.705   8.406  1.00  0.00     0.029 A 
ATOM     43  C   UNL     1      -1.286  -6.130   8.663  1.00  0.00     0.049 A 
ATOM     44  H   UNL     1      -3.007  -4.960   8.577  1.00  0.00     0.167 HD
ATOM     45  C   UNL     1      -6.560  -2.539   8.492  1.00  0.00     0.031 A 
ATOM     46  C   UNL     1      -1.647  -7.378   9.015  1.00  0.00     0.031 A 
ATOM     47  C   UNL     1      -7.042  -3.845   8.858  1.00  0.00     0.049 A 
ATOM     48  C   UNL     1      -3.079  -7.688   9.336  1.00  0.00     0.074 A 
ATOM     49  C   UNL     1      -8.351  -4.253   9.061  1.00  0.00     0.029 A 
ATOM     50  N   UNL     1      -6.240  -4.948   9.088  1.00  0.00    -0.354 N 
ATOM     51  N   UNL     1      -4.127  -6.907   9.264  1.00  0.00    -0.248 NA
ATOM     52  C   UNL     1      -3.370  -9.049   9.809  1.00  0.00     0.031 C 
ATOM     53  C   UNL     1      -8.336  -5.590   9.470  1.00  0.00     0.029 A 
ATOM     54  C   UNL     1      -7.022  -6.028   9.466  1.00  0.00     0.049 A 
ATOM     55  H   UNL     1      -5.260  -4.964   8.997  1.00  0.00     0.167 HD
ATOM     56  C   UNL     1      -5.203  -7.683   9.675  1.00  0.00     0.074 A 
ATOM     57  C   UNL     1      -4.684  -9.000   9.977  1.00  0.00     0.031 C 
ATOM     58  C   UNL     1      -6.506  -7.330   9.790  1.00  0.00     0.031 A 
BRANCH  45  59
ATOM     59  C   UNL     1      -7.583  -1.450   8.328  1.00  0.00    -0.014 A 
ATOM     60  C   UNL     1      -7.986  -1.016   7.057  1.00  0.00     0.009 A 
ATOM     61  C   UNL     1      -8.210  -0.912   9.464  1.00  0.00     0.009 A 
ATOM     62  C   UNL     1      -8.992  -0.054   6.927  1.00  0.00     0.001 A 
ATOM     63  C   UNL     1      -9.227   0.035   9.330  1.00  0.00     0.001 A 
ATOM     64  C   UNL     1      -9.615   0.465   8.062  1.00  0.00     0.000 A 
ENDBRANCH  45  59
BRANCH  46  65
ATOM     65  C   UNL     1      -0.600  -8.422   9.160  1.00  0.00    -0.014 A 
ATOM     66  C   UNL     1      -0.505  -9.476   8.242  1.00  0.00     0.009 A 
ATOM     67  C   UNL     1       0.323  -8.350  10.216  1.00  0.00     0.009 A 
ATOM     68  C   UNL     1       0.496 -10.441   8.381  1.00  0.00     0.001 A 
ATOM     69  C   UNL     1       1.340  -9.297  10.334  1.00  0.00     0.001 A 
ATOM     70  C   UNL     1       1.422 -10.345   9.420  1.00  0.00     0.000 A 
ENDBRANCH  46  65
BRANCH  58  71
ATOM     71  C   UNL     1      -7.467  -8.389  10.246  1.00  0.00    -0.014 A 
ATOM     72  C   UNL     1      -7.507  -8.802  11.587  1.00  0.00     0.009 A 
ATOM     73  C   UNL     1      -8.354  -8.969   9.327  1.00  0.00     0.009 A 
ATOM     74  C   UNL     1      -8.395  -9.802  11.990  1.00  0.00     0.001 A 
ATOM     75  C   UNL     1      -9.257  -9.951   9.738  1.00  0.00     0.001 A 
ATOM     76  C   UNL     1      -9.270 -10.374  11.066  1.00  0.00     0.000 A 
ENDBRANCH  58  71
ENDBRANCH  32  33
ENDBRANCH  25  27
ENDBRANCH  24  25
ENDBRANCH  23  24
ENDBRANCH   1  23
TORSDOF 15
