REMARK SMILES Cc1ccc(-c2nc(NC(=O)[C@H]3[C@@H](C(=O)OCCOC(=O)c4ccc(-c5c6nc(c(-c7ccccc7)c7ccc([nH]7)c(-c7ccccc7)c7nc(c(-c8ccccc8)c8ccc5[nH]8)C=C7)C=C6)cc4)[C@@H]4CC[C@H]3O4)sc2C)cc1
REMARK SMILES IDX 17 1 16 2 14 3 15 4 13 5 12 6 73 7 70 8 72 9 74 10 71 11
REMARK SMILES IDX 10 12 9 13 11 15 8 16 6 17 7 18 76 19 75 20 77 21 5 22 1 23
REMARK SMILES IDX 2 24 3 25 79 26 4 27 78 28 18 29 19 30 20 31 21 32 22 33
REMARK SMILES IDX 23 34 69 35 24 36 68 37 25 38 26 39 27 40 62 41 28 42 67 43
REMARK SMILES IDX 61 44 63 45 29 46 66 47 60 48 59 49 30 51 52 52 37 53 51 54
REMARK SMILES IDX 38 55 41 56 50 57 64 58 39 59 40 60 49 62 65 63 42 64 31 65
REMARK SMILES IDX 32 66 36 67 33 68 35 69 34 70 53 71 54 72 58 73 55 74 57 75
REMARK SMILES IDX 56 76 43 77 44 78 48 79 45 80 47 81 46 82
REMARK H PARENT 9 14 63 50 41 61
REMARK Flexibility Score: inf
ROOT
ATOM      1  C   UNL     1      -4.961   1.323  -2.276  1.00  0.00     0.274 C 
ENDROOT
BRANCH   1   2
ATOM      2  O   UNL     1      -4.967   0.365  -0.843  1.00  0.00    -0.462 OA
BRANCH   2   3
ATOM      3  C   UNL     1      -5.768   0.268   0.373  1.00  0.00     0.312 C 
ATOM      4  O   UNL     1      -5.579   0.953   1.368  1.00  0.00    -0.252 OA
BRANCH   3   5
ATOM      5  C   UNL     1      -6.866  -0.933   0.393  1.00  0.00     0.143 C 
ATOM      6  C   UNL     1      -7.014  -1.356  -1.025  1.00  0.00     0.124 C 
ATOM      7  C   UNL     1      -8.440  -1.829  -1.220  1.00  0.00     0.132 C 
ATOM      8  C   UNL     1      -8.426  -0.879   0.737  1.00  0.00     0.133 C 
ATOM      9  C   UNL     1      -8.824  -2.978  -0.299  1.00  0.00     0.035 C 
ATOM     10  O   UNL     1      -9.086  -0.717  -0.571  1.00  0.00    -0.373 OA
ATOM     11  C   UNL     1      -9.118  -2.223   0.995  1.00  0.00     0.036 C 
BRANCH   6  12
ATOM     12  C   UNL     1      -6.917  -0.152  -1.926  1.00  0.00     0.232 C 
ATOM     13  N   UNL     1      -7.114   1.213  -1.296  1.00  0.00    -0.302 N 
ATOM     14  H   UNL     1      -7.844   1.084  -0.649  1.00  0.00     0.172 HD
ATOM     15  O   UNL     1      -6.755  -0.492  -3.096  1.00  0.00    -0.274 OA
BRANCH  13  16
ATOM     16  C   UNL     1      -6.727   2.754  -1.162  1.00  0.00     0.190 A 
ATOM     17  C   UNL     1      -6.716   4.832  -0.226  1.00  0.00     0.086 A 
ATOM     18  N   UNL     1      -6.221   3.472  -0.145  1.00  0.00    -0.220 NA
ATOM     19  C   UNL     1      -7.848   4.904  -1.026  1.00  0.00     0.031 A 
ATOM     20  S   UNL     1      -7.369   3.949  -2.312  1.00  0.00    -0.101 S 
ATOM     21  C   UNL     1      -9.024   5.789  -1.208  1.00  0.00     0.059 C 
BRANCH  17  22
ATOM     22  C   UNL     1      -6.210   6.100   0.334  1.00  0.00     0.001 A 
ATOM     23  C   UNL     1      -6.193  10.131   1.916  1.00  0.00     0.044 C 
ATOM     24  C   UNL     1      -6.006   8.753   1.345  1.00  0.00    -0.051 A 
ATOM     25  C   UNL     1      -6.275   8.545   0.001  1.00  0.00     0.004 A 
ATOM     26  C   UNL     1      -5.699   7.635   2.143  1.00  0.00     0.004 A 
ATOM     27  C   UNL     1      -6.322   7.245  -0.497  1.00  0.00     0.010 A 
ATOM     28  C   UNL     1      -5.805   6.310   1.645  1.00  0.00     0.010 A 
ENDBRANCH  17  22
ENDBRANCH  13  16
ENDBRANCH   6  12
ENDBRANCH   3   5
ENDBRANCH   2   3
ENDBRANCH   1   2
BRANCH   1  29
ATOM     29  C   UNL     1      -6.330   1.687  -3.531  1.00  0.00     0.275 C 
BRANCH  29  30
ATOM     30  O   UNL     1      -8.150   1.708  -3.317  1.00  0.00    -0.458 OA
BRANCH  30  31
ATOM     31  C   UNL     1      -9.522   1.921  -2.660  1.00  0.00     0.338 C 
ATOM     32  O   UNL     1     -10.485   1.926  -3.427  1.00  0.00    -0.246 OA
BRANCH  31  33
ATOM     33  C   UNL     1      -9.921   2.249  -1.055  1.00  0.00     0.060 A 
ATOM     34  C   UNL     1     -11.099   2.798  -0.521  1.00  0.00     0.016 A 
ATOM     35  C   UNL     1      -9.092   1.996   0.010  1.00  0.00     0.016 A 
ATOM     36  C   UNL     1     -11.229   3.168   0.916  1.00  0.00     0.010 A 
ATOM     37  C   UNL     1      -9.065   2.483   1.292  1.00  0.00     0.010 A 
ATOM     38  C   UNL     1     -10.156   3.053   1.828  1.00  0.00    -0.014 A 
BRANCH  38  39
ATOM     39  C   UNL     1      -9.751   3.659   3.123  1.00  0.00     0.031 A 
ATOM     40  C   UNL     1      -9.043   2.949   4.264  1.00  0.00     0.074 A 
ATOM     41  C   UNL     1      -9.316   4.927   2.921  1.00  0.00     0.049 A 
ATOM     42  N   UNL     1      -8.816   3.487   5.422  1.00  0.00    -0.248 NA
ATOM     43  C   UNL     1      -8.387   1.638   4.160  1.00  0.00     0.031 C 
ATOM     44  C   UNL     1      -8.395   5.766   3.673  1.00  0.00     0.029 A 
ATOM     45  N   UNL     1      -9.665   5.742   1.844  1.00  0.00    -0.354 N 
ATOM     46  C   UNL     1      -7.739   2.828   6.003  1.00  0.00     0.074 A 
ATOM     47  C   UNL     1      -7.574   1.628   5.223  1.00  0.00     0.031 C 
ATOM     48  C   UNL     1      -8.559   7.042   3.276  1.00  0.00     0.029 A 
ATOM     49  C   UNL     1      -9.615   7.069   2.275  1.00  0.00     0.049 A 
ATOM     50  H   UNL     1      -9.905   5.436   0.940  1.00  0.00     0.167 HD
ATOM     51  C   UNL     1      -6.970   3.434   6.964  1.00  0.00     0.031 A 
ATOM     52  C   UNL     1     -10.801   7.727   2.390  1.00  0.00     0.031 A 
ATOM     53  C   UNL     1      -7.337   4.855   7.121  1.00  0.00     0.049 A 
ATOM     54  C   UNL     1     -11.173   7.822   3.850  1.00  0.00     0.074 A 
ATOM     55  C   UNL     1      -6.656   6.045   6.909  1.00  0.00     0.029 A 
ATOM     56  N   UNL     1      -8.680   5.210   7.261  1.00  0.00    -0.354 N 
ATOM     57  N   UNL     1     -10.611   7.076   4.766  1.00  0.00    -0.248 NA
ATOM     58  C   UNL     1     -12.057   8.820   4.436  1.00  0.00     0.031 C 
ATOM     59  C   UNL     1      -7.620   7.092   6.802  1.00  0.00     0.029 A 
ATOM     60  C   UNL     1      -8.883   6.549   6.984  1.00  0.00     0.049 A 
ATOM     61  H   UNL     1      -9.394   4.585   7.523  1.00  0.00     0.167 HD
ATOM     62  C   UNL     1     -10.868   7.571   6.002  1.00  0.00     0.074 A 
ATOM     63  C   UNL     1     -11.848   8.617   5.753  1.00  0.00     0.031 C 
ATOM     64  C   UNL     1     -10.217   7.138   7.122  1.00  0.00     0.031 A 
BRANCH  51  65
ATOM     65  C   UNL     1      -5.716   2.821   7.602  1.00  0.00    -0.014 A 
ATOM     66  C   UNL     1      -4.783   3.626   8.291  1.00  0.00     0.009 A 
ATOM     67  C   UNL     1      -5.418   1.443   7.609  1.00  0.00     0.009 A 
ATOM     68  C   UNL     1      -3.604   3.110   8.866  1.00  0.00     0.001 A 
ATOM     69  C   UNL     1      -4.229   0.920   8.154  1.00  0.00     0.001 A 
ATOM     70  C   UNL     1      -3.315   1.756   8.777  1.00  0.00     0.000 A 
ENDBRANCH  51  65
BRANCH  52  71
ATOM     71  C   UNL     1     -11.623   7.640   1.142  1.00  0.00    -0.014 A 
ATOM     72  C   UNL     1     -11.151   8.383   0.032  1.00  0.00     0.009 A 
ATOM     73  C   UNL     1     -12.524   6.597   0.871  1.00  0.00     0.009 A 
ATOM     74  C   UNL     1     -11.496   8.051  -1.288  1.00  0.00     0.001 A 
ATOM     75  C   UNL     1     -12.866   6.262  -0.457  1.00  0.00     0.001 A 
ATOM     76  C   UNL     1     -12.334   6.971  -1.534  1.00  0.00     0.000 A 
ENDBRANCH  52  71
BRANCH  64  77
ATOM     77  C   UNL     1     -10.777   7.261   8.509  1.00  0.00    -0.014 A 
ATOM     78  C   UNL     1     -12.132   7.490   8.768  1.00  0.00     0.009 A 
ATOM     79  C   UNL     1      -9.961   6.911   9.608  1.00  0.00     0.009 A 
ATOM     80  C   UNL     1     -12.644   7.396  10.063  1.00  0.00     0.001 A 
ATOM     81  C   UNL     1     -10.480   6.755  10.890  1.00  0.00     0.001 A 
ATOM     82  C   UNL     1     -11.823   7.009  11.119  1.00  0.00     0.000 A 
ENDBRANCH  64  77
ENDBRANCH  38  39
ENDBRANCH  31  33
ENDBRANCH  30  31
ENDBRANCH  29  30
ENDBRANCH   1  29
TORSDOF 14
