REMARK SMILES Cc1cccc(CC(=O)N2CCC3(CCC(=O)N([C@H](C)C(=O)OCCOC(=O)c4ccc(-c5c6nc(c(-c7ccccc7)c7ccc([nH]7)c(-c7ccccc7)c7nc(c(-c8ccccc8)c8ccc5[nH]8)C=C7)C=C6)cc4)C3)CC2)c1
REMARK SMILES IDX 24 1 23 2 21 3 22 4 19 5 20 6 18 7 8 8 9 9 10 10 11 11 79 12
REMARK SMILES IDX 12 13 78 14 13 15 14 16 77 17 15 18 16 19 17 20 7 21 6 22
REMARK SMILES IDX 1 23 2 24 3 25 80 26 4 27 5 28 25 29 26 30 27 31 28 32 29 33
REMARK SMILES IDX 30 34 76 35 31 36 75 37 32 38 33 39 34 40 69 41 35 42 74 43
REMARK SMILES IDX 68 44 70 45 36 46 73 47 67 48 66 49 37 51 59 52 44 53 58 54
REMARK SMILES IDX 45 55 48 56 57 57 71 58 46 59 47 60 56 62 72 63 49 64 38 65
REMARK SMILES IDX 39 66 43 67 40 68 42 69 41 70 60 71 61 72 65 73 62 74 64 75
REMARK SMILES IDX 63 76 50 77 51 78 55 79 52 80 54 81 53 82
REMARK H PARENT 70 50 48 61
REMARK Flexibility Score: inf
ROOT
ATOM      1  C   UNL     1      -3.061   4.851  -7.521  1.00  0.00     0.274 C 
ENDROOT
BRANCH   1   2
ATOM      2  O   UNL     1      -1.700   4.562  -7.203  1.00  0.00    -0.461 OA
BRANCH   2   3
ATOM      3  C   UNL     1      -0.774   5.186  -7.998  1.00  0.00     0.328 C 
ATOM      4  O   UNL     1      -1.053   5.885  -8.945  1.00  0.00    -0.250 OA
BRANCH   3   5
ATOM      5  C   UNL     1       0.638   5.020  -7.396  1.00  0.00     0.192 C 
ATOM      6  C   UNL     1       0.877   3.618  -6.840  1.00  0.00     0.044 C 
BRANCH   5   7
ATOM      7  N   UNL     1       1.699   5.437  -8.328  1.00  0.00    -0.329 N 
ATOM      8  C   UNL     1       8.035   5.313  -6.994  1.00  0.00     0.226 C 
ATOM      9  O   UNL     1       8.413   4.138  -6.923  1.00  0.00    -0.275 OA
ATOM     10  N   UNL     1       6.828   5.646  -7.604  1.00  0.00    -0.342 N 
ATOM     11  C   UNL     1       5.930   4.550  -7.934  1.00  0.00     0.120 C 
ATOM     12  C   UNL     1       6.487   6.934  -8.216  1.00  0.00     0.120 C 
ATOM     13  C   UNL     1       4.501   4.941  -7.609  1.00  0.00     0.030 C 
ATOM     14  C   UNL     1       5.026   7.346  -7.981  1.00  0.00     0.030 C 
ATOM     15  C   UNL     1       4.044   6.217  -8.360  1.00  0.00    -0.008 C 
ATOM     16  C   UNL     1       3.990   6.079  -9.894  1.00  0.00     0.019 C 
ATOM     17  C   UNL     1       2.600   6.531  -7.941  1.00  0.00     0.127 C 
ATOM     18  C   UNL     1       3.076   4.956 -10.339  1.00  0.00     0.101 C 
ATOM     19  C   UNL     1       1.811   4.762  -9.533  1.00  0.00     0.223 C 
ATOM     20  O   UNL     1       0.981   3.931  -9.904  1.00  0.00    -0.275 OA
BRANCH   8  21
ATOM     21  C   UNL     1       8.821   6.374  -6.238  1.00  0.00     0.135 C 
BRANCH  21  22
ATOM     22  C   UNL     1       9.371   7.512  -7.054  1.00  0.00    -0.038 A 
ATOM     23  C   UNL     1       8.815  11.271  -7.275  1.00  0.00     0.044 C 
ATOM     24  C   UNL     1       9.336   9.894  -7.559  1.00  0.00    -0.051 A 
ATOM     25  C   UNL     1      10.112   9.646  -8.695  1.00  0.00     0.003 A 
ATOM     26  C   UNL     1       9.008   8.828  -6.719  1.00  0.00     0.007 A 
ATOM     27  C   UNL     1      10.541   8.350  -8.993  1.00  0.00     0.001 A 
ATOM     28  C   UNL     1      10.168   7.283  -8.178  1.00  0.00     0.004 A 
ENDBRANCH  21  22
ENDBRANCH   8  21
ENDBRANCH   5   7
ENDBRANCH   3   5
ENDBRANCH   2   3
ENDBRANCH   1   2
BRANCH   1  29
ATOM     29  C   UNL     1      -3.909   4.947  -6.246  1.00  0.00     0.275 C 
BRANCH  29  30
ATOM     30  O   UNL     1      -3.229   5.185  -4.970  1.00  0.00    -0.458 OA
BRANCH  30  31
ATOM     31  C   UNL     1      -2.311   6.106  -4.577  1.00  0.00     0.338 C 
ATOM     32  O   UNL     1      -1.739   6.028  -3.495  1.00  0.00    -0.246 OA
BRANCH  31  33
ATOM     33  C   UNL     1      -1.937   7.185  -5.505  1.00  0.00     0.060 A 
ATOM     34  C   UNL     1      -0.610   7.650  -5.572  1.00  0.00     0.016 A 
ATOM     35  C   UNL     1      -2.891   7.685  -6.367  1.00  0.00     0.016 A 
ATOM     36  C   UNL     1      -0.219   8.494  -6.617  1.00  0.00     0.010 A 
ATOM     37  C   UNL     1      -2.477   8.344  -7.493  1.00  0.00     0.010 A 
ATOM     38  C   UNL     1      -1.154   8.787  -7.611  1.00  0.00    -0.014 A 
BRANCH  38  39
ATOM     39  C   UNL     1      -0.977   9.778  -8.666  1.00  0.00     0.031 A 
ATOM     40  C   UNL     1      -0.067   9.565  -9.799  1.00  0.00     0.074 A 
ATOM     41  C   UNL     1      -1.772  10.863  -8.527  1.00  0.00     0.049 A 
ATOM     42  N   UNL     1       0.870  10.376 -10.166  1.00  0.00    -0.248 NA
ATOM     43  C   UNL     1      -0.147   8.361 -10.624  1.00  0.00     0.031 C 
ATOM     44  C   UNL     1      -1.994  12.001  -9.392  1.00  0.00     0.029 A 
ATOM     45  N   UNL     1      -2.489  11.189  -7.368  1.00  0.00    -0.354 N 
ATOM     46  C   UNL     1       1.225   9.970 -11.441  1.00  0.00     0.074 A 
ATOM     47  C   UNL     1       0.749   8.616 -11.584  1.00  0.00     0.031 C 
ATOM     48  C   UNL     1      -2.468  13.013  -8.633  1.00  0.00     0.029 A 
ATOM     49  C   UNL     1      -2.490  12.570  -7.240  1.00  0.00     0.049 A 
ATOM     50  H   UNL     1      -2.916  10.551  -6.753  1.00  0.00     0.167 HD
ATOM     51  C   UNL     1       1.546  10.876 -12.410  1.00  0.00     0.031 A 
ATOM     52  C   UNL     1      -1.857  13.129  -6.165  1.00  0.00     0.031 A 
ATOM     53  C   UNL     1       1.275  12.230 -11.947  1.00  0.00     0.049 A 
ATOM     54  C   UNL     1      -0.585  13.799  -6.628  1.00  0.00     0.074 A 
ATOM     55  C   UNL     1       0.155  13.030 -12.108  1.00  0.00     0.029 A 
ATOM     56  N   UNL     1       1.993  12.761 -10.886  1.00  0.00    -0.354 N 
ATOM     57  N   UNL     1      -0.001  13.534  -7.765  1.00  0.00    -0.248 NA
ATOM     58  C   UNL     1       0.120  14.818  -5.859  1.00  0.00     0.031 C 
ATOM     59  C   UNL     1       0.140  13.972 -11.048  1.00  0.00     0.029 A 
ATOM     60  C   UNL     1       1.259  13.757 -10.265  1.00  0.00     0.049 A 
ATOM     61  H   UNL     1       2.893  12.471 -10.613  1.00  0.00     0.167 HD
ATOM     62  C   UNL     1       1.056  14.379  -7.939  1.00  0.00     0.074 A 
ATOM     63  C   UNL     1       1.113  15.144  -6.705  1.00  0.00     0.031 C 
ATOM     64  C   UNL     1       1.788  14.424  -9.088  1.00  0.00     0.031 A 
BRANCH  51  65
ATOM     65  C   UNL     1       1.663  10.487 -13.864  1.00  0.00    -0.014 A 
ATOM     66  C   UNL     1       1.112  11.304 -14.869  1.00  0.00     0.009 A 
ATOM     67  C   UNL     1       2.314   9.316 -14.294  1.00  0.00     0.009 A 
ATOM     68  C   UNL     1       1.145  10.943 -16.222  1.00  0.00     0.001 A 
ATOM     69  C   UNL     1       2.336   8.941 -15.648  1.00  0.00     0.001 A 
ATOM     70  C   UNL     1       1.744   9.752 -16.611  1.00  0.00     0.000 A 
ENDBRANCH  51  65
BRANCH  52  71
ATOM     71  C   UNL     1      -2.023  12.337  -4.894  1.00  0.00    -0.014 A 
ATOM     72  C   UNL     1      -3.345  12.146  -4.426  1.00  0.00     0.009 A 
ATOM     73  C   UNL     1      -1.028  11.475  -4.406  1.00  0.00     0.009 A 
ATOM     74  C   UNL     1      -3.686  11.047  -3.627  1.00  0.00     0.001 A 
ATOM     75  C   UNL     1      -1.372  10.391  -3.577  1.00  0.00     0.001 A 
ATOM     76  C   UNL     1      -2.702  10.152  -3.227  1.00  0.00     0.000 A 
ENDBRANCH  52  71
BRANCH  64  77
ATOM     77  C   UNL     1       3.049  15.211  -9.243  1.00  0.00    -0.014 A 
ATOM     78  C   UNL     1       3.964  15.396  -8.201  1.00  0.00     0.009 A 
ATOM     79  C   UNL     1       3.413  15.668 -10.527  1.00  0.00     0.009 A 
ATOM     80  C   UNL     1       5.164  16.076  -8.419  1.00  0.00     0.001 A 
ATOM     81  C   UNL     1       4.632  16.299 -10.757  1.00  0.00     0.001 A 
ATOM     82  C   UNL     1       5.500  16.521  -9.696  1.00  0.00     0.000 A 
ENDBRANCH  64  77
ENDBRANCH  38  39
ENDBRANCH  31  33
ENDBRANCH  30  31
ENDBRANCH  29  30
ENDBRANCH   1  29
TORSDOF 14
