REMARK SMILES O=C(Cc1cccn1-c1ccc2c(c1)OCCO2)OCCOC(=O)c1ccc(-c2c3nc(c(-c4ccccc4)c4ccc([nH]4)c(-c4ccccc4)c4nc(c(-c5ccccc5)c5ccc2[nH]5)C=C4)C=C3)cc1
REMARK SMILES IDX 20 1 19 2 2 3 1 4 3 5 4 6 5 7 8 8 6 9 7 10 9 11 10 12 14 13
REMARK SMILES IDX 11 14 13 15 12 16 15 17 18 18 16 19 17 20 21 21 22 22 23 23
REMARK SMILES IDX 24 24 25 25 26 26 72 27 27 28 71 29 28 30 29 31 30 32 65 33
REMARK SMILES IDX 31 34 70 35 64 36 66 37 32 38 69 39 63 40 62 41 33 43 55 44
REMARK SMILES IDX 40 45 54 46 41 47 44 48 53 49 67 50 42 51 43 52 52 54 68 55
REMARK SMILES IDX 45 56 34 57 35 58 39 59 36 60 38 61 37 62 56 63 57 64 61 65
REMARK SMILES IDX 58 66 60 67 59 68 46 69 47 70 51 71 48 72 50 73 49 74
REMARK H PARENT 66 42 44 53
REMARK Flexibility Score: inf
ROOT
ATOM      1  C   UNL     1       4.474  -0.403  -1.249  1.00  0.00     0.274 C 
ENDROOT
BRANCH   1   2
ATOM      2  O   UNL     1       3.035  -0.422  -1.088  1.00  0.00    -0.462 OA
BRANCH   2   3
ATOM      3  C   UNL     1       2.314  -0.278   0.050  1.00  0.00     0.311 C 
ATOM      4  O   UNL     1       1.089  -0.142  -0.021  1.00  0.00    -0.252 OA
BRANCH   3   5
ATOM      5  C   UNL     1       2.986  -0.192   1.399  1.00  0.00     0.177 C 
BRANCH   5   6
ATOM      6  C   UNL     1       3.922  -1.289   1.806  1.00  0.00     0.034 A 
ATOM      7  C   UNL     1       5.109  -1.148   2.510  1.00  0.00     0.024 A 
ATOM      8  N   UNL     1       3.688  -2.647   1.649  1.00  0.00    -0.320 N 
ATOM      9  C   UNL     1       5.582  -2.439   2.821  1.00  0.00     0.020 A 
ATOM     10  C   UNL     1       4.679  -3.340   2.301  1.00  0.00     0.091 A 
BRANCH   8  11
ATOM     11  C   UNL     1       2.617  -3.234   0.951  1.00  0.00     0.049 A 
ATOM     12  C   UNL     1       1.463  -3.591   1.649  1.00  0.00     0.031 A 
ATOM     13  C   UNL     1       2.648  -3.227  -0.445  1.00  0.00     0.077 A 
ATOM     14  C   UNL     1       0.305  -3.891   0.928  1.00  0.00     0.052 A 
ATOM     15  C   UNL     1       1.464  -3.424  -1.145  1.00  0.00     0.163 A 
ATOM     16  C   UNL     1       0.296  -3.783  -0.465  1.00  0.00     0.161 A 
ATOM     17  O   UNL     1       1.498  -3.164  -2.494  1.00  0.00    -0.486 OA
ATOM     18  O   UNL     1      -0.903  -3.994  -1.098  1.00  0.00    -0.486 OA
ATOM     19  C   UNL     1       0.177  -2.856  -2.962  1.00  0.00     0.271 C 
ATOM     20  C   UNL     1      -0.769  -3.962  -2.526  1.00  0.00     0.271 C 
ENDBRANCH   8  11
ENDBRANCH   5   6
ENDBRANCH   3   5
ENDBRANCH   2   3
ENDBRANCH   1   2
BRANCH   1  21
ATOM     21  C   UNL     1       4.979   0.981  -1.602  1.00  0.00     0.275 C 
BRANCH  21  22
ATOM     22  O   UNL     1       4.621   1.859  -0.547  1.00  0.00    -0.458 OA
BRANCH  22  23
ATOM     23  C   UNL     1       3.413   2.418  -0.712  1.00  0.00     0.338 C 
ATOM     24  O   UNL     1       2.617   2.253  -1.644  1.00  0.00    -0.246 OA
BRANCH  23  25
ATOM     25  C   UNL     1       3.195   3.387   0.338  1.00  0.00     0.060 A 
ATOM     26  C   UNL     1       1.882   3.843   0.491  1.00  0.00     0.016 A 
ATOM     27  C   UNL     1       4.324   4.120   0.718  1.00  0.00     0.016 A 
ATOM     28  C   UNL     1       1.708   5.171   0.772  1.00  0.00     0.010 A 
ATOM     29  C   UNL     1       4.157   5.458   0.910  1.00  0.00     0.010 A 
ATOM     30  C   UNL     1       2.853   5.968   0.886  1.00  0.00    -0.014 A 
BRANCH  30  31
ATOM     31  C   UNL     1       2.688   7.372   1.204  1.00  0.00     0.031 A 
ATOM     32  C   UNL     1       2.712   7.527   2.736  1.00  0.00     0.074 A 
ATOM     33  C   UNL     1       2.575   8.191   0.112  1.00  0.00     0.049 A 
ATOM     34  N   UNL     1       2.428   8.560   3.453  1.00  0.00    -0.248 NA
ATOM     35  C   UNL     1       3.107   6.378   3.617  1.00  0.00     0.031 C 
ATOM     36  C   UNL     1       2.604   7.758  -1.315  1.00  0.00     0.029 A 
ATOM     37  N   UNL     1       2.411   9.546  -0.040  1.00  0.00    -0.354 N 
ATOM     38  C   UNL     1       2.794   8.278   4.785  1.00  0.00     0.074 A 
ATOM     39  C   UNL     1       3.150   6.899   4.842  1.00  0.00     0.031 C 
ATOM     40  C   UNL     1       2.353   8.796  -2.149  1.00  0.00     0.029 A 
ATOM     41  C   UNL     1       2.183  10.004  -1.367  1.00  0.00     0.049 A 
ATOM     42  H   UNL     1       2.448  10.165   0.725  1.00  0.00     0.167 HD
ATOM     43  C   UNL     1       2.896   9.258   5.723  1.00  0.00     0.031 A 
ATOM     44  C   UNL     1       1.843  11.267  -1.774  1.00  0.00     0.031 A 
ATOM     45  C   UNL     1       2.383  10.479   5.199  1.00  0.00     0.049 A 
ATOM     46  C   UNL     1       2.007  12.093  -0.572  1.00  0.00     0.074 A 
ATOM     47  C   UNL     1       1.104  10.835   4.851  1.00  0.00     0.029 A 
ATOM     48  N   UNL     1       3.281  11.277   4.532  1.00  0.00    -0.354 N 
ATOM     49  N   UNL     1       3.150  12.421  -0.053  1.00  0.00    -0.248 NA
ATOM     50  C   UNL     1       0.810  12.513   0.165  1.00  0.00     0.031 C 
ATOM     51  C   UNL     1       1.290  11.445   3.594  1.00  0.00     0.029 A 
ATOM     52  C   UNL     1       2.651  11.702   3.390  1.00  0.00     0.049 A 
ATOM     53  H   UNL     1       4.196  11.501   4.818  1.00  0.00     0.167 HD
ATOM     54  C   UNL     1       2.802  12.700   1.243  1.00  0.00     0.074 A 
ATOM     55  C   UNL     1       1.399  13.070   1.220  1.00  0.00     0.031 C 
ATOM     56  C   UNL     1       3.461  12.089   2.263  1.00  0.00     0.031 A 
BRANCH  43  57
ATOM     57  C   UNL     1       3.639   9.309   7.017  1.00  0.00    -0.014 A 
ATOM     58  C   UNL     1       3.362  10.406   7.865  1.00  0.00     0.009 A 
ATOM     59  C   UNL     1       4.812   8.584   7.252  1.00  0.00     0.009 A 
ATOM     60  C   UNL     1       4.286  10.853   8.806  1.00  0.00     0.001 A 
ATOM     61  C   UNL     1       5.723   9.010   8.229  1.00  0.00     0.001 A 
ATOM     62  C   UNL     1       5.479  10.165   8.973  1.00  0.00     0.000 A 
ENDBRANCH  43  57
BRANCH  44  63
ATOM     63  C   UNL     1       1.313  12.005  -2.980  1.00  0.00    -0.014 A 
ATOM     64  C   UNL     1       1.039  11.465  -4.236  1.00  0.00     0.009 A 
ATOM     65  C   UNL     1       0.920  13.366  -2.803  1.00  0.00     0.009 A 
ATOM     66  C   UNL     1       0.322  12.212  -5.204  1.00  0.00     0.001 A 
ATOM     67  C   UNL     1       0.160  14.085  -3.727  1.00  0.00     0.001 A 
ATOM     68  C   UNL     1      -0.155  13.497  -4.933  1.00  0.00     0.000 A 
ENDBRANCH  44  63
BRANCH  56  69
ATOM     69  C   UNL     1       4.848  11.542   1.932  1.00  0.00    -0.014 A 
ATOM     70  C   UNL     1       5.822  12.393   1.385  1.00  0.00     0.009 A 
ATOM     71  C   UNL     1       5.194  10.182   2.046  1.00  0.00     0.009 A 
ATOM     72  C   UNL     1       7.066  11.910   0.952  1.00  0.00     0.001 A 
ATOM     73  C   UNL     1       6.438   9.691   1.611  1.00  0.00     0.001 A 
ATOM     74  C   UNL     1       7.375  10.559   1.061  1.00  0.00     0.000 A 
ENDBRANCH  56  69
ENDBRANCH  30  31
ENDBRANCH  23  25
ENDBRANCH  22  23
ENDBRANCH  21  22
ENDBRANCH   1  21
TORSDOF 13
