REMARK SMILES O=C(CC1CC[NH+](C[C@H]2COc3ccccc3O2)CC1)OCCOC(=O)c1ccc(-c2c3nc(c(-c4ccccc4)c4ccc([nH]4)c(-c4ccccc4)c4nc(c(-c5ccccc5)c5ccc2[nH]5)C=C4)C=C3)cc1
REMARK SMILES IDX 22 1 21 2 2 3 1 4 3 5 4 6 5 7 20 8 6 9 19 10 7 11 8 13 9 14
REMARK SMILES IDX 10 15 18 16 11 17 17 18 12 19 16 20 13 21 15 22 14 23 23 24
REMARK SMILES IDX 24 25 25 26 26 27 27 28 28 29 74 30 29 31 73 32 30 33 31 34
REMARK SMILES IDX 32 35 67 36 33 37 72 38 66 39 68 40 34 41 71 42 65 43 64 44
REMARK SMILES IDX 35 46 57 47 42 48 56 49 43 50 46 51 55 52 69 53 44 54 45 55
REMARK SMILES IDX 54 57 70 58 47 59 36 60 37 61 41 62 38 63 40 64 39 65 58 66
REMARK SMILES IDX 59 67 63 68 60 69 62 70 61 71 48 72 49 73 53 74 50 75 52 76
REMARK SMILES IDX 51 77
REMARK H PARENT 7 12 68 45 46 56
REMARK Flexibility Score: inf
ROOT
ATOM      1  C   UNL     1       2.708   2.326   5.084  1.00  0.00     0.274 C 
ENDROOT
BRANCH   1   2
ATOM      2  O   UNL     1       3.201   2.508   3.739  1.00  0.00    -0.462 OA
BRANCH   2   3
ATOM      3  C   UNL     1       3.864   3.587   3.263  1.00  0.00     0.306 C 
ATOM      4  O   UNL     1       4.292   3.574   2.111  1.00  0.00    -0.252 OA
BRANCH   3   5
ATOM      5  C   UNL     1       4.107   4.781   4.163  1.00  0.00     0.126 C 
BRANCH   5   6
ATOM      6  C   UNL     1       3.229   6.039   4.023  1.00  0.00     0.011 C 
ATOM      7  C   UNL     1       1.744   5.850   4.329  1.00  0.00     0.066 C 
ATOM      8  C   UNL     1       3.361   6.780   2.690  1.00  0.00     0.066 C 
ATOM      9  C   UNL     1       0.992   5.159   3.196  1.00  0.00     0.262 C 
ATOM     10  C   UNL     1       2.560   6.155   1.547  1.00  0.00     0.262 C 
ATOM     11  N   UNL     1       1.187   5.782   1.895  1.00  0.00    -0.332 N 
ATOM     12  H   UNL     1       0.715   6.677   2.025  1.00  0.00     0.348 HD
BRANCH  11  13
ATOM     13  C   UNL     1       0.502   5.082   0.783  1.00  0.00     0.311 C 
BRANCH  13  14
ATOM     14  C   UNL     1       1.075   3.761   0.190  1.00  0.00     0.265 C 
ATOM     15  C   UNL     1       0.784   2.516   1.027  1.00  0.00     0.281 C 
ATOM     16  O   UNL     1       0.457   3.583  -1.111  1.00  0.00    -0.477 OA
ATOM     17  O   UNL     1       1.421   1.358   0.469  1.00  0.00    -0.486 OA
ATOM     18  C   UNL     1       0.747   2.352  -1.644  1.00  0.00     0.162 A 
ATOM     19  C   UNL     1       1.235   1.287  -0.883  1.00  0.00     0.161 A 
ATOM     20  C   UNL     1       0.520   2.182  -3.007  1.00  0.00     0.050 A 
ATOM     21  C   UNL     1       1.555   0.074  -1.491  1.00  0.00     0.050 A 
ATOM     22  C   UNL     1       0.816   0.959  -3.614  1.00  0.00     0.004 A 
ATOM     23  C   UNL     1       1.343  -0.091  -2.859  1.00  0.00     0.004 A 
ENDBRANCH  13  14
ENDBRANCH  11  13
ENDBRANCH   5   6
ENDBRANCH   3   5
ENDBRANCH   2   3
ENDBRANCH   1   2
BRANCH   1  24
ATOM     24  C   UNL     1       3.691   1.538   5.949  1.00  0.00     0.275 C 
BRANCH  24  25
ATOM     25  O   UNL     1       4.959   2.210   5.977  1.00  0.00    -0.458 OA
BRANCH  25  26
ATOM     26  C   UNL     1       5.878   1.730   5.099  1.00  0.00     0.338 C 
ATOM     27  O   UNL     1       5.815   0.701   4.458  1.00  0.00    -0.246 OA
BRANCH  26  28
ATOM     28  C   UNL     1       6.910   2.769   4.893  1.00  0.00     0.060 A 
ATOM     29  C   UNL     1       7.376   2.985   3.590  1.00  0.00     0.016 A 
ATOM     30  C   UNL     1       7.387   3.544   5.954  1.00  0.00     0.016 A 
ATOM     31  C   UNL     1       8.348   3.955   3.348  1.00  0.00     0.010 A 
ATOM     32  C   UNL     1       8.364   4.509   5.713  1.00  0.00     0.010 A 
ATOM     33  C   UNL     1       8.869   4.697   4.415  1.00  0.00    -0.014 A 
BRANCH  33  34
ATOM     34  C   UNL     1      10.072   5.538   4.231  1.00  0.00     0.031 A 
ATOM     35  C   UNL     1      11.411   4.935   4.544  1.00  0.00     0.074 A 
ATOM     36  C   UNL     1       9.976   6.824   3.855  1.00  0.00     0.049 A 
ATOM     37  N   UNL     1      12.590   5.499   4.564  1.00  0.00    -0.248 NA
ATOM     38  C   UNL     1      11.415   3.506   4.898  1.00  0.00     0.031 C 
ATOM     39  C   UNL     1       8.739   7.519   3.507  1.00  0.00     0.029 A 
ATOM     40  N   UNL     1      10.951   7.782   3.733  1.00  0.00    -0.354 N 
ATOM     41  C   UNL     1      13.474   4.497   4.941  1.00  0.00     0.074 A 
ATOM     42  C   UNL     1      12.695   3.299   5.165  1.00  0.00     0.031 C 
ATOM     43  C   UNL     1       9.026   8.805   3.238  1.00  0.00     0.029 A 
ATOM     44  C   UNL     1      10.460   9.025   3.421  1.00  0.00     0.049 A 
ATOM     45  H   UNL     1      11.910   7.596   3.857  1.00  0.00     0.167 HD
ATOM     46  C   UNL     1      14.818   4.566   5.089  1.00  0.00     0.031 A 
ATOM     47  C   UNL     1      11.094  10.209   3.324  1.00  0.00     0.031 A 
ATOM     48  C   UNL     1      15.592   5.758   4.890  1.00  0.00     0.049 A 
ATOM     49  C   UNL     1      12.581  10.279   3.555  1.00  0.00     0.074 A 
ATOM     50  C   UNL     1      16.962   5.922   4.983  1.00  0.00     0.029 A 
ATOM     51  N   UNL     1      15.057   6.997   4.574  1.00  0.00    -0.354 N 
ATOM     52  N   UNL     1      13.417   9.314   3.855  1.00  0.00    -0.248 NA
ATOM     53  C   UNL     1      13.212  11.602   3.429  1.00  0.00     0.031 C 
ATOM     54  C   UNL     1      17.252   7.275   4.774  1.00  0.00     0.029 A 
ATOM     55  C   UNL     1      16.067   7.940   4.502  1.00  0.00     0.049 A 
ATOM     56  H   UNL     1      14.102   7.179   4.423  1.00  0.00     0.167 HD
ATOM     57  C   UNL     1      14.672   9.907   3.928  1.00  0.00     0.074 A 
ATOM     58  C   UNL     1      14.490  11.313   3.636  1.00  0.00     0.031 C 
ATOM     59  C   UNL     1      15.869   9.335   4.207  1.00  0.00     0.031 A 
BRANCH  46  60
ATOM     60  C   UNL     1      15.518   3.314   5.529  1.00  0.00    -0.014 A 
ATOM     61  C   UNL     1      15.679   2.226   4.658  1.00  0.00     0.009 A 
ATOM     62  C   UNL     1      16.019   3.223   6.836  1.00  0.00     0.009 A 
ATOM     63  C   UNL     1      16.294   1.053   5.101  1.00  0.00     0.001 A 
ATOM     64  C   UNL     1      16.654   2.058   7.269  1.00  0.00     0.001 A 
ATOM     65  C   UNL     1      16.782   0.971   6.405  1.00  0.00     0.000 A 
ENDBRANCH  46  60
BRANCH  47  66
ATOM     66  C   UNL     1      10.320  11.439   3.018  1.00  0.00    -0.014 A 
ATOM     67  C   UNL     1      10.421  12.054   1.762  1.00  0.00     0.009 A 
ATOM     68  C   UNL     1       9.480  12.008   3.989  1.00  0.00     0.009 A 
ATOM     69  C   UNL     1       9.710  13.226   1.490  1.00  0.00     0.001 A 
ATOM     70  C   UNL     1       8.753  13.165   3.706  1.00  0.00     0.001 A 
ATOM     71  C   UNL     1       8.874  13.777   2.460  1.00  0.00     0.000 A 
ENDBRANCH  47  66
BRANCH  59  72
ATOM     72  C   UNL     1      17.085  10.216   4.181  1.00  0.00    -0.014 A 
ATOM     73  C   UNL     1      17.361  11.104   5.231  1.00  0.00     0.009 A 
ATOM     74  C   UNL     1      18.006  10.094   3.129  1.00  0.00     0.009 A 
ATOM     75  C   UNL     1      18.532  11.866   5.219  1.00  0.00     0.001 A 
ATOM     76  C   UNL     1      19.186  10.839   3.132  1.00  0.00     0.001 A 
ATOM     77  C   UNL     1      19.446  11.727   4.174  1.00  0.00     0.000 A 
ENDBRANCH  59  72
ENDBRANCH  33  34
ENDBRANCH  26  28
ENDBRANCH  25  26
ENDBRANCH  24  25
ENDBRANCH   1  24
TORSDOF 14
