REMARK SMILES O=C(CC[C@H](O)c1cncn1C1CC1)OCCOC(=O)c1ccc(-c2c3nc(c(-c4ccccc4)c4ccc([nH]4)c(-c4ccccc4)c4nc(c(-c5ccccc5)c5ccc2[nH]5)C=C4)C=C3)cc1
REMARK SMILES IDX 16 1 15 2 2 3 1 4 3 5 4 6 5 7 7 8 8 9 11 10 9 11 10 12 12 13
REMARK SMILES IDX 13 14 14 15 6 16 17 18 18 19 19 20 20 21 21 22 22 23 68 24
REMARK SMILES IDX 23 25 67 26 24 27 25 28 26 29 61 30 27 31 66 32 60 33 62 34
REMARK SMILES IDX 28 35 65 36 59 37 58 38 29 40 51 41 36 42 50 43 37 44 40 45
REMARK SMILES IDX 49 46 63 47 38 48 39 49 48 51 64 52 41 53 30 54 31 55 35 56
REMARK SMILES IDX 32 57 34 58 33 59 52 60 53 61 57 62 54 63 56 64 55 65 42 66
REMARK SMILES IDX 43 67 47 68 44 69 46 70 45 71
REMARK H PARENT 6 17 62 39 40 50
REMARK Flexibility Score: inf
ROOT
ATOM      1  C   UNL     1       2.050  -0.875  -0.869  1.00  0.00     0.274 C 
ENDROOT
BRANCH   1   2
ATOM      2  O   UNL     1       2.797  -2.032  -0.396  1.00  0.00    -0.462 OA
BRANCH   2   3
ATOM      3  C   UNL     1       4.022  -2.104   0.177  1.00  0.00     0.306 C 
ATOM      4  O   UNL     1       4.525  -3.203   0.406  1.00  0.00    -0.252 OA
BRANCH   3   5
ATOM      5  C   UNL     1       4.810  -0.847   0.482  1.00  0.00     0.126 C 
BRANCH   5   6
ATOM      6  C   UNL     1       5.884  -0.466  -0.528  1.00  0.00     0.050 C 
BRANCH   6   7
ATOM      7  C   UNL     1       5.309  -0.031  -1.873  1.00  0.00     0.163 C 
BRANCH   7   8
ATOM      8  C   UNL     1       6.289   0.121  -2.954  1.00  0.00     0.066 A 
ATOM      9  C   UNL     1       6.694   1.315  -3.529  1.00  0.00     0.137 A 
ATOM     10  N   UNL     1       6.935  -0.850  -3.687  1.00  0.00    -0.329 N 
ATOM     11  N   UNL     1       7.549   1.110  -4.569  1.00  0.00    -0.245 NA
ATOM     12  C   UNL     1       7.663  -0.195  -4.649  1.00  0.00     0.199 A 
BRANCH  10  13
ATOM     13  C   UNL     1       6.971  -2.307  -3.617  1.00  0.00     0.088 C 
ATOM     14  C   UNL     1       6.553  -3.202  -2.472  1.00  0.00     0.027 C 
ATOM     15  C   UNL     1       5.747  -3.198  -3.725  1.00  0.00     0.027 C 
ENDBRANCH  10  13
ENDBRANCH   7   8
BRANCH   7  16
ATOM     16  O   UNL     1       4.300  -0.843  -2.419  1.00  0.00    -0.387 OA
ATOM     17  H   UNL     1       4.681  -1.693  -2.689  1.00  0.00     0.211 HD
ENDBRANCH   7  16
ENDBRANCH   6   7
ENDBRANCH   5   6
ENDBRANCH   3   5
ENDBRANCH   2   3
ENDBRANCH   1   2
BRANCH   1  18
ATOM     18  C   UNL     1       1.100  -0.282   0.148  1.00  0.00     0.275 C 
BRANCH  18  19
ATOM     19  O   UNL     1       1.857   0.131   1.268  1.00  0.00    -0.458 OA
BRANCH  19  20
ATOM     20  C   UNL     1       2.126  -0.840   2.178  1.00  0.00     0.338 C 
ATOM     21  O   UNL     1       1.723  -1.976   2.189  1.00  0.00    -0.246 OA
BRANCH  20  22
ATOM     22  C   UNL     1       2.905  -0.191   3.248  1.00  0.00     0.060 A 
ATOM     23  C   UNL     1       2.738  -0.788   4.492  1.00  0.00     0.016 A 
ATOM     24  C   UNL     1       3.197   1.172   3.090  1.00  0.00     0.016 A 
ATOM     25  C   UNL     1       2.426   0.048   5.532  1.00  0.00     0.010 A 
ATOM     26  C   UNL     1       2.809   2.000   4.099  1.00  0.00     0.010 A 
ATOM     27  C   UNL     1       2.331   1.418   5.267  1.00  0.00    -0.014 A 
BRANCH  27  28
ATOM     28  C   UNL     1       1.894   2.297   6.316  1.00  0.00     0.031 A 
ATOM     29  C   UNL     1       3.038   2.628   7.182  1.00  0.00     0.074 A 
ATOM     30  C   UNL     1       0.655   2.812   6.381  1.00  0.00     0.049 A 
ATOM     31  N   UNL     1       3.372   2.009   8.264  1.00  0.00    -0.248 NA
ATOM     32  C   UNL     1       4.099   3.489   6.625  1.00  0.00     0.031 C 
ATOM     33  C   UNL     1      -0.429   2.750   5.399  1.00  0.00     0.029 A 
ATOM     34  N   UNL     1       0.135   3.603   7.350  1.00  0.00    -0.354 N 
ATOM     35  C   UNL     1       4.541   2.633   8.666  1.00  0.00     0.074 A 
ATOM     36  C   UNL     1       5.090   3.237   7.482  1.00  0.00     0.031 C 
ATOM     37  C   UNL     1      -1.372   3.671   5.721  1.00  0.00     0.029 A 
ATOM     38  C   UNL     1      -1.018   4.287   6.990  1.00  0.00     0.049 A 
ATOM     39  H   UNL     1       0.544   3.686   8.242  1.00  0.00     0.167 HD
ATOM     40  C   UNL     1       4.695   3.002   9.967  1.00  0.00     0.031 A 
ATOM     41  C   UNL     1      -1.569   5.324   7.673  1.00  0.00     0.031 A 
ATOM     42  C   UNL     1       3.754   2.302  10.817  1.00  0.00     0.049 A 
ATOM     43  C   UNL     1      -1.003   5.297   9.048  1.00  0.00     0.074 A 
ATOM     44  C   UNL     1       3.441   0.974  11.039  1.00  0.00     0.029 A 
ATOM     45  N   UNL     1       2.670   3.026  11.258  1.00  0.00    -0.354 N 
ATOM     46  N   UNL     1      -1.274   4.359   9.910  1.00  0.00    -0.248 NA
ATOM     47  C   UNL     1       0.237   6.023   9.286  1.00  0.00     0.031 C 
ATOM     48  C   UNL     1       2.022   0.944  11.186  1.00  0.00     0.029 A 
ATOM     49  C   UNL     1       1.546   2.254  11.140  1.00  0.00     0.049 A 
ATOM     50  H   UNL     1       2.698   3.948  11.601  1.00  0.00     0.167 HD
ATOM     51  C   UNL     1      -0.052   4.061  10.498  1.00  0.00     0.074 A 
ATOM     52  C   UNL     1       0.823   5.181  10.144  1.00  0.00     0.031 C 
ATOM     53  C   UNL     1       0.219   2.796  10.940  1.00  0.00     0.031 A 
BRANCH  40  54
ATOM     54  C   UNL     1       5.275   4.348  10.355  1.00  0.00    -0.014 A 
ATOM     55  C   UNL     1       5.343   4.661  11.722  1.00  0.00     0.009 A 
ATOM     56  C   UNL     1       5.478   5.418   9.459  1.00  0.00     0.009 A 
ATOM     57  C   UNL     1       5.489   5.983  12.158  1.00  0.00     0.001 A 
ATOM     58  C   UNL     1       5.663   6.732   9.888  1.00  0.00     0.001 A 
ATOM     59  C   UNL     1       5.635   7.019  11.241  1.00  0.00     0.000 A 
ENDBRANCH  40  54
BRANCH  41  60
ATOM     60  C   UNL     1      -2.285   6.515   7.158  1.00  0.00    -0.014 A 
ATOM     61  C   UNL     1      -2.983   7.366   8.034  1.00  0.00     0.009 A 
ATOM     62  C   UNL     1      -2.046   6.982   5.854  1.00  0.00     0.009 A 
ATOM     63  C   UNL     1      -3.383   8.649   7.633  1.00  0.00     0.001 A 
ATOM     64  C   UNL     1      -2.448   8.262   5.452  1.00  0.00     0.001 A 
ATOM     65  C   UNL     1      -3.102   9.102   6.347  1.00  0.00     0.000 A 
ENDBRANCH  41  60
BRANCH  53  66
ATOM     66  C   UNL     1      -0.928   1.818  11.030  1.00  0.00    -0.014 A 
ATOM     67  C   UNL     1      -1.691   1.400   9.924  1.00  0.00     0.009 A 
ATOM     68  C   UNL     1      -1.152   1.194  12.265  1.00  0.00     0.009 A 
ATOM     69  C   UNL     1      -2.671   0.409  10.066  1.00  0.00     0.001 A 
ATOM     70  C   UNL     1      -2.113   0.192  12.401  1.00  0.00     0.001 A 
ATOM     71  C   UNL     1      -2.878  -0.196  11.304  1.00  0.00     0.000 A 
ENDBRANCH  53  66
ENDBRANCH  27  28
ENDBRANCH  20  22
ENDBRANCH  19  20
ENDBRANCH  18  19
ENDBRANCH   1  18
TORSDOF 16
