REMARK SMILES O=C(OCCOC(=O)c1cccc(NC(=S)N/N=C\c2c[nH]c3ccccc23)c1)c1ccc(-c2c3nc(c(-c4ccccc4)c4ccc([nH]4)c(-c4ccccc4)c4nc(c(-c5ccccc5)c5ccc2[nH]5)C=C4)C=C3)cc1
REMARK SMILES IDX 6 1 5 2 4 3 3 4 2 5 1 6 30 7 31 8 77 9 32 10 76 11 33 12
REMARK SMILES IDX 34 13 35 14 70 15 36 16 75 17 69 18 71 19 37 20 74 21 68 22
REMARK SMILES IDX 67 23 38 25 60 26 45 27 59 28 46 29 49 30 58 31 72 32 47 33
REMARK SMILES IDX 48 34 57 36 73 37 50 38 39 39 40 40 44 41 41 42 43 43 42 44
REMARK SMILES IDX 61 45 62 46 66 47 63 48 65 49 64 50 51 51 52 52 56 53 53 54
REMARK SMILES IDX 55 55 54 56 7 57 8 58 9 59 10 60 29 61 11 62 13 63 12 64
REMARK SMILES IDX 14 65 15 67 16 68 17 69 18 71 19 72 20 73 21 74 28 75 22 76
REMARK SMILES IDX 23 77 27 78 24 80 26 81 25 82
REMARK H PARENT 71 24 49 35 14 66 17 70 22 79
REMARK Flexibility Score: inf
ROOT
ATOM      1  O   UNL     1       3.475  -0.828   1.985  1.00  0.00    -0.458 OA
ENDROOT
BRANCH   1   2
ATOM      2  C   UNL     1       4.080   0.458   2.183  1.00  0.00     0.275 C 
BRANCH   2   3
ATOM      3  C   UNL     1       4.194   1.252   0.877  1.00  0.00     0.275 C 
BRANCH   3   4
ATOM      4  O   UNL     1       3.154   0.984  -0.083  1.00  0.00    -0.458 OA
BRANCH   4   5
ATOM      5  C   UNL     1       3.194   0.092  -1.104  1.00  0.00     0.338 C 
ATOM      6  O   UNL     1       2.474   0.251  -2.087  1.00  0.00    -0.246 OA
BRANCH   5   7
ATOM      7  C   UNL     1       3.921  -1.204  -0.972  1.00  0.00     0.060 A 
ATOM      8  C   UNL     1       5.234  -1.349  -0.516  1.00  0.00     0.016 A 
ATOM      9  C   UNL     1       3.224  -2.353  -1.377  1.00  0.00     0.016 A 
ATOM     10  C   UNL     1       5.802  -2.619  -0.364  1.00  0.00     0.010 A 
ATOM     11  C   UNL     1       3.793  -3.623  -1.237  1.00  0.00     0.010 A 
ATOM     12  C   UNL     1       5.083  -3.767  -0.709  1.00  0.00    -0.014 A 
BRANCH  12  13
ATOM     13  C   UNL     1       5.742  -5.096  -0.702  1.00  0.00     0.031 A 
ATOM     14  C   UNL     1       6.191  -5.650  -2.028  1.00  0.00     0.074 A 
ATOM     15  C   UNL     1       6.021  -5.741   0.451  1.00  0.00     0.049 A 
ATOM     16  N   UNL     1       6.829  -6.760  -2.287  1.00  0.00    -0.248 NA
ATOM     17  C   UNL     1       5.933  -4.813  -3.216  1.00  0.00     0.031 C 
ATOM     18  C   UNL     1       5.809  -5.210   1.800  1.00  0.00     0.029 A 
ATOM     19  N   UNL     1       6.578  -6.977   0.678  1.00  0.00    -0.354 N 
ATOM     20  C   UNL     1       7.100  -6.721  -3.651  1.00  0.00     0.074 A 
ATOM     21  C   UNL     1       6.483  -5.530  -4.183  1.00  0.00     0.031 C 
ATOM     22  C   UNL     1       6.272  -6.095   2.705  1.00  0.00     0.029 A 
ATOM     23  C   UNL     1       6.741  -7.291   2.013  1.00  0.00     0.049 A 
ATOM     24  H   UNL     1       6.840  -7.586  -0.049  1.00  0.00     0.167 HD
ATOM     25  C   UNL     1       7.850  -7.574  -4.387  1.00  0.00     0.031 A 
ATOM     26  C   UNL     1       7.186  -8.431   2.586  1.00  0.00     0.031 A 
ATOM     27  C   UNL     1       8.430  -8.774  -3.859  1.00  0.00     0.049 A 
ATOM     28  C   UNL     1       7.569  -9.555   1.643  1.00  0.00     0.074 A 
ATOM     29  C   UNL     1       9.222  -9.712  -4.494  1.00  0.00     0.029 A 
ATOM     30  N   UNL     1       8.247  -9.209  -2.557  1.00  0.00    -0.354 N 
ATOM     31  N   UNL     1       7.847  -9.499   0.361  1.00  0.00    -0.248 NA
ATOM     32  C   UNL     1       7.678 -10.903   2.219  1.00  0.00     0.031 C 
ATOM     33  C   UNL     1       9.476 -10.745  -3.583  1.00  0.00     0.029 A 
ATOM     34  C   UNL     1       8.877 -10.424  -2.373  1.00  0.00     0.049 A 
ATOM     35  H   UNL     1       7.742  -8.724  -1.864  1.00  0.00     0.167 HD
ATOM     36  C   UNL     1       8.306 -10.766   0.018  1.00  0.00     0.074 A 
ATOM     37  C   UNL     1       8.189 -11.588   1.205  1.00  0.00     0.031 C 
ATOM     38  C   UNL     1       8.832 -11.191  -1.157  1.00  0.00     0.031 A 
BRANCH  25  39
ATOM     39  C   UNL     1       8.084  -7.211  -5.824  1.00  0.00    -0.014 A 
ATOM     40  C   UNL     1       8.947  -6.153  -6.160  1.00  0.00     0.009 A 
ATOM     41  C   UNL     1       7.435  -7.911  -6.849  1.00  0.00     0.009 A 
ATOM     42  C   UNL     1       9.127  -5.782  -7.494  1.00  0.00     0.001 A 
ATOM     43  C   UNL     1       7.633  -7.551  -8.184  1.00  0.00     0.001 A 
ATOM     44  C   UNL     1       8.470  -6.481  -8.505  1.00  0.00     0.000 A 
ENDBRANCH  25  39
BRANCH  26  45
ATOM     45  C   UNL     1       7.254  -8.665   4.072  1.00  0.00    -0.014 A 
ATOM     46  C   UNL     1       8.410  -9.181   4.677  1.00  0.00     0.009 A 
ATOM     47  C   UNL     1       6.126  -8.536   4.891  1.00  0.00     0.009 A 
ATOM     48  C   UNL     1       8.391  -9.635   6.006  1.00  0.00     0.001 A 
ATOM     49  C   UNL     1       6.092  -8.992   6.211  1.00  0.00     0.001 A 
ATOM     50  C   UNL     1       7.226  -9.562   6.765  1.00  0.00     0.000 A 
ENDBRANCH  26  45
BRANCH  38  51
ATOM     51  C   UNL     1       9.523 -12.522  -1.154  1.00  0.00    -0.014 A 
ATOM     52  C   UNL     1       8.824 -13.734  -1.187  1.00  0.00     0.009 A 
ATOM     53  C   UNL     1      10.929 -12.540  -1.160  1.00  0.00     0.009 A 
ATOM     54  C   UNL     1       9.524 -14.943  -1.198  1.00  0.00     0.001 A 
ATOM     55  C   UNL     1      11.624 -13.746  -1.200  1.00  0.00     0.001 A 
ATOM     56  C   UNL     1      10.920 -14.948  -1.211  1.00  0.00     0.000 A 
ENDBRANCH  38  51
ENDBRANCH  12  13
ENDBRANCH   5   7
ENDBRANCH   4   5
ENDBRANCH   3   4
ENDBRANCH   2   3
ENDBRANCH   1   2
BRANCH   1  57
ATOM     57  C   UNL     1       2.153  -0.868   2.286  1.00  0.00     0.338 C 
ATOM     58  O   UNL     1       1.518  -0.017   2.889  1.00  0.00    -0.246 OA
BRANCH  57  59
ATOM     59  C   UNL     1       1.512  -2.015   1.617  1.00  0.00     0.062 A 
ATOM     60  C   UNL     1       0.322  -1.758   0.925  1.00  0.00     0.016 A 
ATOM     61  C   UNL     1       2.055  -3.303   1.634  1.00  0.00     0.041 A 
ATOM     62  C   UNL     1      -0.346  -2.790   0.275  1.00  0.00     0.003 A 
ATOM     63  C   UNL     1       1.357  -4.341   1.008  1.00  0.00     0.041 A 
ATOM     64  C   UNL     1       0.158  -4.084   0.339  1.00  0.00     0.026 A 
BRANCH  63  65
ATOM     65  N   UNL     1       1.933  -5.617   0.925  1.00  0.00    -0.331 N 
ATOM     66  H   UNL     1       2.917  -5.656   0.953  1.00  0.00     0.169 HD
BRANCH  65  67
ATOM     67  C   UNL     1       1.281  -6.808   0.808  1.00  0.00     0.191 C 
ATOM     68  S   UNL     1       1.960  -8.025  -0.121  1.00  0.00    -0.039 S 
BRANCH  67  69
ATOM     69  N   UNL     1       0.145  -7.057   1.539  1.00  0.00    -0.254 N 
ATOM     70  H   UNL     1      -0.373  -7.855   1.283  1.00  0.00     0.193 HD
BRANCH  69  71
ATOM     71  N   UNL     1      -0.356  -6.311   2.595  1.00  0.00    -0.181 NA
ATOM     72  C   UNL     1       0.247  -6.373   3.754  1.00  0.00     0.143 C 
BRANCH  72  73
ATOM     73  C   UNL     1       1.464  -7.120   3.952  1.00  0.00     0.020 A 
ATOM     74  C   UNL     1       2.705  -6.641   3.579  1.00  0.00     0.093 A 
ATOM     75  C   UNL     1       1.669  -8.466   4.366  1.00  0.00     0.008 A 
ATOM     76  N   UNL     1       3.375  -7.748   3.139  1.00  0.00    -0.361 N 
ATOM     77  C   UNL     1       2.837  -8.870   3.719  1.00  0.00     0.046 A 
ATOM     78  C   UNL     1       0.959  -9.422   5.114  1.00  0.00     0.011 A 
ATOM     79  H   UNL     1       4.127  -7.742   2.505  1.00  0.00     0.166 HD
ATOM     80  C   UNL     1       3.287 -10.191   3.690  1.00  0.00     0.027 A 
ATOM     81  C   UNL     1       1.463 -10.729   5.195  1.00  0.00     0.001 A 
ATOM     82  C   UNL     1       2.589 -11.112   4.467  1.00  0.00     0.002 A 
ENDBRANCH  72  73
ENDBRANCH  69  71
ENDBRANCH  67  69
ENDBRANCH  65  67
ENDBRANCH  63  65
ENDBRANCH  57  59
ENDBRANCH   1  57
TORSDOF 16
