REMARK SMILES COc1cccc([C@@H]2[NH2+][C@@](C)(C(=O)OCCOC(=O)c3ccc(-c4c5nc(c(-c6ccccc6)c6ccc([nH]6)c(-c6ccccc6)c6nc(c(-c7ccccc7)c7ccc4[nH]7)C=C6)C=C5)cc3)[C@@H]3C(=O)N(C)C(=O)[C@@H]32)c1O
REMARK SMILES IDX 15 1 14 2 12 3 13 4 10 5 8 6 9 7 75 8 68 11 73 12 11 13
REMARK SMILES IDX 69 14 71 15 74 16 70 17 72 18 7 19 3 20 4 21 76 22 5 23 6 24
REMARK SMILES IDX 2 25 1 26 77 27 16 29 17 30 18 31 19 32 20 33 21 34 67 35
REMARK SMILES IDX 22 36 66 37 23 38 24 39 25 40 60 41 26 42 65 43 59 44 61 45
REMARK SMILES IDX 27 46 64 47 58 48 57 49 28 51 50 52 35 53 49 54 36 55 39 56
REMARK SMILES IDX 48 57 62 58 37 59 38 60 47 62 63 63 40 64 29 65 30 66 34 67
REMARK SMILES IDX 31 68 33 69 32 70 51 71 52 72 56 73 53 74 55 75 54 76 41 77
REMARK SMILES IDX 42 78 46 79 43 80 45 81 44 82
REMARK H PARENT 9 9 9 10 77 28 61 50 39 61
REMARK Flexibility Score: inf
ROOT
ATOM      1  C   UNL     1      -6.695  -4.091   3.160  1.00  0.00     0.274 C 
ENDROOT
BRANCH   1   2
ATOM      2  O   UNL     1      -5.553  -3.209   3.099  1.00  0.00    -0.457 OA
BRANCH   2   3
ATOM      3  C   UNL     1      -4.509  -3.665   2.358  1.00  0.00     0.368 C 
ATOM      4  O   UNL     1      -4.537  -4.722   1.729  1.00  0.00    -0.245 OA
BRANCH   3   5
ATOM      5  C   UNL     1      -3.251  -2.749   2.347  1.00  0.00     0.204 C 
ATOM      6  C   UNL     1      -3.622  -0.394   1.910  1.00  0.00     0.232 C 
ATOM      7  N   UNL     1      -3.471  -1.412   2.978  1.00  0.00    -0.325 N 
ATOM      8  C   UNL     1      -3.629  -1.149   0.587  1.00  0.00     0.161 C 
ATOM      9  H   UNL     1      -4.317  -1.437   3.548  1.00  0.00     0.347 HD
ATOM     10  H   UNL     1      -2.676  -1.174   3.570  1.00  0.00     0.347 HD
ATOM     11  C   UNL     1      -2.972  -2.485   0.877  1.00  0.00     0.170 C 
ATOM     12  C   UNL     1      -2.801  -0.621  -0.553  1.00  0.00     0.239 C 
ATOM     13  C   UNL     1      -2.186  -3.537   3.112  1.00  0.00     0.093 C 
ATOM     14  C   UNL     1      -1.577  -2.326   0.341  1.00  0.00     0.240 C 
ATOM     15  N   UNL     1      -1.626  -1.321  -0.592  1.00  0.00    -0.285 N 
ATOM     16  O   UNL     1      -3.147   0.275  -1.309  1.00  0.00    -0.274 OA
ATOM     17  O   UNL     1      -0.630  -3.058   0.577  1.00  0.00    -0.274 OA
ATOM     18  C   UNL     1      -0.580  -1.054  -1.547  1.00  0.00     0.156 C 
BRANCH   6  19
ATOM     19  C   UNL     1      -2.639   0.765   1.932  1.00  0.00     0.056 A 
ATOM     20  C   UNL     1      -0.375   1.657   1.820  1.00  0.00     0.161 A 
ATOM     21  C   UNL     1      -0.852   2.900   1.422  1.00  0.00     0.050 A 
ATOM     22  C   UNL     1      -1.262   0.619   2.124  1.00  0.00     0.166 A 
ATOM     23  C   UNL     1      -2.225   3.094   1.299  1.00  0.00     0.005 A 
ATOM     24  C   UNL     1      -3.107   2.036   1.541  1.00  0.00     0.014 A 
BRANCH  20  25
ATOM     25  O   UNL     1       0.978   1.463   1.935  1.00  0.00    -0.493 OA
ATOM     26  C   UNL     1       1.495   0.840   0.754  1.00  0.00     0.278 C 
ENDBRANCH  20  25
BRANCH  22  27
ATOM     27  O   UNL     1      -0.764  -0.566   2.586  1.00  0.00    -0.504 OA
ATOM     28  H   UNL     1       0.159  -0.668   2.716  1.00  0.00     0.293 HD
ENDBRANCH  22  27
ENDBRANCH   6  19
ENDBRANCH   3   5
ENDBRANCH   2   3
ENDBRANCH   1   2
BRANCH   1  29
ATOM     29  C   UNL     1      -7.833  -3.603   2.266  1.00  0.00     0.275 C 
BRANCH  29  30
ATOM     30  O   UNL     1      -7.394  -3.515   0.898  1.00  0.00    -0.458 OA
BRANCH  30  31
ATOM     31  C   UNL     1      -7.520  -2.295   0.324  1.00  0.00     0.338 C 
ATOM     32  O   UNL     1      -8.001  -1.294   0.828  1.00  0.00    -0.246 OA
BRANCH  31  33
ATOM     33  C   UNL     1      -6.921  -2.277  -1.029  1.00  0.00     0.060 A 
ATOM     34  C   UNL     1      -5.742  -2.968  -1.296  1.00  0.00     0.016 A 
ATOM     35  C   UNL     1      -7.427  -1.388  -1.979  1.00  0.00     0.016 A 
ATOM     36  C   UNL     1      -4.982  -2.627  -2.419  1.00  0.00     0.010 A 
ATOM     37  C   UNL     1      -6.737  -1.175  -3.178  1.00  0.00     0.010 A 
ATOM     38  C   UNL     1      -5.471  -1.745  -3.397  1.00  0.00    -0.014 A 
BRANCH  38  39
ATOM     39  C   UNL     1      -4.691  -1.407  -4.634  1.00  0.00     0.031 A 
ATOM     40  C   UNL     1      -4.560   0.028  -5.102  1.00  0.00     0.074 A 
ATOM     41  C   UNL     1      -4.124  -2.374  -5.387  1.00  0.00     0.049 A 
ATOM     42  N   UNL     1      -4.240   0.488  -6.289  1.00  0.00    -0.248 NA
ATOM     43  C   UNL     1      -4.854   1.082  -4.118  1.00  0.00     0.031 C 
ATOM     44  C   UNL     1      -4.094  -3.804  -5.073  1.00  0.00     0.029 A 
ATOM     45  N   UNL     1      -3.464  -2.295  -6.593  1.00  0.00    -0.354 N 
ATOM     46  C   UNL     1      -4.382   1.871  -6.216  1.00  0.00     0.074 A 
ATOM     47  C   UNL     1      -4.804   2.177  -4.865  1.00  0.00     0.031 C 
ATOM     48  C   UNL     1      -3.410  -4.455  -6.022  1.00  0.00     0.029 A 
ATOM     49  C   UNL     1      -3.078  -3.519  -7.086  1.00  0.00     0.049 A 
ATOM     50  H   UNL     1      -3.286  -1.445  -7.057  1.00  0.00     0.167 HD
ATOM     51  C   UNL     1      -4.189   2.799  -7.187  1.00  0.00     0.031 A 
ATOM     52  C   UNL     1      -2.590  -3.884  -8.286  1.00  0.00     0.031 A 
ATOM     53  C   UNL     1      -3.693   2.504  -8.508  1.00  0.00     0.049 A 
ATOM     54  C   UNL     1      -2.428  -2.856  -9.362  1.00  0.00     0.074 A 
ATOM     55  C   UNL     1      -3.438   3.380  -9.550  1.00  0.00     0.029 A 
ATOM     56  N   UNL     1      -3.352   1.240  -8.959  1.00  0.00    -0.354 N 
ATOM     57  N   UNL     1      -2.659  -1.568  -9.313  1.00  0.00    -0.248 NA
ATOM     58  C   UNL     1      -1.964  -3.338 -10.671  1.00  0.00     0.031 C 
ATOM     59  C   UNL     1      -2.981   2.640 -10.646  1.00  0.00     0.029 A 
ATOM     60  C   UNL     1      -2.901   1.311 -10.268  1.00  0.00     0.049 A 
ATOM     61  H   UNL     1      -3.419   0.413  -8.429  1.00  0.00     0.167 HD
ATOM     62  C   UNL     1      -2.360  -1.083 -10.578  1.00  0.00     0.074 A 
ATOM     63  C   UNL     1      -1.911  -2.212 -11.367  1.00  0.00     0.031 C 
ATOM     64  C   UNL     1      -2.455   0.185 -11.044  1.00  0.00     0.031 A 
BRANCH  51  65
ATOM     65  C   UNL     1      -4.555   4.229  -6.884  1.00  0.00    -0.014 A 
ATOM     66  C   UNL     1      -3.783   5.030  -6.030  1.00  0.00     0.009 A 
ATOM     67  C   UNL     1      -5.665   4.803  -7.528  1.00  0.00     0.009 A 
ATOM     68  C   UNL     1      -4.134   6.365  -5.804  1.00  0.00     0.001 A 
ATOM     69  C   UNL     1      -5.996   6.144  -7.323  1.00  0.00     0.001 A 
ATOM     70  C   UNL     1      -5.235   6.922  -6.454  1.00  0.00     0.000 A 
ENDBRANCH  51  65
BRANCH  52  71
ATOM     71  C   UNL     1      -2.303  -5.319  -8.554  1.00  0.00    -0.014 A 
ATOM     72  C   UNL     1      -0.982  -5.766  -8.696  1.00  0.00     0.009 A 
ATOM     73  C   UNL     1      -3.350  -6.252  -8.639  1.00  0.00     0.009 A 
ATOM     74  C   UNL     1      -0.716  -7.118  -8.923  1.00  0.00     0.001 A 
ATOM     75  C   UNL     1      -3.079  -7.607  -8.830  1.00  0.00     0.001 A 
ATOM     76  C   UNL     1      -1.763  -8.038  -8.979  1.00  0.00     0.000 A 
ENDBRANCH  52  71
BRANCH  64  77
ATOM     77  C   UNL     1      -2.020   0.426 -12.460  1.00  0.00    -0.014 A 
ATOM     78  C   UNL     1      -2.815   0.024 -13.544  1.00  0.00     0.009 A 
ATOM     79  C   UNL     1      -0.807   1.086 -12.710  1.00  0.00     0.009 A 
ATOM     80  C   UNL     1      -2.387   0.253 -14.854  1.00  0.00     0.001 A 
ATOM     81  C   UNL     1      -0.394   1.336 -14.019  1.00  0.00     0.001 A 
ATOM     82  C   UNL     1      -1.180   0.911 -15.090  1.00  0.00     0.000 A 
ENDBRANCH  64  77
ENDBRANCH  38  39
ENDBRANCH  31  33
ENDBRANCH  30  31
ENDBRANCH  29  30
ENDBRANCH   1  29
TORSDOF 14
