REMARK SMILES Cc1cc(/C=C2/C(=O)NC(=S)N=C2OCCOC(=O)c2ccc(-c3c4nc(c(-c5ccccc5)c5ccc([nH]5)c(-c5ccccc5)c5nc(c(-c6ccccc6)c6ccc3[nH]6)C=C5)C=C4)cc2)c(C)n1-c1cccc(C(=O)[O-])c1
REMARK SMILES IDX 15 1 14 2 13 3 5 4 6 5 7 6 8 7 9 8 12 9 10 10 11 12 4 13
REMARK SMILES IDX 1 14 2 15 3 16 70 17 68 18 69 19 71 20 72 21 79 22 73 23
REMARK SMILES IDX 75 24 74 25 76 26 77 27 78 28 16 29 17 30 18 31 19 32 20 33
REMARK SMILES IDX 21 34 67 35 22 36 66 37 23 38 24 39 25 40 60 41 26 42 65 43
REMARK SMILES IDX 59 44 61 45 27 46 64 47 58 48 57 49 28 51 50 52 35 53 49 54
REMARK SMILES IDX 36 55 39 56 48 57 62 58 37 59 38 60 47 62 63 63 40 64 29 65
REMARK SMILES IDX 30 66 34 67 31 68 33 69 32 70 51 71 52 72 56 73 53 74 55 75
REMARK SMILES IDX 54 76 41 77 42 78 46 79 43 80 45 81 44 82
REMARK H PARENT 9 11 61 50 39 61
REMARK Flexibility Score: inf
ROOT
ATOM      1  C   UNL     1      -1.897  -3.398   6.521  1.00  0.00     0.273 C 
ENDROOT
BRANCH   1   2
ATOM      2  O   UNL     1      -1.077  -3.510   5.295  1.00  0.00    -0.473 OA
BRANCH   2   3
ATOM      3  C   UNL     1      -0.541  -4.720   5.032  1.00  0.00     0.229 C 
ATOM      4  C   UNL     1       0.174  -4.279   2.513  1.00  0.00     0.029 C 
ATOM      5  C   UNL     1      -0.097  -4.998   3.632  1.00  0.00     0.103 C 
ATOM      6  C   UNL     1       0.163  -6.469   3.411  1.00  0.00     0.262 C 
ATOM      7  O   UNL     1       0.423  -6.977   2.324  1.00  0.00    -0.269 OA
ATOM      8  N   UNL     1       0.116  -7.255   4.526  1.00  0.00    -0.297 N 
ATOM      9  N   UNL     1      -0.528  -5.567   6.002  1.00  0.00    -0.184 NA
ATOM     10  C   UNL     1      -0.165  -6.853   5.796  1.00  0.00     0.203 C 
ATOM     11  H   UNL     1       0.307  -8.213   4.398  1.00  0.00     0.172 HD
ATOM     12  S   UNL     1      -0.112  -7.989   7.026  1.00  0.00    -0.038 S 
BRANCH   4  13
ATOM     13  C   UNL     1       0.186  -2.896   2.137  1.00  0.00    -0.003 A 
ATOM     14  C   UNL     1       1.150  -0.045  -0.125  1.00  0.00     0.065 C 
ATOM     15  C   UNL     1       0.672  -1.015   0.902  1.00  0.00     0.020 A 
ATOM     16  C   UNL     1       0.954  -2.367   1.043  1.00  0.00     0.031 A 
ATOM     17  N   UNL     1      -0.135  -0.694   1.972  1.00  0.00    -0.318 N 
ATOM     18  C   UNL     1      -0.642  -1.867   2.521  1.00  0.00     0.027 A 
ATOM     19  C   UNL     1      -1.920  -1.844   3.280  1.00  0.00     0.065 C 
BRANCH  17  20
ATOM     20  C   UNL     1      -0.509   0.580   2.444  1.00  0.00     0.046 A 
ATOM     21  C   UNL     1      -0.137   0.902   3.757  1.00  0.00     0.026 A 
ATOM     22  C   UNL     1      -1.515   1.280   1.777  1.00  0.00     0.036 A 
ATOM     23  C   UNL     1      -0.803   1.919   4.431  1.00  0.00     0.003 A 
ATOM     24  C   UNL     1      -2.209   2.274   2.477  1.00  0.00    -0.001 A 
ATOM     25  C   UNL     1      -1.852   2.587   3.800  1.00  0.00     0.010 A 
BRANCH  24  26
ATOM     26  C   UNL     1      -3.396   2.934   1.899  1.00  0.00     0.072 C 
ATOM     27  O   UNL     1      -4.108   3.760   2.478  1.00  0.00    -0.545 OA
ATOM     28  O   UNL     1      -3.681   2.526   0.658  1.00  0.00    -0.545 OA
ENDBRANCH  24  26
ENDBRANCH  17  20
ENDBRANCH   4  13
ENDBRANCH   2   3
ENDBRANCH   1   2
BRANCH   1  29
ATOM     29  C   UNL     1      -3.348  -3.942   6.311  1.00  0.00     0.274 C 
BRANCH  29  30
ATOM     30  O   UNL     1      -3.959  -4.751   7.397  1.00  0.00    -0.458 OA
BRANCH  30  31
ATOM     31  C   UNL     1      -4.561  -5.942   7.036  1.00  0.00     0.338 C 
ATOM     32  O   UNL     1      -4.406  -6.453   5.932  1.00  0.00    -0.246 OA
BRANCH  31  33
ATOM     33  C   UNL     1      -5.388  -6.678   8.117  1.00  0.00     0.060 A 
ATOM     34  C   UNL     1      -4.912  -7.892   8.573  1.00  0.00     0.016 A 
ATOM     35  C   UNL     1      -6.708  -6.401   8.552  1.00  0.00     0.016 A 
ATOM     36  C   UNL     1      -5.676  -8.710   9.487  1.00  0.00     0.010 A 
ATOM     37  C   UNL     1      -7.519  -7.300   9.448  1.00  0.00     0.010 A 
ATOM     38  C   UNL     1      -7.031  -8.510   9.978  1.00  0.00    -0.014 A 
BRANCH  38  39
ATOM     39  C   UNL     1      -7.788  -9.815  10.772  1.00  0.00     0.031 A 
ATOM     40  C   UNL     1      -7.090 -10.971  10.153  1.00  0.00     0.074 A 
ATOM     41  C   UNL     1      -8.839 -10.291  11.601  1.00  0.00     0.049 A 
ATOM     42  N   UNL     1      -7.233 -11.125   8.872  1.00  0.00    -0.248 NA
ATOM     43  C   UNL     1      -5.944 -11.670  10.736  1.00  0.00     0.031 C 
ATOM     44  C   UNL     1      -9.965  -9.546  12.201  1.00  0.00     0.029 A 
ATOM     45  N   UNL     1      -9.178 -11.619  12.115  1.00  0.00    -0.354 N 
ATOM     46  C   UNL     1      -6.341 -12.084   8.477  1.00  0.00     0.074 A 
ATOM     47  C   UNL     1      -5.462 -12.259   9.631  1.00  0.00     0.031 C 
ATOM     48  C   UNL     1     -10.713 -10.315  13.058  1.00  0.00     0.029 A 
ATOM     49  C   UNL     1     -10.241 -11.702  13.115  1.00  0.00     0.049 A 
ATOM     50  H   UNL     1      -8.708 -12.425  11.800  1.00  0.00     0.167 HD
ATOM     51  C   UNL     1      -6.838 -13.015   7.615  1.00  0.00     0.031 A 
ATOM     52  C   UNL     1     -10.771 -12.775  13.861  1.00  0.00     0.031 A 
ATOM     53  C   UNL     1      -7.246 -14.191   8.337  1.00  0.00     0.049 A 
ATOM     54  C   UNL     1     -10.519 -13.991  13.083  1.00  0.00     0.074 A 
ATOM     55  C   UNL     1      -6.657 -14.896   9.370  1.00  0.00     0.029 A 
ATOM     56  N   UNL     1      -8.601 -14.435   8.407  1.00  0.00    -0.354 N 
ATOM     57  N   UNL     1     -11.303 -14.319  12.101  1.00  0.00    -0.248 NA
ATOM     58  C   UNL     1      -9.514 -14.985  13.439  1.00  0.00     0.031 C 
ATOM     59  C   UNL     1      -7.692 -15.037  10.318  1.00  0.00     0.029 A 
ATOM     60  C   UNL     1      -8.912 -14.859   9.680  1.00  0.00     0.049 A 
ATOM     61  H   UNL     1      -9.242 -14.324   7.668  1.00  0.00     0.167 HD
ATOM     62  C   UNL     1     -10.529 -15.179  11.394  1.00  0.00     0.074 A 
ATOM     63  C   UNL     1      -9.632 -15.776  12.369  1.00  0.00     0.031 C 
ATOM     64  C   UNL     1     -10.283 -14.818  10.111  1.00  0.00     0.031 A 
BRANCH  51  65
ATOM     65  C   UNL     1      -7.623 -12.422   6.463  1.00  0.00    -0.014 A 
ATOM     66  C   UNL     1      -7.150 -12.583   5.158  1.00  0.00     0.009 A 
ATOM     67  C   UNL     1      -8.746 -11.586   6.657  1.00  0.00     0.009 A 
ATOM     68  C   UNL     1      -7.727 -11.862   4.103  1.00  0.00     0.001 A 
ATOM     69  C   UNL     1      -9.282 -10.825   5.620  1.00  0.00     0.001 A 
ATOM     70  C   UNL     1      -8.765 -10.959   4.340  1.00  0.00     0.000 A 
ENDBRANCH  51  65
BRANCH  52  71
ATOM     71  C   UNL     1     -11.723 -13.241  15.040  1.00  0.00    -0.014 A 
ATOM     72  C   UNL     1     -12.579 -14.392  14.868  1.00  0.00     0.009 A 
ATOM     73  C   UNL     1     -11.462 -12.944  16.387  1.00  0.00     0.009 A 
ATOM     74  C   UNL     1     -13.027 -15.229  15.920  1.00  0.00     0.001 A 
ATOM     75  C   UNL     1     -11.947 -13.767  17.454  1.00  0.00     0.001 A 
ATOM     76  C   UNL     1     -12.694 -14.923  17.224  1.00  0.00     0.000 A 
ENDBRANCH  52  71
BRANCH  64  77
ATOM     77  C   UNL     1     -11.415 -14.156   9.342  1.00  0.00    -0.014 A 
ATOM     78  C   UNL     1     -12.168 -13.048   9.794  1.00  0.00     0.009 A 
ATOM     79  C   UNL     1     -11.780 -14.713   8.111  1.00  0.00     0.009 A 
ATOM     80  C   UNL     1     -13.268 -12.560   9.079  1.00  0.00     0.001 A 
ATOM     81  C   UNL     1     -12.849 -14.197   7.369  1.00  0.00     0.001 A 
ATOM     82  C   UNL     1     -13.603 -13.133   7.859  1.00  0.00     0.000 A 
ENDBRANCH  64  77
ENDBRANCH  38  39
ENDBRANCH  31  33
ENDBRANCH  30  31
ENDBRANCH  29  30
ENDBRANCH   1  29
TORSDOF 13
