REMARK SMILES O=C(OCCOC(=O)c1cccn(CC[NH+]2CCCC2)c1=O)c1ccc(-c2c3nc(c(-c4ccccc4)c4ccc([nH]4)c(-c4ccccc4)c4nc(c(-c5ccccc5)c5ccc2[nH]5)C=C4)C=C3)cc1
REMARK SMILES IDX 5 1 4 2 3 3 2 4 1 5 23 6 24 7 70 8 25 9 69 10 26 11 27 12
REMARK SMILES IDX 28 13 63 14 29 15 68 16 62 17 64 18 30 19 67 20 61 21 60 22
REMARK SMILES IDX 31 24 53 25 38 26 52 27 39 28 42 29 51 30 65 31 40 32 41 33
REMARK SMILES IDX 50 35 66 36 43 37 32 38 33 39 37 40 34 41 36 42 35 43 54 44
REMARK SMILES IDX 55 45 59 46 56 47 58 48 57 49 44 50 45 51 49 52 46 53 48 54
REMARK SMILES IDX 47 55 6 56 7 57 8 58 9 59 10 60 21 61 11 62 13 63 22 64
REMARK SMILES IDX 12 65 14 66 15 67 16 68 17 69 20 70 18 72 19 73
REMARK H PARENT 64 23 42 34 16 71
REMARK Flexibility Score: inf
ROOT
ATOM      1  C   UNL     1       4.158  -1.731   1.593  1.00  0.00     0.275 C 
ENDROOT
BRANCH   1   2
ATOM      2  C   UNL     1       4.428  -0.224   1.657  1.00  0.00     0.275 C 
BRANCH   2   3
ATOM      3  O   UNL     1       3.388   0.553   1.041  1.00  0.00    -0.458 OA
BRANCH   3   4
ATOM      4  C   UNL     1       3.422   1.178  -0.160  1.00  0.00     0.338 C 
ATOM      5  O   UNL     1       2.685   2.148  -0.337  1.00  0.00    -0.246 OA
BRANCH   4   6
ATOM      6  C   UNL     1       4.120   0.604  -1.359  1.00  0.00     0.060 A 
ATOM      7  C   UNL     1       3.524   0.899  -2.593  1.00  0.00     0.016 A 
ATOM      8  C   UNL     1       5.247  -0.222  -1.379  1.00  0.00     0.016 A 
ATOM      9  C   UNL     1       3.942   0.265  -3.767  1.00  0.00     0.010 A 
ATOM     10  C   UNL     1       5.709  -0.809  -2.569  1.00  0.00     0.010 A 
ATOM     11  C   UNL     1       5.036  -0.613  -3.773  1.00  0.00    -0.014 A 
BRANCH  11  12
ATOM     12  C   UNL     1       5.526  -1.188  -5.054  1.00  0.00     0.031 A 
ATOM     13  C   UNL     1       5.638  -2.670  -5.318  1.00  0.00     0.074 A 
ATOM     14  C   UNL     1       5.883  -0.324  -6.025  1.00  0.00     0.049 A 
ATOM     15  N   UNL     1       5.829  -3.270  -6.470  1.00  0.00    -0.248 NA
ATOM     16  C   UNL     1       5.495  -3.601  -4.190  1.00  0.00     0.031 C 
ATOM     17  C   UNL     1       5.867   1.136  -5.897  1.00  0.00     0.029 A 
ATOM     18  N   UNL     1       6.342  -0.541  -7.298  1.00  0.00    -0.354 N 
ATOM     19  C   UNL     1       5.703  -4.632  -6.221  1.00  0.00     0.074 A 
ATOM     20  C   UNL     1       5.538  -4.784  -4.796  1.00  0.00     0.031 C 
ATOM     21  C   UNL     1       6.289   1.681  -7.042  1.00  0.00     0.029 A 
ATOM     22  C   UNL     1       6.690   0.614  -7.949  1.00  0.00     0.049 A 
ATOM     23  H   UNL     1       6.413  -1.436  -7.704  1.00  0.00     0.167 HD
ATOM     24  C   UNL     1       5.686  -5.650  -7.113  1.00  0.00     0.031 A 
ATOM     25  C   UNL     1       7.327   0.812  -9.117  1.00  0.00     0.031 A 
ATOM     26  C   UNL     1       6.071  -5.510  -8.492  1.00  0.00     0.049 A 
ATOM     27  C   UNL     1       7.658  -0.370  -9.969  1.00  0.00     0.074 A 
ATOM     28  C   UNL     1       6.134  -6.485  -9.471  1.00  0.00     0.029 A 
ATOM     29  N   UNL     1       6.565  -4.344  -9.051  1.00  0.00    -0.354 N 
ATOM     30  N   UNL     1       7.322  -1.624  -9.786  1.00  0.00    -0.248 NA
ATOM     31  C   UNL     1       8.447  -0.124 -11.181  1.00  0.00     0.031 C 
ATOM     32  C   UNL     1       6.801  -5.941 -10.573  1.00  0.00     0.029 A 
ATOM     33  C   UNL     1       7.063  -4.605 -10.315  1.00  0.00     0.049 A 
ATOM     34  H   UNL     1       6.562  -3.462  -8.615  1.00  0.00     0.167 HD
ATOM     35  C   UNL     1       7.844  -2.319 -10.865  1.00  0.00     0.074 A 
ATOM     36  C   UNL     1       8.514  -1.343 -11.703  1.00  0.00     0.031 C 
ATOM     37  C   UNL     1       7.761  -3.645 -11.133  1.00  0.00     0.031 A 
BRANCH  24  38
ATOM     38  C   UNL     1       5.262  -7.019  -6.657  1.00  0.00    -0.014 A 
ATOM     39  C   UNL     1       6.208  -8.041  -6.487  1.00  0.00     0.009 A 
ATOM     40  C   UNL     1       3.896  -7.341  -6.589  1.00  0.00     0.009 A 
ATOM     41  C   UNL     1       5.796  -9.360  -6.274  1.00  0.00     0.001 A 
ATOM     42  C   UNL     1       3.487  -8.659  -6.365  1.00  0.00     0.001 A 
ATOM     43  C   UNL     1       4.438  -9.669  -6.217  1.00  0.00     0.000 A 
ENDBRANCH  24  38
BRANCH  25  44
ATOM     44  C   UNL     1       7.722   2.202  -9.459  1.00  0.00    -0.014 A 
ATOM     45  C   UNL     1       8.651   2.878  -8.643  1.00  0.00     0.009 A 
ATOM     46  C   UNL     1       7.058   2.915 -10.463  1.00  0.00     0.009 A 
ATOM     47  C   UNL     1       8.849   4.252  -8.775  1.00  0.00     0.001 A 
ATOM     48  C   UNL     1       7.288   4.285 -10.617  1.00  0.00     0.001 A 
ATOM     49  C   UNL     1       8.163   4.955  -9.761  1.00  0.00     0.000 A 
ENDBRANCH  25  44
BRANCH  37  50
ATOM     50  C   UNL     1       8.437  -4.157 -12.371  1.00  0.00    -0.014 A 
ATOM     51  C   UNL     1       7.668  -4.666 -13.429  1.00  0.00     0.009 A 
ATOM     52  C   UNL     1       9.835  -4.246 -12.438  1.00  0.00     0.009 A 
ATOM     53  C   UNL     1       8.284  -5.285 -14.516  1.00  0.00     0.001 A 
ATOM     54  C   UNL     1      10.450  -4.834 -13.545  1.00  0.00     0.001 A 
ATOM     55  C   UNL     1       9.675  -5.366 -14.575  1.00  0.00     0.000 A 
ENDBRANCH  37  50
ENDBRANCH  11  12
ENDBRANCH   4   6
ENDBRANCH   3   4
ENDBRANCH   2   3
ENDBRANCH   1   2
BRANCH   1  56
ATOM     56  O   UNL     1       3.677  -2.145   0.304  1.00  0.00    -0.458 OA
BRANCH  56  57
ATOM     57  C   UNL     1       2.331  -2.337   0.209  1.00  0.00     0.343 C 
ATOM     58  O   UNL     1       1.526  -2.291   1.129  1.00  0.00    -0.246 OA
BRANCH  57  59
ATOM     59  C   UNL     1       1.954  -2.347  -1.208  1.00  0.00     0.125 A 
ATOM     60  C   UNL     1       1.242  -1.289  -1.630  1.00  0.00     0.023 A 
ATOM     61  C   UNL     1       2.394  -3.393  -2.175  1.00  0.00     0.265 A 
ATOM     62  C   UNL     1       1.087  -1.042  -3.035  1.00  0.00     0.019 A 
ATOM     63  N   UNL     1       2.122  -3.118  -3.525  1.00  0.00    -0.309 N 
ATOM     64  O   UNL     1       2.929  -4.426  -1.781  1.00  0.00    -0.268 OA
ATOM     65  C   UNL     1       1.598  -1.905  -3.917  1.00  0.00     0.089 A 
BRANCH  63  66
ATOM     66  C   UNL     1       2.245  -4.189  -4.534  1.00  0.00     0.186 C 
BRANCH  66  67
ATOM     67  C   UNL     1       0.913  -4.957  -4.742  1.00  0.00     0.284 C 
BRANCH  67  68
ATOM     68  N   UNL     1       0.108  -4.731  -5.967  1.00  0.00    -0.333 N 
ATOM     69  C   UNL     1      -0.041  -3.346  -6.417  1.00  0.00     0.262 C 
ATOM     70  C   UNL     1      -1.291  -5.153  -5.733  1.00  0.00     0.262 C 
ATOM     71  H   UNL     1       0.630  -5.257  -6.668  1.00  0.00     0.348 HD
ATOM     72  C   UNL     1      -1.102  -2.753  -5.509  1.00  0.00     0.067 C 
ATOM     73  C   UNL     1      -2.051  -3.911  -5.264  1.00  0.00     0.067 C 
ENDBRANCH  67  68
ENDBRANCH  66  67
ENDBRANCH  63  66
ENDBRANCH  57  59
ENDBRANCH  56  57
ENDBRANCH   1  56
TORSDOF 14
