REMARK SMILES O=C(Nc1ccccc1)N[C@H]1C[C@@H](C(=O)OCCOC(=O)c2ccc(-c3c4nc(c(-c5ccccc5)c5ccc([nH]5)c(-c5ccccc5)c5nc(c(-c6ccccc6)c6ccc3[nH]6)C=C5)C=C4)cc2)Nc2cc(Cl)cc(Cl)c21
REMARK SMILES IDX 17 1 16 2 14 3 15 4 13 5 11 6 12 7 78 8 71 9 76 10 70 11
REMARK SMILES IDX 72 12 75 13 77 14 73 16 74 17 10 18 1 19 2 20 3 21 4 24 5 25
REMARK SMILES IDX 9 26 6 27 8 28 7 29 18 30 19 31 20 32 21 33 22 34 23 35
REMARK SMILES IDX 69 36 24 37 68 38 25 39 26 40 27 41 62 42 28 43 67 44 61 45
REMARK SMILES IDX 63 46 29 47 66 48 60 49 59 50 30 52 52 53 37 54 51 55 38 56
REMARK SMILES IDX 41 57 50 58 64 59 39 60 40 61 49 63 65 64 42 65 31 66 32 67
REMARK SMILES IDX 36 68 33 69 35 70 34 71 53 72 54 73 58 74 55 75 57 76 56 77
REMARK SMILES IDX 43 78 44 79 48 80 45 81 47 82 46 83
REMARK H PARENT 70 15 3 22 10 23 63 51 41 62
REMARK Flexibility Score: inf
ROOT
ATOM      1  C   UNL     1      -1.088  -2.935   1.496  1.00  0.00     0.274 C 
ENDROOT
BRANCH   1   2
ATOM      2  O   UNL     1       0.034  -2.573   0.669  1.00  0.00    -0.461 OA
BRANCH   2   3
ATOM      3  C   UNL     1       1.149  -3.346   0.762  1.00  0.00     0.328 C 
ATOM      4  O   UNL     1       1.296  -4.268   1.557  1.00  0.00    -0.250 OA
BRANCH   3   5
ATOM      5  C   UNL     1       2.180  -2.983  -0.316  1.00  0.00     0.192 C 
ATOM      6  C   UNL     1       2.479  -0.658  -1.414  1.00  0.00     0.120 C 
ATOM      7  C   UNL     1       2.704  -1.552  -0.177  1.00  0.00     0.067 C 
ATOM      8  C   UNL     1       2.841  -1.436  -2.668  1.00  0.00     0.016 A 
ATOM      9  C   UNL     1       2.399  -2.770  -2.725  1.00  0.00     0.043 A 
ATOM     10  C   UNL     1       3.493  -0.893  -3.782  1.00  0.00     0.049 A 
ATOM     11  N   UNL     1       1.661  -3.285  -1.660  1.00  0.00    -0.372 N 
ATOM     12  C   UNL     1       2.539  -3.514  -3.896  1.00  0.00     0.046 A 
ATOM     13  C   UNL     1       3.686  -1.661  -4.935  1.00  0.00     0.041 A 
ATOM     14  Cl  UNL     1       4.054   0.738  -3.805  1.00  0.00    -0.084 Cl
ATOM     15  H   UNL     1       0.845  -3.818  -1.798  1.00  0.00     0.161 HD
ATOM     16  C   UNL     1       3.198  -2.964  -4.989  1.00  0.00     0.044 A 
ATOM     17  Cl  UNL     1       3.393  -3.894  -6.423  1.00  0.00    -0.084 Cl
BRANCH   6  18
ATOM     18  N   UNL     1       1.122  -0.135  -1.553  1.00  0.00    -0.331 N 
ATOM     19  O   UNL     1       0.997   0.875   0.472  1.00  0.00    -0.248 OA
ATOM     20  C   UNL     1       0.473   0.564  -0.597  1.00  0.00     0.319 C 
ATOM     21  N   UNL     1      -0.803   0.968  -0.828  1.00  0.00    -0.308 N 
ATOM     22  H   UNL     1      -1.126   1.596  -0.142  1.00  0.00     0.171 HD
ATOM     23  H   UNL     1       0.649  -0.303  -2.400  1.00  0.00     0.166 HD
BRANCH  21  24
ATOM     24  C   UNL     1      -1.778   0.707  -1.812  1.00  0.00     0.042 A 
ATOM     25  C   UNL     1      -2.974   1.434  -1.704  1.00  0.00     0.026 A 
ATOM     26  C   UNL     1      -1.672  -0.229  -2.841  1.00  0.00     0.026 A 
ATOM     27  C   UNL     1      -4.024   1.244  -2.607  1.00  0.00     0.002 A 
ATOM     28  C   UNL     1      -2.721  -0.418  -3.751  1.00  0.00     0.002 A 
ATOM     29  C   UNL     1      -3.895   0.319  -3.637  1.00  0.00     0.000 A 
ENDBRANCH  21  24
ENDBRANCH   6  18
ENDBRANCH   3   5
ENDBRANCH   2   3
ENDBRANCH   1   2
BRANCH   1  30
ATOM     30  C   UNL     1      -2.356  -3.017   0.641  1.00  0.00     0.275 C 
BRANCH  30  31
ATOM     31  O   UNL     1      -2.345  -4.183  -0.209  1.00  0.00    -0.458 OA
BRANCH  31  32
ATOM     32  C   UNL     1      -1.689  -4.019  -1.377  1.00  0.00     0.338 C 
ATOM     33  O   UNL     1      -1.120  -3.022  -1.786  1.00  0.00    -0.246 OA
BRANCH  32  34
ATOM     34  C   UNL     1      -1.620  -5.271  -2.126  1.00  0.00     0.060 A 
ATOM     35  C   UNL     1      -0.388  -5.927  -2.184  1.00  0.00     0.016 A 
ATOM     36  C   UNL     1      -2.696  -5.675  -2.917  1.00  0.00     0.016 A 
ATOM     37  C   UNL     1      -0.218  -6.983  -3.069  1.00  0.00     0.010 A 
ATOM     38  C   UNL     1      -2.529  -6.754  -3.787  1.00  0.00     0.010 A 
ATOM     39  C   UNL     1      -1.285  -7.399  -3.878  1.00  0.00    -0.014 A 
BRANCH  39  40
ATOM     40  C   UNL     1      -1.088  -8.525  -4.815  1.00  0.00     0.031 A 
ATOM     41  C   UNL     1      -0.931  -8.280  -6.285  1.00  0.00     0.074 A 
ATOM     42  C   UNL     1      -1.010  -9.773  -4.322  1.00  0.00     0.049 A 
ATOM     43  N   UNL     1      -0.834  -9.153  -7.255  1.00  0.00    -0.248 NA
ATOM     44  C   UNL     1      -0.874  -6.877  -6.724  1.00  0.00     0.031 C 
ATOM     45  C   UNL     1      -1.101 -10.130  -2.905  1.00  0.00     0.029 A 
ATOM     46  N   UNL     1      -0.814 -10.968  -4.960  1.00  0.00    -0.354 N 
ATOM     47  C   UNL     1      -0.737  -8.409  -8.422  1.00  0.00     0.074 A 
ATOM     48  C   UNL     1      -0.770  -7.013  -8.040  1.00  0.00     0.031 C 
ATOM     49  C   UNL     1      -0.922 -11.454  -2.778  1.00  0.00     0.029 A 
ATOM     50  C   UNL     1      -0.747 -12.037  -4.104  1.00  0.00     0.049 A 
ATOM     51  H   UNL     1      -0.729 -11.052  -5.938  1.00  0.00     0.167 HD
ATOM     52  C   UNL     1      -0.640  -8.854  -9.698  1.00  0.00     0.031 A 
ATOM     53  C   UNL     1      -0.577 -13.345  -4.361  1.00  0.00     0.031 A 
ATOM     54  C   UNL     1      -0.586 -10.239 -10.078  1.00  0.00     0.049 A 
ATOM     55  C   UNL     1      -0.470 -13.812  -5.779  1.00  0.00     0.074 A 
ATOM     56  C   UNL     1      -0.538 -10.787 -11.349  1.00  0.00     0.029 A 
ATOM     57  N   UNL     1      -0.552 -11.296  -9.184  1.00  0.00    -0.354 N 
ATOM     58  N   UNL     1      -0.478 -13.101  -6.880  1.00  0.00    -0.248 NA
ATOM     59  C   UNL     1      -0.359 -15.261  -5.990  1.00  0.00     0.031 C 
ATOM     60  C   UNL     1      -0.479 -12.181 -11.222  1.00  0.00     0.029 A 
ATOM     61  C   UNL     1      -0.480 -12.495  -9.872  1.00  0.00     0.049 A 
ATOM     62  H   UNL     1      -0.575 -11.208  -8.204  1.00  0.00     0.167 HD
ATOM     63  C   UNL     1      -0.401 -14.018  -7.918  1.00  0.00     0.074 A 
ATOM     64  C   UNL     1      -0.317 -15.333  -7.314  1.00  0.00     0.031 C 
ATOM     65  C   UNL     1      -0.416 -13.790  -9.252  1.00  0.00     0.031 A 
BRANCH  52  66
ATOM     66  C   UNL     1      -0.623  -7.818 -10.779  1.00  0.00    -0.014 A 
ATOM     67  C   UNL     1       0.576  -7.205 -11.170  1.00  0.00     0.009 A 
ATOM     68  C   UNL     1      -1.817  -7.473 -11.431  1.00  0.00     0.009 A 
ATOM     69  C   UNL     1       0.576  -6.251 -12.190  1.00  0.00     0.001 A 
ATOM     70  C   UNL     1      -1.812  -6.524 -12.454  1.00  0.00     0.001 A 
ATOM     71  C   UNL     1      -0.617  -5.912 -12.830  1.00  0.00     0.000 A 
ENDBRANCH  52  66
BRANCH  53  72
ATOM     72  C   UNL     1      -0.533 -14.304  -3.235  1.00  0.00    -0.014 A 
ATOM     73  C   UNL     1       0.700 -14.735  -2.725  1.00  0.00     0.009 A 
ATOM     74  C   UNL     1      -1.721 -14.751  -2.639  1.00  0.00     0.009 A 
ATOM     75  C   UNL     1       0.741 -15.604  -1.634  1.00  0.00     0.001 A 
ATOM     76  C   UNL     1      -1.676 -15.613  -1.543  1.00  0.00     0.001 A 
ATOM     77  C   UNL     1      -0.446 -16.039  -1.043  1.00  0.00     0.000 A 
ENDBRANCH  53  72
BRANCH  65  78
ATOM     78  C   UNL     1      -0.372 -14.996 -10.137  1.00  0.00    -0.014 A 
ATOM     79  C   UNL     1      -1.559 -15.664 -10.473  1.00  0.00     0.009 A 
ATOM     80  C   UNL     1       0.850 -15.460 -10.643  1.00  0.00     0.009 A 
ATOM     81  C   UNL     1      -1.520 -16.793 -11.292  1.00  0.00     0.001 A 
ATOM     82  C   UNL     1       0.884 -16.586 -11.466  1.00  0.00     0.001 A 
ATOM     83  C   UNL     1      -0.300 -17.253 -11.786  1.00  0.00     0.000 A 
ENDBRANCH  65  78
ENDBRANCH  39  40
ENDBRANCH  32  34
ENDBRANCH  31  32
ENDBRANCH  30  31
ENDBRANCH   1  30
TORSDOF 13
