REMARK SMILES COCCN(CC(C)C)C(=O)N1CC[C@@H](C(=O)OCCOC(=O)c2ccc(-c3c4nc(c(-c5ccccc5)c5ccc([nH]5)c(-c5ccccc5)c5nc(c(-c6ccccc6)c6ccc3[nH]6)C=C5)C=C4)cc2)[C@H]1C
REMARK SMILES IDX 18 1 16 2 17 3 15 4 12 5 13 6 72 7 14 8 73 9 10 10 11 11
REMARK SMILES IDX 5 12 4 13 3 14 2 15 1 16 6 17 7 18 8 19 9 20 19 21 20 22
REMARK SMILES IDX 21 23 22 24 23 25 24 26 25 27 71 28 26 29 70 30 27 31 28 32
REMARK SMILES IDX 29 33 64 34 30 35 69 36 63 37 65 38 31 39 68 40 62 41 61 42
REMARK SMILES IDX 32 44 54 45 39 46 53 47 40 48 43 49 52 50 66 51 41 52 42 53
REMARK SMILES IDX 51 55 67 56 44 57 33 58 34 59 38 60 35 61 37 62 36 63 55 64
REMARK SMILES IDX 56 65 60 66 57 67 59 68 58 69 45 70 46 71 50 72 47 73 49 74
REMARK SMILES IDX 48 75
REMARK H PARENT 65 43 43 54
REMARK Flexibility Score: inf
ROOT
ATOM      1  O   UNL     1       3.064   4.788  -4.850  1.00  0.00    -0.462 OA
ENDROOT
BRANCH   1   2
ATOM      2  C   UNL     1       2.448   5.231  -3.733  1.00  0.00     0.311 C 
ATOM      3  O   UNL     1       2.218   6.408  -3.484  1.00  0.00    -0.252 OA
BRANCH   2   4
ATOM      4  C   UNL     1       2.016   4.113  -2.812  1.00  0.00     0.123 C 
ATOM      5  N   UNL     1       1.916   1.940  -1.953  1.00  0.00    -0.321 N 
ATOM      6  C   UNL     1       2.207   2.847  -0.834  1.00  0.00     0.122 C 
ATOM      7  C   UNL     1       2.204   2.639  -3.224  1.00  0.00     0.098 C 
ATOM      8  C   UNL     1       2.700   4.148  -1.452  1.00  0.00     0.039 C 
ATOM      9  C   UNL     1       3.624   2.332  -3.730  1.00  0.00     0.032 C 
BRANCH   5  10
ATOM     10  C   UNL     1       0.872   1.043  -1.760  1.00  0.00     0.320 C 
ATOM     11  O   UNL     1       0.024   1.272  -0.893  1.00  0.00    -0.248 OA
BRANCH  10  12
ATOM     12  N   UNL     1       0.889  -0.180  -2.416  1.00  0.00    -0.322 N 
BRANCH  12  13
ATOM     13  C   UNL     1       0.096  -1.265  -1.808  1.00  0.00     0.149 C 
BRANCH  13  14
ATOM     14  C   UNL     1       0.877  -2.046  -0.726  1.00  0.00     0.181 C 
BRANCH  14  15
ATOM     15  O   UNL     1       0.695  -1.506   0.584  1.00  0.00    -0.383 OA
ATOM     16  C   UNL     1       1.698  -0.581   0.977  1.00  0.00     0.194 C 
ENDBRANCH  14  15
ENDBRANCH  13  14
ENDBRANCH  12  13
BRANCH  12  17
ATOM     17  C   UNL     1       1.708  -0.573  -3.558  1.00  0.00     0.124 C 
BRANCH  17  18
ATOM     18  C   UNL     1       0.961  -0.677  -4.911  1.00  0.00     0.002 C 
ATOM     19  C   UNL     1      -0.268   0.224  -5.050  1.00  0.00     0.009 C 
ATOM     20  C   UNL     1       1.939  -0.427  -6.067  1.00  0.00     0.009 C 
ENDBRANCH  17  18
ENDBRANCH  12  17
ENDBRANCH  10  12
ENDBRANCH   5  10
ENDBRANCH   2   4
ENDBRANCH   1   2
BRANCH   1  21
ATOM     21  C   UNL     1       3.343   5.739  -5.894  1.00  0.00     0.274 C 
BRANCH  21  22
ATOM     22  C   UNL     1       2.540   5.359  -7.139  1.00  0.00     0.275 C 
BRANCH  22  23
ATOM     23  O   UNL     1       1.140   5.649  -6.950  1.00  0.00    -0.458 OA
BRANCH  23  24
ATOM     24  C   UNL     1       0.407   4.652  -6.404  1.00  0.00     0.338 C 
ATOM     25  O   UNL     1       0.787   3.522  -6.127  1.00  0.00    -0.246 OA
BRANCH  24  26
ATOM     26  C   UNL     1      -0.915   5.173  -6.022  1.00  0.00     0.060 A 
ATOM     27  C   UNL     1      -1.321   5.031  -4.692  1.00  0.00     0.016 A 
ATOM     28  C   UNL     1      -1.757   5.778  -6.957  1.00  0.00     0.016 A 
ATOM     29  C   UNL     1      -2.558   5.518  -4.281  1.00  0.00     0.010 A 
ATOM     30  C   UNL     1      -3.005   6.257  -6.546  1.00  0.00     0.010 A 
ATOM     31  C   UNL     1      -3.410   6.134  -5.205  1.00  0.00    -0.014 A 
BRANCH  31  32
ATOM     32  C   UNL     1      -4.733   6.634  -4.766  1.00  0.00     0.031 A 
ATOM     33  C   UNL     1      -5.975   5.857  -5.087  1.00  0.00     0.074 A 
ATOM     34  C   UNL     1      -4.813   7.786  -4.074  1.00  0.00     0.049 A 
ATOM     35  N   UNL     1      -7.224   6.161  -4.842  1.00  0.00    -0.248 NA
ATOM     36  C   UNL     1      -5.789   4.572  -5.778  1.00  0.00     0.031 C 
ATOM     37  C   UNL     1      -3.674   8.613  -3.674  1.00  0.00     0.029 A 
ATOM     38  N   UNL     1      -5.905   8.461  -3.591  1.00  0.00    -0.354 N 
ATOM     39  C   UNL     1      -7.975   5.117  -5.366  1.00  0.00     0.074 A 
ATOM     40  C   UNL     1      -7.043   4.176  -5.952  1.00  0.00     0.031 C 
ATOM     41  C   UNL     1      -4.128   9.690  -3.012  1.00  0.00     0.029 A 
ATOM     42  C   UNL     1      -5.587   9.646  -2.974  1.00  0.00     0.049 A 
ATOM     43  H   UNL     1      -6.827   8.129  -3.679  1.00  0.00     0.167 HD
ATOM     44  C   UNL     1      -9.319   4.960  -5.359  1.00  0.00     0.031 A 
ATOM     45  C   UNL     1      -6.384  10.602  -2.460  1.00  0.00     0.031 A 
ATOM     46  C   UNL     1     -10.244   5.891  -4.769  1.00  0.00     0.049 A 
ATOM     47  C   UNL     1      -7.875  10.420  -2.504  1.00  0.00     0.074 A 
ATOM     48  C   UNL     1     -11.623   5.798  -4.684  1.00  0.00     0.029 A 
ATOM     49  N   UNL     1      -9.885   7.085  -4.167  1.00  0.00    -0.354 N 
ATOM     50  N   UNL     1      -8.571   9.415  -2.978  1.00  0.00    -0.248 NA
ATOM     51  C   UNL     1      -8.691  11.504  -1.939  1.00  0.00     0.031 C 
ATOM     52  C   UNL     1     -12.102   6.962  -4.074  1.00  0.00     0.029 A 
ATOM     53  C   UNL     1     -11.018   7.754  -3.735  1.00  0.00     0.049 A 
ATOM     54  H   UNL     1      -8.962   7.410  -4.061  1.00  0.00     0.167 HD
ATOM     55  C   UNL     1      -9.903   9.736  -2.752  1.00  0.00     0.074 A 
ATOM     56  C   UNL     1      -9.918  11.021  -2.082  1.00  0.00     0.031 C 
ATOM     57  C   UNL     1     -11.015   9.032  -3.072  1.00  0.00     0.031 A 
BRANCH  44  58
ATOM     58  C   UNL     1      -9.880   3.749  -6.048  1.00  0.00    -0.014 A 
ATOM     59  C   UNL     1      -9.796   2.474  -5.469  1.00  0.00     0.009 A 
ATOM     60  C   UNL     1     -10.550   3.900  -7.272  1.00  0.00     0.009 A 
ATOM     61  C   UNL     1     -10.353   1.369  -6.117  1.00  0.00     0.001 A 
ATOM     62  C   UNL     1     -11.125   2.797  -7.906  1.00  0.00     0.001 A 
ATOM     63  C   UNL     1     -11.021   1.532  -7.331  1.00  0.00     0.000 A 
ENDBRANCH  44  58
BRANCH  45  64
ATOM     64  C   UNL     1      -5.790  11.840  -1.892  1.00  0.00    -0.014 A 
ATOM     65  C   UNL     1      -5.835  12.093  -0.514  1.00  0.00     0.009 A 
ATOM     66  C   UNL     1      -5.190  12.787  -2.738  1.00  0.00     0.009 A 
ATOM     67  C   UNL     1      -5.316  13.282   0.004  1.00  0.00     0.001 A 
ATOM     68  C   UNL     1      -4.646  13.961  -2.215  1.00  0.00     0.001 A 
ATOM     69  C   UNL     1      -4.718  14.212  -0.846  1.00  0.00     0.000 A 
ENDBRANCH  45  64
BRANCH  57  70
ATOM     70  C   UNL     1     -12.337   9.624  -2.679  1.00  0.00    -0.014 A 
ATOM     71  C   UNL     1     -12.880  10.715  -3.376  1.00  0.00     0.009 A 
ATOM     72  C   UNL     1     -13.065   9.061  -1.619  1.00  0.00     0.009 A 
ATOM     73  C   UNL     1     -14.113  11.249  -2.998  1.00  0.00     0.001 A 
ATOM     74  C   UNL     1     -14.309   9.581  -1.260  1.00  0.00     0.001 A 
ATOM     75  C   UNL     1     -14.828  10.679  -1.944  1.00  0.00     0.000 A 
ENDBRANCH  57  70
ENDBRANCH  31  32
ENDBRANCH  24  26
ENDBRANCH  23  24
ENDBRANCH  22  23
ENDBRANCH  21  22
ENDBRANCH   1  21
TORSDOF 18
