REMARK SMILES O=C(OCCOC(=O)[C@@H]1C[N@@H+](CC(=O)c2ccc[nH]2)CC[NH2+]1)c1ccc(-c2c3nc(c(-c4ccccc4)c4ccc([nH]4)c(-c4ccccc4)c4nc(c(-c5ccccc5)c5ccc2[nH]5)C=C4)C=C3)cc1
REMARK SMILES IDX 5 1 4 2 3 3 2 4 1 5 23 6 24 7 70 8 25 9 69 10 26 11 27 12
REMARK SMILES IDX 28 13 63 14 29 15 68 16 62 17 64 18 30 19 67 20 61 21 60 22
REMARK SMILES IDX 31 24 53 25 38 26 52 27 39 28 42 29 51 30 65 31 40 32 41 33
REMARK SMILES IDX 50 35 66 36 43 37 32 38 33 39 37 40 34 41 36 42 35 43 54 44
REMARK SMILES IDX 55 45 59 46 56 47 58 48 57 49 44 50 45 51 49 52 46 53 48 54
REMARK SMILES IDX 47 55 6 56 7 57 8 58 9 59 10 60 22 61 11 62 21 63 20 66
REMARK SMILES IDX 12 68 13 69 14 70 15 71 16 72 19 73 17 74 18 75
REMARK H PARENT 64 23 42 34 22 64 22 65 11 67 19 76
REMARK Flexibility Score: inf
ROOT
ATOM      1  C   UNL     1       5.379  -1.121   0.143  1.00  0.00     0.274 C 
ENDROOT
BRANCH   1   2
ATOM      2  C   UNL     1       4.957  -0.200   1.281  1.00  0.00     0.275 C 
BRANCH   2   3
ATOM      3  O   UNL     1       3.519  -0.177   1.381  1.00  0.00    -0.458 OA
BRANCH   3   4
ATOM      4  C   UNL     1       2.573   0.644   0.884  1.00  0.00     0.338 C 
ATOM      5  O   UNL     1       1.402   0.376   1.162  1.00  0.00    -0.246 OA
BRANCH   4   6
ATOM      6  C   UNL     1       2.807   1.907   0.111  1.00  0.00     0.060 A 
ATOM      7  C   UNL     1       4.037   2.431  -0.285  1.00  0.00     0.016 A 
ATOM      8  C   UNL     1       1.648   2.663  -0.185  1.00  0.00     0.016 A 
ATOM      9  C   UNL     1       4.122   3.715  -0.824  1.00  0.00     0.010 A 
ATOM     10  C   UNL     1       1.720   3.939  -0.740  1.00  0.00     0.010 A 
ATOM     11  C   UNL     1       2.969   4.480  -1.021  1.00  0.00    -0.014 A 
BRANCH  11  12
ATOM     12  C   UNL     1       3.131   5.840  -1.577  1.00  0.00     0.031 A 
ATOM     13  C   UNL     1       3.284   5.815  -3.101  1.00  0.00     0.074 A 
ATOM     14  C   UNL     1       3.263   6.839  -0.652  1.00  0.00     0.049 A 
ATOM     15  N   UNL     1       4.113   6.454  -3.869  1.00  0.00    -0.248 NA
ATOM     16  C   UNL     1       2.456   4.856  -3.876  1.00  0.00     0.031 C 
ATOM     17  C   UNL     1       3.012   6.682   0.802  1.00  0.00     0.029 A 
ATOM     18  N   UNL     1       3.651   8.159  -0.712  1.00  0.00    -0.354 N 
ATOM     19  C   UNL     1       3.838   6.080  -5.205  1.00  0.00     0.074 A 
ATOM     20  C   UNL     1       2.864   5.030  -5.136  1.00  0.00     0.031 C 
ATOM     21  C   UNL     1       3.338   7.805   1.477  1.00  0.00     0.029 A 
ATOM     22  C   UNL     1       3.860   8.782   0.545  1.00  0.00     0.049 A 
ATOM     23  H   UNL     1       3.773   8.636  -1.564  1.00  0.00     0.167 HD
ATOM     24  C   UNL     1       4.346   6.735  -6.293  1.00  0.00     0.031 A 
ATOM     25  C   UNL     1       4.507   9.955   0.826  1.00  0.00     0.031 A 
ATOM     26  C   UNL     1       5.209   7.790  -5.885  1.00  0.00     0.049 A 
ATOM     27  C   UNL     1       5.008  10.441  -0.469  1.00  0.00     0.074 A 
ATOM     28  C   UNL     1       6.524   7.896  -5.522  1.00  0.00     0.029 A 
ATOM     29  N   UNL     1       4.599   8.993  -5.639  1.00  0.00    -0.354 N 
ATOM     30  N   UNL     1       4.286  10.964  -1.409  1.00  0.00    -0.248 NA
ATOM     31  C   UNL     1       6.416  10.201  -0.799  1.00  0.00     0.031 C 
ATOM     32  C   UNL     1       6.567   9.039  -4.683  1.00  0.00     0.029 A 
ATOM     33  C   UNL     1       5.283   9.583  -4.605  1.00  0.00     0.049 A 
ATOM     34  H   UNL     1       3.820   9.363  -6.114  1.00  0.00     0.167 HD
ATOM     35  C   UNL     1       5.061  10.789  -2.532  1.00  0.00     0.074 A 
ATOM     36  C   UNL     1       6.416  10.589  -2.071  1.00  0.00     0.031 C 
ATOM     37  C   UNL     1       4.501  10.392  -3.702  1.00  0.00     0.031 A 
BRANCH  24  38
ATOM     38  C   UNL     1       3.958   6.719  -7.753  1.00  0.00    -0.014 A 
ATOM     39  C   UNL     1       4.824   7.381  -8.662  1.00  0.00     0.009 A 
ATOM     40  C   UNL     1       2.679   6.400  -8.220  1.00  0.00     0.009 A 
ATOM     41  C   UNL     1       4.393   7.827  -9.913  1.00  0.00     0.001 A 
ATOM     42  C   UNL     1       2.258   6.812  -9.497  1.00  0.00     0.001 A 
ATOM     43  C   UNL     1       3.097   7.560 -10.323  1.00  0.00     0.000 A 
ENDBRANCH  24  38
BRANCH  25  44
ATOM     44  C   UNL     1       4.986  10.684   2.056  1.00  0.00    -0.014 A 
ATOM     45  C   UNL     1       4.557  10.450   3.365  1.00  0.00     0.009 A 
ATOM     46  C   UNL     1       5.981  11.690   1.913  1.00  0.00     0.009 A 
ATOM     47  C   UNL     1       5.168  11.097   4.462  1.00  0.00     0.001 A 
ATOM     48  C   UNL     1       6.616  12.308   2.995  1.00  0.00     0.001 A 
ATOM     49  C   UNL     1       6.219  11.995   4.280  1.00  0.00     0.000 A 
ENDBRANCH  25  44
BRANCH  37  50
ATOM     50  C   UNL     1       2.976  10.459  -3.712  1.00  0.00    -0.014 A 
ATOM     51  C   UNL     1       2.314  11.692  -3.653  1.00  0.00     0.009 A 
ATOM     52  C   UNL     1       2.177   9.300  -3.634  1.00  0.00     0.009 A 
ATOM     53  C   UNL     1       0.922  11.759  -3.502  1.00  0.00     0.001 A 
ATOM     54  C   UNL     1       0.786   9.361  -3.489  1.00  0.00     0.001 A 
ATOM     55  C   UNL     1       0.158  10.596  -3.417  1.00  0.00     0.000 A 
ENDBRANCH  37  50
ENDBRANCH  11  12
ENDBRANCH   4   6
ENDBRANCH   3   4
ENDBRANCH   2   3
ENDBRANCH   1   2
BRANCH   1  56
ATOM     56  O   UNL     1       4.860  -0.616  -1.097  1.00  0.00    -0.457 OA
BRANCH  56  57
ATOM     57  C   UNL     1       4.206  -1.517  -1.876  1.00  0.00     0.371 C 
ATOM     58  O   UNL     1       4.166  -2.732  -1.646  1.00  0.00    -0.245 OA
BRANCH  57  59
ATOM     59  C   UNL     1       3.423  -0.861  -3.011  1.00  0.00     0.348 C 
ATOM     60  C   UNL     1       3.263  -1.883  -4.162  1.00  0.00     0.341 C 
ATOM     61  N   UNL     1       4.021   0.412  -3.503  1.00  0.00    -0.325 N 
ATOM     62  N   UNL     1       2.497  -1.414  -5.324  1.00  0.00    -0.318 N 
ATOM     63  C   UNL     1       3.143   0.947  -4.565  1.00  0.00     0.323 C 
ATOM     64  H   UNL     1       4.952   0.234  -3.880  1.00  0.00     0.347 HD
ATOM     65  H   UNL     1       4.104   1.083  -2.740  1.00  0.00     0.347 HD
ATOM     66  C   UNL     1       2.870  -0.050  -5.722  1.00  0.00     0.324 C 
ATOM     67  H   UNL     1       2.786  -2.002  -6.105  1.00  0.00     0.348 HD
BRANCH  62  68
ATOM     68  C   UNL     1       1.049  -1.701  -5.277  1.00  0.00     0.346 C 
BRANCH  68  69
ATOM     69  C   UNL     1       0.208  -0.779  -4.393  1.00  0.00     0.232 C 
ATOM     70  O   UNL     1      -0.224   0.287  -4.843  1.00  0.00    -0.286 OA
BRANCH  69  71
ATOM     71  C   UNL     1      -0.032  -1.148  -3.008  1.00  0.00     0.088 A 
ATOM     72  C   UNL     1       0.365  -2.238  -2.248  1.00  0.00     0.031 A 
ATOM     73  N   UNL     1      -0.730  -0.315  -2.158  1.00  0.00    -0.359 N 
ATOM     74  C   UNL     1       0.031  -1.970  -0.898  1.00  0.00     0.020 A 
ATOM     75  C   UNL     1      -0.658  -0.782  -0.877  1.00  0.00     0.083 A 
ATOM     76  H   UNL     1      -1.211   0.499  -2.435  1.00  0.00     0.166 HD
ENDBRANCH  69  71
ENDBRANCH  68  69
ENDBRANCH  62  68
ENDBRANCH  57  59
ENDBRANCH  56  57
ENDBRANCH   1  56
TORSDOF 14
