REMARK SMILES COc1ccc(-c2ccc(/C=C3\SC(=S)N([C@H](Cc4ccccc4)C(=O)OCCOC(=O)c4ccc(-c5c6nc(c(-c7ccccc7)c7ccc([nH]7)c(-c7ccccc7)c7nc(c(-c8ccccc8)c8ccc5[nH]8)C=C7)C=C6)cc4)C3=O)o2)cc1
REMARK SMILES IDX 28 1 27 2 25 3 26 4 17 5 16 6 11 7 12 8 13 9 81 10 14 11
REMARK SMILES IDX 82 12 15 13 10 14 7 15 8 16 83 17 9 18 6 19 3 20 4 21 85 22
REMARK SMILES IDX 5 23 84 24 2 25 1 26 18 27 19 28 20 29 24 30 21 31 23 32
REMARK SMILES IDX 22 33 29 34 30 35 31 36 32 37 33 38 34 39 80 40 35 41 79 42
REMARK SMILES IDX 36 43 37 44 38 45 73 46 39 47 78 48 72 49 74 50 40 51 77 52
REMARK SMILES IDX 71 53 70 54 41 56 63 57 48 58 62 59 49 60 52 61 61 62 75 63
REMARK SMILES IDX 50 64 51 65 60 67 76 68 53 69 42 70 43 71 47 72 44 73 46 74
REMARK SMILES IDX 45 75 64 76 65 77 69 78 66 79 68 80 67 81 54 82 55 83 59 84
REMARK SMILES IDX 56 85 58 86 57 87
REMARK H PARENT 74 55 52 66
REMARK Flexibility Score: inf
ROOT
ATOM      1  C   UNL     1       3.848  12.539   9.010  1.00  0.00     0.274 C 
ENDROOT
BRANCH   1   2
ATOM      2  O   UNL     1       2.735  12.260   8.139  1.00  0.00    -0.461 OA
BRANCH   2   3
ATOM      3  C   UNL     1       1.660  13.085   8.229  1.00  0.00     0.329 C 
ATOM      4  O   UNL     1       1.589  14.065   8.964  1.00  0.00    -0.250 OA
BRANCH   3   5
ATOM      5  C   UNL     1       0.483  12.650   7.335  1.00  0.00     0.206 C 
BRANCH   5   6
ATOM      6  N   UNL     1      -0.687  12.375   8.193  1.00  0.00    -0.278 N 
ATOM      7  C   UNL     1      -1.842  10.802  11.226  1.00  0.00     0.068 C 
ATOM      8  C   UNL     1      -1.792  11.423  10.042  1.00  0.00     0.084 C 
ATOM      9  S   UNL     1      -3.064  12.174   9.172  1.00  0.00    -0.054 SA
ATOM     10  C   UNL     1      -0.528  11.529   9.278  1.00  0.00     0.267 C 
ATOM     11  C   UNL     1      -1.961  12.866   7.988  1.00  0.00     0.149 C 
ATOM     12  O   UNL     1       0.493  10.928   9.579  1.00  0.00    -0.268 OA
ATOM     13  S   UNL     1      -2.495  13.951   6.841  1.00  0.00    -0.052 S 
BRANCH   7  14
ATOM     14  C   UNL     1      -3.073  10.483  11.852  1.00  0.00     0.128 A 
ATOM     15  C   UNL     1      -4.813  10.558  13.222  1.00  0.00     0.134 A 
ATOM     16  C   UNL     1      -4.993   9.446  12.431  1.00  0.00     0.051 A 
ATOM     17  O   UNL     1      -3.656  11.196  12.877  1.00  0.00    -0.457 OA
ATOM     18  C   UNL     1      -3.890   9.399  11.560  1.00  0.00     0.051 A 
BRANCH  15  19
ATOM     19  C   UNL     1      -5.596  11.110  14.314  1.00  0.00     0.017 A 
ATOM     20  C   UNL     1      -7.305  12.069  16.340  1.00  0.00     0.118 A 
ATOM     21  C   UNL     1      -6.789  12.936  15.371  1.00  0.00     0.047 A 
ATOM     22  C   UNL     1      -6.954  10.722  16.302  1.00  0.00     0.047 A 
ATOM     23  C   UNL     1      -5.931  12.465  14.370  1.00  0.00     0.016 A 
ATOM     24  C   UNL     1      -6.110  10.247  15.293  1.00  0.00     0.016 A 
BRANCH  20  25
ATOM     25  O   UNL     1      -8.149  12.648  17.248  1.00  0.00    -0.497 OA
ATOM     26  C   UNL     1      -8.543  11.843  18.354  1.00  0.00     0.278 C 
ENDBRANCH  20  25
ENDBRANCH  15  19
ENDBRANCH   7  14
ENDBRANCH   5   6
BRANCH   5  27
ATOM     27  C   UNL     1       0.796  11.554   6.289  1.00  0.00     0.073 C 
BRANCH  27  28
ATOM     28  C   UNL     1       0.071  11.661   4.951  1.00  0.00    -0.045 A 
ATOM     29  C   UNL     1      -0.096  12.881   4.275  1.00  0.00     0.004 A 
ATOM     30  C   UNL     1      -0.348  10.495   4.294  1.00  0.00     0.004 A 
ATOM     31  C   UNL     1      -0.709  12.947   3.021  1.00  0.00     0.000 A 
ATOM     32  C   UNL     1      -0.951  10.557   3.031  1.00  0.00     0.000 A 
ATOM     33  C   UNL     1      -1.139  11.783   2.399  1.00  0.00     0.000 A 
ENDBRANCH  27  28
ENDBRANCH   5  27
ENDBRANCH   3   5
ENDBRANCH   2   3
ENDBRANCH   1   2
BRANCH   1  34
ATOM     34  C   UNL     1       5.082  12.948   8.204  1.00  0.00     0.275 C 
BRANCH  34  35
ATOM     35  O   UNL     1       4.826  14.145   7.445  1.00  0.00    -0.458 OA
BRANCH  35  36
ATOM     36  C   UNL     1       4.426  13.926   6.172  1.00  0.00     0.338 C 
ATOM     37  O   UNL     1       4.314  12.858   5.597  1.00  0.00    -0.246 OA
BRANCH  36  38
ATOM     38  C   UNL     1       3.939  15.182   5.591  1.00  0.00     0.060 A 
ATOM     39  C   UNL     1       2.559  15.341   5.495  1.00  0.00     0.016 A 
ATOM     40  C   UNL     1       4.801  16.125   5.039  1.00  0.00     0.016 A 
ATOM     41  C   UNL     1       2.017  16.418   4.809  1.00  0.00     0.010 A 
ATOM     42  C   UNL     1       4.258  17.231   4.373  1.00  0.00     0.010 A 
ATOM     43  C   UNL     1       2.864  17.371   4.234  1.00  0.00    -0.014 A 
BRANCH  43  44
ATOM     44  C   UNL     1       2.275  18.478   3.445  1.00  0.00     0.031 A 
ATOM     45  C   UNL     1       2.439  18.507   1.953  1.00  0.00     0.074 A 
ATOM     46  C   UNL     1       1.550  19.427   4.064  1.00  0.00     0.049 A 
ATOM     47  N   UNL     1       2.064  19.425   1.099  1.00  0.00    -0.248 NA
ATOM     48  C   UNL     1       3.113  17.351   1.340  1.00  0.00     0.031 C 
ATOM     49  C   UNL     1       1.262  19.472   5.498  1.00  0.00     0.029 A 
ATOM     50  N   UNL     1       0.913  20.532   3.559  1.00  0.00    -0.354 N 
ATOM     51  C   UNL     1       2.490  18.978  -0.145  1.00  0.00     0.074 A 
ATOM     52  C   UNL     1       3.155  17.710   0.065  1.00  0.00     0.031 C 
ATOM     53  C   UNL     1       0.489  20.539   5.755  1.00  0.00     0.029 A 
ATOM     54  C   UNL     1       0.277  21.281   4.517  1.00  0.00     0.049 A 
ATOM     55  H   UNL     1       0.912  20.765   2.602  1.00  0.00     0.167 HD
ATOM     56  C   UNL     1       2.344  19.575  -1.352  1.00  0.00     0.031 A 
ATOM     57  C   UNL     1      -0.380  22.451   4.415  1.00  0.00     0.031 A 
ATOM     58  C   UNL     1       1.669  20.829  -1.560  1.00  0.00     0.049 A 
ATOM     59  C   UNL     1      -0.488  23.116   3.074  1.00  0.00     0.074 A 
ATOM     60  C   UNL     1       1.470  21.516  -2.745  1.00  0.00     0.029 A 
ATOM     61  N   UNL     1       1.077  21.580  -0.557  1.00  0.00    -0.354 N 
ATOM     62  N   UNL     1      -0.045  22.704   1.911  1.00  0.00    -0.248 NA
ATOM     63  C   UNL     1      -1.178  24.413   3.034  1.00  0.00     0.031 C 
ATOM     64  C   UNL     1       0.789  22.704  -2.452  1.00  0.00     0.029 A 
ATOM     65  C   UNL     1       0.527  22.733  -1.091  1.00  0.00     0.049 A 
ATOM     66  H   UNL     1       1.052  21.331   0.395  1.00  0.00     0.167 HD
ATOM     67  C   UNL     1      -0.411  23.684   0.999  1.00  0.00     0.074 A 
ATOM     68  C   UNL     1      -1.129  24.701   1.741  1.00  0.00     0.031 C 
ATOM     69  C   UNL     1      -0.172  23.738  -0.334  1.00  0.00     0.031 A 
BRANCH  56  70
ATOM     70  C   UNL     1       2.976  18.896  -2.533  1.00  0.00    -0.014 A 
ATOM     71  C   UNL     1       2.424  17.736  -3.096  1.00  0.00     0.009 A 
ATOM     72  C   UNL     1       4.142  19.438  -3.098  1.00  0.00     0.009 A 
ATOM     73  C   UNL     1       3.046  17.112  -4.180  1.00  0.00     0.001 A 
ATOM     74  C   UNL     1       4.748  18.826  -4.196  1.00  0.00     0.001 A 
ATOM     75  C   UNL     1       4.206  17.659  -4.730  1.00  0.00     0.000 A 
ENDBRANCH  56  70
BRANCH  57  76
ATOM     76  C   UNL     1      -0.956  23.079   5.630  1.00  0.00    -0.014 A 
ATOM     77  C   UNL     1      -2.343  23.106   5.832  1.00  0.00     0.009 A 
ATOM     78  C   UNL     1      -0.115  23.637   6.606  1.00  0.00     0.009 A 
ATOM     79  C   UNL     1      -2.877  23.689   6.984  1.00  0.00     0.001 A 
ATOM     80  C   UNL     1      -0.650  24.196   7.768  1.00  0.00     0.001 A 
ATOM     81  C   UNL     1      -2.030  24.227   7.953  1.00  0.00     0.000 A 
ENDBRANCH  57  76
BRANCH  69  82
ATOM     82  C   UNL     1      -0.709  24.930  -1.071  1.00  0.00    -0.014 A 
ATOM     83  C   UNL     1      -0.091  26.185  -0.965  1.00  0.00     0.009 A 
ATOM     84  C   UNL     1      -1.833  24.789  -1.899  1.00  0.00     0.009 A 
ATOM     85  C   UNL     1      -0.609  27.285  -1.651  1.00  0.00     0.001 A 
ATOM     86  C   UNL     1      -2.335  25.885  -2.601  1.00  0.00     0.001 A 
ATOM     87  C   UNL     1      -1.728  27.134  -2.470  1.00  0.00     0.000 A 
ENDBRANCH  69  82
ENDBRANCH  43  44
ENDBRANCH  36  38
ENDBRANCH  35  36
ENDBRANCH  34  35
ENDBRANCH   1  34
TORSDOF 17
