REMARK SMILES Cc1oc2cc3oc(=O)c(CCC(=O)N[C@@H](C)C(=O)OCCOC(=O)c4ccc(-c5c6nc(c(-c7ccccc7)c7ccc([nH]7)c(-c7ccccc7)c7nc(c(-c8ccccc8)c8ccc5[nH]8)C=C7)C=C6)cc4)c(C)c3cc2c1C
REMARK SMILES IDX 21 1 20 2 18 3 19 4 16 5 17 6 15 7 13 8 14 9 12 11 11 12
REMARK SMILES IDX 10 13 1 14 2 15 3 16 79 17 4 18 78 19 80 20 5 21 77 22 6 23
REMARK SMILES IDX 76 24 7 25 74 26 8 27 75 28 9 29 22 30 23 31 24 32 25 33
REMARK SMILES IDX 26 34 27 35 73 36 28 37 72 38 29 39 30 40 31 41 66 42 32 43
REMARK SMILES IDX 71 44 65 45 67 46 33 47 70 48 64 49 63 50 34 52 56 53 41 54
REMARK SMILES IDX 55 55 42 56 45 57 54 58 68 59 43 60 44 61 53 63 69 64 46 65
REMARK SMILES IDX 35 66 36 67 40 68 37 69 39 70 38 71 57 72 58 73 62 74 59 75
REMARK SMILES IDX 61 76 60 77 47 78 48 79 52 80 49 81 51 82 50 83
REMARK H PARENT 15 10 67 51 45 62
REMARK Flexibility Score: inf
ROOT
ATOM      1  C   UNL     1      -3.166   3.789  -2.513  1.00  0.00     0.274 C 
ENDROOT
BRANCH   1   2
ATOM      2  O   UNL     1      -3.658   4.314  -1.268  1.00  0.00    -0.461 OA
BRANCH   2   3
ATOM      3  C   UNL     1      -2.783   5.080  -0.567  1.00  0.00     0.328 C 
ATOM      4  O   UNL     1      -1.614   5.277  -0.878  1.00  0.00    -0.250 OA
BRANCH   3   5
ATOM      5  C   UNL     1      -3.385   5.562   0.747  1.00  0.00     0.189 C 
ATOM      6  C   UNL     1      -3.804   4.327   1.542  1.00  0.00     0.043 C 
BRANCH   5   7
ATOM      7  N   UNL     1      -4.475   6.529   0.770  1.00  0.00    -0.343 N 
ATOM      8  C   UNL     1      -4.464   7.811   1.241  1.00  0.00     0.221 C 
ATOM      9  O   UNL     1      -5.510   8.260   1.716  1.00  0.00    -0.275 OA
ATOM     10  H   UNL     1      -5.332   6.218   0.398  1.00  0.00     0.164 HD
BRANCH   8  11
ATOM     11  C   UNL     1      -3.223   8.686   1.133  1.00  0.00     0.105 C 
BRANCH  11  12
ATOM     12  C   UNL     1      -2.390   8.856   2.418  1.00  0.00     0.053 C 
BRANCH  12  13
ATOM     13  C   UNL     1      -1.248   7.857   2.485  1.00  0.00     0.042 A 
ATOM     14  C   UNL     1       0.957   0.309   0.125  1.00  0.00     0.088 C 
ATOM     15  C   UNL     1       0.638   1.550   0.863  1.00  0.00     0.105 A 
ATOM     16  O   UNL     1       1.469   2.604   0.641  1.00  0.00    -0.461 OA
ATOM     17  C   UNL     1      -0.397   1.915   1.709  1.00  0.00    -0.002 A 
ATOM     18  C   UNL     1       0.969   3.663   1.329  1.00  0.00     0.138 A 
ATOM     19  C   UNL     1      -0.135   3.278   2.079  1.00  0.00     0.024 A 
ATOM     20  C   UNL     1      -1.572   1.072   2.047  1.00  0.00     0.049 C 
ATOM     21  C   UNL     1       1.440   4.967   1.245  1.00  0.00     0.095 A 
ATOM     22  C   UNL     1      -0.771   4.257   2.881  1.00  0.00     0.024 A 
ATOM     23  C   UNL     1       0.667   5.927   1.909  1.00  0.00     0.142 A 
ATOM     24  C   UNL     1      -0.406   5.615   2.747  1.00  0.00     0.022 A 
ATOM     25  O   UNL     1       0.950   7.262   1.573  1.00  0.00    -0.422 OA
ATOM     26  C   UNL     1      -1.278   6.720   3.216  1.00  0.00    -0.030 A 
ATOM     27  C   UNL     1      -0.080   8.183   1.614  1.00  0.00     0.339 A 
ATOM     28  C   UNL     1      -2.345   6.469   4.245  1.00  0.00     0.046 C 
ATOM     29  O   UNL     1      -0.013   9.248   1.009  1.00  0.00    -0.246 OA
ENDBRANCH  12  13
ENDBRANCH  11  12
ENDBRANCH   8  11
ENDBRANCH   5   7
ENDBRANCH   3   5
ENDBRANCH   2   3
ENDBRANCH   1   2
BRANCH   1  30
ATOM     30  C   UNL     1      -3.671   4.667  -3.652  1.00  0.00     0.275 C 
BRANCH  30  31
ATOM     31  O   UNL     1      -2.782   5.771  -3.870  1.00  0.00    -0.458 OA
BRANCH  31  32
ATOM     32  C   UNL     1      -2.970   6.881  -3.118  1.00  0.00     0.338 C 
ATOM     33  O   UNL     1      -3.859   7.115  -2.320  1.00  0.00    -0.246 OA
BRANCH  32  34
ATOM     34  C   UNL     1      -1.803   7.728  -3.368  1.00  0.00     0.060 A 
ATOM     35  C   UNL     1      -1.598   8.218  -4.657  1.00  0.00     0.016 A 
ATOM     36  C   UNL     1      -0.869   7.941  -2.351  1.00  0.00     0.016 A 
ATOM     37  C   UNL     1      -0.423   8.898  -4.937  1.00  0.00     0.010 A 
ATOM     38  C   UNL     1       0.314   8.612  -2.638  1.00  0.00     0.010 A 
ATOM     39  C   UNL     1       0.539   9.089  -3.932  1.00  0.00    -0.014 A 
BRANCH  39  40
ATOM     40  C   UNL     1       1.722   9.887  -4.278  1.00  0.00     0.031 A 
ATOM     41  C   UNL     1       2.092  10.947  -3.289  1.00  0.00     0.074 A 
ATOM     42  C   UNL     1       2.663   9.373  -5.096  1.00  0.00     0.049 A 
ATOM     43  N   UNL     1       2.867  10.744  -2.263  1.00  0.00    -0.248 NA
ATOM     44  C   UNL     1       1.383  12.227  -3.249  1.00  0.00     0.031 C 
ATOM     45  C   UNL     1       3.121   7.977  -5.047  1.00  0.00     0.029 A 
ATOM     46  N   UNL     1       3.546   9.992  -5.944  1.00  0.00    -0.354 N 
ATOM     47  C   UNL     1       2.722  11.835  -1.417  1.00  0.00     0.074 A 
ATOM     48  C   UNL     1       1.803  12.734  -2.080  1.00  0.00     0.031 C 
ATOM     49  C   UNL     1       4.307   7.891  -5.683  1.00  0.00     0.029 A 
ATOM     50  C   UNL     1       4.617   9.177  -6.303  1.00  0.00     0.049 A 
ATOM     51  H   UNL     1       3.434  10.915  -6.266  1.00  0.00     0.167 HD
ATOM     52  C   UNL     1       3.360  11.945  -0.219  1.00  0.00     0.031 A 
ATOM     53  C   UNL     1       5.863   9.649  -6.586  1.00  0.00     0.031 A 
ATOM     54  C   UNL     1       4.208  10.846   0.131  1.00  0.00     0.049 A 
ATOM     55  C   UNL     1       6.349   9.954  -5.184  1.00  0.00     0.074 A 
ATOM     56  C   UNL     1       4.177   9.755   0.972  1.00  0.00     0.029 A 
ATOM     57  N   UNL     1       5.426  10.760  -0.493  1.00  0.00    -0.354 N 
ATOM     58  N   UNL     1       6.767   9.095  -4.293  1.00  0.00    -0.248 NA
ATOM     59  C   UNL     1       5.981  11.265  -4.642  1.00  0.00     0.031 C 
ATOM     60  C   UNL     1       5.163   8.852   0.459  1.00  0.00     0.029 A 
ATOM     61  C   UNL     1       5.694   9.433  -0.693  1.00  0.00     0.049 A 
ATOM     62  H   UNL     1       6.003  11.515  -0.751  1.00  0.00     0.167 HD
ATOM     63  C   UNL     1       6.421   9.646  -3.055  1.00  0.00     0.074 A 
ATOM     64  C   UNL     1       5.947  10.985  -3.348  1.00  0.00     0.031 C 
ATOM     65  C   UNL     1       6.356   8.942  -1.885  1.00  0.00     0.031 A 
BRANCH  52  66
ATOM     66  C   UNL     1       3.365  13.156   0.634  1.00  0.00    -0.014 A 
ATOM     67  C   UNL     1       2.304  13.509   1.472  1.00  0.00     0.009 A 
ATOM     68  C   UNL     1       4.574  13.870   0.732  1.00  0.00     0.009 A 
ATOM     69  C   UNL     1       2.466  14.544   2.405  1.00  0.00     0.001 A 
ATOM     70  C   UNL     1       4.737  14.889   1.667  1.00  0.00     0.001 A 
ATOM     71  C   UNL     1       3.683  15.222   2.510  1.00  0.00     0.000 A 
ENDBRANCH  52  66
BRANCH  53  72
ATOM     72  C   UNL     1       5.908  10.666  -7.694  1.00  0.00    -0.014 A 
ATOM     73  C   UNL     1       6.564  11.903  -7.617  1.00  0.00     0.009 A 
ATOM     74  C   UNL     1       5.211  10.382  -8.887  1.00  0.00     0.009 A 
ATOM     75  C   UNL     1       6.373  12.882  -8.601  1.00  0.00     0.001 A 
ATOM     76  C   UNL     1       5.046  11.346  -9.886  1.00  0.00     0.001 A 
ATOM     77  C   UNL     1       5.594  12.612  -9.722  1.00  0.00     0.000 A 
ENDBRANCH  53  72
BRANCH  65  78
ATOM     78  C   UNL     1       6.812   7.517  -1.919  1.00  0.00    -0.014 A 
ATOM     79  C   UNL     1       5.925   6.473  -1.603  1.00  0.00     0.009 A 
ATOM     80  C   UNL     1       8.154   7.205  -2.167  1.00  0.00     0.009 A 
ATOM     81  C   UNL     1       6.383   5.163  -1.464  1.00  0.00     0.001 A 
ATOM     82  C   UNL     1       8.608   5.890  -2.053  1.00  0.00     0.001 A 
ATOM     83  C   UNL     1       7.728   4.874  -1.682  1.00  0.00     0.000 A 
ENDBRANCH  65  78
ENDBRANCH  39  40
ENDBRANCH  32  34
ENDBRANCH  31  32
ENDBRANCH  30  31
ENDBRANCH   1  30
TORSDOF 15
