REMARK SMILES CC(C)N1C[C@@H](C(=O)N2CCC(C(=O)OCCOC(=O)c3ccc(-c4c5nc(c(-c6ccccc6)c6ccc([nH]6)c(-c6ccccc6)c6nc(c(-c7ccccc7)c7ccc4[nH]7)C=C6)C=C5)cc3)CC2)CC1=O
REMARK SMILES IDX 16 1 15 2 13 3 14 4 12 5 7 6 8 7 9 8 10 9 70 10 11 11 69 12
REMARK SMILES IDX 6 13 4 14 5 15 72 16 71 17 73 18 2 19 1 20 3 21 17 22 18 23
REMARK SMILES IDX 19 24 20 25 21 26 22 27 68 28 23 29 67 30 24 31 25 32 26 33
REMARK SMILES IDX 61 34 27 35 66 36 60 37 62 38 28 39 65 40 59 41 58 42 29 44
REMARK SMILES IDX 51 45 36 46 50 47 37 48 40 49 49 50 63 51 38 52 39 53 48 55
REMARK SMILES IDX 64 56 41 57 30 58 31 59 35 60 32 61 34 62 33 63 52 64 53 65
REMARK SMILES IDX 57 66 54 67 56 68 55 69 42 70 43 71 47 72 44 73 46 74 45 75
REMARK H PARENT 62 43 40 54
REMARK Flexibility Score: inf
ROOT
ATOM      1  C   UNL     1      -9.750  -1.821   5.332  1.00  0.00     0.274 C 
ENDROOT
BRANCH   1   2
ATOM      2  O   UNL     1      -8.468  -1.708   4.686  1.00  0.00    -0.462 OA
BRANCH   2   3
ATOM      3  C   UNL     1      -7.557  -0.906   5.289  1.00  0.00     0.309 C 
ATOM      4  O   UNL     1      -7.770  -0.229   6.289  1.00  0.00    -0.252 OA
BRANCH   3   5
ATOM      5  C   UNL     1      -6.197  -0.942   4.623  1.00  0.00     0.103 C 
ATOM      6  C   UNL     1      -4.132  -0.579   1.181  1.00  0.00     0.227 C 
ATOM      7  O   UNL     1      -4.789  -1.312   0.435  1.00  0.00    -0.274 OA
ATOM      8  N   UNL     1      -4.221  -0.715   2.555  1.00  0.00    -0.342 N 
ATOM      9  C   UNL     1      -4.560  -2.034   3.088  1.00  0.00     0.120 C 
ATOM     10  C   UNL     1      -4.405   0.389   3.491  1.00  0.00     0.120 C 
ATOM     11  C   UNL     1      -5.991  -2.071   3.610  1.00  0.00     0.037 C 
ATOM     12  C   UNL     1      -5.850   0.411   3.999  1.00  0.00     0.037 C 
BRANCH   6  13
ATOM     13  C   UNL     1      -3.052   0.300   0.567  1.00  0.00     0.107 C 
ATOM     14  N   UNL     1      -0.850   1.053   0.818  1.00  0.00    -0.339 N 
ATOM     15  C   UNL     1      -1.686  -0.088   1.103  1.00  0.00     0.133 C 
ATOM     16  C   UNL     1      -1.614   2.187   0.564  1.00  0.00     0.223 C 
ATOM     17  C   UNL     1      -3.077   1.813   0.654  1.00  0.00     0.115 C 
ATOM     18  O   UNL     1      -1.221   3.322   0.351  1.00  0.00    -0.275 OA
BRANCH  14  19
ATOM     19  C   UNL     1       0.615   0.947   0.892  1.00  0.00     0.078 C 
ATOM     20  C   UNL     1       1.162   0.059  -0.229  1.00  0.00     0.031 C 
ATOM     21  C   UNL     1       1.361   2.281   0.896  1.00  0.00     0.031 C 
ENDBRANCH  14  19
ENDBRANCH   6  13
ENDBRANCH   3   5
ENDBRANCH   2   3
ENDBRANCH   1   2
BRANCH   1  22
ATOM     22  C   UNL     1      -9.864  -3.135   6.109  1.00  0.00     0.275 C 
BRANCH  22  23
ATOM     23  O   UNL     1      -8.959  -3.174   7.230  1.00  0.00    -0.458 OA
BRANCH  23  24
ATOM     24  C   UNL     1      -7.782  -3.796   6.996  1.00  0.00     0.338 C 
ATOM     25  O   UNL     1      -7.414  -4.332   5.965  1.00  0.00    -0.246 OA
BRANCH  24  26
ATOM     26  C   UNL     1      -6.894  -3.642   8.157  1.00  0.00     0.060 A 
ATOM     27  C   UNL     1      -5.767  -2.832   8.013  1.00  0.00     0.016 A 
ATOM     28  C   UNL     1      -7.094  -4.373   9.328  1.00  0.00     0.016 A 
ATOM     29  C   UNL     1      -4.823  -2.750   9.030  1.00  0.00     0.010 A 
ATOM     30  C   UNL     1      -6.148  -4.285  10.356  1.00  0.00     0.010 A 
ATOM     31  C   UNL     1      -5.001  -3.485  10.207  1.00  0.00    -0.014 A 
BRANCH  31  32
ATOM     32  C   UNL     1      -3.952  -3.452  11.252  1.00  0.00     0.031 A 
ATOM     33  C   UNL     1      -3.055  -4.639  11.449  1.00  0.00     0.074 A 
ATOM     34  C   UNL     1      -3.778  -2.343  11.995  1.00  0.00     0.049 A 
ATOM     35  N   UNL     1      -2.139  -4.840  12.362  1.00  0.00    -0.248 NA
ATOM     36  C   UNL     1      -3.204  -5.744  10.489  1.00  0.00     0.031 C 
ATOM     37  C   UNL     1      -4.536  -1.099  11.850  1.00  0.00     0.029 A 
ATOM     38  N   UNL     1      -2.902  -2.086  13.018  1.00  0.00    -0.354 N 
ATOM     39  C   UNL     1      -1.618  -6.100  12.102  1.00  0.00     0.074 A 
ATOM     40  C   UNL     1      -2.325  -6.623  10.953  1.00  0.00     0.031 C 
ATOM     41  C   UNL     1      -4.087  -0.207  12.749  1.00  0.00     0.029 A 
ATOM     42  C   UNL     1      -3.051  -0.835  13.564  1.00  0.00     0.049 A 
ATOM     43  H   UNL     1      -2.231  -2.735  13.330  1.00  0.00     0.167 HD
ATOM     44  C   UNL     1      -0.638  -6.762  12.762  1.00  0.00     0.031 A 
ATOM     45  C   UNL     1      -2.444  -0.270  14.624  1.00  0.00     0.031 A 
ATOM     46  C   UNL     1       0.063  -6.244  13.906  1.00  0.00     0.049 A 
ATOM     47  C   UNL     1      -1.422  -1.059  15.393  1.00  0.00     0.074 A 
ATOM     48  C   UNL     1       1.057  -6.848  14.658  1.00  0.00     0.029 A 
ATOM     49  N   UNL     1      -0.154  -4.994  14.462  1.00  0.00    -0.354 N 
ATOM     50  N   UNL     1      -0.964  -2.265  15.160  1.00  0.00    -0.248 NA
ATOM     51  C   UNL     1      -0.840  -0.410  16.576  1.00  0.00     0.031 C 
ATOM     52  C   UNL     1       1.415  -5.976  15.691  1.00  0.00     0.029 A 
ATOM     53  C   UNL     1       0.676  -4.812  15.556  1.00  0.00     0.049 A 
ATOM     54  H   UNL     1      -0.803  -4.332  14.129  1.00  0.00     0.167 HD
ATOM     55  C   UNL     1      -0.028  -2.512  16.155  1.00  0.00     0.074 A 
ATOM     56  C   UNL     1       0.028  -1.325  16.984  1.00  0.00     0.031 C 
ATOM     57  C   UNL     1       0.717  -3.624  16.366  1.00  0.00     0.031 A 
BRANCH  44  58
ATOM     58  C   UNL     1      -0.296  -8.143  12.281  1.00  0.00    -0.014 A 
ATOM     59  C   UNL     1       0.445  -8.341  11.106  1.00  0.00     0.009 A 
ATOM     60  C   UNL     1      -0.698  -9.259  13.030  1.00  0.00     0.009 A 
ATOM     61  C   UNL     1       0.751  -9.634  10.675  1.00  0.00     0.001 A 
ATOM     62  C   UNL     1      -0.371 -10.549  12.609  1.00  0.00     0.001 A 
ATOM     63  C   UNL     1       0.346 -10.736  11.429  1.00  0.00     0.000 A 
ENDBRANCH  44  58
BRANCH  45  64
ATOM     64  C   UNL     1      -2.816   1.103  15.051  1.00  0.00    -0.014 A 
ATOM     65  C   UNL     1      -1.918   2.169  14.894  1.00  0.00     0.009 A 
ATOM     66  C   UNL     1      -4.069   1.350  15.634  1.00  0.00     0.009 A 
ATOM     67  C   UNL     1      -2.260   3.450  15.332  1.00  0.00     0.001 A 
ATOM     68  C   UNL     1      -4.419   2.637  16.046  1.00  0.00     0.001 A 
ATOM     69  C   UNL     1      -3.511   3.684  15.903  1.00  0.00     0.000 A 
ENDBRANCH  45  64
BRANCH  57  70
ATOM     70  C   UNL     1       1.680  -3.590  17.517  1.00  0.00    -0.014 A 
ATOM     71  C   UNL     1       1.232  -3.714  18.841  1.00  0.00     0.009 A 
ATOM     72  C   UNL     1       3.055  -3.461  17.270  1.00  0.00     0.009 A 
ATOM     73  C   UNL     1       2.143  -3.679  19.898  1.00  0.00     0.001 A 
ATOM     74  C   UNL     1       3.965  -3.449  18.327  1.00  0.00     0.001 A 
ATOM     75  C   UNL     1       3.508  -3.550  19.640  1.00  0.00     0.000 A 
ENDBRANCH  57  70
ENDBRANCH  31  32
ENDBRANCH  24  26
ENDBRANCH  23  24
ENDBRANCH  22  23
ENDBRANCH   1  22
TORSDOF 13
