REMARK SMILES Cc1cc(C(=O)OCCOC(=O)c2ccc(-c3c4nc(c(-c5ccccc5)c5ccc([nH]5)c(-c5ccccc5)c5nc(c(-c6ccccc6)c6ccc3[nH]6)C=C5)C=C4)cc2)c2c(C)nn(-c3ccccc3)c2n1
REMARK SMILES IDX 9 1 8 2 7 3 5 4 6 5 4 6 1 7 2 8 3 9 73 10 72 11 61 12 65 13
REMARK SMILES IDX 62 14 64 15 63 16 66 17 67 18 71 19 68 20 70 21 69 22 10 23
REMARK SMILES IDX 11 24 12 25 13 26 14 27 60 28 15 29 59 30 16 31 17 32 18 33
REMARK SMILES IDX 53 34 19 35 58 36 52 37 54 38 20 39 57 40 51 41 50 42 21 44
REMARK SMILES IDX 43 45 28 46 42 47 29 48 32 49 41 50 55 51 30 52 31 53 40 55
REMARK SMILES IDX 56 56 33 57 22 58 23 59 27 60 24 61 26 62 25 63 44 64 45 65
REMARK SMILES IDX 49 66 46 67 48 68 47 69 34 70 35 71 39 72 36 73 38 74 37 75
REMARK H PARENT 54 43 32 54
REMARK Flexibility Score: inf
ROOT
ATOM      1  C   UNL     1       1.628  -6.023   3.227  1.00  0.00     0.275 C 
ENDROOT
BRANCH   1   2
ATOM      2  C   UNL     1       0.420  -5.835   2.317  1.00  0.00     0.275 C 
BRANCH   2   3
ATOM      3  O   UNL     1       0.239  -4.448   1.981  1.00  0.00    -0.458 OA
BRANCH   3   4
ATOM      4  C   UNL     1      -0.618  -3.746   2.780  1.00  0.00     0.339 C 
ATOM      5  O   UNL     1      -1.389  -4.217   3.576  1.00  0.00    -0.246 OA
BRANCH   4   6
ATOM      6  C   UNL     1      -0.407  -2.288   2.583  1.00  0.00     0.074 A 
ATOM      7  C   UNL     1       0.971   0.066  -0.048  1.00  0.00     0.067 C 
ATOM      8  C   UNL     1       0.293  -0.438   1.195  1.00  0.00     0.041 A 
ATOM      9  C   UNL     1       0.134  -1.805   1.381  1.00  0.00     0.040 A 
ATOM     10  N   UNL     1      -0.069   0.491   2.100  1.00  0.00    -0.233 NA
ATOM     11  C   UNL     1      -0.518  -0.009   3.273  1.00  0.00     0.164 A 
ATOM     12  C   UNL     1      -0.680  -1.353   3.607  1.00  0.00     0.057 A 
ATOM     13  N   UNL     1      -0.844   0.722   4.400  1.00  0.00    -0.214 N 
ATOM     14  C   UNL     1      -1.059  -1.316   4.984  1.00  0.00     0.070 A 
ATOM     15  N   UNL     1      -1.032  -0.070   5.481  1.00  0.00    -0.171 NA
ATOM     16  C   UNL     1      -1.411  -2.412   5.924  1.00  0.00     0.069 C 
BRANCH  13  17
ATOM     17  C   UNL     1      -1.027   2.118   4.503  1.00  0.00     0.067 A 
ATOM     18  C   UNL     1      -1.825   2.784   3.564  1.00  0.00     0.028 A 
ATOM     19  C   UNL     1      -0.464   2.811   5.580  1.00  0.00     0.028 A 
ATOM     20  C   UNL     1      -2.081   4.146   3.726  1.00  0.00     0.002 A 
ATOM     21  C   UNL     1      -0.672   4.186   5.695  1.00  0.00     0.002 A 
ATOM     22  C   UNL     1      -1.494   4.848   4.781  1.00  0.00     0.000 A 
ENDBRANCH  13  17
ENDBRANCH   4   6
ENDBRANCH   3   4
ENDBRANCH   2   3
ENDBRANCH   1   2
BRANCH   1  23
ATOM     23  O   UNL     1       1.476  -5.308   4.452  1.00  0.00    -0.458 OA
BRANCH  23  24
ATOM     24  C   UNL     1       1.986  -4.055   4.440  1.00  0.00     0.338 C 
ATOM     25  O   UNL     1       2.349  -3.408   3.471  1.00  0.00    -0.246 OA
BRANCH  24  26
ATOM     26  C   UNL     1       2.222  -3.618   5.816  1.00  0.00     0.060 A 
ATOM     27  C   UNL     1       2.512  -2.267   6.033  1.00  0.00     0.016 A 
ATOM     28  C   UNL     1       2.435  -4.592   6.799  1.00  0.00     0.016 A 
ATOM     29  C   UNL     1       3.165  -1.912   7.195  1.00  0.00     0.010 A 
ATOM     30  C   UNL     1       3.126  -4.245   7.933  1.00  0.00     0.010 A 
ATOM     31  C   UNL     1       3.530  -2.921   8.089  1.00  0.00    -0.014 A 
BRANCH  31  32
ATOM     32  C   UNL     1       4.381  -2.576   9.204  1.00  0.00     0.031 A 
ATOM     33  C   UNL     1       3.677  -2.214  10.454  1.00  0.00     0.074 A 
ATOM     34  C   UNL     1       5.716  -2.713   9.126  1.00  0.00     0.049 A 
ATOM     35  N   UNL     1       3.672  -1.071  11.056  1.00  0.00    -0.248 NA
ATOM     36  C   UNL     1       2.792  -3.223  11.055  1.00  0.00     0.031 C 
ATOM     37  C   UNL     1       6.515  -3.372   8.089  1.00  0.00     0.029 A 
ATOM     38  N   UNL     1       6.639  -2.365  10.055  1.00  0.00    -0.354 N 
ATOM     39  C   UNL     1       2.879  -1.245  12.184  1.00  0.00     0.074 A 
ATOM     40  C   UNL     1       2.250  -2.535  12.057  1.00  0.00     0.031 C 
ATOM     41  C   UNL     1       7.771  -3.565   8.559  1.00  0.00     0.029 A 
ATOM     42  C   UNL     1       7.889  -2.929   9.861  1.00  0.00     0.049 A 
ATOM     43  H   UNL     1       6.438  -1.762  10.806  1.00  0.00     0.167 HD
ATOM     44  C   UNL     1       2.930  -0.412  13.257  1.00  0.00     0.031 A 
ATOM     45  C   UNL     1       8.891  -2.937  10.775  1.00  0.00     0.031 A 
ATOM     46  C   UNL     1       3.591   0.827  12.965  1.00  0.00     0.049 A 
ATOM     47  C   UNL     1       8.597  -1.857  11.752  1.00  0.00     0.074 A 
ATOM     48  C   UNL     1       3.325   1.887  12.121  1.00  0.00     0.029 A 
ATOM     49  N   UNL     1       4.923   0.931  13.287  1.00  0.00    -0.354 N 
ATOM     50  N   UNL     1       8.599  -0.589  11.452  1.00  0.00    -0.248 NA
ATOM     51  C   UNL     1       7.873  -2.208  12.965  1.00  0.00     0.031 C 
ATOM     52  C   UNL     1       4.597   2.272  11.600  1.00  0.00     0.029 A 
ATOM     53  C   UNL     1       5.563   1.454  12.190  1.00  0.00     0.049 A 
ATOM     54  H   UNL     1       5.340   0.677  14.142  1.00  0.00     0.167 HD
ATOM     55  C   UNL     1       7.555  -0.045  12.187  1.00  0.00     0.074 A 
ATOM     56  C   UNL     1       7.207  -1.069  13.169  1.00  0.00     0.031 C 
ATOM     57  C   UNL     1       6.886   1.064  11.754  1.00  0.00     0.031 A 
BRANCH  44  58
ATOM     58  C   UNL     1       2.642  -0.887  14.650  1.00  0.00    -0.014 A 
ATOM     59  C   UNL     1       2.396   0.040  15.672  1.00  0.00     0.009 A 
ATOM     60  C   UNL     1       2.818  -2.233  15.034  1.00  0.00     0.009 A 
ATOM     61  C   UNL     1       2.325  -0.366  17.011  1.00  0.00     0.001 A 
ATOM     62  C   UNL     1       2.704  -2.648  16.360  1.00  0.00     0.001 A 
ATOM     63  C   UNL     1       2.472  -1.709  17.353  1.00  0.00     0.000 A 
ENDBRANCH  44  58
BRANCH  45  64
ATOM     64  C   UNL     1       9.811  -4.053  11.099  1.00  0.00    -0.014 A 
ATOM     65  C   UNL     1      10.851  -3.856  12.024  1.00  0.00     0.009 A 
ATOM     66  C   UNL     1       9.493  -5.378  10.751  1.00  0.00     0.009 A 
ATOM     67  C   UNL     1      11.492  -4.943  12.633  1.00  0.00     0.001 A 
ATOM     68  C   UNL     1      10.140  -6.464  11.350  1.00  0.00     0.001 A 
ATOM     69  C   UNL     1      11.122  -6.246  12.310  1.00  0.00     0.000 A 
ENDBRANCH  45  64
BRANCH  57  70
ATOM     70  C   UNL     1       7.428   1.772  10.534  1.00  0.00    -0.014 A 
ATOM     71  C   UNL     1       7.437   1.178   9.258  1.00  0.00     0.009 A 
ATOM     72  C   UNL     1       7.787   3.122  10.639  1.00  0.00     0.009 A 
ATOM     73  C   UNL     1       7.812   1.909   8.126  1.00  0.00     0.001 A 
ATOM     74  C   UNL     1       8.146   3.857   9.506  1.00  0.00     0.001 A 
ATOM     75  C   UNL     1       8.161   3.252   8.251  1.00  0.00     0.000 A 
ENDBRANCH  57  70
ENDBRANCH  31  32
ENDBRANCH  24  26
ENDBRANCH  23  24
ENDBRANCH   1  23
TORSDOF 12
