REMARK SMILES CCN(Cc1cn(CC)nc1C)C(=O)c1ccn([C@@H](C)C(=O)OCCOC(=O)c2ccc(-c3c4nc(c(-c5ccccc5)c5ccc([nH]5)c(-c5ccccc5)c5nc(c(-c6ccccc6)c6ccc3[nH]6)C=C5)C=C4)cc2)n1
REMARK SMILES IDX 21 1 22 2 19 3 20 4 18 5 15 6 16 7 77 8 17 9 13 10 14 11
REMARK SMILES IDX 3 12 2 13 1 14 4 15 5 16 6 17 11 18 7 19 10 20 12 21 8 22
REMARK SMILES IDX 9 23 23 24 24 25 25 26 26 27 27 28 28 29 29 30 30 31 76 32
REMARK SMILES IDX 31 33 75 34 32 35 33 36 34 37 69 38 35 39 74 40 68 41 70 42
REMARK SMILES IDX 36 43 73 44 67 45 66 46 37 48 59 49 44 50 58 51 45 52 48 53
REMARK SMILES IDX 57 54 71 55 46 56 47 57 56 59 72 60 49 61 38 62 39 63 43 64
REMARK SMILES IDX 40 65 42 66 41 67 60 68 61 69 65 70 62 71 64 72 63 73 50 74
REMARK SMILES IDX 51 75 55 76 52 77 54 78 53 79
REMARK H PARENT 70 47 48 58
REMARK Flexibility Score: inf
ROOT
ATOM      1  C   UNL     1       5.687   7.299   2.167  1.00  0.00     0.330 C 
ATOM      2  O   UNL     1       6.856   7.479   1.836  1.00  0.00    -0.250 OA
ENDROOT
BRANCH   1   3
ATOM      3  C   UNL     1       4.633   6.767   1.206  1.00  0.00     0.213 C 
ATOM      4  C   UNL     1       3.865   7.922   0.584  1.00  0.00     0.046 C 
BRANCH   3   5
ATOM      5  N   UNL     1       3.743   5.739   1.750  1.00  0.00    -0.258 N 
ATOM      6  C   UNL     1       2.894   3.784   1.879  1.00  0.00     0.150 A 
ATOM      7  C   UNL     1       2.772   4.395   3.150  1.00  0.00     0.056 A 
ATOM      8  N   UNL     1       3.452   4.643   0.999  1.00  0.00    -0.167 NA
ATOM      9  C   UNL     1       3.122   5.708   2.966  1.00  0.00     0.110 A 
BRANCH   6  10
ATOM     10  C   UNL     1       2.530   2.397   1.538  1.00  0.00     0.274 C 
ATOM     11  O   UNL     1       3.401   1.566   1.274  1.00  0.00    -0.267 OA
BRANCH  10  12
ATOM     12  N   UNL     1       1.165   2.043   1.562  1.00  0.00    -0.333 N 
BRANCH  12  13
ATOM     13  C   UNL     1       0.813   0.653   1.276  1.00  0.00     0.117 C 
ATOM     14  C   UNL     1       0.924   0.294  -0.198  1.00  0.00     0.027 C 
ENDBRANCH  12  13
BRANCH  12  15
ATOM     15  C   UNL     1       0.068   3.009   1.656  1.00  0.00     0.159 C 
BRANCH  15  16
ATOM     16  C   UNL     1      -0.165   3.501   3.051  1.00  0.00     0.012 A 
ATOM     17  C   UNL     1      -0.421   4.819   3.394  1.00  0.00     0.114 A 
ATOM     18  C   UNL     1      -0.101   2.832   4.312  1.00  0.00     0.064 A 
ATOM     19  N   UNL     1      -0.342   4.892   4.753  1.00  0.00    -0.272 N 
ATOM     20  N   UNL     1      -0.212   3.692   5.335  1.00  0.00    -0.178 NA
ATOM     21  C   UNL     1       0.175   1.408   4.624  1.00  0.00     0.069 C 
BRANCH  19  22
ATOM     22  C   UNL     1      -0.184   6.098   5.543  1.00  0.00     0.141 C 
ATOM     23  C   UNL     1      -1.218   6.238   6.644  1.00  0.00     0.029 C 
ENDBRANCH  19  22
ENDBRANCH  15  16
ENDBRANCH  12  15
ENDBRANCH  10  12
ENDBRANCH   6  10
ENDBRANCH   3   5
ENDBRANCH   1   3
BRANCH   1  24
ATOM     24  O   UNL     1       5.199   7.633   3.395  1.00  0.00    -0.460 OA
BRANCH  24  25
ATOM     25  C   UNL     1       6.154   8.000   4.413  1.00  0.00     0.274 C 
BRANCH  25  26
ATOM     26  C   UNL     1       6.643   6.795   5.215  1.00  0.00     0.275 C 
BRANCH  26  27
ATOM     27  O   UNL     1       7.559   5.986   4.470  1.00  0.00    -0.458 OA
BRANCH  27  28
ATOM     28  C   UNL     1       6.965   4.994   3.781  1.00  0.00     0.338 C 
ATOM     29  O   UNL     1       5.762   4.866   3.589  1.00  0.00    -0.246 OA
BRANCH  28  30
ATOM     30  C   UNL     1       7.894   3.935   3.421  1.00  0.00     0.060 A 
ATOM     31  C   UNL     1       7.469   2.987   2.480  1.00  0.00     0.016 A 
ATOM     32  C   UNL     1       9.025   3.741   4.218  1.00  0.00     0.016 A 
ATOM     33  C   UNL     1       8.126   1.776   2.415  1.00  0.00     0.010 A 
ATOM     34  C   UNL     1       9.664   2.525   4.167  1.00  0.00     0.010 A 
ATOM     35  C   UNL     1       9.177   1.540   3.303  1.00  0.00    -0.014 A 
BRANCH  35  36
ATOM     36  C   UNL     1       9.821   0.243   3.281  1.00  0.00     0.031 A 
ATOM     37  C   UNL     1      10.803   0.049   2.188  1.00  0.00     0.074 A 
ATOM     38  C   UNL     1       9.689  -0.624   4.301  1.00  0.00     0.049 A 
ATOM     39  N   UNL     1      10.847  -0.898   1.311  1.00  0.00    -0.248 NA
ATOM     40  C   UNL     1      11.828   1.090   2.007  1.00  0.00     0.031 C 
ATOM     41  C   UNL     1       9.021  -0.394   5.586  1.00  0.00     0.029 A 
ATOM     42  N   UNL     1      10.263  -1.847   4.458  1.00  0.00    -0.354 N 
ATOM     43  C   UNL     1      11.992  -0.661   0.557  1.00  0.00     0.074 A 
ATOM     44  C   UNL     1      12.480   0.639   0.938  1.00  0.00     0.031 C 
ATOM     45  C   UNL     1       9.431  -1.334   6.466  1.00  0.00     0.029 A 
ATOM     46  C   UNL     1      10.286  -2.285   5.772  1.00  0.00     0.049 A 
ATOM     47  H   UNL     1      10.629  -2.370   3.708  1.00  0.00     0.167 HD
ATOM     48  C   UNL     1      12.595  -1.641  -0.166  1.00  0.00     0.031 A 
ATOM     49  C   UNL     1      11.027  -3.303   6.269  1.00  0.00     0.031 A 
ATOM     50  C   UNL     1      11.720  -2.754  -0.412  1.00  0.00     0.049 A 
ATOM     51  C   UNL     1      11.488  -4.133   5.133  1.00  0.00     0.074 A 
ATOM     52  C   UNL     1      10.505  -2.914  -1.047  1.00  0.00     0.029 A 
ATOM     53  N   UNL     1      11.902  -3.884   0.347  1.00  0.00    -0.354 N 
ATOM     54  N   UNL     1      10.703  -4.883   4.415  1.00  0.00    -0.248 NA
ATOM     55  C   UNL     1      12.780  -3.834   4.533  1.00  0.00     0.031 C 
ATOM     56  C   UNL     1       9.816  -3.904  -0.287  1.00  0.00     0.029 A 
ATOM     57  C   UNL     1      10.663  -4.312   0.746  1.00  0.00     0.049 A 
ATOM     58  H   UNL     1      12.764  -4.308   0.565  1.00  0.00     0.167 HD
ATOM     59  C   UNL     1      11.206  -4.791   3.126  1.00  0.00     0.074 A 
ATOM     60  C   UNL     1      12.551  -4.245   3.283  1.00  0.00     0.031 C 
ATOM     61  C   UNL     1      10.384  -4.895   2.040  1.00  0.00     0.031 A 
BRANCH  48  62
ATOM     62  C   UNL     1      14.091  -1.745  -0.305  1.00  0.00    -0.014 A 
ATOM     63  C   UNL     1      14.629  -2.748  -1.130  1.00  0.00     0.009 A 
ATOM     64  C   UNL     1      14.991  -1.083   0.555  1.00  0.00     0.009 A 
ATOM     65  C   UNL     1      15.979  -3.109  -1.048  1.00  0.00     0.001 A 
ATOM     66  C   UNL     1      16.347  -1.409   0.605  1.00  0.00     0.001 A 
ATOM     67  C   UNL     1      16.835  -2.443  -0.177  1.00  0.00     0.000 A 
ENDBRANCH  48  62
BRANCH  49  68
ATOM     68  C   UNL     1      11.569  -3.460   7.634  1.00  0.00    -0.014 A 
ATOM     69  C   UNL     1      11.994  -4.714   8.096  1.00  0.00     0.009 A 
ATOM     70  C   UNL     1      11.894  -2.331   8.408  1.00  0.00     0.009 A 
ATOM     71  C   UNL     1      12.742  -4.829   9.275  1.00  0.00     0.001 A 
ATOM     72  C   UNL     1      12.632  -2.445   9.589  1.00  0.00     0.001 A 
ATOM     73  C   UNL     1      13.069  -3.694  10.015  1.00  0.00     0.000 A 
ENDBRANCH  49  68
BRANCH  61  74
ATOM     74  C   UNL     1       8.971  -5.372   2.270  1.00  0.00    -0.014 A 
ATOM     75  C   UNL     1       8.063  -4.688   3.099  1.00  0.00     0.009 A 
ATOM     76  C   UNL     1       8.495  -6.453   1.513  1.00  0.00     0.009 A 
ATOM     77  C   UNL     1       6.731  -5.098   3.196  1.00  0.00     0.001 A 
ATOM     78  C   UNL     1       7.157  -6.848   1.593  1.00  0.00     0.001 A 
ATOM     79  C   UNL     1       6.278  -6.176   2.439  1.00  0.00     0.000 A 
ENDBRANCH  61  74
ENDBRANCH  35  36
ENDBRANCH  28  30
ENDBRANCH  27  28
ENDBRANCH  26  27
ENDBRANCH  25  26
ENDBRANCH  24  25
ENDBRANCH   1  24
TORSDOF 18
