REMARK SMILES CC1(C)[C@H](C(=O)OCCOC(=O)c2ccc(-c3c4nc(c(-c5ccccc5)c5ccc([nH]5)c(-c5ccccc5)c5nc(c(-c6ccccc6)c6ccc3[nH]6)C=C5)C=C4)cc2)[C@@H]1C(=O)Nc1ccc(Cl)c(Br)c1
REMARK SMILES IDX 8 1 7 2 5 3 6 4 4 5 1 6 2 7 3 8 61 9 62 10 63 11 64 12 65 14
REMARK SMILES IDX 66 15 72 16 67 17 70 18 68 19 71 20 69 21 9 22 10 23 11 24
REMARK SMILES IDX 12 25 13 26 14 27 60 28 15 29 59 30 16 31 17 32 18 33 53 34
REMARK SMILES IDX 19 35 58 36 52 37 54 38 20 39 57 40 51 41 50 42 21 44 43 45
REMARK SMILES IDX 28 46 42 47 29 48 32 49 41 50 55 51 30 52 31 53 40 55 56 56
REMARK SMILES IDX 33 57 22 58 23 59 27 60 24 61 26 62 25 63 44 64 45 65 49 66
REMARK SMILES IDX 46 67 48 68 47 69 34 70 35 71 39 72 36 73 38 74 37 75
REMARK H PARENT 64 13 54 43 32 54
REMARK Flexibility Score: inf
ROOT
ATOM      1  C   UNL     1      -1.580   3.139  -2.619  1.00  0.00     0.274 C 
ENDROOT
BRANCH   1   2
ATOM      2  O   UNL     1      -1.018   2.288  -1.601  1.00  0.00    -0.462 OA
BRANCH   2   3
ATOM      3  C   UNL     1      -1.641   1.089  -1.466  1.00  0.00     0.310 C 
ATOM      4  O   UNL     1      -2.583   0.723  -2.148  1.00  0.00    -0.252 OA
BRANCH   3   5
ATOM      5  C   UNL     1      -1.066   0.154  -0.467  1.00  0.00     0.118 C 
ATOM      6  C   UNL     1       1.080  -0.875   0.419  1.00  0.00     0.013 C 
ATOM      7  C   UNL     1       0.179   0.340   0.364  1.00  0.00    -0.009 C 
ATOM      8  C   UNL     1       0.954   1.634   0.334  1.00  0.00     0.013 C 
ATOM      9  C   UNL     1      -1.210   0.275   1.030  1.00  0.00     0.100 C 
BRANCH   9  10
ATOM     10  C   UNL     1      -1.783   1.446   1.737  1.00  0.00     0.228 C 
ATOM     11  O   UNL     1      -1.136   1.972   2.639  1.00  0.00    -0.274 OA
ATOM     12  N   UNL     1      -3.004   1.971   1.390  1.00  0.00    -0.326 N 
ATOM     13  H   UNL     1      -3.217   2.826   1.831  1.00  0.00     0.169 HD
BRANCH  12  14
ATOM     14  C   UNL     1      -4.001   1.507   0.521  1.00  0.00     0.042 A 
ATOM     15  C   UNL     1      -4.745   2.479  -0.154  1.00  0.00     0.028 A 
ATOM     16  C   UNL     1      -4.239   0.156   0.257  1.00  0.00     0.043 A 
ATOM     17  C   UNL     1      -5.619   2.112  -1.180  1.00  0.00     0.024 A 
ATOM     18  C   UNL     1      -5.122  -0.216  -0.769  1.00  0.00     0.038 A 
ATOM     19  C   UNL     1      -5.792   0.765  -1.508  1.00  0.00     0.055 A 
ATOM     20  Br  UNL     1      -5.288  -2.072  -1.150  1.00  0.00    -0.049 Br
ATOM     21  Cl  UNL     1      -6.819   0.396  -2.848  1.00  0.00    -0.083 Cl
ENDBRANCH  12  14
ENDBRANCH   9  10
ENDBRANCH   3   5
ENDBRANCH   2   3
ENDBRANCH   1   2
BRANCH   1  22
ATOM     22  C   UNL     1      -0.970   2.909  -4.010  1.00  0.00     0.275 C 
BRANCH  22  23
ATOM     23  O   UNL     1      -1.330   1.638  -4.587  1.00  0.00    -0.458 OA
BRANCH  23  24
ATOM     24  C   UNL     1      -0.478   0.623  -4.306  1.00  0.00     0.338 C 
ATOM     25  O   UNL     1       0.560   0.694  -3.665  1.00  0.00    -0.246 OA
BRANCH  24  26
ATOM     26  C   UNL     1      -1.035  -0.667  -4.749  1.00  0.00     0.060 A 
ATOM     27  C   UNL     1      -1.196  -1.665  -3.782  1.00  0.00     0.016 A 
ATOM     28  C   UNL     1      -1.276  -0.947  -6.093  1.00  0.00     0.016 A 
ATOM     29  C   UNL     1      -1.587  -2.948  -4.139  1.00  0.00     0.010 A 
ATOM     30  C   UNL     1      -1.645  -2.247  -6.460  1.00  0.00     0.010 A 
ATOM     31  C   UNL     1      -1.778  -3.256  -5.486  1.00  0.00    -0.014 A 
BRANCH  31  32
ATOM     32  C   UNL     1      -1.965  -4.668  -5.883  1.00  0.00     0.031 A 
ATOM     33  C   UNL     1      -0.795  -5.418  -6.451  1.00  0.00     0.074 A 
ATOM     34  C   UNL     1      -3.143  -5.285  -5.693  1.00  0.00     0.049 A 
ATOM     35  N   UNL     1      -0.759  -6.603  -7.003  1.00  0.00    -0.248 NA
ATOM     36  C   UNL     1       0.511  -4.742  -6.384  1.00  0.00     0.031 C 
ATOM     37  C   UNL     1      -4.315  -4.697  -5.044  1.00  0.00     0.029 A 
ATOM     38  N   UNL     1      -3.546  -6.550  -6.038  1.00  0.00    -0.354 N 
ATOM     39  C   UNL     1       0.562  -6.798  -7.383  1.00  0.00     0.074 A 
ATOM     40  C   UNL     1       1.298  -5.614  -6.997  1.00  0.00     0.031 C 
ATOM     41  C   UNL     1      -5.313  -5.596  -5.053  1.00  0.00     0.029 A 
ATOM     42  C   UNL     1      -4.867  -6.795  -5.759  1.00  0.00     0.049 A 
ATOM     43  H   UNL     1      -2.947  -7.216  -6.446  1.00  0.00     0.167 HD
ATOM     44  C   UNL     1       1.107  -7.866  -8.010  1.00  0.00     0.031 A 
ATOM     45  C   UNL     1      -5.639  -7.850  -6.082  1.00  0.00     0.031 A 
ATOM     46  C   UNL     1       0.366  -9.038  -8.388  1.00  0.00     0.049 A 
ATOM     47  C   UNL     1      -5.036  -8.984  -6.865  1.00  0.00     0.074 A 
ATOM     48  C   UNL     1       0.814 -10.168  -9.050  1.00  0.00     0.029 A 
ATOM     49  N   UNL     1      -0.982  -9.230  -8.130  1.00  0.00    -0.354 N 
ATOM     50  N   UNL     1      -3.800  -9.140  -7.275  1.00  0.00    -0.248 NA
ATOM     51  C   UNL     1      -5.937 -10.084  -7.239  1.00  0.00     0.031 C 
ATOM     52  C   UNL     1      -0.277 -11.026  -9.229  1.00  0.00     0.029 A 
ATOM     53  C   UNL     1      -1.389 -10.453  -8.633  1.00  0.00     0.049 A 
ATOM     54  H   UNL     1      -1.564  -8.591  -7.658  1.00  0.00     0.167 HD
ATOM     55  C   UNL     1      -3.768 -10.364  -7.929  1.00  0.00     0.074 A 
ATOM     56  C   UNL     1      -5.107 -10.913  -7.856  1.00  0.00     0.031 C 
ATOM     57  C   UNL     1      -2.724 -10.981  -8.535  1.00  0.00     0.031 A 
BRANCH  44  58
ATOM     58  C   UNL     1       2.560  -7.781  -8.380  1.00  0.00    -0.014 A 
ATOM     59  C   UNL     1       3.573  -7.888  -7.414  1.00  0.00     0.009 A 
ATOM     60  C   UNL     1       2.920  -7.604  -9.726  1.00  0.00     0.009 A 
ATOM     61  C   UNL     1       4.915  -7.788  -7.786  1.00  0.00     0.001 A 
ATOM     62  C   UNL     1       4.263  -7.530 -10.098  1.00  0.00     0.001 A 
ATOM     63  C   UNL     1       5.259  -7.613  -9.127  1.00  0.00     0.000 A 
ENDBRANCH  44  58
BRANCH  45  64
ATOM     64  C   UNL     1      -7.080  -7.856  -5.718  1.00  0.00    -0.014 A 
ATOM     65  C   UNL     1      -7.572  -8.744  -4.751  1.00  0.00     0.009 A 
ATOM     66  C   UNL     1      -7.974  -6.972  -6.345  1.00  0.00     0.009 A 
ATOM     67  C   UNL     1      -8.933  -8.759  -4.433  1.00  0.00     0.001 A 
ATOM     68  C   UNL     1      -9.328  -6.970  -6.005  1.00  0.00     0.001 A 
ATOM     69  C   UNL     1      -9.807  -7.869  -5.055  1.00  0.00     0.000 A 
ENDBRANCH  45  64
BRANCH  57  70
ATOM     70  C   UNL     1      -2.974 -12.342  -9.118  1.00  0.00    -0.014 A 
ATOM     71  C   UNL     1      -3.670 -12.502 -10.325  1.00  0.00     0.009 A 
ATOM     72  C   UNL     1      -2.450 -13.474  -8.474  1.00  0.00     0.009 A 
ATOM     73  C   UNL     1      -3.857 -13.777 -10.864  1.00  0.00     0.001 A 
ATOM     74  C   UNL     1      -2.618 -14.743  -9.028  1.00  0.00     0.001 A 
ATOM     75  C   UNL     1      -3.326 -14.894 -10.219  1.00  0.00     0.000 A 
ENDBRANCH  57  70
ENDBRANCH  31  32
ENDBRANCH  24  26
ENDBRANCH  23  24
ENDBRANCH  22  23
ENDBRANCH   1  22
TORSDOF 13
