REMARK SMILES Cc1ccc(C)c(N2C(=O)S[C@H](CC(=O)Nc3ccc(C(=O)OCCOC(=O)c4ccc(-c5c6nc(c(-c7ccccc7)c7ccc([nH]7)c(-c7ccccc7)c7nc(c(-c8ccccc8)c8ccc5[nH]8)C=C7)C=C6)cc4)c(O)c3)C2=O)c1
REMARK SMILES IDX 24 1 23 2 21 3 22 4 20 5 17 6 18 7 79 8 19 9 77 10 16 11
REMARK SMILES IDX 14 12 15 13 13 15 12 16 8 17 9 18 80 19 10 20 11 21 81 22
REMARK SMILES IDX 7 23 1 24 2 25 3 26 82 27 4 28 5 29 6 30 78 31 25 33 26 34
REMARK SMILES IDX 27 35 28 36 29 37 30 38 76 39 31 40 75 41 32 42 33 43 34 44
REMARK SMILES IDX 69 45 35 46 74 47 68 48 70 49 36 50 73 51 67 52 66 53 37 55
REMARK SMILES IDX 59 56 44 57 58 58 45 59 48 60 57 61 71 62 46 63 47 64 56 66
REMARK SMILES IDX 72 67 49 68 38 69 39 70 43 71 40 72 42 73 41 74 60 75 61 76
REMARK SMILES IDX 65 77 62 78 64 79 63 80 50 81 51 82 55 83 52 84 54 85 53 86
REMARK H PARENT 16 14 78 32 70 54 48 65
REMARK Flexibility Score: inf
ROOT
ATOM      1  C   UNL     1       3.527   5.535  -3.027  1.00  0.00     0.275 C 
ENDROOT
BRANCH   1   2
ATOM      2  O   UNL     1       2.323   5.780  -2.299  1.00  0.00    -0.458 OA
BRANCH   2   3
ATOM      3  C   UNL     1       1.633   6.859  -2.737  1.00  0.00     0.342 C 
ATOM      4  O   UNL     1       1.962   7.653  -3.600  1.00  0.00    -0.246 OA
BRANCH   3   5
ATOM      5  C   UNL     1       0.481   7.063  -1.864  1.00  0.00     0.101 A 
ATOM      6  C   UNL     1      -1.595   7.333  -0.034  1.00  0.00     0.044 A 
ATOM      7  C   UNL     1      -1.640   6.356  -1.027  1.00  0.00     0.027 A 
ATOM      8  C   UNL     1      -0.578   8.286  -0.061  1.00  0.00     0.073 A 
ATOM      9  C   UNL     1      -0.587   6.179  -1.911  1.00  0.00     0.022 A 
ATOM     10  C   UNL     1       0.454   8.154  -0.992  1.00  0.00     0.132 A 
BRANCH   6  11
ATOM     11  N   UNL     1      -2.588   7.376   0.957  1.00  0.00    -0.326 N 
ATOM     12  C   UNL     1      -3.217   6.302   1.550  1.00  0.00     0.226 C 
ATOM     13  O   UNL     1      -4.296   6.454   2.122  1.00  0.00    -0.275 OA
ATOM     14  H   UNL     1      -2.865   8.270   1.261  1.00  0.00     0.169 HD
BRANCH  12  15
ATOM     15  C   UNL     1      -2.441   4.995   1.671  1.00  0.00     0.125 C 
BRANCH  15  16
ATOM     16  C   UNL     1      -3.219   3.726   1.345  1.00  0.00     0.156 C 
ATOM     17  N   UNL     1      -1.788   2.095   0.315  1.00  0.00    -0.240 N 
ATOM     18  C   UNL     1      -2.382   2.582  -0.831  1.00  0.00     0.293 C 
ATOM     19  C   UNL     1      -2.283   2.542   1.527  1.00  0.00     0.248 C 
ATOM     20  O   UNL     1      -2.122   2.369  -1.989  1.00  0.00    -0.261 OA
ATOM     21  S   UNL     1      -3.752   3.595  -0.383  1.00  0.00    -0.050 SA
ATOM     22  O   UNL     1      -2.010   2.092   2.636  1.00  0.00    -0.273 OA
BRANCH  17  23
ATOM     23  C   UNL     1      -0.954   0.955   0.244  1.00  0.00     0.056 A 
ATOM     24  C   UNL     1       2.779   0.131   0.093  1.00  0.00     0.044 C 
ATOM     25  C   UNL     1       1.285  -0.008   0.142  1.00  0.00    -0.049 A 
ATOM     26  C   UNL     1       0.716  -1.283   0.066  1.00  0.00     0.004 A 
ATOM     27  C   UNL     1       0.443   1.109   0.251  1.00  0.00     0.030 A 
ATOM     28  C   UNL     1      -0.670  -1.441   0.072  1.00  0.00     0.006 A 
ATOM     29  C   UNL     1      -1.521  -0.329   0.150  1.00  0.00    -0.027 A 
ATOM     30  C   UNL     1      -3.003  -0.581   0.142  1.00  0.00     0.046 C 
ENDBRANCH  17  23
ENDBRANCH  15  16
ENDBRANCH  12  15
ENDBRANCH   6  11
BRANCH  10  31
ATOM     31  O   UNL     1       1.426   9.115  -0.995  1.00  0.00    -0.507 OA
ATOM     32  H   UNL     1       2.136   9.062  -1.605  1.00  0.00     0.293 HD
ENDBRANCH  10  31
ENDBRANCH   3   5
ENDBRANCH   2   3
ENDBRANCH   1   2
BRANCH   1  33
ATOM     33  C   UNL     1       4.070   4.130  -2.741  1.00  0.00     0.275 C 
BRANCH  33  34
ATOM     34  O   UNL     1       3.150   2.998  -2.680  1.00  0.00    -0.458 OA
BRANCH  34  35
ATOM     35  C   UNL     1       1.844   3.059  -3.048  1.00  0.00     0.338 C 
ATOM     36  O   UNL     1       0.934   2.839  -2.266  1.00  0.00    -0.246 OA
BRANCH  35  37
ATOM     37  C   UNL     1       1.602   3.454  -4.455  1.00  0.00     0.060 A 
ATOM     38  C   UNL     1       0.362   3.999  -4.813  1.00  0.00     0.016 A 
ATOM     39  C   UNL     1       2.671   3.511  -5.336  1.00  0.00     0.016 A 
ATOM     40  C   UNL     1       0.263   4.804  -5.948  1.00  0.00     0.010 A 
ATOM     41  C   UNL     1       2.605   4.409  -6.378  1.00  0.00     0.010 A 
ATOM     42  C   UNL     1       1.410   5.065  -6.702  1.00  0.00    -0.014 A 
BRANCH  42  43
ATOM     43  C   UNL     1       1.397   6.038  -7.799  1.00  0.00     0.031 A 
ATOM     44  C   UNL     1       0.807   7.402  -7.579  1.00  0.00     0.074 A 
ATOM     45  C   UNL     1       2.076   5.828  -8.947  1.00  0.00     0.049 A 
ATOM     46  N   UNL     1      -0.248   7.906  -8.139  1.00  0.00    -0.248 NA
ATOM     47  C   UNL     1       1.467   8.325  -6.649  1.00  0.00     0.031 C 
ATOM     48  C   UNL     1       2.942   4.703  -9.328  1.00  0.00     0.029 A 
ATOM     49  N   UNL     1       2.200   6.671 -10.004  1.00  0.00    -0.354 N 
ATOM     50  C   UNL     1      -0.325   9.246  -7.744  1.00  0.00     0.074 A 
ATOM     51  C   UNL     1       0.706   9.420  -6.750  1.00  0.00     0.031 C 
ATOM     52  C   UNL     1       3.689   5.046 -10.397  1.00  0.00     0.029 A 
ATOM     53  C   UNL     1       3.179   6.302 -10.906  1.00  0.00     0.049 A 
ATOM     54  H   UNL     1       1.642   7.475 -10.117  1.00  0.00     0.167 HD
ATOM     55  C   UNL     1      -1.130  10.155  -8.373  1.00  0.00     0.031 A 
ATOM     56  C   UNL     1       3.525   6.941 -12.041  1.00  0.00     0.031 A 
ATOM     57  C   UNL     1      -2.055   9.516  -9.271  1.00  0.00     0.049 A 
ATOM     58  C   UNL     1       2.354   7.737 -12.463  1.00  0.00     0.074 A 
ATOM     59  C   UNL     1      -3.094   8.618  -9.138  1.00  0.00     0.029 A 
ATOM     60  N   UNL     1      -1.740   9.516 -10.608  1.00  0.00    -0.354 N 
ATOM     61  N   UNL     1       1.222   7.195 -12.818  1.00  0.00    -0.248 NA
ATOM     62  C   UNL     1       2.281   9.135 -12.078  1.00  0.00     0.031 C 
ATOM     63  C   UNL     1      -2.963   7.755 -10.268  1.00  0.00     0.029 A 
ATOM     64  C   UNL     1      -1.895   8.225 -11.039  1.00  0.00     0.049 A 
ATOM     65  H   UNL     1      -1.459  10.289 -11.149  1.00  0.00     0.167 HD
ATOM     66  C   UNL     1       0.245   8.033 -12.303  1.00  0.00     0.074 A 
ATOM     67  C   UNL     1       0.956   9.266 -11.963  1.00  0.00     0.031 C 
ATOM     68  C   UNL     1      -0.990   7.561 -11.953  1.00  0.00     0.031 A 
BRANCH  55  69
ATOM     69  C   UNL     1      -0.916  11.651  -8.443  1.00  0.00    -0.014 A 
ATOM     70  C   UNL     1      -1.898  12.450  -9.070  1.00  0.00     0.009 A 
ATOM     71  C   UNL     1       0.310  12.274  -8.162  1.00  0.00     0.009 A 
ATOM     72  C   UNL     1      -1.638  13.771  -9.462  1.00  0.00     0.001 A 
ATOM     73  C   UNL     1       0.560  13.607  -8.517  1.00  0.00     0.001 A 
ATOM     74  C   UNL     1      -0.403  14.346  -9.192  1.00  0.00     0.000 A 
ENDBRANCH  55  69
BRANCH  56  75
ATOM     75  C   UNL     1       4.875   7.058 -12.607  1.00  0.00    -0.014 A 
ATOM     76  C   UNL     1       5.077   7.295 -13.970  1.00  0.00     0.009 A 
ATOM     77  C   UNL     1       5.980   7.166 -11.739  1.00  0.00     0.009 A 
ATOM     78  C   UNL     1       6.342   7.663 -14.445  1.00  0.00     0.001 A 
ATOM     79  C   UNL     1       7.240   7.537 -12.213  1.00  0.00     0.001 A 
ATOM     80  C   UNL     1       7.417   7.799 -13.566  1.00  0.00     0.000 A 
ENDBRANCH  56  75
BRANCH  68  81
ATOM     81  C   UNL     1      -1.328   6.124 -12.286  1.00  0.00    -0.014 A 
ATOM     82  C   UNL     1      -0.618   5.038 -11.743  1.00  0.00     0.009 A 
ATOM     83  C   UNL     1      -2.504   5.851 -12.997  1.00  0.00     0.009 A 
ATOM     84  C   UNL     1      -1.058   3.722 -11.922  1.00  0.00     0.001 A 
ATOM     85  C   UNL     1      -2.956   4.538 -13.162  1.00  0.00     0.001 A 
ATOM     86  C   UNL     1      -2.231   3.474 -12.627  1.00  0.00     0.000 A 
ENDBRANCH  68  81
ENDBRANCH  42  43
ENDBRANCH  35  37
ENDBRANCH  34  35
ENDBRANCH  33  34
ENDBRANCH   1  33
TORSDOF 16
