REMARK SMILES CCOc1cccc(-c2ccc([C@@H](C)C(=O)OCCOC(=O)c3ccc(-c4c5nc(c(-c6ccccc6)c6ccc([nH]6)c(-c6ccccc6)c6nc(c(-c7ccccc7)c7ccc4[nH]7)C=C6)C=C5)cc3)cc2F)c1
REMARK SMILES IDX 18 1 17 2 15 3 16 4 13 5 14 6 12 7 9 8 10 9 72 10 11 11
REMARK SMILES IDX 71 12 73 13 8 14 4 15 5 16 74 17 6 18 7 19 3 20 2 21 1 22
REMARK SMILES IDX 19 23 20 24 21 25 22 26 23 27 24 28 70 29 25 30 69 31 26 32
REMARK SMILES IDX 27 33 28 34 63 35 29 36 68 37 62 38 64 39 30 40 67 41 61 42
REMARK SMILES IDX 60 43 31 45 53 46 38 47 52 48 39 49 42 50 51 51 65 52 40 53
REMARK SMILES IDX 41 54 50 56 66 57 43 58 32 59 33 60 37 61 34 62 36 63 35 64
REMARK SMILES IDX 54 65 55 66 59 67 56 68 58 69 57 70 44 71 45 72 49 73 46 74
REMARK SMILES IDX 48 75 47 76
REMARK H PARENT 64 44 42 55
REMARK Flexibility Score: inf
ROOT
ATOM      1  C   UNL     1       8.828   4.027   0.957  1.00  0.00     0.274 C 
ENDROOT
BRANCH   1   2
ATOM      2  O   UNL     1       8.659   2.690   1.466  1.00  0.00    -0.462 OA
BRANCH   2   3
ATOM      3  C   UNL     1       8.786   2.527   2.809  1.00  0.00     0.313 C 
ATOM      4  O   UNL     1       9.090   3.426   3.588  1.00  0.00    -0.252 OA
BRANCH   3   5
ATOM      5  C   UNL     1       8.569   1.094   3.278  1.00  0.00     0.126 C 
ATOM      6  C   UNL     1       9.912   0.380   3.418  1.00  0.00     0.025 C 
BRANCH   5   7
ATOM      7  C   UNL     1       7.556   0.277   2.493  1.00  0.00    -0.031 A 
ATOM      8  C   UNL     1       5.629  -1.298   1.093  1.00  0.00     0.018 A 
ATOM      9  C   UNL     1       6.859  -0.955   0.507  1.00  0.00     0.012 A 
ATOM     10  C   UNL     1       5.388  -0.821   2.389  1.00  0.00     0.131 A 
ATOM     11  C   UNL     1       7.807  -0.185   1.194  1.00  0.00     0.005 A 
ATOM     12  C   UNL     1       6.327  -0.054   3.079  1.00  0.00     0.044 A 
ATOM     13  F   UNL     1       4.242  -1.115   3.022  1.00  0.00    -0.206 F 
BRANCH   8  14
ATOM     14  C   UNL     1       4.644  -2.129   0.374  1.00  0.00    -0.012 A 
ATOM     15  C   UNL     1       2.349  -2.581  -0.313  1.00  0.00     0.119 A 
ATOM     16  C   UNL     1       2.747  -3.752  -0.949  1.00  0.00     0.046 A 
ATOM     17  C   UNL     1       3.282  -1.788   0.357  1.00  0.00     0.055 A 
ATOM     18  C   UNL     1       4.093  -4.110  -0.948  1.00  0.00     0.004 A 
ATOM     19  C   UNL     1       5.031  -3.304  -0.296  1.00  0.00     0.009 A 
BRANCH  15  20
ATOM     20  O   UNL     1       1.015  -2.289  -0.260  1.00  0.00    -0.494 OA
BRANCH  20  21
ATOM     21  C   UNL     1       0.658  -1.190  -1.107  1.00  0.00     0.226 C 
ATOM     22  C   UNL     1       0.553   0.102  -0.313  1.00  0.00     0.049 C 
ENDBRANCH  20  21
ENDBRANCH  15  20
ENDBRANCH   8  14
ENDBRANCH   5   7
ENDBRANCH   3   5
ENDBRANCH   2   3
ENDBRANCH   1   2
BRANCH   1  23
ATOM     23  C   UNL     1       7.481   4.701   0.684  1.00  0.00     0.275 C 
BRANCH  23  24
ATOM     24  O   UNL     1       6.781   4.992   1.908  1.00  0.00    -0.458 OA
BRANCH  24  25
ATOM     25  C   UNL     1       5.872   4.062   2.281  1.00  0.00     0.338 C 
ATOM     26  O   UNL     1       5.553   3.052   1.680  1.00  0.00    -0.246 OA
BRANCH  25  27
ATOM     27  C   UNL     1       5.376   4.372   3.630  1.00  0.00     0.060 A 
ATOM     28  C   UNL     1       5.678   3.478   4.658  1.00  0.00     0.016 A 
ATOM     29  C   UNL     1       4.553   5.474   3.865  1.00  0.00     0.016 A 
ATOM     30  C   UNL     1       5.142   3.665   5.928  1.00  0.00     0.010 A 
ATOM     31  C   UNL     1       4.020   5.667   5.144  1.00  0.00     0.010 A 
ATOM     32  C   UNL     1       4.299   4.755   6.177  1.00  0.00    -0.014 A 
BRANCH  32  33
ATOM     33  C   UNL     1       3.675   4.902   7.512  1.00  0.00     0.031 A 
ATOM     34  C   UNL     1       2.225   4.560   7.705  1.00  0.00     0.074 A 
ATOM     35  C   UNL     1       4.417   5.307   8.558  1.00  0.00     0.049 A 
ATOM     36  N   UNL     1       1.489   4.660   8.782  1.00  0.00    -0.248 NA
ATOM     37  C   UNL     1       1.510   4.035   6.531  1.00  0.00     0.031 C 
ATOM     38  C   UNL     1       5.845   5.623   8.510  1.00  0.00     0.029 A 
ATOM     39  N   UNL     1       4.070   5.517   9.868  1.00  0.00    -0.354 N 
ATOM     40  C   UNL     1       0.221   4.230   8.414  1.00  0.00     0.074 A 
ATOM     41  C   UNL     1       0.283   3.881   7.011  1.00  0.00     0.031 C 
ATOM     42  C   UNL     1       6.254   5.980   9.739  1.00  0.00     0.029 A 
ATOM     43  C   UNL     1       5.112   5.956  10.648  1.00  0.00     0.049 A 
ATOM     44  H   UNL     1       3.162   5.367  10.217  1.00  0.00     0.167 HD
ATOM     45  C   UNL     1      -0.894   4.134   9.177  1.00  0.00     0.031 A 
ATOM     46  C   UNL     1       5.138   6.318  11.944  1.00  0.00     0.031 A 
ATOM     47  C   UNL     1      -0.957   4.476  10.572  1.00  0.00     0.049 A 
ATOM     48  C   UNL     1       3.873   6.254  12.753  1.00  0.00     0.074 A 
ATOM     49  C   UNL     1      -2.042   4.405  11.430  1.00  0.00     0.029 A 
ATOM     50  N   UNL     1       0.110   4.954  11.316  1.00  0.00    -0.354 N 
ATOM     51  N   UNL     1       2.680   5.851  12.390  1.00  0.00    -0.248 NA
ATOM     52  C   UNL     1       3.962   6.698  14.152  1.00  0.00     0.031 C 
ATOM     53  C   UNL     1      -1.639   4.878  12.684  1.00  0.00     0.029 A 
ATOM     54  C   UNL     1      -0.294   5.201  12.617  1.00  0.00     0.049 A 
ATOM     55  H   UNL     1       1.021   5.096  10.970  1.00  0.00     0.167 HD
ATOM     56  C   UNL     1       1.880   5.977  13.518  1.00  0.00     0.074 A 
ATOM     57  C   UNL     1       2.727   6.478  14.581  1.00  0.00     0.031 C 
ATOM     58  C   UNL     1       0.560   5.704  13.660  1.00  0.00     0.031 A 
BRANCH  45  59
ATOM     59  C   UNL     1      -2.151   3.671   8.500  1.00  0.00    -0.014 A 
ATOM     60  C   UNL     1      -2.342   2.322   8.162  1.00  0.00     0.009 A 
ATOM     61  C   UNL     1      -3.172   4.594   8.226  1.00  0.00     0.009 A 
ATOM     62  C   UNL     1      -3.522   1.913   7.535  1.00  0.00     0.001 A 
ATOM     63  C   UNL     1      -4.358   4.178   7.619  1.00  0.00     0.001 A 
ATOM     64  C   UNL     1      -4.529   2.840   7.267  1.00  0.00     0.000 A 
ENDBRANCH  45  59
BRANCH  46  65
ATOM     65  C   UNL     1       6.403   6.801  12.552  1.00  0.00    -0.014 A 
ATOM     66  C   UNL     1       7.094   6.014  13.484  1.00  0.00     0.009 A 
ATOM     67  C   UNL     1       6.920   8.059  12.206  1.00  0.00     0.009 A 
ATOM     68  C   UNL     1       8.270   6.486  14.072  1.00  0.00     0.001 A 
ATOM     69  C   UNL     1       8.109   8.517  12.776  1.00  0.00     0.001 A 
ATOM     70  C   UNL     1       8.778   7.734  13.714  1.00  0.00     0.000 A 
ENDBRANCH  46  65
BRANCH  58  71
ATOM     71  C   UNL     1      -0.038   5.919  15.019  1.00  0.00    -0.014 A 
ATOM     72  C   UNL     1      -0.319   7.210  15.491  1.00  0.00     0.009 A 
ATOM     73  C   UNL     1      -0.354   4.813  15.824  1.00  0.00     0.009 A 
ATOM     74  C   UNL     1      -0.878   7.391  16.757  1.00  0.00     0.001 A 
ATOM     75  C   UNL     1      -0.934   4.997  17.080  1.00  0.00     0.001 A 
ATOM     76  C   UNL     1      -1.188   6.285  17.549  1.00  0.00     0.000 A 
ENDBRANCH  58  71
ENDBRANCH  32  33
ENDBRANCH  25  27
ENDBRANCH  24  25
ENDBRANCH  23  24
ENDBRANCH   1  23
TORSDOF 15
