REMARK SMILES O=C(CSc1nc2ccc(Cl)cc2c(=O)n1CC1CCCCC1)OCCOC(=O)c1ccc(-c2c3nc(c(-c4ccccc4)c4ccc([nH]4)c(-c4ccccc4)c4nc(c(-c5ccccc5)c5ccc2[nH]5)C=C4)C=C3)cc1
REMARK SMILES IDX 25 1 24 2 2 3 1 4 3 5 4 6 5 7 6 8 16 9 7 10 14 11 8 12 13 13
REMARK SMILES IDX 15 14 9 15 12 16 10 17 11 18 17 19 18 20 19 21 23 22 20 23
REMARK SMILES IDX 22 24 21 25 26 26 27 27 28 28 29 29 30 30 31 31 77 32 32 33
REMARK SMILES IDX 76 34 33 35 34 36 35 37 70 38 36 39 75 40 69 41 71 42 37 43
REMARK SMILES IDX 74 44 68 45 67 46 38 48 60 49 45 50 59 51 46 52 49 53 58 54
REMARK SMILES IDX 72 55 47 56 48 57 57 59 73 60 50 61 39 62 40 63 44 64 41 65
REMARK SMILES IDX 43 66 42 67 61 68 62 69 66 70 63 71 65 72 64 73 51 74 52 75
REMARK SMILES IDX 56 76 53 77 55 78 54 79
REMARK H PARENT 71 47 49 58
REMARK Flexibility Score: inf
ROOT
ATOM      1  C   UNL     1       4.880  -0.120   1.216  1.00  0.00     0.274 C 
ENDROOT
BRANCH   1   2
ATOM      2  O   UNL     1       3.619   0.550   0.984  1.00  0.00    -0.461 OA
BRANCH   2   3
ATOM      3  C   UNL     1       3.138   0.870  -0.244  1.00  0.00     0.316 C 
ATOM      4  O   UNL     1       2.306   1.766  -0.370  1.00  0.00    -0.251 OA
BRANCH   3   5
ATOM      5  C   UNL     1       3.505  -0.032  -1.390  1.00  0.00     0.200 C 
BRANCH   5   6
ATOM      6  S   UNL     1       4.247   0.750  -2.811  1.00  0.00    -0.076 SA
BRANCH   6   7
ATOM      7  C   UNL     1       3.072   1.950  -3.290  1.00  0.00     0.171 A 
ATOM      8  N   UNL     1       3.426   3.165  -3.028  1.00  0.00    -0.224 NA
ATOM      9  N   UNL     1       1.979   1.597  -4.070  1.00  0.00    -0.287 N 
ATOM     10  C   UNL     1       2.671   4.207  -3.563  1.00  0.00     0.079 A 
ATOM     11  C   UNL     1       1.436   2.580  -4.894  1.00  0.00     0.262 A 
ATOM     12  C   UNL     1       2.956   5.523  -3.197  1.00  0.00     0.031 A 
ATOM     13  C   UNL     1       1.701   3.976  -4.531  1.00  0.00     0.067 A 
ATOM     14  O   UNL     1       0.804   2.352  -5.923  1.00  0.00    -0.269 OA
ATOM     15  C   UNL     1       2.278   6.587  -3.800  1.00  0.00     0.023 A 
ATOM     16  C   UNL     1       1.017   5.027  -5.149  1.00  0.00     0.036 A 
ATOM     17  C   UNL     1       1.314   6.332  -4.777  1.00  0.00     0.042 A 
ATOM     18  Cl  UNL     1       0.495   7.642  -5.532  1.00  0.00    -0.084 Cl
BRANCH   9  19
ATOM     19  C   UNL     1       1.486   0.230  -4.291  1.00  0.00     0.131 C 
BRANCH  19  20
ATOM     20  C   UNL     1       0.053  -0.089  -3.767  1.00  0.00     0.009 C 
ATOM     21  C   UNL     1      -0.169   0.253  -2.286  1.00  0.00     0.005 C 
ATOM     22  C   UNL     1      -1.073   0.517  -4.619  1.00  0.00     0.005 C 
ATOM     23  C   UNL     1      -1.560  -0.168  -1.805  1.00  0.00     0.000 C 
ATOM     24  C   UNL     1      -2.452   0.064  -4.145  1.00  0.00     0.000 C 
ATOM     25  C   UNL     1      -2.667   0.412  -2.677  1.00  0.00     0.000 C 
ENDBRANCH  19  20
ENDBRANCH   9  19
ENDBRANCH   6   7
ENDBRANCH   5   6
ENDBRANCH   3   5
ENDBRANCH   2   3
ENDBRANCH   1   2
BRANCH   1  26
ATOM     26  C   UNL     1       4.680  -1.561   1.700  1.00  0.00     0.275 C 
BRANCH  26  27
ATOM     27  O   UNL     1       4.394  -2.441   0.593  1.00  0.00    -0.458 OA
BRANCH  27  28
ATOM     28  C   UNL     1       3.099  -2.799   0.409  1.00  0.00     0.338 C 
ATOM     29  O   UNL     1       2.160  -2.507   1.130  1.00  0.00    -0.246 OA
BRANCH  28  30
ATOM     30  C   UNL     1       2.939  -3.407  -0.941  1.00  0.00     0.060 A 
ATOM     31  C   UNL     1       3.996  -4.030  -1.616  1.00  0.00     0.016 A 
ATOM     32  C   UNL     1       1.702  -3.257  -1.584  1.00  0.00     0.016 A 
ATOM     33  C   UNL     1       3.822  -4.475  -2.933  1.00  0.00     0.010 A 
ATOM     34  C   UNL     1       1.535  -3.689  -2.903  1.00  0.00     0.010 A 
ATOM     35  C   UNL     1       2.597  -4.293  -3.591  1.00  0.00    -0.014 A 
BRANCH  35  36
ATOM     36  C   UNL     1       2.383  -4.830  -4.957  1.00  0.00     0.031 A 
ATOM     37  C   UNL     1       2.620  -3.997  -6.182  1.00  0.00     0.074 A 
ATOM     38  C   UNL     1       1.918  -6.087  -5.085  1.00  0.00     0.049 A 
ATOM     39  N   UNL     1       2.459  -4.322  -7.440  1.00  0.00    -0.248 NA
ATOM     40  C   UNL     1       3.082  -2.619  -5.973  1.00  0.00     0.031 C 
ATOM     41  C   UNL     1       1.623  -6.987  -3.971  1.00  0.00     0.029 A 
ATOM     42  N   UNL     1       1.601  -6.814  -6.204  1.00  0.00    -0.354 N 
ATOM     43  C   UNL     1       2.792  -3.189  -8.173  1.00  0.00     0.074 A 
ATOM     44  C   UNL     1       3.128  -2.155  -7.217  1.00  0.00     0.031 C 
ATOM     45  C   UNL     1       1.155  -8.145  -4.462  1.00  0.00     0.029 A 
ATOM     46  C   UNL     1       1.109  -8.064  -5.921  1.00  0.00     0.049 A 
ATOM     47  H   UNL     1       1.714  -6.473  -7.121  1.00  0.00     0.167 HD
ATOM     48  C   UNL     1       2.833  -3.040  -9.519  1.00  0.00     0.031 A 
ATOM     49  C   UNL     1       0.669  -9.040  -6.737  1.00  0.00     0.031 A 
ATOM     50  C   UNL     1       2.530  -4.084 -10.466  1.00  0.00     0.049 A 
ATOM     51  C   UNL     1       0.735  -8.855  -8.226  1.00  0.00     0.074 A 
ATOM     52  C   UNL     1       2.648  -4.045 -11.846  1.00  0.00     0.029 A 
ATOM     53  N   UNL     1       2.049  -5.341 -10.141  1.00  0.00    -0.354 N 
ATOM     54  N   UNL     1       1.144  -7.811  -8.904  1.00  0.00    -0.248 NA
ATOM     55  C   UNL     1       0.306  -9.986  -9.062  1.00  0.00     0.031 C 
ATOM     56  C   UNL     1       2.182  -5.256 -12.360  1.00  0.00     0.029 A 
ATOM     57  C   UNL     1       1.836  -6.074 -11.297  1.00  0.00     0.049 A 
ATOM     58  H   UNL     1       1.883  -5.665  -9.226  1.00  0.00     0.167 HD
ATOM     59  C   UNL     1       1.042  -8.166 -10.243  1.00  0.00     0.074 A 
ATOM     60  C   UNL     1       0.546  -9.525 -10.283  1.00  0.00     0.031 C 
ATOM     61  C   UNL     1       1.337  -7.424 -11.338  1.00  0.00     0.031 A 
BRANCH  48  62
ATOM     62  C   UNL     1       3.254  -1.713 -10.090  1.00  0.00    -0.014 A 
ATOM     63  C   UNL     1       2.331  -0.945 -10.819  1.00  0.00     0.009 A 
ATOM     64  C   UNL     1       4.598  -1.312 -10.060  1.00  0.00     0.009 A 
ATOM     65  C   UNL     1       2.750   0.182 -11.530  1.00  0.00     0.001 A 
ATOM     66  C   UNL     1       5.009  -0.170 -10.752  1.00  0.00     0.001 A 
ATOM     67  C   UNL     1       4.089   0.568 -11.497  1.00  0.00     0.000 A 
ENDBRANCH  48  62
BRANCH  49  68
ATOM     68  C   UNL     1       0.160 -10.299  -6.138  1.00  0.00    -0.014 A 
ATOM     69  C   UNL     1      -1.068 -10.313  -5.456  1.00  0.00     0.009 A 
ATOM     70  C   UNL     1       0.929 -11.470  -6.181  1.00  0.00     0.009 A 
ATOM     71  C   UNL     1      -1.505 -11.470  -4.810  1.00  0.00     0.001 A 
ATOM     72  C   UNL     1       0.476 -12.634  -5.556  1.00  0.00     0.001 A 
ATOM     73  C   UNL     1      -0.735 -12.631  -4.864  1.00  0.00     0.000 A 
ENDBRANCH  49  68
BRANCH  61  74
ATOM     74  C   UNL     1       1.143  -8.047 -12.692  1.00  0.00    -0.014 A 
ATOM     75  C   UNL     1       2.260  -8.350 -13.488  1.00  0.00     0.009 A 
ATOM     76  C   UNL     1      -0.141  -8.221 -13.229  1.00  0.00     0.009 A 
ATOM     77  C   UNL     1       2.096  -8.794 -14.801  1.00  0.00     0.001 A 
ATOM     78  C   UNL     1      -0.302  -8.692 -14.534  1.00  0.00     0.001 A 
ATOM     79  C   UNL     1       0.815  -8.967 -15.322  1.00  0.00     0.000 A 
ENDBRANCH  61  74
ENDBRANCH  35  36
ENDBRANCH  28  30
ENDBRANCH  27  28
ENDBRANCH  26  27
ENDBRANCH   1  26
TORSDOF 15
