REMARK SMILES O=C(CC1(NC(=O)C2(c3ccccc3)CC2)CCC1)OCCOC(=O)c1ccc(-c2c3nc(c(-c4ccccc4)c4ccc([nH]4)c(-c4ccccc4)c4nc(c(-c5ccccc5)c5ccc2[nH]5)C=C4)C=C3)cc1
REMARK SMILES IDX 21 1 20 2 2 3 1 4 3 5 4 6 17 7 19 8 18 9 5 10 6 11 7 13 8 14
REMARK SMILES IDX 15 15 16 16 9 17 10 18 14 19 11 20 13 21 12 22 22 23 23 24
REMARK SMILES IDX 24 25 25 26 26 27 27 28 73 29 28 30 72 31 29 32 30 33 31 34
REMARK SMILES IDX 66 35 32 36 71 37 65 38 67 39 33 40 70 41 64 42 63 43 34 45
REMARK SMILES IDX 56 46 41 47 55 48 42 49 45 50 54 51 68 52 43 53 44 54 53 56
REMARK SMILES IDX 69 57 46 58 35 59 36 60 40 61 37 62 39 63 38 64 57 65 58 66
REMARK SMILES IDX 62 67 59 68 61 69 60 70 47 71 48 72 52 73 49 74 51 75 50 76
REMARK H PARENT 5 12 67 44 45 55
REMARK Flexibility Score: inf
ROOT
ATOM      1  C   UNL     1       2.323  -0.377  -1.990  1.00  0.00     0.274 C 
ENDROOT
BRANCH   1   2
ATOM      2  O   UNL     1       2.136  -1.013  -0.713  1.00  0.00    -0.462 OA
BRANCH   2   3
ATOM      3  C   UNL     1       1.656  -0.403   0.393  1.00  0.00     0.308 C 
ATOM      4  O   UNL     1       0.436  -0.321   0.561  1.00  0.00    -0.252 OA
BRANCH   3   5
ATOM      5  C   UNL     1       2.728   0.203   1.565  1.00  0.00     0.151 C 
BRANCH   5   6
ATOM      6  C   UNL     1       4.609  -0.461   2.459  1.00  0.00     0.051 C 
ATOM      7  C   UNL     1       5.061  -0.923   4.191  1.00  0.00     0.029 C 
ATOM      8  C   UNL     1       5.532  -2.074   2.333  1.00  0.00     0.029 C 
ATOM      9  C   UNL     1       5.274  -2.384   3.802  1.00  0.00     0.005 C 
BRANCH   6  10
ATOM     10  N   UNL     1       6.231   0.392   2.256  1.00  0.00    -0.349 N 
ATOM     11  C   UNL     1       6.743   1.174   1.232  1.00  0.00     0.231 C 
ATOM     12  H   UNL     1       6.847   0.270   3.015  1.00  0.00     0.164 HD
ATOM     13  O   UNL     1       7.931   1.400   1.057  1.00  0.00    -0.274 OA
BRANCH  11  14
ATOM     14  C   UNL     1       5.673   1.799   0.462  1.00  0.00     0.074 C 
ATOM     15  C   UNL     1       5.720   3.313   0.369  1.00  0.00     0.023 C 
ATOM     16  C   UNL     1       5.781   2.480  -0.871  1.00  0.00     0.023 C 
BRANCH  14  17
ATOM     17  C   UNL     1       4.506   1.065   0.970  1.00  0.00    -0.032 A 
ATOM     18  C   UNL     1       3.953   1.560   2.630  1.00  0.00     0.005 A 
ATOM     19  C   UNL     1       4.241  -0.641   0.446  1.00  0.00     0.005 A 
ATOM     20  C   UNL     1       3.068   0.434   3.666  1.00  0.00     0.000 A 
ATOM     21  C   UNL     1       3.290  -1.781   1.501  1.00  0.00     0.000 A 
ATOM     22  C   UNL     1       2.712  -1.235   3.097  1.00  0.00     0.000 A 
ENDBRANCH  14  17
ENDBRANCH  11  14
ENDBRANCH   6  10
ENDBRANCH   5   6
ENDBRANCH   3   5
ENDBRANCH   2   3
ENDBRANCH   1   2
BRANCH   1  23
ATOM     23  C   UNL     1       2.672   1.110  -2.109  1.00  0.00     0.275 C 
BRANCH  23  24
ATOM     24  O   UNL     1       2.367   1.914  -0.970  1.00  0.00    -0.458 OA
BRANCH  24  25
ATOM     25  C   UNL     1       1.222   2.632  -0.975  1.00  0.00     0.338 C 
ATOM     26  O   UNL     1       0.436   2.746  -1.895  1.00  0.00    -0.246 OA
BRANCH  25  27
ATOM     27  C   UNL     1       1.023   3.164   0.399  1.00  0.00     0.060 A 
ATOM     28  C   UNL     1      -0.094   2.756   1.127  1.00  0.00     0.016 A 
ATOM     29  C   UNL     1       1.976   3.985   1.008  1.00  0.00     0.016 A 
ATOM     30  C   UNL     1      -0.273   3.192   2.448  1.00  0.00     0.010 A 
ATOM     31  C   UNL     1       1.828   4.367   2.351  1.00  0.00     0.010 A 
ATOM     32  C   UNL     1       0.671   4.025   3.070  1.00  0.00    -0.014 A 
BRANCH  32  33
ATOM     33  C   UNL     1       0.338   4.670   4.378  1.00  0.00     0.031 A 
ATOM     34  C   UNL     1       0.022   6.147   4.399  1.00  0.00     0.074 A 
ATOM     35  C   UNL     1       0.228   3.973   5.529  1.00  0.00     0.049 A 
ATOM     36  N   UNL     1      -0.566   6.852   5.335  1.00  0.00    -0.248 NA
ATOM     37  C   UNL     1       0.406   6.933   3.216  1.00  0.00     0.031 C 
ATOM     38  C   UNL     1       0.535   2.556   5.697  1.00  0.00     0.029 A 
ATOM     39  N   UNL     1      -0.187   4.367   6.783  1.00  0.00    -0.354 N 
ATOM     40  C   UNL     1      -0.682   8.136   4.819  1.00  0.00     0.074 A 
ATOM     41  C   UNL     1       0.001   8.148   3.547  1.00  0.00     0.031 C 
ATOM     42  C   UNL     1       0.315   2.199   6.976  1.00  0.00     0.029 A 
ATOM     43  C   UNL     1      -0.200   3.351   7.712  1.00  0.00     0.049 A 
ATOM     44  H   UNL     1      -0.451   5.292   6.995  1.00  0.00     0.167 HD
ATOM     45  C   UNL     1      -1.348   9.203   5.319  1.00  0.00     0.031 A 
ATOM     46  C   UNL     1      -0.625   3.332   8.993  1.00  0.00     0.031 A 
ATOM     47  C   UNL     1      -1.980   9.230   6.607  1.00  0.00     0.049 A 
ATOM     48  C   UNL     1      -1.307   4.551   9.566  1.00  0.00     0.074 A 
ATOM     49  C   UNL     1      -2.696  10.256   7.197  1.00  0.00     0.029 A 
ATOM     50  N   UNL     1      -1.946   8.187   7.518  1.00  0.00    -0.354 N 
ATOM     51  N   UNL     1      -1.548   5.709   9.000  1.00  0.00    -0.248 NA
ATOM     52  C   UNL     1      -1.829   4.437  10.937  1.00  0.00     0.031 C 
ATOM     53  C   UNL     1      -3.042   9.856   8.492  1.00  0.00     0.029 A 
ATOM     54  C   UNL     1      -2.603   8.555   8.679  1.00  0.00     0.049 A 
ATOM     55  H   UNL     1      -1.519   7.314   7.362  1.00  0.00     0.167 HD
ATOM     56  C   UNL     1      -2.284   6.441   9.926  1.00  0.00     0.074 A 
ATOM     57  C   UNL     1      -2.470   5.588  11.081  1.00  0.00     0.031 C 
ATOM     58  C   UNL     1      -2.771   7.704   9.828  1.00  0.00     0.031 A 
BRANCH  45  59
ATOM     59  C   UNL     1      -1.435  10.421   4.440  1.00  0.00    -0.014 A 
ATOM     60  C   UNL     1      -2.188  10.391   3.252  1.00  0.00     0.009 A 
ATOM     61  C   UNL     1      -0.778  11.606   4.796  1.00  0.00     0.009 A 
ATOM     62  C   UNL     1      -2.246  11.510   2.420  1.00  0.00     0.001 A 
ATOM     63  C   UNL     1      -0.865  12.734   3.978  1.00  0.00     0.001 A 
ATOM     64  C   UNL     1      -1.589  12.682   2.786  1.00  0.00     0.000 A 
ENDBRANCH  45  59
BRANCH  46  65
ATOM     65  C   UNL     1      -0.482   2.100   9.824  1.00  0.00    -0.014 A 
ATOM     66  C   UNL     1      -1.607   1.363  10.231  1.00  0.00     0.009 A 
ATOM     67  C   UNL     1       0.785   1.689  10.266  1.00  0.00     0.009 A 
ATOM     68  C   UNL     1      -1.470   0.271  11.095  1.00  0.00     0.001 A 
ATOM     69  C   UNL     1       0.922   0.579  11.105  1.00  0.00     0.001 A 
ATOM     70  C   UNL     1      -0.205  -0.121  11.530  1.00  0.00     0.000 A 
ENDBRANCH  46  65
BRANCH  58  71
ATOM     71  C   UNL     1      -3.572   8.230  10.989  1.00  0.00    -0.014 A 
ATOM     72  C   UNL     1      -2.977   8.494  12.233  1.00  0.00     0.009 A 
ATOM     73  C   UNL     1      -4.942   8.493  10.826  1.00  0.00     0.009 A 
ATOM     74  C   UNL     1      -3.747   8.958  13.302  1.00  0.00     0.001 A 
ATOM     75  C   UNL     1      -5.701   8.993  11.885  1.00  0.00     0.001 A 
ATOM     76  C   UNL     1      -5.107   9.210  13.126  1.00  0.00     0.000 A 
ENDBRANCH  58  71
ENDBRANCH  32  33
ENDBRANCH  25  27
ENDBRANCH  24  25
ENDBRANCH  23  24
ENDBRANCH   1  23
TORSDOF 15
