REMARK SMILES CC1(C)Cc2c(-c3ccccc3)c(-c3ccc(Cl)cc3)c(CC(=O)OCCOC(=O)c3ccc(-c4c5nc(c(-c6ccccc6)c6ccc([nH]6)c(-c6ccccc6)c6nc(c(-c7ccccc7)c7ccc4[nH]7)C=C6)C=C5)cc3)n2C1
REMARK SMILES IDX 26 1 25 2 23 3 24 4 22 5 21 6 1 7 2 8 3 9 4 10 80 11 5 12
REMARK SMILES IDX 79 13 6 14 13 15 7 16 8 17 12 18 9 19 11 20 10 21 14 22
REMARK SMILES IDX 15 23 20 24 16 25 19 26 17 27 18 28 27 29 28 30 29 31 30 32
REMARK SMILES IDX 31 33 32 34 78 35 33 36 77 37 34 38 35 39 36 40 71 41 37 42
REMARK SMILES IDX 76 43 70 44 72 45 38 46 75 47 69 48 68 49 39 51 61 52 46 53
REMARK SMILES IDX 60 54 47 55 50 56 59 57 73 58 48 59 49 60 58 62 74 63 51 64
REMARK SMILES IDX 40 65 41 66 45 67 42 68 44 69 43 70 62 71 63 72 67 73 64 74
REMARK SMILES IDX 66 75 65 76 52 77 53 78 57 79 54 80 56 81 55 82
REMARK H PARENT 72 50 50 61
REMARK Flexibility Score: inf
ROOT
ATOM      1  C   UNL     1      -0.718  -5.018   5.915  1.00  0.00     0.274 C 
ENDROOT
BRANCH   1   2
ATOM      2  O   UNL     1      -0.014  -4.800   4.682  1.00  0.00    -0.462 OA
BRANCH   2   3
ATOM      3  C   UNL     1       0.994  -3.896   4.706  1.00  0.00     0.311 C 
ATOM      4  O   UNL     1       1.170  -3.095   5.620  1.00  0.00    -0.252 OA
BRANCH   3   5
ATOM      5  C   UNL     1       1.966  -4.065   3.556  1.00  0.00     0.177 C 
BRANCH   5   6
ATOM      6  C   UNL     1       1.402  -4.108   2.160  1.00  0.00     0.037 A 
ATOM      7  C   UNL     1       1.036   0.369   0.029  1.00  0.00     0.013 C 
ATOM      8  C   UNL     1       0.475  -0.976   0.488  1.00  0.00    -0.012 C 
ATOM      9  C   UNL     1      -0.999  -0.807   0.902  1.00  0.00     0.013 C 
ATOM     10  C   UNL     1       0.598  -2.045  -0.649  1.00  0.00     0.063 C 
ATOM     11  C   UNL     1       1.298  -1.560   1.673  1.00  0.00     0.129 C 
ATOM     12  C   UNL     1       0.884  -3.273   0.116  1.00  0.00     0.027 A 
ATOM     13  N   UNL     1       1.286  -2.990   1.390  1.00  0.00    -0.346 N 
ATOM     14  C   UNL     1       0.765  -4.628  -0.009  1.00  0.00     0.011 A 
ATOM     15  C   UNL     1       0.993  -5.153   1.321  1.00  0.00     0.011 A 
BRANCH  14  16
ATOM     16  C   UNL     1       0.268  -5.332  -1.182  1.00  0.00    -0.016 A 
ATOM     17  C   UNL     1       1.105  -5.526  -2.284  1.00  0.00     0.009 A 
ATOM     18  C   UNL     1      -0.966  -5.996  -1.136  1.00  0.00     0.009 A 
ATOM     19  C   UNL     1       0.734  -6.416  -3.297  1.00  0.00     0.001 A 
ATOM     20  C   UNL     1      -1.320  -6.910  -2.129  1.00  0.00     0.001 A 
ATOM     21  C   UNL     1      -0.466  -7.124  -3.207  1.00  0.00     0.000 A 
ENDBRANCH  14  16
BRANCH  15  22
ATOM     22  C   UNL     1       0.440  -6.429   1.747  1.00  0.00    -0.016 A 
ATOM     23  C   UNL     1       0.796  -7.633   1.127  1.00  0.00     0.010 A 
ATOM     24  C   UNL     1      -0.788  -6.343   2.411  1.00  0.00     0.010 A 
ATOM     25  C   UNL     1      -0.118  -8.702   1.117  1.00  0.00     0.021 A 
ATOM     26  C   UNL     1      -1.665  -7.410   2.449  1.00  0.00     0.021 A 
ATOM     27  C   UNL     1      -1.356  -8.563   1.755  1.00  0.00     0.041 A 
ATOM     28  Cl  UNL     1      -2.649  -9.683   1.592  1.00  0.00    -0.084 Cl
ENDBRANCH  15  22
ENDBRANCH   5   6
ENDBRANCH   3   5
ENDBRANCH   2   3
ENDBRANCH   1   2
BRANCH   1  29
ATOM     29  C   UNL     1      -1.205  -6.466   5.966  1.00  0.00     0.275 C 
BRANCH  29  30
ATOM     30  O   UNL     1      -0.231  -7.490   6.260  1.00  0.00    -0.458 OA
BRANCH  30  31
ATOM     31  C   UNL     1       0.926  -7.522   5.562  1.00  0.00     0.338 C 
ATOM     32  O   UNL     1       1.754  -6.626   5.498  1.00  0.00    -0.246 OA
BRANCH  31  33
ATOM     33  C   UNL     1       1.062  -8.818   4.854  1.00  0.00     0.060 A 
ATOM     34  C   UNL     1       2.056  -8.948   3.877  1.00  0.00     0.016 A 
ATOM     35  C   UNL     1       0.177  -9.877   5.095  1.00  0.00     0.016 A 
ATOM     36  C   UNL     1       2.116 -10.102   3.098  1.00  0.00     0.010 A 
ATOM     37  C   UNL     1       0.233 -11.025   4.314  1.00  0.00     0.010 A 
ATOM     38  C   UNL     1       1.180 -11.128   3.291  1.00  0.00    -0.014 A 
BRANCH  38  39
ATOM     39  C   UNL     1       1.367 -12.407   2.594  1.00  0.00     0.031 A 
ATOM     40  C   UNL     1       2.648 -13.065   2.906  1.00  0.00     0.074 A 
ATOM     41  C   UNL     1       0.429 -13.061   1.879  1.00  0.00     0.049 A 
ATOM     42  N   UNL     1       3.555 -13.412   2.057  1.00  0.00    -0.248 NA
ATOM     43  C   UNL     1       3.024 -13.239   4.316  1.00  0.00     0.031 C 
ATOM     44  C   UNL     1      -0.896 -12.563   1.576  1.00  0.00     0.029 A 
ATOM     45  N   UNL     1       0.389 -14.329   1.367  1.00  0.00    -0.354 N 
ATOM     46  C   UNL     1       4.526 -14.052   2.808  1.00  0.00     0.074 A 
ATOM     47  C   UNL     1       4.249 -13.747   4.190  1.00  0.00     0.031 C 
ATOM     48  C   UNL     1      -1.710 -13.561   1.192  1.00  0.00     0.029 A 
ATOM     49  C   UNL     1      -0.907 -14.761   1.079  1.00  0.00     0.049 A 
ATOM     50  H   UNL     1       1.191 -14.880   1.216  1.00  0.00     0.167 HD
ATOM     51  C   UNL     1       5.270 -15.048   2.263  1.00  0.00     0.031 A 
ATOM     52  C   UNL     1      -1.336 -16.001   0.750  1.00  0.00     0.031 A 
ATOM     53  C   UNL     1       5.240 -15.025   0.823  1.00  0.00     0.049 A 
ATOM     54  C   UNL     1      -0.195 -16.711   0.151  1.00  0.00     0.074 A 
ATOM     55  C   UNL     1       5.642 -14.144  -0.158  1.00  0.00     0.029 A 
ATOM     56  N   UNL     1       4.378 -15.915   0.231  1.00  0.00    -0.354 N 
ATOM     57  N   UNL     1       0.309 -16.384  -1.004  1.00  0.00    -0.248 NA
ATOM     58  C   UNL     1       0.651 -17.553   0.984  1.00  0.00     0.031 C 
ATOM     59  C   UNL     1       4.758 -14.354  -1.256  1.00  0.00     0.029 A 
ATOM     60  C   UNL     1       3.865 -15.372  -0.917  1.00  0.00     0.049 A 
ATOM     61  H   UNL     1       4.161 -16.809   0.580  1.00  0.00     0.167 HD
ATOM     62  C   UNL     1       1.672 -16.555  -0.837  1.00  0.00     0.074 A 
ATOM     63  C   UNL     1       1.800 -17.448   0.309  1.00  0.00     0.031 C 
ATOM     64  C   UNL     1       2.557 -15.710  -1.440  1.00  0.00     0.031 A 
BRANCH  51  65
ATOM     65  C   UNL     1       5.591 -16.305   3.032  1.00  0.00    -0.014 A 
ATOM     66  C   UNL     1       6.432 -17.261   2.442  1.00  0.00     0.009 A 
ATOM     67  C   UNL     1       4.870 -16.712   4.174  1.00  0.00     0.009 A 
ATOM     68  C   UNL     1       6.506 -18.567   2.942  1.00  0.00     0.001 A 
ATOM     69  C   UNL     1       4.976 -17.999   4.703  1.00  0.00     0.001 A 
ATOM     70  C   UNL     1       5.777 -18.935   4.070  1.00  0.00     0.000 A 
ENDBRANCH  51  65
BRANCH  52  71
ATOM     71  C   UNL     1      -2.651 -16.625   1.014  1.00  0.00    -0.014 A 
ATOM     72  C   UNL     1      -3.093 -17.741   0.289  1.00  0.00     0.009 A 
ATOM     73  C   UNL     1      -3.381 -16.261   2.163  1.00  0.00     0.009 A 
ATOM     74  C   UNL     1      -4.199 -18.489   0.723  1.00  0.00     0.001 A 
ATOM     75  C   UNL     1      -4.484 -17.005   2.594  1.00  0.00     0.001 A 
ATOM     76  C   UNL     1      -4.883 -18.130   1.882  1.00  0.00     0.000 A 
ENDBRANCH  52  71
BRANCH  64  77
ATOM     77  C   UNL     1       2.046 -14.877  -2.590  1.00  0.00    -0.014 A 
ATOM     78  C   UNL     1       1.077 -13.870  -2.439  1.00  0.00     0.009 A 
ATOM     79  C   UNL     1       2.653 -15.037  -3.845  1.00  0.00     0.009 A 
ATOM     80  C   UNL     1       0.709 -13.064  -3.522  1.00  0.00     0.001 A 
ATOM     81  C   UNL     1       2.300 -14.219  -4.920  1.00  0.00     0.001 A 
ATOM     82  C   UNL     1       1.325 -13.236  -4.761  1.00  0.00     0.000 A 
ENDBRANCH  64  77
ENDBRANCH  38  39
ENDBRANCH  31  33
ENDBRANCH  30  31
ENDBRANCH  29  30
ENDBRANCH   1  29
TORSDOF 14
