REMARK SMILES NS(=O)(=O)c1ccc(-c2cc(Cl)cc3c2O[C@H](C(F)(F)F)C(C(=O)OCCOC(=O)c2ccc(-c4c5nc(c(-c6ccccc6)c6ccc([nH]6)c(-c6ccccc6)c6nc(c(-c7ccccc7)c7ccc4[nH]7)C=C6)C=C5)cc2)=C3)cc1
REMARK SMILES IDX 26 1 25 2 23 3 24 4 22 5 9 6 10 7 15 8 11 9 14 10 16 11
REMARK SMILES IDX 12 12 13 13 79 14 17 15 8 16 5 17 6 18 81 19 7 20 80 21 2 22
REMARK SMILES IDX 3 23 4 24 1 25 18 28 19 29 20 30 21 31 27 32 28 33 29 34
REMARK SMILES IDX 30 35 31 36 32 37 78 38 33 39 77 40 34 41 35 42 36 43 71 44
REMARK SMILES IDX 37 45 76 46 70 47 72 48 38 49 75 50 69 51 68 52 39 54 61 55
REMARK SMILES IDX 46 56 60 57 47 58 50 59 59 60 73 61 48 62 49 63 58 65 74 66
REMARK SMILES IDX 51 67 40 68 41 69 45 70 42 71 44 72 43 73 62 74 63 75 67 76
REMARK SMILES IDX 64 77 66 78 65 79 52 80 53 81 57 82 54 83 56 84 55 85
REMARK H PARENT 1 26 1 27 72 53 50 64
REMARK Flexibility Score: inf
ROOT
ATOM      1  C   UNL     1       1.743  -5.765  12.228  1.00  0.00     0.275 C 
ENDROOT
BRANCH   1   2
ATOM      2  O   UNL     1       1.152  -4.489  11.868  1.00  0.00    -0.459 OA
BRANCH   2   3
ATOM      3  C   UNL     1       1.968  -3.431  12.104  1.00  0.00     0.338 C 
ATOM      4  O   UNL     1       3.115  -3.526  12.526  1.00  0.00    -0.246 OA
BRANCH   3   5
ATOM      5  C   UNL     1       1.360  -2.106  11.799  1.00  0.00     0.087 C 
ATOM      6  C   UNL     1       1.665  -0.922   7.923  1.00  0.00     0.026 A 
ATOM      7  C   UNL     1       2.855  -1.575   7.506  1.00  0.00     0.033 A 
ATOM      8  C   UNL     1       1.432  -0.962   9.302  1.00  0.00     0.135 A 
ATOM      9  C   UNL     1       3.825  -2.051   8.393  1.00  0.00     0.042 A 
ATOM     10  C   UNL     1       2.521  -1.220  10.172  1.00  0.00     0.019 A 
ATOM     11  O   UNL     1       0.178  -0.919   9.896  1.00  0.00    -0.475 OA
ATOM     12  Cl  UNL     1       5.183  -2.974   7.902  1.00  0.00    -0.084 Cl
ATOM     13  C   UNL     1       3.709  -1.773   9.730  1.00  0.00     0.032 A 
ATOM     14  C   UNL     1       2.287  -1.149  11.626  1.00  0.00     0.027 C 
ATOM     15  C   UNL     1       0.055  -1.902  11.045  1.00  0.00     0.316 C 
BRANCH   6  16
ATOM     16  C   UNL     1       0.991  -0.133   6.845  1.00  0.00    -0.015 A 
ATOM     17  C   UNL     1       0.478   0.971   4.258  1.00  0.00     0.082 A 
ATOM     18  C   UNL     1      -0.318  -0.062   4.763  1.00  0.00     0.022 A 
ATOM     19  C   UNL     1       1.451   1.536   5.077  1.00  0.00     0.022 A 
ATOM     20  C   UNL     1      -0.082  -0.582   6.061  1.00  0.00     0.010 A 
ATOM     21  C   UNL     1       1.698   0.988   6.345  1.00  0.00     0.010 A 
BRANCH  17  22
ATOM     22  S   UNL     1       0.155   1.694   2.659  1.00  0.00     0.238 S 
ATOM     23  O   UNL     1       0.599   3.072   2.700  1.00  0.00    -0.207 OA
ATOM     24  O   UNL     1      -1.191   1.342   2.272  1.00  0.00    -0.207 OA
BRANCH  22  25
ATOM     25  N   UNL     1       1.169   0.885   1.605  1.00  0.00    -0.225 NA
ATOM     26  H   UNL     1       1.038   1.248   0.661  1.00  0.00     0.137 HD
ATOM     27  H   UNL     1       0.949  -0.111   1.619  1.00  0.00     0.137 HD
ENDBRANCH  22  25
ENDBRANCH  17  22
ENDBRANCH   6  16
BRANCH  15  28
ATOM     28  C   UNL     1      -0.961  -1.405  12.082  1.00  0.00     0.430 C 
ATOM     29  F   UNL     1      -0.632  -0.180  12.560  1.00  0.00    -0.167 F 
ATOM     30  F   UNL     1      -2.210  -1.327  11.576  1.00  0.00    -0.167 F 
ATOM     31  F   UNL     1      -1.016  -2.241  13.150  1.00  0.00    -0.167 F 
ENDBRANCH  15  28
ENDBRANCH   3   5
ENDBRANCH   2   3
ENDBRANCH   1   2
BRANCH   1  32
ATOM     32  C   UNL     1       1.422  -6.889  11.239  1.00  0.00     0.275 C 
BRANCH  32  33
ATOM     33  O   UNL     1       1.765  -6.530   9.888  1.00  0.00    -0.458 OA
BRANCH  33  34
ATOM     34  C   UNL     1       0.731  -6.008   9.188  1.00  0.00     0.338 C 
ATOM     35  O   UNL     1      -0.409  -5.847   9.601  1.00  0.00    -0.246 OA
BRANCH  34  36
ATOM     36  C   UNL     1       1.156  -5.521   7.855  1.00  0.00     0.060 A 
ATOM     37  C   UNL     1       0.442  -4.438   7.351  1.00  0.00     0.016 A 
ATOM     38  C   UNL     1       2.173  -6.090   7.077  1.00  0.00     0.016 A 
ATOM     39  C   UNL     1       0.760  -3.923   6.098  1.00  0.00     0.010 A 
ATOM     40  C   UNL     1       2.482  -5.559   5.802  1.00  0.00     0.010 A 
ATOM     41  C   UNL     1       1.785  -4.452   5.301  1.00  0.00    -0.014 A 
BRANCH  41  42
ATOM     42  C   UNL     1       2.027  -3.791   3.975  1.00  0.00     0.031 A 
ATOM     43  C   UNL     1       0.923  -3.741   2.958  1.00  0.00     0.074 A 
ATOM     44  C   UNL     1       3.114  -3.023   3.749  1.00  0.00     0.049 A 
ATOM     45  N   UNL     1       0.879  -3.077   1.831  1.00  0.00    -0.248 NA
ATOM     46  C   UNL     1      -0.289  -4.520   3.254  1.00  0.00     0.031 C 
ATOM     47  C   UNL     1       4.229  -2.893   4.664  1.00  0.00     0.029 A 
ATOM     48  N   UNL     1       3.429  -2.140   2.738  1.00  0.00    -0.354 N 
ATOM     49  C   UNL     1      -0.360  -3.366   1.281  1.00  0.00     0.074 A 
ATOM     50  C   UNL     1      -1.057  -4.221   2.218  1.00  0.00     0.031 C 
ATOM     51  C   UNL     1       5.012  -1.871   4.289  1.00  0.00     0.029 A 
ATOM     52  C   UNL     1       4.562  -1.391   2.989  1.00  0.00     0.049 A 
ATOM     53  H   UNL     1       2.897  -2.053   1.915  1.00  0.00     0.167 HD
ATOM     54  C   UNL     1      -0.858  -2.998   0.079  1.00  0.00     0.031 A 
ATOM     55  C   UNL     1       5.208  -0.470   2.241  1.00  0.00     0.031 A 
ATOM     56  C   UNL     1      -0.141  -2.247  -0.910  1.00  0.00     0.049 A 
ATOM     57  C   UNL     1       4.723  -0.233   0.838  1.00  0.00     0.074 A 
ATOM     58  C   UNL     1      -0.551  -1.891  -2.182  1.00  0.00     0.029 A 
ATOM     59  N   UNL     1       1.149  -1.771  -0.756  1.00  0.00    -0.354 N 
ATOM     60  N   UNL     1       3.616  -0.648   0.274  1.00  0.00    -0.248 NA
ATOM     61  C   UNL     1       5.607   0.536  -0.052  1.00  0.00     0.031 C 
ATOM     62  C   UNL     1       0.498  -1.205  -2.802  1.00  0.00     0.029 A 
ATOM     63  C   UNL     1       1.530  -1.074  -1.889  1.00  0.00     0.049 A 
ATOM     64  H   UNL     1       1.711  -1.907   0.040  1.00  0.00     0.167 HD
ATOM     65  C   UNL     1       3.674  -0.193  -1.038  1.00  0.00     0.074 A 
ATOM     66  C   UNL     1       4.908   0.548  -1.179  1.00  0.00     0.031 C 
ATOM     67  C   UNL     1       2.777  -0.375  -2.037  1.00  0.00     0.031 A 
BRANCH  54  68
ATOM     68  C   UNL     1      -2.229  -3.497  -0.253  1.00  0.00    -0.014 A 
ATOM     69  C   UNL     1      -3.370  -2.908   0.311  1.00  0.00     0.009 A 
ATOM     70  C   UNL     1      -2.374  -4.585  -1.127  1.00  0.00     0.009 A 
ATOM     71  C   UNL     1      -4.635  -3.423   0.027  1.00  0.00     0.001 A 
ATOM     72  C   UNL     1      -3.641  -5.083  -1.424  1.00  0.00     0.001 A 
ATOM     73  C   UNL     1      -4.769  -4.507  -0.840  1.00  0.00     0.000 A 
ENDBRANCH  54  68
BRANCH  55  74
ATOM     74  C   UNL     1       6.459   0.195   2.718  1.00  0.00    -0.014 A 
ATOM     75  C   UNL     1       6.552   1.595   2.803  1.00  0.00     0.009 A 
ATOM     76  C   UNL     1       7.601  -0.566   3.017  1.00  0.00     0.009 A 
ATOM     77  C   UNL     1       7.760   2.209   3.155  1.00  0.00     0.001 A 
ATOM     78  C   UNL     1       8.792   0.046   3.413  1.00  0.00     0.001 A 
ATOM     79  C   UNL     1       8.876   1.434   3.468  1.00  0.00     0.000 A 
ENDBRANCH  55  74
BRANCH  67  80
ATOM     80  C   UNL     1       3.074   0.267  -3.360  1.00  0.00    -0.014 A 
ATOM     81  C   UNL     1       4.034  -0.263  -4.235  1.00  0.00     0.009 A 
ATOM     82  C   UNL     1       2.338   1.395  -3.756  1.00  0.00     0.009 A 
ATOM     83  C   UNL     1       4.258   0.335  -5.478  1.00  0.00     0.001 A 
ATOM     84  C   UNL     1       2.546   1.974  -5.008  1.00  0.00     0.001 A 
ATOM     85  C   UNL     1       3.509   1.446  -5.866  1.00  0.00     0.000 A 
ENDBRANCH  67  80
ENDBRANCH  41  42
ENDBRANCH  34  36
ENDBRANCH  33  34
ENDBRANCH  32  33
ENDBRANCH   1  32
TORSDOF 15
