REMARK SMILES C[C@H]1[C@@H](C(=O)OCCOC(=O)c2ccc(-c3c4nc(c(-c5ccccc5)c5ccc([nH]5)c(-c5ccccc5)c5nc(c(-c6ccccc6)c6ccc3[nH]6)C=C5)C=C4)cc2)CC[N@@H+]1Cc1cc(F)c(F)c(F)c1
REMARK SMILES IDX 7 1 6 2 4 3 5 4 3 5 1 6 2 7 62 8 60 9 61 10 63 12 64 13
REMARK SMILES IDX 65 14 72 15 66 16 70 17 67 18 68 19 71 20 69 21 8 22 9 23
REMARK SMILES IDX 10 24 11 25 12 26 13 27 59 28 14 29 58 30 15 31 16 32 17 33
REMARK SMILES IDX 52 34 18 35 57 36 51 37 53 38 19 39 56 40 50 41 49 42 20 44
REMARK SMILES IDX 42 45 27 46 41 47 28 48 31 49 40 50 54 51 29 52 30 53 39 55
REMARK SMILES IDX 55 56 32 57 21 58 22 59 26 60 23 61 25 62 24 63 43 64 44 65
REMARK SMILES IDX 48 66 45 67 47 68 46 69 33 70 34 71 38 72 35 73 37 74 36 75
REMARK H PARENT 62 11 53 43 31 54
REMARK Flexibility Score: inf
ROOT
ATOM      1  C   UNL     1       2.042   2.523  -2.492  1.00  0.00     0.274 C 
ENDROOT
BRANCH   1   2
ATOM      2  O   UNL     1       1.506   1.540  -1.583  1.00  0.00    -0.462 OA
BRANCH   2   3
ATOM      3  C   UNL     1       1.002   1.987  -0.406  1.00  0.00     0.315 C 
ATOM      4  O   UNL     1       0.988   3.160  -0.052  1.00  0.00    -0.252 OA
BRANCH   3   5
ATOM      5  C   UNL     1       0.350   0.884   0.404  1.00  0.00     0.162 C 
ATOM      6  C   UNL     1       2.411  -0.652  -0.043  1.00  0.00     0.076 C 
ATOM      7  C   UNL     1       1.204  -0.314   0.835  1.00  0.00     0.195 C 
ATOM      8  N   UNL     1       0.288  -1.467   0.791  1.00  0.00    -0.328 N 
ATOM      9  C   UNL     1      -0.870   0.299  -0.300  1.00  0.00     0.083 C 
ATOM     10  C   UNL     1      -0.701  -1.205  -0.247  1.00  0.00     0.263 C 
ATOM     11  H   UNL     1       0.834  -2.292   0.543  1.00  0.00     0.348 HD
BRANCH   8  12
ATOM     12  C   UNL     1      -0.237  -1.954   2.065  1.00  0.00     0.299 C 
BRANCH  12  13
ATOM     13  C   UNL     1      -1.030  -0.994   2.925  1.00  0.00     0.012 A 
ATOM     14  C   UNL     1      -0.427  -0.374   4.032  1.00  0.00     0.052 A 
ATOM     15  C   UNL     1      -2.389  -0.740   2.676  1.00  0.00     0.052 A 
ATOM     16  C   UNL     1      -1.167   0.474   4.857  1.00  0.00     0.162 A 
ATOM     17  C   UNL     1      -3.109   0.123   3.503  1.00  0.00     0.162 A 
ATOM     18  F   UNL     1      -0.570   1.035   5.917  1.00  0.00    -0.204 F 
ATOM     19  C   UNL     1      -2.505   0.727   4.595  1.00  0.00     0.194 A 
ATOM     20  F   UNL     1      -4.401   0.356   3.233  1.00  0.00    -0.204 F 
ATOM     21  F   UNL     1      -3.208   1.541   5.394  1.00  0.00    -0.200 F 
ENDBRANCH  12  13
ENDBRANCH   8  12
ENDBRANCH   3   5
ENDBRANCH   2   3
ENDBRANCH   1   2
BRANCH   1  22
ATOM     22  C   UNL     1       1.319   2.398  -3.827  1.00  0.00     0.275 C 
BRANCH  22  23
ATOM     23  O   UNL     1      -0.072   2.703  -3.619  1.00  0.00    -0.458 OA
BRANCH  23  24
ATOM     24  C   UNL     1      -0.938   1.702  -3.891  1.00  0.00     0.338 C 
ATOM     25  O   UNL     1      -0.691   0.612  -4.376  1.00  0.00    -0.246 OA
BRANCH  24  26
ATOM     26  C   UNL     1      -2.299   2.113  -3.504  1.00  0.00     0.060 A 
ATOM     27  C   UNL     1      -2.561   2.635  -2.233  1.00  0.00     0.016 A 
ATOM     28  C   UNL     1      -3.342   1.869  -4.396  1.00  0.00     0.016 A 
ATOM     29  C   UNL     1      -3.880   2.850  -1.831  1.00  0.00     0.010 A 
ATOM     30  C   UNL     1      -4.650   2.176  -4.024  1.00  0.00     0.010 A 
ATOM     31  C   UNL     1      -4.937   2.651  -2.731  1.00  0.00    -0.014 A 
BRANCH  31  32
ATOM     32  C   UNL     1      -6.349   2.944  -2.370  1.00  0.00     0.031 A 
ATOM     33  C   UNL     1      -7.394   1.869  -2.489  1.00  0.00     0.074 A 
ATOM     34  C   UNL     1      -6.717   4.194  -2.027  1.00  0.00     0.049 A 
ATOM     35  N   UNL     1      -8.695   1.983  -2.557  1.00  0.00    -0.248 NA
ATOM     36  C   UNL     1      -6.905   0.482  -2.564  1.00  0.00     0.031 C 
ATOM     37  C   UNL     1      -5.812   5.326  -1.821  1.00  0.00     0.029 A 
ATOM     38  N   UNL     1      -7.966   4.725  -1.820  1.00  0.00    -0.354 N 
ATOM     39  C   UNL     1      -9.178   0.694  -2.746  1.00  0.00     0.074 A 
ATOM     40  C   UNL     1      -8.031  -0.189  -2.769  1.00  0.00     0.031 C 
ATOM     41  C   UNL     1      -6.532   6.414  -1.513  1.00  0.00     0.029 A 
ATOM     42  C   UNL     1      -7.949   6.080  -1.593  1.00  0.00     0.049 A 
ATOM     43  H   UNL     1      -8.792   4.189  -1.832  1.00  0.00     0.167 HD
ATOM     44  C   UNL     1     -10.461   0.290  -2.903  1.00  0.00     0.031 A 
ATOM     45  C   UNL     1      -8.953   6.973  -1.526  1.00  0.00     0.031 A 
ATOM     46  C   UNL     1     -11.599   1.169  -2.844  1.00  0.00     0.049 A 
ATOM     47  C   UNL     1     -10.363   6.514  -1.745  1.00  0.00     0.074 A 
ATOM     48  C   UNL     1     -12.941   0.855  -2.982  1.00  0.00     0.029 A 
ATOM     49  N   UNL     1     -11.528   2.533  -2.611  1.00  0.00    -0.354 N 
ATOM     50  N   UNL     1     -10.805   5.306  -1.998  1.00  0.00    -0.248 NA
ATOM     51  C   UNL     1     -11.410   7.544  -1.694  1.00  0.00     0.031 C 
ATOM     52  C   UNL     1     -13.680   2.037  -2.861  1.00  0.00     0.029 A 
ATOM     53  C   UNL     1     -12.800   3.077  -2.610  1.00  0.00     0.049 A 
ATOM     54  H   UNL     1     -10.696   3.039  -2.469  1.00  0.00     0.167 HD
ATOM     55  C   UNL     1     -12.182   5.428  -2.121  1.00  0.00     0.074 A 
ATOM     56  C   UNL     1     -12.503   6.824  -1.908  1.00  0.00     0.031 C 
ATOM     57  C   UNL     1     -13.098   4.467  -2.390  1.00  0.00     0.031 A 
BRANCH  44  58
ATOM     58  C   UNL     1     -10.703  -1.162  -3.200  1.00  0.00    -0.014 A 
ATOM     59  C   UNL     1     -10.605  -2.142  -2.202  1.00  0.00     0.009 A 
ATOM     60  C   UNL     1     -11.085  -1.546  -4.496  1.00  0.00     0.009 A 
ATOM     61  C   UNL     1     -10.859  -3.483  -2.503  1.00  0.00     0.001 A 
ATOM     62  C   UNL     1     -11.360  -2.882  -4.789  1.00  0.00     0.001 A 
ATOM     63  C   UNL     1     -11.241  -3.851  -3.794  1.00  0.00     0.000 A 
ENDBRANCH  44  58
BRANCH  45  64
ATOM     64  C   UNL     1      -8.641   8.408  -1.303  1.00  0.00    -0.014 A 
ATOM     65  C   UNL     1      -8.909   9.009  -0.066  1.00  0.00     0.009 A 
ATOM     66  C   UNL     1      -8.039   9.171  -2.317  1.00  0.00     0.009 A 
ATOM     67  C   UNL     1      -8.586  10.350   0.151  1.00  0.00     0.001 A 
ATOM     68  C   UNL     1      -7.693  10.503  -2.088  1.00  0.00     0.001 A 
ATOM     69  C   UNL     1      -7.971  11.093  -0.857  1.00  0.00     0.000 A 
ENDBRANCH  45  64
BRANCH  57  70
ATOM     70  C   UNL     1     -14.537   4.887  -2.425  1.00  0.00    -0.014 A 
ATOM     71  C   UNL     1     -15.075   5.534  -3.546  1.00  0.00     0.009 A 
ATOM     72  C   UNL     1     -15.372   4.587  -1.338  1.00  0.00     0.009 A 
ATOM     73  C   UNL     1     -16.424   5.892  -3.569  1.00  0.00     0.001 A 
ATOM     74  C   UNL     1     -16.723   4.930  -1.372  1.00  0.00     0.001 A 
ATOM     75  C   UNL     1     -17.247   5.587  -2.485  1.00  0.00     0.000 A 
ENDBRANCH  57  70
ENDBRANCH  31  32
ENDBRANCH  24  26
ENDBRANCH  23  24
ENDBRANCH  22  23
ENDBRANCH   1  22
TORSDOF 13
