REMARK SMILES NS(=O)(=O)c1ccc(-n2nc(C(=O)OCCOC(=O)c3ccc(-c4c5nc(c(-c6ccccc6)c6ccc([nH]6)c(-c6ccccc6)c6nc(c(-c7ccccc7)c7ccc4[nH]7)C=C6)C=C5)cc3)cc2-c2ccc(Cl)s2)cc1
REMARK SMILES IDX 15 1 14 2 12 3 13 4 11 5 9 6 10 7 69 8 68 9 8 10 5 11 6 12
REMARK SMILES IDX 77 13 7 14 76 15 2 16 3 17 4 18 1 19 70 22 71 23 75 24 72 25
REMARK SMILES IDX 73 26 74 27 16 28 17 29 18 30 19 31 20 32 21 33 67 34 22 35
REMARK SMILES IDX 66 36 23 37 24 38 25 39 60 40 26 41 65 42 59 43 61 44 27 45
REMARK SMILES IDX 64 46 58 47 57 48 28 50 50 51 35 52 49 53 36 54 39 55 48 56
REMARK SMILES IDX 62 57 37 58 38 59 47 61 63 62 40 63 29 64 30 65 34 66 31 67
REMARK SMILES IDX 33 68 32 69 51 70 52 71 56 72 53 73 55 74 54 75 41 76 42 77
REMARK SMILES IDX 46 78 43 79 45 80 44 81
REMARK H PARENT 1 20 1 21 61 49 39 60
REMARK Flexibility Score: inf
ROOT
ATOM      1  C   UNL     1       0.566   8.569   9.090  1.00  0.00     0.275 C 
ENDROOT
BRANCH   1   2
ATOM      2  O   UNL     1       1.164   7.547   8.277  1.00  0.00    -0.457 OA
BRANCH   2   3
ATOM      3  C   UNL     1       0.346   6.967   7.339  1.00  0.00     0.358 C 
ATOM      4  O   UNL     1      -0.871   7.118   7.306  1.00  0.00    -0.244 OA
BRANCH   3   5
ATOM      5  C   UNL     1       1.111   6.179   6.362  1.00  0.00     0.171 A 
ATOM      6  N   UNL     1       1.563   5.021   4.617  1.00  0.00    -0.231 N 
ATOM      7  N   UNL     1       0.623   5.836   5.153  1.00  0.00    -0.160 NA
ATOM      8  C   UNL     1       2.691   4.930   5.415  1.00  0.00     0.085 A 
ATOM      9  C   UNL     1       2.433   5.699   6.526  1.00  0.00     0.068 A 
BRANCH   6  10
ATOM     10  C   UNL     1       1.253   4.257   3.468  1.00  0.00     0.065 A 
ATOM     11  C   UNL     1       0.712   2.740   1.204  1.00  0.00     0.082 A 
ATOM     12  C   UNL     1       1.141   2.104   2.372  1.00  0.00     0.024 A 
ATOM     13  C   UNL     1       0.540   4.130   1.165  1.00  0.00     0.024 A 
ATOM     14  C   UNL     1       1.428   2.866   3.501  1.00  0.00     0.030 A 
ATOM     15  C   UNL     1       0.780   4.892   2.314  1.00  0.00     0.030 A 
BRANCH  11  16
ATOM     16  S   UNL     1       0.409   1.809  -0.269  1.00  0.00     0.238 S 
ATOM     17  O   UNL     1       1.163   2.390  -1.347  1.00  0.00    -0.207 OA
ATOM     18  O   UNL     1      -1.012   1.542  -0.353  1.00  0.00    -0.207 OA
BRANCH  16  19
ATOM     19  N   UNL     1       1.131   0.316   0.020  1.00  0.00    -0.225 NA
ATOM     20  H   UNL     1       1.000  -0.288  -0.792  1.00  0.00     0.137 HD
ATOM     21  H   UNL     1       0.703  -0.117   0.838  1.00  0.00     0.137 HD
ENDBRANCH  16  19
ENDBRANCH  11  16
ENDBRANCH   6  10
BRANCH   8  22
ATOM     22  C   UNL     1       3.876   4.182   5.120  1.00  0.00     0.054 A 
ATOM     23  C   UNL     1       4.442   3.208   5.921  1.00  0.00     0.024 A 
ATOM     24  S   UNL     1       4.785   4.429   3.688  1.00  0.00    -0.122 S 
ATOM     25  C   UNL     1       5.594   2.621   5.321  1.00  0.00     0.033 A 
ATOM     26  C   UNL     1       5.870   3.203   4.111  1.00  0.00     0.094 A 
ATOM     27  Cl  UNL     1       7.160   2.800   3.054  1.00  0.00    -0.072 Cl
ENDBRANCH   8  22
ENDBRANCH   3   5
ENDBRANCH   2   3
ENDBRANCH   1   2
BRANCH   1  28
ATOM     28  C   UNL     1       0.615   9.927   8.403  1.00  0.00     0.275 C 
BRANCH  28  29
ATOM     29  O   UNL     1      -0.255   9.963   7.276  1.00  0.00    -0.458 OA
BRANCH  29  30
ATOM     30  C   UNL     1       0.323   9.685   6.085  1.00  0.00     0.338 C 
ATOM     31  O   UNL     1       1.425   9.194   5.902  1.00  0.00    -0.246 OA
BRANCH  30  32
ATOM     32  C   UNL     1      -0.476  10.303   5.022  1.00  0.00     0.060 A 
ATOM     33  C   UNL     1      -0.051  10.112   3.706  1.00  0.00     0.016 A 
ATOM     34  C   UNL     1      -1.397  11.303   5.367  1.00  0.00     0.016 A 
ATOM     35  C   UNL     1      -0.382  11.073   2.775  1.00  0.00     0.010 A 
ATOM     36  C   UNL     1      -1.715  12.265   4.442  1.00  0.00     0.010 A 
ATOM     37  C   UNL     1      -1.127  12.188   3.186  1.00  0.00    -0.014 A 
BRANCH  37  38
ATOM     38  C   UNL     1      -1.433  13.214   2.214  1.00  0.00     0.031 A 
ATOM     39  C   UNL     1      -2.441  12.738   1.249  1.00  0.00     0.074 A 
ATOM     40  C   UNL     1      -0.941  14.466   2.255  1.00  0.00     0.049 A 
ATOM     41  N   UNL     1      -2.210  12.284   0.064  1.00  0.00    -0.248 NA
ATOM     42  C   UNL     1      -3.814  12.505   1.729  1.00  0.00     0.031 C 
ATOM     43  C   UNL     1      -0.188  15.113   3.335  1.00  0.00     0.029 A 
ATOM     44  N   UNL     1      -1.090  15.471   1.349  1.00  0.00    -0.354 N 
ATOM     45  C   UNL     1      -3.458  11.955  -0.447  1.00  0.00     0.074 A 
ATOM     46  C   UNL     1      -4.348  11.874   0.681  1.00  0.00     0.031 C 
ATOM     47  C   UNL     1      -0.159  16.452   3.123  1.00  0.00     0.029 A 
ATOM     48  C   UNL     1      -0.744  16.732   1.822  1.00  0.00     0.049 A 
ATOM     49  H   UNL     1      -1.417  15.317   0.433  1.00  0.00     0.167 HD
ATOM     50  C   UNL     1      -3.721  12.158  -1.766  1.00  0.00     0.031 A 
ATOM     51  C   UNL     1      -0.958  17.910   1.183  1.00  0.00     0.031 A 
ATOM     52  C   UNL     1      -2.504  12.421  -2.495  1.00  0.00     0.049 A 
ATOM     53  C   UNL     1      -1.111  17.604  -0.256  1.00  0.00     0.074 A 
ATOM     54  C   UNL     1      -1.419  11.703  -2.944  1.00  0.00     0.029 A 
ATOM     55  N   UNL     1      -2.133  13.741  -2.445  1.00  0.00    -0.354 N 
ATOM     56  N   UNL     1      -0.138  17.142  -0.988  1.00  0.00    -0.248 NA
ATOM     57  C   UNL     1      -2.447  17.442  -0.814  1.00  0.00     0.031 C 
ATOM     58  C   UNL     1      -0.330  12.627  -2.995  1.00  0.00     0.029 A 
ATOM     59  C   UNL     1      -0.789  13.894  -2.638  1.00  0.00     0.049 A 
ATOM     60  H   UNL     1      -2.757  14.485  -2.290  1.00  0.00     0.167 HD
ATOM     61  C   UNL     1      -0.752  16.254  -1.851  1.00  0.00     0.074 A 
ATOM     62  C   UNL     1      -2.168  16.610  -1.822  1.00  0.00     0.031 C 
ATOM     63  C   UNL     1      -0.115  15.116  -2.252  1.00  0.00     0.031 A 
BRANCH  50  64
ATOM     64  C   UNL     1      -5.040  12.710  -2.265  1.00  0.00    -0.014 A 
ATOM     65  C   UNL     1      -5.192  12.918  -3.647  1.00  0.00     0.009 A 
ATOM     66  C   UNL     1      -6.001  13.316  -1.430  1.00  0.00     0.009 A 
ATOM     67  C   UNL     1      -6.212  13.732  -4.156  1.00  0.00     0.001 A 
ATOM     68  C   UNL     1      -7.039  14.103  -1.936  1.00  0.00     0.001 A 
ATOM     69  C   UNL     1      -7.131  14.329  -3.300  1.00  0.00     0.000 A 
ENDBRANCH  50  64
BRANCH  51  70
ATOM     70  C   UNL     1      -1.343  19.229   1.736  1.00  0.00    -0.014 A 
ATOM     71  C   UNL     1      -1.212  20.400   0.970  1.00  0.00     0.009 A 
ATOM     72  C   UNL     1      -2.138  19.293   2.894  1.00  0.00     0.009 A 
ATOM     73  C   UNL     1      -1.892  21.576   1.323  1.00  0.00     0.001 A 
ATOM     74  C   UNL     1      -2.820  20.465   3.244  1.00  0.00     0.001 A 
ATOM     75  C   UNL     1      -2.711  21.602   2.450  1.00  0.00     0.000 A 
ENDBRANCH  51  70
BRANCH  63  76
ATOM     76  C   UNL     1       1.383  15.083  -2.150  1.00  0.00    -0.014 A 
ATOM     77  C   UNL     1       2.095  15.108  -0.939  1.00  0.00     0.009 A 
ATOM     78  C   UNL     1       2.101  14.936  -3.346  1.00  0.00     0.009 A 
ATOM     79  C   UNL     1       3.491  15.008  -0.935  1.00  0.00     0.001 A 
ATOM     80  C   UNL     1       3.489  14.816  -3.341  1.00  0.00     0.001 A 
ATOM     81  C   UNL     1       4.186  14.857  -2.136  1.00  0.00     0.000 A 
ENDBRANCH  63  76
ENDBRANCH  37  38
ENDBRANCH  30  32
ENDBRANCH  29  30
ENDBRANCH  28  29
ENDBRANCH   1  28
TORSDOF 15
