REMARK SMILES COc1ccc(NC(=O)N[C@@H]2C=C[C@H](C(=O)OCCOC(=O)c3ccc(-c4c5nc(c(-c6ccccc6)c6ccc([nH]6)c(-c6ccccc6)c6nc(c(-c7ccccc7)c7ccc4[nH]7)C=C6)C=C5)cc3)C2)c(C)c1
REMARK SMILES IDX 18 1 17 2 15 3 16 4 14 5 11 6 12 7 71 8 13 9 10 10 7 11 8 12
REMARK SMILES IDX 9 14 6 16 3 17 4 18 74 19 5 20 72 21 73 22 2 23 1 24 19 25
REMARK SMILES IDX 20 26 21 27 22 28 23 29 24 30 70 31 25 32 69 33 26 34 27 35
REMARK SMILES IDX 28 36 63 37 29 38 68 39 62 40 64 41 30 42 67 43 61 44 60 45
REMARK SMILES IDX 31 47 53 48 38 49 52 50 39 51 42 52 51 53 65 54 40 55 41 56
REMARK SMILES IDX 50 58 66 59 43 60 32 61 33 62 37 63 34 64 36 65 35 66 54 67
REMARK SMILES IDX 55 68 59 69 56 70 58 71 57 72 44 73 45 74 49 75 46 76 48 77
REMARK SMILES IDX 47 78
REMARK H PARENT 7 13 10 15 64 46 42 57
REMARK Flexibility Score: inf
ROOT
ATOM      1  C   UNL     1       0.120   0.675  -1.331  1.00  0.00     0.274 C 
ENDROOT
BRANCH   1   2
ATOM      2  O   UNL     1       1.027   0.675  -2.519  1.00  0.00    -0.462 OA
BRANCH   2   3
ATOM      3  C   UNL     1       0.873  -0.164  -3.609  1.00  0.00     0.312 C 
ATOM      4  O   UNL     1      -0.178  -0.785  -3.743  1.00  0.00    -0.252 OA
BRANCH   3   5
ATOM      5  C   UNL     1       2.339  -0.417  -4.599  1.00  0.00     0.124 C 
ATOM      6  C   UNL     1       2.001  -2.632  -5.257  1.00  0.00     0.107 C 
ATOM      7  C   UNL     1       3.453  -2.692  -5.281  1.00  0.00    -0.006 C 
ATOM      8  C   UNL     1       1.772  -1.184  -5.750  1.00  0.00     0.048 C 
ATOM      9  C   UNL     1       3.619  -1.542  -4.635  1.00  0.00    -0.014 C 
BRANCH   6  10
ATOM     10  N   UNL     1       1.758  -2.894  -3.785  1.00  0.00    -0.332 N 
ATOM     11  N   UNL     1       2.632  -1.028  -2.311  1.00  0.00    -0.308 N 
ATOM     12  C   UNL     1       2.235  -2.411  -2.557  1.00  0.00     0.319 C 
ATOM     13  H   UNL     1       1.801  -0.501  -2.279  1.00  0.00     0.171 HD
ATOM     14  O   UNL     1       1.700  -3.071  -1.653  1.00  0.00    -0.248 OA
ATOM     15  H   UNL     1       1.080  -3.596  -3.654  1.00  0.00     0.165 HD
BRANCH  11  16
ATOM     16  C   UNL     1       3.973   0.126  -2.043  1.00  0.00     0.046 A 
ATOM     17  C   UNL     1       7.564   0.149  -1.518  1.00  0.00     0.119 A 
ATOM     18  C   UNL     1       6.875  -0.438  -2.954  1.00  0.00     0.048 A 
ATOM     19  C   UNL     1       6.606   0.689  -0.124  1.00  0.00     0.052 A 
ATOM     20  C   UNL     1       5.234  -0.298  -3.284  1.00  0.00     0.030 A 
ATOM     21  C   UNL     1       4.759   0.696  -0.232  1.00  0.00    -0.024 A 
ATOM     22  C   UNL     1       4.155   0.720   1.234  1.00  0.00     0.047 C 
BRANCH  17  23
ATOM     23  O   UNL     1       8.747   0.932  -1.826  1.00  0.00    -0.497 OA
ATOM     24  C   UNL     1       8.880   1.331  -3.238  1.00  0.00     0.278 C 
ENDBRANCH  17  23
ENDBRANCH  11  16
ENDBRANCH   6  10
ENDBRANCH   3   5
ENDBRANCH   2   3
ENDBRANCH   1   2
BRANCH   1  25
ATOM     25  C   UNL     1       0.167  -0.474  -0.136  1.00  0.00     0.275 C 
BRANCH  25  26
ATOM     26  O   UNL     1       1.331  -1.465   0.331  1.00  0.00    -0.458 OA
BRANCH  26  27
ATOM     27  C   UNL     1       2.678  -1.876   0.351  1.00  0.00     0.338 C 
ATOM     28  O   UNL     1       3.048  -2.902   0.895  1.00  0.00    -0.246 OA
BRANCH  27  29
ATOM     29  C   UNL     1       3.626  -0.951  -0.329  1.00  0.00     0.060 A 
ATOM     30  C   UNL     1       5.306  -0.784  -1.141  1.00  0.00     0.016 A 
ATOM     31  C   UNL     1       2.621   0.585  -0.387  1.00  0.00     0.016 A 
ATOM     32  C   UNL     1       5.590   1.111  -1.828  1.00  0.00     0.010 A 
ATOM     33  C   UNL     1       3.035   2.102  -0.988  1.00  0.00     0.010 A 
ATOM     34  C   UNL     1       4.487   2.420  -1.465  1.00  0.00    -0.014 A 
BRANCH  34  35
ATOM     35  C   UNL     1       4.998   3.627  -0.475  1.00  0.00     0.031 A 
ATOM     36  C   UNL     1       5.387   4.671  -1.452  1.00  0.00     0.074 A 
ATOM     37  C   UNL     1       5.058   3.723   0.946  1.00  0.00     0.049 A 
ATOM     38  N   UNL     1       6.556   5.209  -1.590  1.00  0.00    -0.248 NA
ATOM     39  C   UNL     1       4.539   4.930  -2.655  1.00  0.00     0.031 C 
ATOM     40  C   UNL     1       5.170   4.801   1.966  1.00  0.00     0.029 A 
ATOM     41  N   UNL     1       4.960   2.727   1.941  1.00  0.00    -0.354 N 
ATOM     42  C   UNL     1       6.276   6.292  -2.401  1.00  0.00     0.074 A 
ATOM     43  C   UNL     1       5.299   5.801  -3.325  1.00  0.00     0.031 C 
ATOM     44  C   UNL     1       5.571   4.328   3.195  1.00  0.00     0.029 A 
ATOM     45  C   UNL     1       5.683   2.876   3.119  1.00  0.00     0.049 A 
ATOM     46  H   UNL     1       4.388   1.938   1.802  1.00  0.00     0.167 HD
ATOM     47  C   UNL     1       6.294   7.536  -1.828  1.00  0.00     0.031 A 
ATOM     48  C   UNL     1       6.643   1.992   3.562  1.00  0.00     0.031 A 
ATOM     49  C   UNL     1       6.731   7.442  -0.423  1.00  0.00     0.049 A 
ATOM     50  C   UNL     1       7.895   2.722   3.184  1.00  0.00     0.074 A 
ATOM     51  C   UNL     1       6.095   7.669   0.783  1.00  0.00     0.029 A 
ATOM     52  N   UNL     1       7.859   6.682  -0.115  1.00  0.00    -0.354 N 
ATOM     53  N   UNL     1       7.903   3.570   2.190  1.00  0.00    -0.248 NA
ATOM     54  C   UNL     1       9.130   2.694   3.948  1.00  0.00     0.031 C 
ATOM     55  C   UNL     1       6.895   7.074   1.814  1.00  0.00     0.029 A 
ATOM     56  C   UNL     1       7.921   6.347   1.223  1.00  0.00     0.049 A 
ATOM     57  H   UNL     1       8.535   6.413  -0.778  1.00  0.00     0.167 HD
ATOM     58  C   UNL     1       8.948   4.404   2.365  1.00  0.00     0.074 A 
ATOM     59  C   UNL     1       9.740   3.766   3.417  1.00  0.00     0.031 C 
ATOM     60  C   UNL     1       9.079   5.593   1.714  1.00  0.00     0.031 A 
BRANCH  47  61
ATOM     61  C   UNL     1       5.603   8.762  -2.410  1.00  0.00    -0.014 A 
ATOM     62  C   UNL     1       5.571   9.943  -1.648  1.00  0.00     0.009 A 
ATOM     63  C   UNL     1       4.999   8.848  -3.683  1.00  0.00     0.009 A 
ATOM     64  C   UNL     1       4.988  11.128  -2.121  1.00  0.00     0.001 A 
ATOM     65  C   UNL     1       4.405  10.028  -4.162  1.00  0.00     0.001 A 
ATOM     66  C   UNL     1       4.411  11.174  -3.383  1.00  0.00     0.000 A 
ENDBRANCH  47  61
BRANCH  48  67
ATOM     67  C   UNL     1       6.509   0.465   3.457  1.00  0.00    -0.014 A 
ATOM     68  C   UNL     1       5.381  -0.209   4.007  1.00  0.00     0.009 A 
ATOM     69  C   UNL     1       7.277  -0.278   2.540  1.00  0.00     0.009 A 
ATOM     70  C   UNL     1       4.927  -1.446   3.481  1.00  0.00     0.001 A 
ATOM     71  C   UNL     1       6.807  -1.499   1.998  1.00  0.00     0.001 A 
ATOM     72  C   UNL     1       5.618  -2.062   2.441  1.00  0.00     0.000 A 
ENDBRANCH  48  67
BRANCH  60  73
ATOM     73  C   UNL     1      10.427   6.191   1.529  1.00  0.00    -0.014 A 
ATOM     74  C   UNL     1      11.607   5.461   1.695  1.00  0.00     0.009 A 
ATOM     75  C   UNL     1      10.533   7.498   1.026  1.00  0.00     0.009 A 
ATOM     76  C   UNL     1      12.844   6.070   1.555  1.00  0.00     0.001 A 
ATOM     77  C   UNL     1      11.765   8.069   0.760  1.00  0.00     0.001 A 
ATOM     78  C   UNL     1      12.920   7.374   1.081  1.00  0.00     0.000 A 
ENDBRANCH  60  73
ENDBRANCH  34  35
ENDBRANCH  27  29
ENDBRANCH  26  27
ENDBRANCH  25  26
ENDBRANCH   1  25
TORSDOF 14
