REMARK SMILES COc1cc(NC(=O)c2ccc([N+](=O)[O-])cc2)c(C(=O)OCCOC(=O)c2ccc(-c3c4nc(c(-c5ccccc5)c5ccc([nH]5)c(-c5ccccc5)c5nc(c(-c6ccccc6)c6ccc3[nH]6)C=C5)C=C4)cc2)cc1OC
REMARK SMILES IDX 22 1 21 2 19 3 20 4 18 5 3 6 4 7 76 8 5 9 75 10 2 11 1 12
REMARK SMILES IDX 77 13 78 14 6 15 7 16 8 18 9 19 10 20 17 21 11 22 16 23
REMARK SMILES IDX 12 24 13 25 14 26 15 27 23 28 24 29 25 30 26 31 27 32 28 33
REMARK SMILES IDX 74 34 29 35 73 36 30 37 31 38 32 39 67 40 33 41 72 42 66 43
REMARK SMILES IDX 68 44 34 45 71 46 65 47 64 48 35 50 57 51 42 52 56 53 43 54
REMARK SMILES IDX 46 55 55 56 69 57 44 58 45 59 54 61 70 62 47 63 36 64 37 65
REMARK SMILES IDX 41 66 38 67 40 68 39 69 58 70 59 71 63 72 60 73 62 74 61 75
REMARK SMILES IDX 48 76 49 77 53 78 50 79 52 80 51 81
REMARK H PARENT 6 17 68 49 46 60
REMARK Flexibility Score: inf
ROOT
ATOM      1  C   UNL     1       3.627   1.827  -7.197  1.00  0.00     0.275 C 
ENDROOT
BRANCH   1   2
ATOM      2  O   UNL     1       3.378   1.005  -6.036  1.00  0.00    -0.458 OA
BRANCH   2   3
ATOM      3  C   UNL     1       2.169   1.159  -5.449  1.00  0.00     0.340 C 
ATOM      4  O   UNL     1       1.244   1.859  -5.826  1.00  0.00    -0.246 OA
BRANCH   3   5
ATOM      5  C   UNL     1       2.108   0.387  -4.197  1.00  0.00     0.087 A 
ATOM      6  C   UNL     1       1.859  -0.627  -1.622  1.00  0.00     0.162 A 
ATOM      7  C   UNL     1       0.958  -1.018  -2.623  1.00  0.00     0.077 A 
ATOM      8  C   UNL     1       2.942   0.201  -1.921  1.00  0.00     0.161 A 
ATOM      9  C   UNL     1       1.048  -0.495  -3.917  1.00  0.00     0.060 A 
ATOM     10  C   UNL     1       3.049   0.720  -3.211  1.00  0.00     0.068 A 
BRANCH   6  11
ATOM     11  O   UNL     1       1.641  -1.096  -0.353  1.00  0.00    -0.493 OA
ATOM     12  C   UNL     1       0.569  -0.373   0.262  1.00  0.00     0.278 C 
ENDBRANCH   6  11
BRANCH   8  13
ATOM     13  O   UNL     1       3.917   0.641  -1.070  1.00  0.00    -0.493 OA
ATOM     14  C   UNL     1       4.205  -0.178   0.056  1.00  0.00     0.278 C 
ENDBRANCH   8  13
BRANCH   9  15
ATOM     15  N   UNL     1       0.161  -0.909  -4.937  1.00  0.00    -0.321 N 
ATOM     16  C   UNL     1      -1.054  -1.557  -4.870  1.00  0.00     0.255 C 
ATOM     17  H   UNL     1       0.463  -0.699  -5.851  1.00  0.00     0.170 HD
ATOM     18  O   UNL     1      -1.426  -2.266  -5.803  1.00  0.00    -0.269 OA
BRANCH  16  19
ATOM     19  C   UNL     1      -1.982  -1.346  -3.729  1.00  0.00     0.040 A 
ATOM     20  C   UNL     1      -2.790  -2.417  -3.320  1.00  0.00     0.021 A 
ATOM     21  C   UNL     1      -2.105  -0.098  -3.102  1.00  0.00     0.021 A 
ATOM     22  C   UNL     1      -3.663  -2.267  -2.238  1.00  0.00     0.086 A 
ATOM     23  C   UNL     1      -2.969   0.057  -2.014  1.00  0.00     0.086 A 
ATOM     24  C   UNL     1      -3.734  -1.034  -1.577  1.00  0.00     0.269 A 
BRANCH  24  25
ATOM     25  N   UNL     1      -4.601  -0.887  -0.402  1.00  0.00     0.062 N 
ATOM     26  O   UNL     1      -5.405  -1.797  -0.160  1.00  0.00    -0.258 OA
ATOM     27  O   UNL     1      -4.459   0.132   0.290  1.00  0.00    -0.258 OA
ENDBRANCH  24  25
ENDBRANCH  16  19
ENDBRANCH   9  15
ENDBRANCH   3   5
ENDBRANCH   2   3
ENDBRANCH   1   2
BRANCH   1  28
ATOM     28  C   UNL     1       3.331   1.062  -8.484  1.00  0.00     0.275 C 
BRANCH  28  29
ATOM     29  O   UNL     1       1.910   0.883  -8.596  1.00  0.00    -0.458 OA
BRANCH  29  30
ATOM     30  C   UNL     1       1.492  -0.277  -9.149  1.00  0.00     0.338 C 
ATOM     31  O   UNL     1       2.199  -1.148  -9.631  1.00  0.00    -0.246 OA
BRANCH  30  32
ATOM     32  C   UNL     1       0.014  -0.376  -9.057  1.00  0.00     0.060 A 
ATOM     33  C   UNL     1      -0.700   0.305  -8.069  1.00  0.00     0.016 A 
ATOM     34  C   UNL     1      -0.665  -1.246  -9.913  1.00  0.00     0.016 A 
ATOM     35  C   UNL     1      -2.051   0.032  -7.862  1.00  0.00     0.010 A 
ATOM     36  C   UNL     1      -2.043  -1.447  -9.761  1.00  0.00     0.010 A 
ATOM     37  C   UNL     1      -2.746  -0.851  -8.700  1.00  0.00    -0.014 A 
BRANCH  37  38
ATOM     38  C   UNL     1      -4.166  -1.218  -8.416  1.00  0.00     0.031 A 
ATOM     39  C   UNL     1      -4.559  -2.668  -8.266  1.00  0.00     0.074 A 
ATOM     40  C   UNL     1      -5.117  -0.277  -8.246  1.00  0.00     0.049 A 
ATOM     41  N   UNL     1      -5.755  -3.204  -8.274  1.00  0.00    -0.248 NA
ATOM     42  C   UNL     1      -3.469  -3.645  -8.111  1.00  0.00     0.031 C 
ATOM     43  C   UNL     1      -4.910   1.171  -8.287  1.00  0.00     0.029 A 
ATOM     44  N   UNL     1      -6.457  -0.409  -7.970  1.00  0.00    -0.354 N 
ATOM     45  C   UNL     1      -5.554  -4.579  -8.231  1.00  0.00     0.074 A 
ATOM     46  C   UNL     1      -4.126  -4.796  -8.159  1.00  0.00     0.031 C 
ATOM     47  C   UNL     1      -6.055   1.789  -7.959  1.00  0.00     0.029 A 
ATOM     48  C   UNL     1      -7.103   0.789  -7.788  1.00  0.00     0.049 A 
ATOM     49  H   UNL     1      -6.911  -1.280  -7.909  1.00  0.00     0.167 HD
ATOM     50  C   UNL     1      -6.476  -5.570  -8.265  1.00  0.00     0.031 A 
ATOM     51  C   UNL     1      -8.398   1.063  -7.548  1.00  0.00     0.031 A 
ATOM     52  C   UNL     1      -7.899  -5.363  -8.237  1.00  0.00     0.049 A 
ATOM     53  C   UNL     1      -9.404  -0.049  -7.540  1.00  0.00     0.074 A 
ATOM     54  C   UNL     1      -8.913  -6.304  -8.300  1.00  0.00     0.029 A 
ATOM     55  N   UNL     1      -8.507  -4.129  -8.083  1.00  0.00    -0.354 N 
ATOM     56  N   UNL     1      -9.210  -1.337  -7.679  1.00  0.00    -0.248 NA
ATOM     57  C   UNL     1     -10.815   0.338  -7.389  1.00  0.00     0.031 C 
ATOM     58  C   UNL     1     -10.138  -5.637  -8.186  1.00  0.00     0.029 A 
ATOM     59  C   UNL     1      -9.881  -4.285  -8.030  1.00  0.00     0.049 A 
ATOM     60  H   UNL     1      -8.033  -3.269  -8.021  1.00  0.00     0.167 HD
ATOM     61  C   UNL     1     -10.473  -1.910  -7.668  1.00  0.00     0.074 A 
ATOM     62  C   UNL     1     -11.424  -0.838  -7.461  1.00  0.00     0.031 C 
ATOM     63  C   UNL     1     -10.814  -3.209  -7.840  1.00  0.00     0.031 A 
BRANCH  50  64
ATOM     64  C   UNL     1      -5.973  -6.978  -8.389  1.00  0.00    -0.014 A 
ATOM     65  C   UNL     1      -5.492  -7.688  -7.281  1.00  0.00     0.009 A 
ATOM     66  C   UNL     1      -6.030  -7.616  -9.639  1.00  0.00     0.009 A 
ATOM     67  C   UNL     1      -5.057  -9.008  -7.428  1.00  0.00     0.001 A 
ATOM     68  C   UNL     1      -5.613  -8.939  -9.779  1.00  0.00     0.001 A 
ATOM     69  C   UNL     1      -5.122  -9.633  -8.674  1.00  0.00     0.000 A 
ENDBRANCH  50  64
BRANCH  51  70
ATOM     70  C   UNL     1      -8.829   2.469  -7.353  1.00  0.00    -0.014 A 
ATOM     71  C   UNL     1      -9.154   2.934  -6.070  1.00  0.00     0.009 A 
ATOM     72  C   UNL     1      -8.899   3.353  -8.440  1.00  0.00     0.009 A 
ATOM     73  C   UNL     1      -9.545   4.261  -5.881  1.00  0.00     0.001 A 
ATOM     74  C   UNL     1      -9.270   4.684  -8.243  1.00  0.00     0.001 A 
ATOM     75  C   UNL     1      -9.596   5.136  -6.965  1.00  0.00     0.000 A 
ENDBRANCH  51  70
BRANCH  63  76
ATOM     76  C   UNL     1     -12.277  -3.532  -7.831  1.00  0.00    -0.014 A 
ATOM     77  C   UNL     1     -13.057  -3.323  -8.978  1.00  0.00     0.009 A 
ATOM     78  C   UNL     1     -12.874  -4.068  -6.681  1.00  0.00     0.009 A 
ATOM     79  C   UNL     1     -14.419  -3.624  -8.966  1.00  0.00     0.001 A 
ATOM     80  C   UNL     1     -14.235  -4.379  -6.677  1.00  0.00     0.001 A 
ATOM     81  C   UNL     1     -15.007  -4.152  -7.816  1.00  0.00     0.000 A 
ENDBRANCH  63  76
ENDBRANCH  37  38
ENDBRANCH  30  32
ENDBRANCH  29  30
ENDBRANCH  28  29
ENDBRANCH   1  28
TORSDOF 16
