REMARK SMILES O=C(CCn1ccnc1)N[C@H]1C=C[C@@H](C(=O)OCCOC(=O)c2ccc(-c3c4nc(c(-c5ccccc5)c5ccc([nH]5)c(-c5ccccc5)c5nc(c(-c6ccccc6)c6ccc3[nH]6)C=C5)C=C4)cc2)C1
REMARK SMILES IDX 18 1 17 2 15 3 16 4 14 5 11 6 12 7 71 8 13 9 10 10 1 11 2 12
REMARK SMILES IDX 3 14 4 15 5 16 6 17 9 18 7 19 8 20 19 21 20 22 21 23 22 24
REMARK SMILES IDX 23 25 24 26 70 27 25 28 69 29 26 30 27 31 28 32 63 33 29 34
REMARK SMILES IDX 68 35 62 36 64 37 30 38 67 39 61 40 60 41 31 43 53 44 38 45
REMARK SMILES IDX 52 46 39 47 42 48 51 49 65 50 40 51 41 52 50 54 66 55 43 56
REMARK SMILES IDX 32 57 33 58 37 59 34 60 36 61 35 62 54 63 55 64 59 65 56 66
REMARK SMILES IDX 58 67 57 68 44 69 45 70 49 71 46 72 48 73 47 74
REMARK H PARENT 10 13 64 42 42 53
REMARK Flexibility Score: inf
ROOT
ATOM      1  C   UNL     1       6.314  -4.956   3.018  1.00  0.00     0.274 C 
ENDROOT
BRANCH   1   2
ATOM      2  O   UNL     1       5.069  -4.367   2.596  1.00  0.00    -0.462 OA
BRANCH   2   3
ATOM      3  C   UNL     1       3.937  -4.954   3.071  1.00  0.00     0.312 C 
ATOM      4  O   UNL     1       3.913  -6.013   3.693  1.00  0.00    -0.252 OA
BRANCH   3   5
ATOM      5  C   UNL     1       2.667  -4.187   2.725  1.00  0.00     0.124 C 
ATOM      6  C   UNL     1       1.955  -2.140   1.574  1.00  0.00     0.106 C 
ATOM      7  C   UNL     1       1.846  -3.345   0.698  1.00  0.00    -0.006 C 
ATOM      8  C   UNL     1       2.753  -2.656   2.773  1.00  0.00     0.048 C 
ATOM      9  C   UNL     1       2.236  -4.463   1.319  1.00  0.00    -0.014 C 
BRANCH   6  10
ATOM     10  N   UNL     1       2.687  -1.135   0.843  1.00  0.00    -0.350 N 
ATOM     11  O   UNL     1       0.875   0.153   0.292  1.00  0.00    -0.275 OA
ATOM     12  C   UNL     1       2.078  -0.080   0.216  1.00  0.00     0.222 C 
ATOM     13  H   UNL     1       3.667  -1.210   0.792  1.00  0.00     0.164 HD
BRANCH  12  14
ATOM     14  C   UNL     1       2.989   0.763  -0.648  1.00  0.00     0.122 C 
BRANCH  14  15
ATOM     15  C   UNL     1       3.971   1.614   0.150  1.00  0.00     0.133 C 
BRANCH  15  16
ATOM     16  N   UNL     1       5.118   0.926   0.712  1.00  0.00    -0.337 N 
ATOM     17  C   UNL     1       5.732   1.257   1.889  1.00  0.00     0.107 A 
ATOM     18  C   UNL     1       5.812  -0.122   0.175  1.00  0.00     0.199 A 
ATOM     19  C   UNL     1       6.725   0.320   2.052  1.00  0.00     0.130 A 
ATOM     20  N   UNL     1       6.758  -0.539   0.985  1.00  0.00    -0.245 NA
ENDBRANCH  15  16
ENDBRANCH  14  15
ENDBRANCH  12  14
ENDBRANCH   6  10
ENDBRANCH   3   5
ENDBRANCH   2   3
ENDBRANCH   1   2
BRANCH   1  21
ATOM     21  C   UNL     1       6.848  -4.304   4.290  1.00  0.00     0.275 C 
BRANCH  21  22
ATOM     22  O   UNL     1       5.999  -4.554   5.413  1.00  0.00    -0.458 OA
BRANCH  22  23
ATOM     23  C   UNL     1       5.051  -3.610   5.604  1.00  0.00     0.338 C 
ATOM     24  O   UNL     1       4.754  -2.704   4.847  1.00  0.00    -0.246 OA
BRANCH  23  25
ATOM     25  C   UNL     1       4.527  -3.661   6.967  1.00  0.00     0.060 A 
ATOM     26  C   UNL     1       3.440  -2.823   7.253  1.00  0.00     0.016 A 
ATOM     27  C   UNL     1       5.308  -4.237   7.973  1.00  0.00     0.016 A 
ATOM     28  C   UNL     1       3.253  -2.406   8.553  1.00  0.00     0.010 A 
ATOM     29  C   UNL     1       5.132  -3.805   9.265  1.00  0.00     0.010 A 
ATOM     30  C   UNL     1       4.158  -2.837   9.524  1.00  0.00    -0.014 A 
BRANCH  30  31
ATOM     31  C   UNL     1       4.067  -2.255  10.845  1.00  0.00     0.031 A 
ATOM     32  C   UNL     1       3.004  -2.816  11.705  1.00  0.00     0.074 A 
ATOM     33  C   UNL     1       4.996  -1.393  11.296  1.00  0.00     0.049 A 
ATOM     34  N   UNL     1       2.044  -2.193  12.303  1.00  0.00    -0.248 NA
ATOM     35  C   UNL     1       2.964  -4.280  11.847  1.00  0.00     0.031 C 
ATOM     36  C   UNL     1       6.262  -1.021  10.655  1.00  0.00     0.029 A 
ATOM     37  N   UNL     1       5.063  -0.775  12.506  1.00  0.00    -0.354 N 
ATOM     38  C   UNL     1       1.362  -3.166  13.025  1.00  0.00     0.074 A 
ATOM     39  C   UNL     1       1.880  -4.441  12.601  1.00  0.00     0.031 C 
ATOM     40  C   UNL     1       7.064  -0.439  11.573  1.00  0.00     0.029 A 
ATOM     41  C   UNL     1       6.324  -0.292  12.816  1.00  0.00     0.049 A 
ATOM     42  H   UNL     1       4.287  -0.680  13.105  1.00  0.00     0.167 HD
ATOM     43  C   UNL     1       0.571  -2.861  14.087  1.00  0.00     0.031 A 
ATOM     44  C   UNL     1       6.749   0.117  14.034  1.00  0.00     0.031 A 
ATOM     45  C   UNL     1       0.179  -1.480  14.101  1.00  0.00     0.049 A 
ATOM     46  C   UNL     1       5.558   0.367  14.876  1.00  0.00     0.074 A 
ATOM     47  C   UNL     1      -0.550  -0.666  13.259  1.00  0.00     0.029 A 
ATOM     48  N   UNL     1       0.856  -0.638  14.950  1.00  0.00    -0.354 N 
ATOM     49  N   UNL     1       4.724   1.346  14.679  1.00  0.00    -0.248 NA
ATOM     50  C   UNL     1       5.061  -0.710  15.719  1.00  0.00     0.031 C 
ATOM     51  C   UNL     1       0.068   0.615  13.350  1.00  0.00     0.029 A 
ATOM     52  C   UNL     1       1.124   0.515  14.258  1.00  0.00     0.049 A 
ATOM     53  H   UNL     1       1.103  -0.828  15.884  1.00  0.00     0.167 HD
ATOM     54  C   UNL     1       3.479   0.828  15.008  1.00  0.00     0.074 A 
ATOM     55  C   UNL     1       3.766  -0.387  15.764  1.00  0.00     0.031 C 
ATOM     56  C   UNL     1       2.345   1.279  14.394  1.00  0.00     0.031 A 
BRANCH  43  57
ATOM     57  C   UNL     1       0.470  -3.747  15.301  1.00  0.00    -0.014 A 
ATOM     58  C   UNL     1      -0.451  -3.423  16.309  1.00  0.00     0.009 A 
ATOM     59  C   UNL     1       1.428  -4.735  15.610  1.00  0.00     0.009 A 
ATOM     60  C   UNL     1      -0.385  -4.024  17.572  1.00  0.00     0.001 A 
ATOM     61  C   UNL     1       1.467  -5.371  16.851  1.00  0.00     0.001 A 
ATOM     62  C   UNL     1       0.574  -4.996  17.843  1.00  0.00     0.000 A 
ENDBRANCH  43  57
BRANCH  44  63
ATOM     63  C   UNL     1       8.116   0.056  14.589  1.00  0.00    -0.014 A 
ATOM     64  C   UNL     1       8.484   0.852  15.682  1.00  0.00     0.009 A 
ATOM     65  C   UNL     1       8.999  -0.965  14.191  1.00  0.00     0.009 A 
ATOM     66  C   UNL     1       9.683   0.616  16.369  1.00  0.00     0.001 A 
ATOM     67  C   UNL     1      10.198  -1.196  14.871  1.00  0.00     0.001 A 
ATOM     68  C   UNL     1      10.533  -0.413  15.970  1.00  0.00     0.000 A 
ENDBRANCH  44  63
BRANCH  56  69
ATOM     69  C   UNL     1       2.463   2.517  13.537  1.00  0.00    -0.014 A 
ATOM     70  C   UNL     1       3.280   2.568  12.393  1.00  0.00     0.009 A 
ATOM     71  C   UNL     1       1.620   3.606  13.800  1.00  0.00     0.009 A 
ATOM     72  C   UNL     1       3.280   3.689  11.559  1.00  0.00     0.001 A 
ATOM     73  C   UNL     1       1.603   4.718  12.954  1.00  0.00     0.001 A 
ATOM     74  C   UNL     1       2.437   4.762  11.837  1.00  0.00     0.000 A 
ENDBRANCH  56  69
ENDBRANCH  30  31
ENDBRANCH  23  25
ENDBRANCH  22  23
ENDBRANCH  21  22
ENDBRANCH   1  21
TORSDOF 15
