REMARK SMILES O=C(Cn1cc(/C=C(/Cl)c2nnc(C(=O)Nc3ccc(Cl)cc3)s2)nn1)OCCOC(=O)c1ccc(-c2c3nc(c(-c4ccccc4)c4ccc([nH]4)c(-c4ccccc4)c4nc(c(-c5ccccc5)c5ccc2[nH]5)C=C4)C=C3)cc1
REMARK SMILES IDX 27 1 2 2 1 3 3 4 4 5 5 6 26 7 6 8 25 9 7 10 8 11 9 12 10 13
REMARK SMILES IDX 11 14 24 15 12 16 13 17 14 18 15 19 16 20 17 22 18 23 23 24
REMARK SMILES IDX 19 25 22 26 20 27 21 28 28 29 29 30 30 31 31 32 32 33 33 34
REMARK SMILES IDX 34 35 80 36 35 37 79 38 36 39 37 40 38 41 73 42 39 43 78 44
REMARK SMILES IDX 72 45 74 46 40 47 77 48 71 49 70 50 41 52 63 53 48 54 62 55
REMARK SMILES IDX 49 56 52 57 61 58 75 59 50 60 51 61 60 63 76 64 53 65 42 66
REMARK SMILES IDX 43 67 47 68 44 69 46 70 45 71 64 72 65 73 69 74 66 75 68 76
REMARK SMILES IDX 67 77 54 78 55 79 59 80 56 81 58 82 57 83
REMARK H PARENT 16 21 74 51 52 62
REMARK Flexibility Score: inf
ROOT
ATOM      1  O   UNL     1       2.722  -0.471   1.251  1.00  0.00    -0.461 OA
ENDROOT
BRANCH   1   2
ATOM      2  C   UNL     1       2.117   0.537   0.582  1.00  0.00     0.327 C 
ATOM      3  O   UNL     1       0.951   0.828   0.859  1.00  0.00    -0.250 OA
BRANCH   2   4
ATOM      4  C   UNL     1       2.809   1.278  -0.526  1.00  0.00     0.268 C 
BRANCH   4   5
ATOM      5  N   UNL     1       3.609   2.375  -0.054  1.00  0.00    -0.241 N 
ATOM      6  C   UNL     1       3.365   3.720  -0.066  1.00  0.00     0.139 A 
ATOM      7  N   UNL     1       4.866   2.119   0.321  1.00  0.00    -0.066 NA
ATOM      8  C   UNL     1       4.500   4.247   0.508  1.00  0.00     0.107 A 
ATOM      9  N   UNL     1       5.404   3.253   0.704  1.00  0.00    -0.131 NA
BRANCH   8  10
ATOM     10  C   UNL     1       4.795   5.596   0.863  1.00  0.00     0.055 C 
ATOM     11  C   UNL     1       5.877   6.035   1.543  1.00  0.00     0.081 C 
ATOM     12  Cl  UNL     1       6.084   7.724   1.851  1.00  0.00    -0.081 Cl
BRANCH  11  13
ATOM     13  C   UNL     1       6.901   5.151   1.990  1.00  0.00     0.159 A 
ATOM     14  N   UNL     1       6.854   4.278   2.984  1.00  0.00    -0.137 NA
ATOM     15  S   UNL     1       8.350   4.956   1.060  1.00  0.00    -0.086 S 
ATOM     16  N   UNL     1       7.725   3.215   2.774  1.00  0.00    -0.133 NA
ATOM     17  C   UNL     1       8.380   3.341   1.633  1.00  0.00     0.206 A 
BRANCH  17  18
ATOM     18  C   UNL     1       9.104   2.230   1.024  1.00  0.00     0.286 C 
ATOM     19  O   UNL     1       9.871   1.508   1.674  1.00  0.00    -0.266 OA
ATOM     20  N   UNL     1       8.815   1.765  -0.264  1.00  0.00    -0.320 N 
ATOM     21  H   UNL     1       9.224   0.897  -0.486  1.00  0.00     0.170 HD
BRANCH  20  22
ATOM     22  C   UNL     1       8.043   2.325  -1.291  1.00  0.00     0.041 A 
ATOM     23  C   UNL     1       8.254   3.622  -1.753  1.00  0.00     0.027 A 
ATOM     24  C   UNL     1       7.070   1.537  -1.913  1.00  0.00     0.027 A 
ATOM     25  C   UNL     1       7.366   4.209  -2.657  1.00  0.00     0.022 A 
ATOM     26  C   UNL     1       6.187   2.114  -2.835  1.00  0.00     0.022 A 
ATOM     27  C   UNL     1       6.310   3.462  -3.163  1.00  0.00     0.041 A 
ATOM     28  Cl  UNL     1       5.150   4.204  -4.192  1.00  0.00    -0.084 Cl
ENDBRANCH  20  22
ENDBRANCH  17  18
ENDBRANCH  11  13
ENDBRANCH   8  10
ENDBRANCH   4   5
ENDBRANCH   2   4
ENDBRANCH   1   2
BRANCH   1  29
ATOM     29  C   UNL     1       4.122  -0.835   1.287  1.00  0.00     0.274 C 
BRANCH  29  30
ATOM     30  C   UNL     1       4.473  -1.973   0.345  1.00  0.00     0.275 C 
BRANCH  30  31
ATOM     31  O   UNL     1       4.308  -1.577  -1.011  1.00  0.00    -0.458 OA
BRANCH  31  32
ATOM     32  C   UNL     1       3.102  -1.832  -1.560  1.00  0.00     0.338 C 
ATOM     33  O   UNL     1       2.080  -2.171  -0.987  1.00  0.00    -0.246 OA
BRANCH  32  34
ATOM     34  C   UNL     1       3.229  -1.677  -3.011  1.00  0.00     0.060 A 
ATOM     35  C   UNL     1       2.085  -1.837  -3.797  1.00  0.00     0.016 A 
ATOM     36  C   UNL     1       4.508  -1.564  -3.579  1.00  0.00     0.016 A 
ATOM     37  C   UNL     1       2.245  -2.072  -5.147  1.00  0.00     0.010 A 
ATOM     38  C   UNL     1       4.668  -1.813  -4.915  1.00  0.00     0.010 A 
ATOM     39  C   UNL     1       3.543  -2.147  -5.661  1.00  0.00    -0.014 A 
BRANCH  39  40
ATOM     40  C   UNL     1       3.739  -2.541  -7.036  1.00  0.00     0.031 A 
ATOM     41  C   UNL     1       3.479  -1.451  -8.000  1.00  0.00     0.074 A 
ATOM     42  C   UNL     1       4.268  -3.739  -7.352  1.00  0.00     0.049 A 
ATOM     43  N   UNL     1       2.524  -1.384  -8.863  1.00  0.00    -0.248 NA
ATOM     44  C   UNL     1       4.273  -0.215  -7.879  1.00  0.00     0.031 C 
ATOM     45  C   UNL     1       4.832  -4.750  -6.450  1.00  0.00     0.029 A 
ATOM     46  N   UNL     1       4.522  -4.258  -8.580  1.00  0.00    -0.354 N 
ATOM     47  C   UNL     1       2.722  -0.189  -9.544  1.00  0.00     0.074 A 
ATOM     48  C   UNL     1       3.670   0.570  -8.771  1.00  0.00     0.031 C 
ATOM     49  C   UNL     1       5.568  -5.630  -7.171  1.00  0.00     0.029 A 
ATOM     50  C   UNL     1       5.412  -5.325  -8.583  1.00  0.00     0.049 A 
ATOM     51  H   UNL     1       4.109  -3.907  -9.402  1.00  0.00     0.167 HD
ATOM     52  C   UNL     1       2.317  -0.044 -10.834  1.00  0.00     0.031 A 
ATOM     53  C   UNL     1       6.018  -5.864  -9.672  1.00  0.00     0.031 A 
ATOM     54  C   UNL     1       1.368  -1.061 -11.208  1.00  0.00     0.049 A 
ATOM     55  C   UNL     1       5.246  -5.436 -10.864  1.00  0.00     0.074 A 
ATOM     56  C   UNL     1       0.121  -1.440 -10.752  1.00  0.00     0.029 A 
ATOM     57  N   UNL     1       1.852  -2.131 -11.925  1.00  0.00    -0.354 N 
ATOM     58  N   UNL     1       4.033  -5.838 -11.110  1.00  0.00    -0.248 NA
ATOM     59  C   UNL     1       5.637  -4.196 -11.518  1.00  0.00     0.031 C 
ATOM     60  C   UNL     1       0.127  -2.864 -10.809  1.00  0.00     0.029 A 
ATOM     61  C   UNL     1       1.337  -3.274 -11.372  1.00  0.00     0.049 A 
ATOM     62  H   UNL     1       2.459  -2.083 -12.698  1.00  0.00     0.167 HD
ATOM     63  C   UNL     1       3.371  -4.705 -11.559  1.00  0.00     0.074 A 
ATOM     64  C   UNL     1       4.431  -3.748 -11.880  1.00  0.00     0.031 C 
ATOM     65  C   UNL     1       2.031  -4.543 -11.346  1.00  0.00     0.031 A 
BRANCH  52  66
ATOM     66  C   UNL     1       3.114   0.725 -11.857  1.00  0.00    -0.014 A 
ATOM     67  C   UNL     1       2.600   0.840 -13.159  1.00  0.00     0.009 A 
ATOM     68  C   UNL     1       4.463   1.089 -11.675  1.00  0.00     0.009 A 
ATOM     69  C   UNL     1       3.415   1.224 -14.230  1.00  0.00     0.001 A 
ATOM     70  C   UNL     1       5.268   1.514 -12.733  1.00  0.00     0.001 A 
ATOM     71  C   UNL     1       4.750   1.553 -14.018  1.00  0.00     0.000 A 
ENDBRANCH  52  66
BRANCH  53  72
ATOM     72  C   UNL     1       7.371  -6.452  -9.792  1.00  0.00    -0.014 A 
ATOM     73  C   UNL     1       7.723  -7.229 -10.909  1.00  0.00     0.009 A 
ATOM     74  C   UNL     1       8.410  -6.014  -8.951  1.00  0.00     0.009 A 
ATOM     75  C   UNL     1       9.065  -7.519 -11.194  1.00  0.00     0.001 A 
ATOM     76  C   UNL     1       9.750  -6.305  -9.234  1.00  0.00     0.001 A 
ATOM     77  C   UNL     1      10.079  -7.044 -10.365  1.00  0.00     0.000 A 
ENDBRANCH  53  72
BRANCH  65  78
ATOM     78  C   UNL     1       1.253  -5.724 -10.814  1.00  0.00    -0.014 A 
ATOM     79  C   UNL     1       1.508  -6.323  -9.566  1.00  0.00     0.009 A 
ATOM     80  C   UNL     1       0.126  -6.146 -11.534  1.00  0.00     0.009 A 
ATOM     81  C   UNL     1       0.674  -7.333  -9.072  1.00  0.00     0.001 A 
ATOM     82  C   UNL     1      -0.717  -7.138 -11.031  1.00  0.00     0.001 A 
ATOM     83  C   UNL     1      -0.440  -7.736  -9.804  1.00  0.00     0.000 A 
ENDBRANCH  65  78
ENDBRANCH  39  40
ENDBRANCH  32  34
ENDBRANCH  31  32
ENDBRANCH  30  31
ENDBRANCH  29  30
ENDBRANCH   1  29
TORSDOF 16
