REMARK SMILES CC(=O)Oc1ccccc1SCCCCCC(=O)OCCOC(=O)c1ccc(-c2c3nc(c(-c4ccccc4)c4ccc([nH]4)c(-c4ccccc4)c4nc(c(-c5ccccc5)c5ccc2[nH]5)C=C4)C=C3)cc1
REMARK SMILES IDX 16 1 15 2 14 3 13 4 12 5 11 6 10 7 5 8 6 9 7 10 9 11 8 12
REMARK SMILES IDX 4 13 2 14 1 15 3 16 17 17 18 18 19 19 20 20 21 21 22 22
REMARK SMILES IDX 23 23 24 24 25 25 26 26 72 27 27 28 71 29 28 30 29 31 30 32
REMARK SMILES IDX 65 33 31 34 70 35 64 36 66 37 32 38 69 39 63 40 62 41 33 43
REMARK SMILES IDX 55 44 40 45 54 46 41 47 44 48 53 49 67 50 42 51 43 52 52 54
REMARK SMILES IDX 68 55 45 56 34 57 35 58 39 59 36 60 38 61 37 62 56 63 57 64
REMARK SMILES IDX 61 65 58 66 60 67 59 68 46 69 47 70 51 71 48 72 50 73 49 74
REMARK H PARENT 66 42 44 53
REMARK Flexibility Score: inf
ROOT
ATOM      1  C   UNL     1       2.656  -0.666  -0.297  1.00  0.00     0.123 C 
ENDROOT
BRANCH   1   2
ATOM      2  C   UNL     1       2.265  -2.124  -0.626  1.00  0.00     0.012 C 
BRANCH   2   3
ATOM      3  C   UNL     1       1.198  -2.828   0.245  1.00  0.00     0.001 C 
BRANCH   3   4
ATOM      4  C   UNL     1       0.024  -2.106   0.935  1.00  0.00     0.011 C 
BRANCH   4   5
ATOM      5  C   UNL     1      -1.311  -1.642   0.300  1.00  0.00     0.075 C 
BRANCH   5   6
ATOM      6  S   UNL     1      -2.483  -2.577  -0.771  1.00  0.00    -0.122 SA
BRANCH   6   7
ATOM      7  C   UNL     1      -1.589  -3.135  -2.202  1.00  0.00     0.050 A 
ATOM      8  C   UNL     1      -0.903  -2.366  -3.155  1.00  0.00     0.144 A 
ATOM      9  C   UNL     1      -0.107  -2.990  -4.130  1.00  0.00     0.048 A 
ATOM     10  C   UNL     1      -0.091  -4.384  -4.236  1.00  0.00     0.004 A 
ATOM     11  C   UNL     1      -1.667  -4.522  -2.423  1.00  0.00     0.019 A 
ATOM     12  C   UNL     1      -0.928  -5.145  -3.429  1.00  0.00     0.001 A 
BRANCH   8  13
ATOM     13  O   UNL     1      -1.119  -0.975  -3.297  1.00  0.00    -0.426 OA
BRANCH  13  14
ATOM     14  C   UNL     1      -0.364  -0.244  -2.432  1.00  0.00     0.308 C 
ATOM     15  C   UNL     1      -0.565   1.222  -2.460  1.00  0.00     0.139 C 
ATOM     16  O   UNL     1       0.443  -0.714  -1.645  1.00  0.00    -0.252 OA
ENDBRANCH  13  14
ENDBRANCH   8  13
ENDBRANCH   6   7
ENDBRANCH   5   6
ENDBRANCH   4   5
ENDBRANCH   3   4
ENDBRANCH   2   3
ENDBRANCH   1   2
BRANCH   1  17
ATOM     17  C   UNL     1       3.920  -0.546   0.504  1.00  0.00     0.305 C 
ATOM     18  O   UNL     1       4.764   0.322   0.324  1.00  0.00    -0.252 OA
BRANCH  17  19
ATOM     19  O   UNL     1       4.006  -1.559   1.400  1.00  0.00    -0.462 OA
BRANCH  19  20
ATOM     20  C   UNL     1       5.338  -2.026   1.651  1.00  0.00     0.274 C 
BRANCH  20  21
ATOM     21  C   UNL     1       5.803  -2.896   0.476  1.00  0.00     0.275 C 
BRANCH  21  22
ATOM     22  O   UNL     1       6.136  -2.056  -0.650  1.00  0.00    -0.458 OA
BRANCH  22  23
ATOM     23  C   UNL     1       5.751  -2.498  -1.868  1.00  0.00     0.338 C 
ATOM     24  O   UNL     1       5.177  -3.539  -2.136  1.00  0.00    -0.246 OA
BRANCH  23  25
ATOM     25  C   UNL     1       6.215  -1.557  -2.900  1.00  0.00     0.060 A 
ATOM     26  C   UNL     1       5.633  -0.296  -3.056  1.00  0.00     0.016 A 
ATOM     27  C   UNL     1       7.207  -1.991  -3.778  1.00  0.00     0.016 A 
ATOM     28  C   UNL     1       6.028   0.524  -4.119  1.00  0.00     0.010 A 
ATOM     29  C   UNL     1       7.645  -1.144  -4.795  1.00  0.00     0.010 A 
ATOM     30  C   UNL     1       7.051   0.116  -4.988  1.00  0.00    -0.014 A 
BRANCH  30  31
ATOM     31  C   UNL     1       7.536   0.971  -6.106  1.00  0.00     0.031 A 
ATOM     32  C   UNL     1       7.462   0.457  -7.520  1.00  0.00     0.074 A 
ATOM     33  C   UNL     1       8.141   2.147  -5.845  1.00  0.00     0.049 A 
ATOM     34  N   UNL     1       8.075   0.886  -8.593  1.00  0.00    -0.248 NA
ATOM     35  C   UNL     1       6.597  -0.713  -7.752  1.00  0.00     0.031 C 
ATOM     36  C   UNL     1       8.247   2.777  -4.527  1.00  0.00     0.029 A 
ATOM     37  N   UNL     1       8.818   3.008  -6.677  1.00  0.00    -0.354 N 
ATOM     38  C   UNL     1       7.721   0.006  -9.610  1.00  0.00     0.074 A 
ATOM     39  C   UNL     1       6.835  -0.979  -9.030  1.00  0.00     0.031 C 
ATOM     40  C   UNL     1       8.955   3.912  -4.635  1.00  0.00     0.029 A 
ATOM     41  C   UNL     1       9.425   4.047  -6.008  1.00  0.00     0.049 A 
ATOM     42  H   UNL     1       8.865   2.893  -7.653  1.00  0.00     0.167 HD
ATOM     43  C   UNL     1       8.114   0.017 -10.905  1.00  0.00     0.031 A 
ATOM     44  C   UNL     1      10.312   4.966  -6.436  1.00  0.00     0.031 A 
ATOM     45  C   UNL     1       8.977   1.019 -11.473  1.00  0.00     0.049 A 
ATOM     46  C   UNL     1      10.772   4.920  -7.869  1.00  0.00     0.074 A 
ATOM     47  C   UNL     1       9.398   1.148 -12.785  1.00  0.00     0.029 A 
ATOM     48  N   UNL     1       9.550   2.061 -10.762  1.00  0.00    -0.354 N 
ATOM     49  N   UNL     1      10.419   4.095  -8.824  1.00  0.00    -0.248 NA
ATOM     50  C   UNL     1      11.758   5.929  -8.281  1.00  0.00     0.031 C 
ATOM     51  C   UNL     1      10.280   2.229 -12.854  1.00  0.00     0.029 A 
ATOM     52  C   UNL     1      10.346   2.819 -11.602  1.00  0.00     0.049 A 
ATOM     53  H   UNL     1       9.411   2.236  -9.803  1.00  0.00     0.167 HD
ATOM     54  C   UNL     1      11.107   4.510  -9.957  1.00  0.00     0.074 A 
ATOM     55  C   UNL     1      11.889   5.666  -9.574  1.00  0.00     0.031 C 
ATOM     56  C   UNL     1      11.093   3.983 -11.204  1.00  0.00     0.031 A 
BRANCH  43  57
ATOM     57  C   UNL     1       7.663  -1.106 -11.799  1.00  0.00    -0.014 A 
ATOM     58  C   UNL     1       6.336  -1.212 -12.242  1.00  0.00     0.009 A 
ATOM     59  C   UNL     1       8.612  -2.027 -12.276  1.00  0.00     0.009 A 
ATOM     60  C   UNL     1       5.966  -2.229 -13.128  1.00  0.00     0.001 A 
ATOM     61  C   UNL     1       8.246  -3.024 -13.182  1.00  0.00     0.001 A 
ATOM     62  C   UNL     1       6.922  -3.127 -13.603  1.00  0.00     0.000 A 
ENDBRANCH  43  57
BRANCH  44  63
ATOM     63  C   UNL     1      10.882   5.968  -5.493  1.00  0.00    -0.014 A 
ATOM     64  C   UNL     1      10.631   7.338  -5.664  1.00  0.00     0.009 A 
ATOM     65  C   UNL     1      11.721   5.564  -4.441  1.00  0.00     0.009 A 
ATOM     66  C   UNL     1      11.241   8.282  -4.833  1.00  0.00     0.001 A 
ATOM     67  C   UNL     1      12.298   6.506  -3.587  1.00  0.00     0.001 A 
ATOM     68  C   UNL     1      12.071   7.865  -3.794  1.00  0.00     0.000 A 
ENDBRANCH  44  63
BRANCH  56  69
ATOM     69  C   UNL     1      11.883   4.692 -12.267  1.00  0.00    -0.014 A 
ATOM     70  C   UNL     1      13.285   4.643 -12.297  1.00  0.00     0.009 A 
ATOM     71  C   UNL     1      11.201   5.362 -13.295  1.00  0.00     0.009 A 
ATOM     72  C   UNL     1      13.987   5.273 -13.326  1.00  0.00     0.001 A 
ATOM     73  C   UNL     1      11.904   5.961 -14.339  1.00  0.00     0.001 A 
ATOM     74  C   UNL     1      13.297   5.923 -14.350  1.00  0.00     0.000 A 
ENDBRANCH  56  69
ENDBRANCH  30  31
ENDBRANCH  23  25
ENDBRANCH  22  23
ENDBRANCH  21  22
ENDBRANCH  20  21
ENDBRANCH  19  20
ENDBRANCH  17  19
ENDBRANCH   1  17
TORSDOF 19
